data_PCOD8209477
_publ_section_title
;
Structure prediction by ZEFSAII (Michael W. Deem and Ramdas Pophale) SiO2 
 PCOD8209477
Probable space group: P M M A
;
_chemical_formula_sum "Si O2"
_cell_formula_units_Z 44
_cell_length_a 9.347709
_cell_length_b 8.102982
_cell_length_c 29.684022
_cell_angle_alpha 90.000000
_cell_angle_beta 90.000000
_cell_angle_gamma 90.000000
_cell_volume 2248.395995
_symmetry_space_group_name_H-M "P M M A"
_symmetry_group_IT_number 51
_symmetry_cell_setting 'orthorhombic'
loop_
_space_group_symop_operation_xyz
x,y,z
1/2-x,-y,z
1/2+x,-y,-z
-x,y,-z
-x,-y,-z
1/2+x,y,-z
1/2-x,y,z
x,-y,z
loop_
_atom_site_type_symbol
_atom_site_label
_atom_site_fract_x
_atom_site_fract_y
_atom_site_fract_z
Si Si1 0.414419 0.305367 0.543561
Si Si2 0.586099 0.311325 0.722649
Si Si3 0.590195 0.188445 0.196812
Si Si4 0.580160 0.316335 0.103724
Si Si5 0.078903 0.000000 0.952937
Si Si6 0.410702 0.190928 0.372435
O O1 0.500000 0.240960 0.500000
O O2 0.250000 0.250107 0.538801
O O3 0.429526 0.500000 0.548544
O O4 0.481404 0.222235 0.587152
O O5 0.750000 0.254517 0.724493
O O6 0.565240 0.500000 0.736372
O O7 0.501642 0.202285 0.758210
O O8 0.529819 0.283903 0.671805
O O9 0.750000 0.251312 0.208035
O O10 0.523855 0.290880 0.154934
O O11 0.593398 0.000000 0.180797
O O12 0.750000 0.305923 0.104885
O O13 0.530021 0.500000 0.086980
O O14 0.524755 0.167317 0.072149
O O15 0.250000 0.000000 0.959092
O O16 0.000000 0.000000 0.000000
O O17 0.250000 0.253655 0.385036
O O18 0.407428 0.000000 0.360571
#
# Coordination Sequence:
#
# PCOD8209477 Si02
#       6
#     8   8   8   8   4   8
#     4  10  21  37  58  82 106 135 173 217 266 319
#     4  10  21  36  54  78 109 145 182 221 270 326
#     4  10  19  33  55  82 109 140 183 229 271 323
#     4   9  17  32  55  80 108 144 184 228 277 330
#     4  10  20  36  56  80 110 144 186 230 279 334
#     4  10  21  37  56  77 104 140 179 217 263 319
#
# _framework density 19.569507999999999
#
# number of rings (size 3 to 8) (size 9 to 14) (size 15 to 20)
#    0.000    2.182    0.909    2.182    0.000    5.818 
#    0.000    0.909    0.000    1.091    0.000    0.000 
#    0.000    0.000    0.000    0.000    0.000    0.000 
#
# Total GULP energy -545558.254354 kJ/mol
# GULP energy per Si atom -12399.051235 kJ/mol
# Density = 1.952497 g / cm^3
# Si number density = 19.569508 Si / 1000 Ang^3
#
#
#
# Elastic Constant Matrix: (Units=GPa)
#
#
# Indices 1 2 3 4 5 6 
#
# 1 63.4196 28.8690 48.1522 0.0000 0.0000 0.0000
# 2 28.8690 93.5233 49.1876 0.0000 0.0000 0.0000
# 3 48.1522 49.1876 136.8984 0.0000 0.0000 0.0000
# 4 0.0000 0.0000 0.0000 32.2855 0.0000 0.0000
# 5 0.0000 0.0000 0.0000 0.0000 36.0172 0.0000
# 6 0.0000 0.0000 0.0000 0.0000 0.0000 21.3030
#
#
#
# Elastic Compliance Matrix: (Units=1/GPa)
#
#
# Indices 1 2 3 4 5 6 
#
# 1 0.022362 -0.003410 -0.006640 0.000000 0.000000 0.000000
# 2 -0.003410 0.013704 -0.003724 0.000000 0.000000 0.000000
# 3 -0.006640 -0.003724 0.010978 0.000000 0.000000 0.000000
# 4 0.000000 0.000000 0.000000 0.030974 0.000000 0.000000
# 5 0.000000 0.000000 0.000000 0.000000 0.027765 0.000000
# 6 0.000000 0.000000 0.000000 0.000000 0.000000 0.046942
#
#
# Mechanical properties :
#
#
# Convention : Reuss Voigt Hill
#
# Bulk Modulus (GPa) = 51.29594 60.69540 55.99567
# Shear Modulus (GPa) = 26.77053 29.09665 27.93359
#
# Velocity S-wave (km/s) = 3.70262 3.86013 3.78220
# Velocity P-wave (km/s) = 6.67445 7.13794 6.91008
#
# Compressibility (1/GPa) = 0.01949472
#
# Stress axis : x y z
#
# Youngs Moduli (GPa) = 44.71847 72.97134 91.08785
#
# Poissons Ratio (x) = 0.24886 0.60484
# Poissons Ratio (y) = 0.15251 0.33924
# Poissons Ratio (z) = 0.29694 0.27176
#
# Static dielectric constant tensor:
#      x y z
#    x 3.314580 0.000000 0.000000 
#    y 0.000000 3.669900 0.000000 
#    z 0.000000 0.000000 3.501820 
# 
# 
# High freq. dielectric constant tensor:
#      x y z
#    x 1.732000 0.000000 0.000000 
#    y 0.000000 1.771540 0.000000 
#    z 0.000000 0.000000 1.765560 
# 
# From -- ./inp_files/36786.got.cif
#   From: 2010.03.12/outbox.cif.g09.slc.cpg/sg51_19_cif.got.tgz:36786.got - 2010.04.16 13:43:02.
