data_PCOD8209946
_publ_section_title
;
Structure prediction by ZEFSAII (Michael W. Deem and Ramdas Pophale) SiO2 
 PCOD8209946
Probable space group: P M M A
;
_chemical_formula_sum "Si O2"
_cell_formula_units_Z 64
_cell_length_a 8.954809
_cell_length_b 18.648150
_cell_length_c 19.602160
_cell_angle_alpha 90.000000
_cell_angle_beta 90.000000
_cell_angle_gamma 90.000000
_cell_volume 3273.376880
_symmetry_space_group_name_H-M "P M M A"
_symmetry_group_IT_number 51
_symmetry_cell_setting 'orthorhombic'
loop_
_space_group_symop_operation_xyz
x,y,z
1/2-x,-y,z
1/2+x,-y,-z
-x,y,-z
-x,-y,-z
1/2+x,y,-z
1/2-x,y,z
x,-y,z
loop_
_atom_site_type_symbol
_atom_site_label
_atom_site_fract_x
_atom_site_fract_y
_atom_site_fract_z
Si Si1 0.417821 0.415620 0.433712
Si Si2 0.426424 0.919946 0.327353
Si Si3 0.422958 0.852134 0.188298
Si Si4 0.586126 0.084193 0.064088
Si Si5 0.575919 0.312730 0.808276
Si Si6 0.573291 0.321835 0.334579
Si Si7 0.073101 0.200578 0.426596
Si Si8 0.425231 0.418138 0.070636
O O1 0.500000 0.382755 0.500000
O O2 0.250000 0.383232 0.429204
O O3 0.408686 0.500000 0.438824
O O4 0.517722 0.395570 0.368689
O O5 0.250000 0.925748 0.321317
O O6 0.487194 0.874685 0.262490
O O7 0.469563 0.877591 0.396365
O O8 0.497145 0.000000 0.329596
O O9 0.250000 0.870778 0.184400
O O10 0.503210 0.901377 0.133977
O O11 0.452753 0.769319 0.170713
O O12 0.750000 0.119345 0.066515
O O13 0.598791 0.000000 0.053439
O O14 0.500000 0.119205 0.000000
O O15 0.750000 0.325612 0.790110
O O16 0.473739 0.328484 0.743579
O O17 0.522274 0.365071 0.869031
O O18 0.750000 0.312146 0.340735
O O19 0.488951 0.258212 0.373403
O O20 0.250000 0.210620 0.432742
O O21 0.000000 0.209883 0.500000
O O22 0.250000 0.411603 0.059868
O O23 0.471336 0.500000 0.089316
O O24 0.500000 0.393600 0.000000
#
# Coordination Sequence:
#
# PCOD8209946 Si02
#       8
#     8   8   8   8   8   8   8   8
#     4  10  21  38  60  85 115 151 191 236 287 345
#     4   9  18  34  58  84 110 147 192 236 291 355
#     4  10  19  35  58  82 111 149 189 237 291 350
#     4  10  21  36  54  79 111 147 187 232 281 340
#     4  10  21  38  59  85 116 152 194 236 285 340
#     4  12  24  38  58  85 118 155 194 240 291 346
#     4  11  22  39  60  84 115 151 194 242 294 354
#     4   9  19  37  61  87 118 155 195 237 282 334
#
# _framework density 19.551676
#
# number of rings (size 3 to 8) (size 9 to 14) (size 15 to 20)
#    0.000    1.875    1.250    3.000    0.000    4.250 
#    0.000    2.500    0.000    1.875    0.000    0.000 
#    0.000    0.000    0.000    0.000    0.000    0.000 
#
# Total GULP energy -793573.845190 kJ/mol
# GULP energy per Si atom -12399.591331 kJ/mol
# Density = 1.950718 g / cm^3
# Si number density = 19.551676 Si / 1000 Ang^3
#
#
#
# Elastic Constant Matrix: (Units=GPa)
#
#
# Indices 1 2 3 4 5 6 
#
# 1 92.1532 30.3534 56.4021 0.0000 0.0000 0.0000
# 2 30.3534 82.0773 50.9044 0.0000 0.0000 0.0000
# 3 56.4021 50.9044 143.1153 0.0000 0.0000 0.0000
# 4 0.0000 0.0000 0.0000 35.9453 0.0000 0.0000
# 5 0.0000 0.0000 0.0000 0.0000 35.4584 0.0000
# 6 0.0000 0.0000 0.0000 0.0000 0.0000 19.1196
#
#
#
# Elastic Compliance Matrix: (Units=1/GPa)
#
#
# Indices 1 2 3 4 5 6 
#
# 1 0.014648 -0.002357 -0.004935 0.000000 0.000000 0.000000
# 2 -0.002357 0.016011 -0.004766 0.000000 0.000000 0.000000
# 3 -0.004935 -0.004766 0.010627 0.000000 0.000000 0.000000
# 4 0.000000 0.000000 0.000000 0.027820 0.000000 0.000000
# 5 0.000000 0.000000 0.000000 0.000000 0.028202 0.000000
# 6 0.000000 0.000000 0.000000 0.000000 0.000000 0.052302
#
#
# Mechanical properties :
#
#
# Convention : Reuss Voigt Hill
#
# Bulk Modulus (GPa) = 58.23548 65.85174 62.04361
# Shear Modulus (GPa) = 27.86298 30.08372 28.97335
#
# Velocity S-wave (km/s) = 3.77914 3.92685 3.85370
# Velocity P-wave (km/s) = 6.99232 7.36982 7.18355
#
# Compressibility (1/GPa) = 0.01717166
#
# Stress axis : x y z
#
# Youngs Moduli (GPa) = 68.26920 62.45646 94.09645
#
# Poissons Ratio (x) = 0.14718 0.46433
# Poissons Ratio (y) = 0.16088 0.44849
# Poissons Ratio (z) = 0.33688 0.29768
#
# Static dielectric constant tensor:
#      x y z
#    x 3.773670 0.000000 0.000000 
#    y 0.000000 3.683950 0.000000 
#    z 0.000000 0.000000 3.639520 
# 
# 
# High freq. dielectric constant tensor:
#      x y z
#    x 1.751600 0.000000 0.000000 
#    y 0.000000 1.761150 0.000000 
#    z 0.000000 0.000000 1.767360 
# 
# From -- ./inp_files/32398.got.cif
#   From: 2010.03.12/outbox.cif.g09.slc.cpg/sg51_17_cif.got.tgz:32398.got - 2010.04.16 13:43:02.
