data_PCOD8209665
_publ_section_title
;
Structure prediction by ZEFSAII (Michael W. Deem and Ramdas Pophale) SiO2 
 PCOD8209665
Probable space group: P M M A
;
_chemical_formula_sum "Si O2"
_cell_formula_units_Z 48
_cell_length_a 15.861849
_cell_length_b 9.356561
_cell_length_c 16.785618
_cell_angle_alpha 90.000000
_cell_angle_beta 90.000000
_cell_angle_gamma 90.000000
_cell_volume 2491.193144
_symmetry_space_group_name_H-M "P M M A"
_symmetry_group_IT_number 51
_symmetry_cell_setting 'orthorhombic'
loop_
_space_group_symop_operation_xyz
x,y,z
1/2-x,-y,z
1/2+x,-y,-z
-x,y,-z
-x,-y,-z
1/2+x,y,-z
1/2-x,y,z
x,-y,z
loop_
_atom_site_type_symbol
_atom_site_label
_atom_site_fract_x
_atom_site_fract_y
_atom_site_fract_z
Si Si1 0.342329 0.833103 0.185820
Si Si2 0.844576 0.336683 0.170517
Si Si3 0.594386 0.664130 0.342482
Si Si4 0.428621 0.834220 0.345498
Si Si5 0.504158 0.168222 0.092376
Si Si6 0.346432 0.160838 0.509201
O O1 0.250000 0.766461 0.163717
O O2 0.357065 0.805070 0.279644
O O3 0.419290 0.767761 0.133733
O O4 0.339169 0.000000 0.167209
O O5 0.750000 0.294625 0.142539
O O6 0.865159 0.500000 0.147378
O O7 0.846313 0.318661 0.265947
O O8 0.911853 0.236703 0.127896
O O9 0.577029 0.500000 0.363624
O O10 0.507613 0.740236 0.320919
O O11 0.639146 0.735071 0.417624
O O12 0.398692 0.786212 0.432841
O O13 0.454788 0.000000 0.345027
O O14 0.511017 0.000000 0.108309
O O15 0.500000 0.206362 0.000000
O O16 0.250000 0.163713 0.483046
O O17 0.373982 0.000000 0.533322
#
# Coordination Sequence:
#
# PCOD8209665 Si02
#       6
#     8   8   8   8   8   8
#     4   9  17  32  56  83 113 149 186 227 280 338
#     4  10  22  40  60  82 113 156 199 234 277 337
#     4  11  22  36  55  79 111 150 192 234 283 334
#     4  10  19  34  56  79 106 145 193 235 280 337
#     4  10  21  37  60  91 120 146 183 234 289 344
#     4  10  21  35  52  78 109 143 189 239 282 332
#
# _framework density 19.267876000000001
#
# number of rings (size 3 to 8) (size 9 to 14) (size 15 to 20)
#    0.000    2.000    1.667    2.000    0.000    7.667 
#    0.000    1.667    0.000    3.000    0.000    0.000 
#    0.000    0.000    0.000    0.000    0.000    0.000 
#
# Total GULP energy -595146.604607 kJ/mol
# GULP energy per Si atom -12398.887596 kJ/mol
# Density = 1.922402 g / cm^3
# Si number density = 19.267876 Si / 1000 Ang^3
#
#
#
# Elastic Constant Matrix: (Units=GPa)
#
#
# Indices 1 2 3 4 5 6 
#
# 1 134.1677 36.9810 49.6195 0.0000 0.0000 0.0000
# 2 36.9810 57.6297 40.5263 0.0000 0.0000 0.0000
# 3 49.6195 40.5263 109.5207 0.0000 0.0000 0.0000
# 4 0.0000 0.0000 0.0000 20.5645 0.0000 0.0000
# 5 0.0000 0.0000 0.0000 0.0000 21.8070 0.0000
# 6 0.0000 0.0000 0.0000 0.0000 0.0000 7.1174
#
#
#
# Elastic Compliance Matrix: (Units=1/GPa)
#
#
# Indices 1 2 3 4 5 6 
#
# 1 0.009657 -0.004218 -0.002814 0.000000 0.000000 0.000000
# 2 -0.004218 0.025298 -0.007450 0.000000 0.000000 0.000000
# 3 -0.002814 -0.007450 0.013163 0.000000 0.000000 0.000000
# 4 0.000000 0.000000 0.000000 0.048628 0.000000 0.000000
# 5 0.000000 0.000000 0.000000 0.000000 0.045857 0.000000
# 6 0.000000 0.000000 0.000000 0.000000 0.000000 0.140500
#
#
# Mechanical properties :
#
#
# Convention : Reuss Voigt Hill
#
# Bulk Modulus (GPa) = 52.21205 61.73021 56.97113
# Shear Modulus (GPa) = 15.70103 21.51052 18.60578
#
# Velocity S-wave (km/s) = 2.85771 3.34487 3.11084
# Velocity P-wave (km/s) = 6.16810 6.85748 6.52190
#
# Compressibility (1/GPa) = 0.01915267
#
# Stress axis : x y z
#
# Youngs Moduli (GPa) = 103.55468 39.52934 75.97274
#
# Poissons Ratio (x) = 0.16672 0.21382
# Poissons Ratio (y) = 0.43675 0.56601
# Poissons Ratio (z) = 0.29145 0.29450
#
# Static dielectric constant tensor:
#      x y z
#    x 3.707960 0.000000 0.000000 
#    y 0.000000 3.299680 0.000000 
#    z 0.000000 0.000000 3.512250 
# 
# 
# High freq. dielectric constant tensor:
#      x y z
#    x 1.763800 0.000000 0.000000 
#    y 0.000000 1.720790 0.000000 
#    z 0.000000 0.000000 1.751740 
# 
# From -- ./inp_files/29385.got.cif
#   From: 2010.03.12/outbox.cif.g09.slc.cpg/sg51_15_cif.got.tgz:29385.got - 2010.04.16 13:43:02.
