data_PCOD8209476
_publ_section_title
;
Structure prediction by ZEFSAII (Michael W. Deem and Ramdas Pophale) SiO2 
 PCOD8209476
Probable space group: P M M A
;
_chemical_formula_sum "Si O2"
_cell_formula_units_Z 48
_cell_length_a 28.169982
_cell_length_b 9.248883
_cell_length_c 10.011048
_cell_angle_alpha 90.000000
_cell_angle_beta 90.000000
_cell_angle_gamma 90.000000
_cell_volume 2608.287132
_symmetry_space_group_name_H-M "P M M A"
_symmetry_group_IT_number 51
_symmetry_cell_setting 'orthorhombic'
loop_
_space_group_symop_operation_xyz
x,y,z
1/2-x,-y,z
1/2+x,-y,-z
-x,y,-z
-x,-y,-z
1/2+x,y,-z
1/2-x,y,z
x,-y,z
loop_
_atom_site_type_symbol
_atom_site_label
_atom_site_fract_x
_atom_site_fract_y
_atom_site_fract_z
Si Si1 0.196377 0.668970 0.656737
Si Si2 0.554023 0.333196 0.512515
Si Si3 0.894939 0.332513 0.785629
Si Si4 0.553570 0.168900 0.015883
Si Si5 0.801724 0.671695 0.647205
Si Si6 0.392590 0.169493 0.715782
O O1 0.250000 0.699461 0.707596
O O2 0.184431 0.500000 0.669134
O O3 0.190765 0.724290 0.504426
O O4 0.158832 0.758802 0.745402
O O5 0.500000 0.282647 0.500000
O O6 0.560907 0.500000 0.469936
O O7 0.568553 0.308494 0.665149
O O8 0.586270 0.235622 0.418768
O O9 0.891554 0.500000 0.825106
O O10 0.843267 0.269694 0.742884
O O11 0.911691 0.245717 0.913214
O O12 0.571641 0.204898 0.163904
O O13 0.555182 0.000000 0.984066
O O14 0.500000 0.228639 0.000000
O O15 0.750000 0.724185 0.700101
O O16 0.803918 0.500000 0.643804
O O17 0.385580 0.000000 0.696719
#
# Coordination Sequence:
#
# PCOD8209476 Si02
#       6
#     8   8   8   8   8   8
#     4   9  17  33  58  83 110 144 178 219 272 326
#     4  10  20  34  54  81 110 137 177 234 283 326
#     4  10  19  33  55  82 106 135 178 225 272 317
#     4  10  23  41  55  71 105 151 189 220 265 325
#     4   8  14  28  52  80 108 135 166 212 267 318
#     4  11  22  35  54  80 110 146 184 226 274 324
#
# _framework density 18.402882000000002
#
# number of rings (size 3 to 8) (size 9 to 14) (size 15 to 20)
#    0.000    2.333    1.667    2.500    0.000    3.000 
#    0.000    0.833    0.000    3.500    0.000    0.000 
#    0.000    0.000    0.000    0.000    0.000    0.000 
#
# Total GULP energy -595174.564828 kJ/mol
# GULP energy per Si atom -12399.470101 kJ/mol
# Density = 1.836100 g / cm^3
# Si number density = 18.402882 Si / 1000 Ang^3
#
#
#
# Elastic Constant Matrix: (Units=GPa)
#
#
# Indices 1 2 3 4 5 6 
#
# 1 127.3151 33.7630 15.8925 0.0000 0.0000 0.0000
# 2 33.7630 50.0583 25.1276 0.0000 0.0000 0.0000
# 3 15.8925 25.1276 40.1149 0.0000 0.0000 0.0000
# 4 0.0000 0.0000 0.0000 27.7823 0.0000 0.0000
# 5 0.0000 0.0000 0.0000 0.0000 32.6088 0.0000
# 6 0.0000 0.0000 0.0000 0.0000 0.0000 18.4683
#
#
#
# Elastic Compliance Matrix: (Units=1/GPa)
#
#
# Indices 1 2 3 4 5 6 
#
# 1 0.009569 -0.006638 0.000367 0.000000 0.000000 0.000000
# 2 -0.006638 0.033744 -0.018507 0.000000 0.000000 0.000000
# 3 0.000367 -0.018507 0.036376 0.000000 0.000000 0.000000
# 4 0.000000 0.000000 0.000000 0.035994 0.000000 0.000000
# 5 0.000000 0.000000 0.000000 0.000000 0.030667 0.000000
# 6 0.000000 0.000000 0.000000 0.000000 0.000000 0.054147
#
#
# Mechanical properties :
#
#
# Convention : Reuss Voigt Hill
#
# Bulk Modulus (GPa) = 33.18700 40.78382 36.98541
# Shear Modulus (GPa) = 19.22360 25.28556 22.25458
#
# Velocity S-wave (km/s) = 3.23553 3.71077 3.48127
# Velocity P-wave (km/s) = 5.65959 6.36942 6.02497
#
# Compressibility (1/GPa) = 0.03013228
#
# Stress axis : x y z
#
# Youngs Moduli (GPa) = 104.50233 29.63480 27.49102
#
# Poissons Ratio (x) = 0.19673 -0.01010
# Poissons Ratio (y) = 0.69374 0.50878
# Poissons Ratio (z) = -0.03838 0.54845
#
# Static dielectric constant tensor:
#      x y z
#    x 3.905590 0.000000 0.000000 
#    y 0.000000 3.137430 0.000000 
#    z 0.000000 0.000000 3.144180 
# 
# 
# High freq. dielectric constant tensor:
#      x y z
#    x 1.736590 0.000000 0.000000 
#    y 0.000000 1.688480 0.000000 
#    z 0.000000 0.000000 1.692140 
# 
# From -- ./inp_files/12828.got.cif
#   From: 2010.03.12/outbox.cif.g09.slc.cpg/sg51_7_cif.got.tgz:12828.got - 2010.04.16 13:43:02.
