data_PCOD8209309
_publ_section_title
;
Structure prediction by ZEFSAII (Michael W. Deem and Ramdas Pophale) SiO2 
 PCOD8209309
Probable space group: P M M A
;
_chemical_formula_sum "Si O2"
_cell_formula_units_Z 44
_cell_length_a 8.954529
_cell_length_b 28.503976
_cell_length_c 9.399080
_cell_angle_alpha 90.000000
_cell_angle_beta 90.000000
_cell_angle_gamma 90.000000
_cell_volume 2399.018169
_symmetry_space_group_name_H-M "P M M A"
_symmetry_group_IT_number 51
_symmetry_cell_setting 'orthorhombic'
loop_
_space_group_symop_operation_xyz
x,y,z
1/2-x,-y,z
1/2+x,-y,-z
-x,y,-z
-x,-y,-z
1/2+x,y,-z
1/2-x,y,z
x,-y,z
loop_
_atom_site_type_symbol
_atom_site_label
_atom_site_fract_x
_atom_site_fract_y
_atom_site_fract_z
Si Si1 0.924711 0.821732 0.152183
Si Si2 0.927302 0.087238 0.844965
Si Si3 0.574730 0.000000 0.652991
Si Si4 0.426400 0.635241 0.651753
Si Si5 0.423678 0.718625 0.848591
Si Si6 0.925313 0.447143 0.145971
O O1 0.750000 0.833409 0.139258
O O2 0.951242 0.770358 0.221875
O O3 0.008361 0.865056 0.230041
O O4 0.000000 0.818774 0.000000
O O5 0.750000 0.090384 0.862277
O O6 0.976376 0.045263 0.742183
O O7 0.000000 0.079407 0.000000
O O8 0.500000 0.000000 0.500000
O O9 0.750000 0.000000 0.628562
O O10 0.500000 0.636272 0.500000
O O11 0.250000 0.637391 0.633345
O O12 0.486375 0.679965 0.740008
O O13 0.477907 0.587543 0.729587
O O14 0.250000 0.710473 0.876830
O O15 0.500000 0.712423 0.000000
O O16 0.750000 0.443804 0.122034
O O17 0.975033 0.500000 0.187095
O O18 0.000000 0.430640 0.000000
#
# Coordination Sequence:
#
# PCOD8209309 Si02
#       6
#     8   8   4   8   8   8
#     4   9  16  28  48  74 100 126 158 200 246 288
#     4  10  19  33  53  78 102 127 162 202 243 290
#     4  10  23  38  52  72 100 132 167 202 240 290
#     4  10  21  35  49  70 101 134 167 203 243 290
#     4   9  18  32  51  74  99 127 163 204 244 289
#     4   9  18  33  53  76 100 126 161 205 249 294
#
# _framework density 18.340834999999998
#
# number of rings (size 3 to 8) (size 9 to 14) (size 15 to 20)
#    0.000    2.545    0.000    3.000    0.000    4.000 
#    0.000    0.909    0.000    4.364    0.000    0.000 
#    0.000    0.000    0.000    0.000    0.000    0.000 
#
# Total GULP energy -545364.231696 kJ/mol
# GULP energy per Si atom -12394.641629 kJ/mol
# Density = 1.829909 g / cm^3
# Si number density = 18.340835 Si / 1000 Ang^3
#
#
#
# Elastic Constant Matrix: (Units=GPa)
#
#
# Indices 1 2 3 4 5 6 
#
# 1 57.1612 49.5631 40.3185 0.0000 0.0000 0.0000
# 2 49.5631 176.4505 89.9337 0.0000 0.0000 0.0000
# 3 40.3185 89.9337 119.9299 0.0000 0.0000 0.0000
# 4 0.0000 0.0000 0.0000 8.2214 0.0000 0.0000
# 5 0.0000 0.0000 0.0000 0.0000 30.3549 0.0000
# 6 0.0000 0.0000 0.0000 0.0000 0.0000 23.6337
#
#
#
# Elastic Compliance Matrix: (Units=1/GPa)
#
#
# Indices 1 2 3 4 5 6 
#
# 1 0.024888 -0.004413 -0.005058 0.000000 0.000000 0.000000
# 2 -0.004413 0.009956 -0.005982 0.000000 0.000000 0.000000
# 3 -0.005058 -0.005982 0.014525 0.000000 0.000000 0.000000
# 4 0.000000 0.000000 0.000000 0.121633 0.000000 0.000000
# 5 0.000000 0.000000 0.000000 0.000000 0.032944 0.000000
# 6 0.000000 0.000000 0.000000 0.000000 0.000000 0.042312
#
#
# Mechanical properties :
#
#
# Convention : Reuss Voigt Hill
#
# Bulk Modulus (GPa) = 54.16323 79.24136 66.70230
# Shear Modulus (GPa) = 17.64801 24.02378 20.83589
#
# Velocity S-wave (km/s) = 3.10534 3.62311 3.37417
# Velocity P-wave (km/s) = 6.51561 7.79752 7.18521
#
# Compressibility (1/GPa) = 0.01846271
#
# Stress axis : x y z
#
# Youngs Moduli (GPa) = 40.17952 100.44303 68.84901
#
# Poissons Ratio (x) = 0.44325 0.34823
# Poissons Ratio (y) = 0.17731 0.41187
# Poissons Ratio (z) = 0.20322 0.60087
#
# Static dielectric constant tensor:
#      x y z
#    x 3.355330 0.000000 0.000000 
#    y 0.000000 4.309230 0.000000 
#    z 0.000000 0.000000 3.126920 
# 
# 
# High freq. dielectric constant tensor:
#      x y z
#    x 1.710860 0.000000 0.000000 
#    y 0.000000 1.738840 0.000000 
#    z 0.000000 0.000000 1.675530 
# 
# From -- ./inp_files/5707.got.cif
#   From: 2010.03.12/outbox.cif.g09.slc.cpg/sg51_3_cif.got.tgz:5707.got - 2010.04.16 13:43:02.
