data_PCOD8209824
_publ_section_title
;
Structure prediction by ZEFSAII (Michael W. Deem and Ramdas Pophale) SiO2 
 PCOD8209824
Probable space group: P M M A
;
_chemical_formula_sum "Si O2"
_cell_formula_units_Z 64
_cell_length_a 8.899433
_cell_length_b 15.396071
_cell_length_c 23.834746
_cell_angle_alpha 90.000000
_cell_angle_beta 90.000000
_cell_angle_gamma 90.000000
_cell_volume 3265.748764
_symmetry_space_group_name_H-M "P M M A"
_symmetry_group_IT_number 51
_symmetry_cell_setting 'orthorhombic'
loop_
_space_group_symop_operation_xyz
x,y,z
1/2-x,-y,z
1/2+x,-y,-z
-x,y,-z
-x,-y,-z
1/2+x,y,-z
1/2-x,y,z
x,-y,z
loop_
_atom_site_type_symbol
_atom_site_label
_atom_site_fract_x
_atom_site_fract_y
_atom_site_fract_z
Si Si1 0.571703 0.761247 0.940022
Si Si2 0.926378 0.346823 0.751867
Si Si3 0.428455 0.596219 0.127670
Si Si4 0.922945 0.098337 0.138005
Si Si5 0.926875 0.746419 0.439822
Si Si6 0.077056 0.596862 0.641238
Si Si7 0.073873 0.146283 0.250290
Si Si8 0.421499 0.902905 0.637784
O O1 0.750000 0.762202 0.945335
O O2 0.512196 0.669055 0.915577
O O3 0.523944 0.838851 0.899461
O O4 0.500000 0.777045 0.000000
O O5 0.750000 0.360712 0.748984
O O6 0.991701 0.384374 0.810181
O O7 0.971298 0.246693 0.747810
O O8 0.996213 0.399079 0.700772
O O9 0.250000 0.601469 0.129822
O O10 0.482347 0.500000 0.108368
O O11 0.750000 0.128710 0.135714
O O12 0.981037 0.099944 0.201550
O O13 0.938887 0.000000 0.115282
O O14 0.750000 0.739298 0.447804
O O15 0.989983 0.666083 0.402835
O O16 0.974920 0.836039 0.409932
O O17 0.000000 0.742201 0.500000
O O18 0.250000 0.619159 0.652059
O O19 0.055317 0.500000 0.616442
O O20 0.250000 0.132683 0.239220
O O21 0.028912 0.103317 0.308780
O O22 0.250000 0.881877 0.655893
O O23 0.434734 0.000000 0.612782
#
# Coordination Sequence:
#
# PCOD8209824 Si02
#       8
#     8   8   8   8   8   8   8   8
#     4  11  23  41  62  87 117 155 199 245 292 340
#     4  10  19  34  58  87 117 151 188 227 281 342
#     4   9  18  35  59  86 118 154 190 231 282 340
#     4  11  24  41  62  88 118 155 195 237 290 348
#     4  10  22  39  57  79 109 147 190 240 285 334
#     4  10  21  37  57  83 114 148 186 230 283 339
#     4  11  21  35  59  91 121 151 188 232 284 340
#     4  10  21  38  59  83 113 151 189 227 282 345
#
# _framework density 19.597342000000001
#
# number of rings (size 3 to 8) (size 9 to 14) (size 15 to 20)
#    0.000    1.750    2.500    1.875    0.000    6.000 
#    0.000    0.000    0.000    1.875    0.000    0.000 
#    0.000    0.000    0.000    0.000    0.000    0.000 
#
# Total GULP energy -793754.307750 kJ/mol
# GULP energy per Si atom -12402.411059 kJ/mol
# Density = 1.955274 g / cm^3
# Si number density = 19.597342 Si / 1000 Ang^3
#
#
#
# Elastic Constant Matrix: (Units=GPa)
#
#
# Indices 1 2 3 4 5 6 
#
# 1 48.7378 31.2008 25.8663 0.0000 0.0000 0.0000
# 2 31.2008 121.9798 32.3075 0.0000 0.0000 0.0000
# 3 25.8663 32.3075 101.4933 0.0000 0.0000 0.0000
# 4 0.0000 0.0000 0.0000 5.6699 0.0000 0.0000
# 5 0.0000 0.0000 0.0000 0.0000 26.7758 0.0000
# 6 0.0000 0.0000 0.0000 0.0000 0.0000 23.2515
#
#
#
# Elastic Compliance Matrix: (Units=1/GPa)
#
#
# Indices 1 2 3 4 5 6 
#
# 1 0.026721 -0.005495 -0.005061 0.000000 0.000000 0.000000
# 2 -0.005495 0.010083 -0.001809 0.000000 0.000000 0.000000
# 3 -0.005061 -0.001809 0.011719 0.000000 0.000000 0.000000
# 4 0.000000 0.000000 0.000000 0.176369 0.000000 0.000000
# 5 0.000000 0.000000 0.000000 0.000000 0.037347 0.000000
# 6 0.000000 0.000000 0.000000 0.000000 0.000000 0.043008
#
#
# Mechanical properties :
#
#
# Convention : Reuss Voigt Hill
#
# Bulk Modulus (GPa) = 42.02906 50.10669 46.06788
# Shear Modulus (GPa) = 14.79696 23.32853 19.06275
#
# Velocity S-wave (km/s) = 2.75080 3.45395 3.12223
# Velocity P-wave (km/s) = 5.61979 6.44438 6.04616
#
# Compressibility (1/GPa) = 0.02379306
#
# Stress axis : x y z
#
# Youngs Moduli (GPa) = 37.42312 99.17990 85.33406
#
# Poissons Ratio (x) = 0.54494 0.43189
# Poissons Ratio (y) = 0.20562 0.15439
# Poissons Ratio (z) = 0.18940 0.17944
#
# Static dielectric constant tensor:
#      x y z
#    x 3.393780 0.000000 0.000000 
#    y 0.000000 3.896130 0.000000 
#    z 0.000000 0.000000 3.494010 
# 
# 
# High freq. dielectric constant tensor:
#      x y z
#    x 1.747280 0.000000 0.000000 
#    y 0.000000 1.782510 0.000000 
#    z 0.000000 0.000000 1.756570 
# 
# From -- ./inp_files/34822.got.cif
#   From: 2010.03.12/outbox.cif.g09.slc.cpg/sg51_18_cif.got.tgz:34822.got - 2010.04.16 13:43:02.
