data_PCOD8209738
_publ_section_title
;
Structure prediction by ZEFSAII (Michael W. Deem and Ramdas Pophale) SiO2 
 PCOD8209738
Probable space group: P M M A
;
_chemical_formula_sum "Si O2"
_cell_formula_units_Z 48
_cell_length_a 16.351051
_cell_length_b 9.251610
_cell_length_c 16.571211
_cell_angle_alpha 90.000000
_cell_angle_beta 90.000000
_cell_angle_gamma 90.000000
_cell_volume 2506.785865
_symmetry_space_group_name_H-M "P M M A"
_symmetry_group_IT_number 51
_symmetry_cell_setting 'orthorhombic'
loop_
_space_group_symop_operation_xyz
x,y,z
1/2-x,-y,z
1/2+x,-y,-z
-x,y,-z
-x,-y,-z
1/2+x,y,-z
1/2-x,y,z
x,-y,z
loop_
_atom_site_type_symbol
_atom_site_label
_atom_site_fract_x
_atom_site_fract_y
_atom_site_fract_z
Si Si1 0.914990 0.169121 0.955508
Si Si2 0.341805 0.165252 0.377192
Si Si3 0.654079 0.667840 0.471526
Si Si4 0.750000 0.326326 0.014725
Si Si5 0.750000 0.328790 0.199155
Si Si6 0.400059 0.671436 0.700438
Si Si7 0.047680 0.164111 0.228871
O O1 0.924989 0.200595 0.861119
O O2 0.898421 0.000000 0.973300
O O3 0.834582 0.260260 0.980008
O O4 0.000000 0.217845 0.000000
O O5 0.250000 0.221672 0.369839
O O6 0.384425 0.254748 0.449651
O O7 0.377347 0.190218 0.288784
O O8 0.347471 0.000000 0.403707
O O9 0.750000 0.701448 0.460897
O O10 0.637336 0.500000 0.483208
O O11 0.608631 0.727405 0.391533
O O12 0.750000 0.500000 0.001825
O O13 0.750000 0.278914 0.107361
O O14 0.750000 0.500000 0.205550
O O15 0.828117 0.263842 0.244585
O O16 0.397433 0.500000 0.700583
O O17 0.481351 0.723726 0.742123
O O18 0.014594 0.000000 0.234505
#
# Coordination Sequence:
#
# PCOD8209738 Si02
#       7
#     8   8   8   4   4   8   8
#     4  10  22  41  63  86 117 156 197 242 294 352
#     4   9  19  35  54  74 102 144 186 224 272 326
#     4   9  17  32  54  79 107 142 183 225 269 321
#     4  11  23  37  61  92 117 150 192 239 297 353
#     4   9  18  35  57  82 111 144 178 217 275 341
#     4  10  19  34  57  81 110 146 182 222 274 332
#     4  10  22  37  55  80 110 145 186 231 279 329
#
# _framework density 19.148025000000001
#
# number of rings (size 3 to 8) (size 9 to 14) (size 15 to 20)
#    0.000    2.333    0.833    1.250    1.167    3.000 
#    0.000    4.583    0.000    0.000    0.000    0.000 
#    0.000    0.000    0.000    0.000    0.000    0.000 
#
# Total GULP energy -594970.265021 kJ/mol
# GULP energy per Si atom -12395.213855 kJ/mol
# Density = 1.910444 g / cm^3
# Si number density = 19.148025 Si / 1000 Ang^3
#
#
#
# Elastic Constant Matrix: (Units=GPa)
#
#
# Indices 1 2 3 4 5 6 
#
# 1 98.5266 38.3373 63.9495 0.0000 0.0000 0.0000
# 2 38.3373 43.7159 52.4949 0.0000 0.0000 0.0000
# 3 63.9495 52.4949 184.5831 0.0000 0.0000 0.0000
# 4 0.0000 0.0000 0.0000 30.0833 0.0000 0.0000
# 5 0.0000 0.0000 0.0000 0.0000 29.6862 0.0000
# 6 0.0000 0.0000 0.0000 0.0000 0.0000 49.1581
#
#
#
# Elastic Compliance Matrix: (Units=1/GPa)
#
#
# Indices 1 2 3 4 5 6 
#
# 1 0.016060 -0.011242 -0.002367 0.000000 0.000000 0.000000
# 2 -0.011242 0.042608 -0.008223 0.000000 0.000000 0.000000
# 3 -0.002367 -0.008223 0.008576 0.000000 0.000000 0.000000
# 4 0.000000 0.000000 0.000000 0.033241 0.000000 0.000000
# 5 0.000000 0.000000 0.000000 0.000000 0.033686 0.000000
# 6 0.000000 0.000000 0.000000 0.000000 0.000000 0.020343
#
#
# Mechanical properties :
#
#
# Convention : Reuss Voigt Hill
#
# Bulk Modulus (GPa) = 42.40715 70.70990 56.55852
# Shear Modulus (GPa) = 24.26749 33.25509 28.76129
#
# Velocity S-wave (km/s) = 3.56387 4.17194 3.87983
# Velocity P-wave (km/s) = 6.25539 7.75983 7.04787
#
# Compressibility (1/GPa) = 0.02358093
#
# Stress axis : x y z
#
# Youngs Moduli (GPa) = 62.26595 23.46987 116.60240
#
# Poissons Ratio (x) = 0.26385 0.27599
# Poissons Ratio (y) = 0.69999 0.95879
# Poissons Ratio (z) = 0.14738 0.19299
#
# Static dielectric constant tensor:
#      x y z
#    x 2.946500 0.000000 0.000000 
#    y 0.000000 3.349880 0.000000 
#    z 0.000000 0.000000 3.838000 
# 
# 
# High freq. dielectric constant tensor:
#      x y z
#    x 1.742180 0.000000 0.000000 
#    y 0.000000 1.725850 0.000000 
#    z 0.000000 0.000000 1.765290 
# 
# From -- ./inp_files/24929.got.cif
#   From: 2010.03.12/outbox.cif.g09.slc.cpg/sg51_13_cif.got.tgz:24929.got - 2010.04.16 13:43:02.
