data_PCOD8209879
_publ_section_title
;
Structure prediction by ZEFSAII (Michael W. Deem and Ramdas Pophale) SiO2 
 PCOD8209879
Probable space group: P M M A
;
_chemical_formula_sum "Si O2"
_cell_formula_units_Z 64
_cell_length_a 8.804415
_cell_length_b 16.075439
_cell_length_c 23.453750
_cell_angle_alpha 90.000000
_cell_angle_beta 90.000000
_cell_angle_gamma 90.000000
_cell_volume 3319.522666
_symmetry_space_group_name_H-M "P M M A"
_symmetry_group_IT_number 51
_symmetry_cell_setting 'orthorhombic'
loop_
_space_group_symop_operation_xyz
x,y,z
1/2-x,-y,z
1/2+x,-y,-z
-x,y,-z
-x,-y,-z
1/2+x,y,-z
1/2-x,y,z
x,-y,z
loop_
_atom_site_type_symbol
_atom_site_label
_atom_site_fract_x
_atom_site_fract_y
_atom_site_fract_z
Si Si1 0.074154 0.318501 0.135107
Si Si2 0.932027 0.250023 0.628007
Si Si3 0.924282 0.907502 0.836953
Si Si4 0.929004 0.094755 0.438121
Si Si5 0.429140 0.173036 0.937923
Si Si6 0.913423 0.593918 0.052367
Si Si7 0.570846 0.405034 0.438217
Si Si8 0.073091 0.232250 0.245268
O O1 0.250000 0.305694 0.123684
O O2 0.037783 0.309059 0.202276
O O3 0.982499 0.256842 0.093351
O O4 0.012084 0.405850 0.111325
O O5 0.750000 0.252129 0.623422
O O6 0.997491 0.248552 0.692782
O O7 0.992562 0.164731 0.600539
O O8 0.996679 0.335360 0.601936
O O9 0.750000 0.880236 0.848862
O O10 0.993037 0.849264 0.786762
O O11 0.015515 0.900959 0.896050
O O12 0.935524 0.000000 0.812993
O O13 0.750000 0.112411 0.441239
O O14 0.000000 0.104725 0.500000
O O15 0.960002 0.000000 0.415362
O O16 0.250000 0.169529 0.944147
O O17 0.500000 0.160944 0.000000
O O18 0.750000 0.638135 0.060523
O O19 0.885587 0.500000 0.034565
O O20 0.000000 0.639647 0.000000
O O21 0.500000 0.392224 0.500000
O O22 0.750000 0.389231 0.441717
O O23 0.536900 0.500000 0.416516
O O24 0.250000 0.219766 0.255651
#
# Coordination Sequence:
#
# PCOD8209879 Si02
#       8
#     8   8   8   8   8   8   8   8
#     4  10  19  35  55  72  96 130 170 212 254 302
#     4  11  21  35  58  85 114 148 187 230 274 324
#     4   9  18  35  56  75  99 132 171 217 264 309
#     4  10  21  37  56  81 115 152 189 229 274 325
#     4  11  21  33  50  73 100 129 165 208 259 318
#     4  10  20  33  50  75 104 131 162 202 252 310
#     4  10  21  38  60  86 116 149 185 226 274 327
#     4   8  18  35  54  77 102 135 178 217 255 306
#
# _framework density 19.279879999999999
#
# number of rings (size 3 to 8) (size 9 to 14) (size 15 to 20)
#    0.000    2.125    0.000    4.500    0.000    3.250 
#    0.000    8.125    0.000    3.750    0.000    0.000 
#    0.000    0.000    0.000    0.000    0.000    0.000 
#
# Total GULP energy -792910.464134 kJ/mol
# GULP energy per Si atom -12389.226002 kJ/mol
# Density = 1.923600 g / cm^3
# Si number density = 19.279880 Si / 1000 Ang^3
#
#
#
# Elastic Constant Matrix: (Units=GPa)
#
#
# Indices 1 2 3 4 5 6 
#
# 1 121.4639 49.1353 66.6149 0.0000 0.0000 0.0000
# 2 49.1353 97.0826 68.9754 0.0000 0.0000 0.0000
# 3 66.6149 68.9754 160.2169 0.0000 0.0000 0.0000
# 4 0.0000 0.0000 0.0000 22.4503 0.0000 0.0000
# 5 0.0000 0.0000 0.0000 0.0000 24.9428 0.0000
# 6 0.0000 0.0000 0.0000 0.0000 0.0000 27.5995
#
#
#
# Elastic Compliance Matrix: (Units=1/GPa)
#
#
# Indices 1 2 3 4 5 6 
#
# 1 0.011421 -0.003467 -0.003256 0.000000 0.000000 0.000000
# 2 -0.003467 0.015892 -0.005400 0.000000 0.000000 0.000000
# 3 -0.003256 -0.005400 0.009920 0.000000 0.000000 0.000000
# 4 0.000000 0.000000 0.000000 0.044543 0.000000 0.000000
# 5 0.000000 0.000000 0.000000 0.000000 0.040092 0.000000
# 6 0.000000 0.000000 0.000000 0.000000 0.000000 0.036233
#
#
# Mechanical properties :
#
#
# Convention : Reuss Voigt Hill
#
# Bulk Modulus (GPa) = 77.00179 83.13495 80.06837
# Shear Modulus (GPa) = 26.78437 27.93436 27.35937
#
# Velocity S-wave (km/s) = 3.73129 3.81055 3.77113
# Velocity P-wave (km/s) = 7.65435 7.91038 7.78342
#
# Compressibility (1/GPa) = 0.01298671
#
# Stress axis : x y z
#
# Youngs Moduli (GPa) = 87.55687 62.92480 100.80466
#
# Poissons Ratio (x) = 0.21817 0.32823
# Poissons Ratio (y) = 0.30357 0.54436
# Poissons Ratio (z) = 0.28509 0.33980
#
# Static dielectric constant tensor:
#      x y z
#    x 3.726930 0.000000 0.000000 
#    y 0.000000 3.708510 0.000000 
#    z 0.000000 0.000000 3.647600 
# 
# 
# High freq. dielectric constant tensor:
#      x y z
#    x 1.752980 0.000000 0.000000 
#    y 0.000000 1.750570 0.000000 
#    z 0.000000 0.000000 1.742970 
# 
# From -- ./inp_files/32417.got.cif
#   From: 2010.03.12/outbox.cif.g09.slc.cpg/sg51_17_cif.got.tgz:32417.got - 2010.04.16 13:43:02.
