data_PCOD8209403
_publ_section_title
;
Structure prediction by ZEFSAII (Michael W. Deem and Ramdas Pophale) SiO2 
 PCOD8209403
Probable space group: P M M A
;
_chemical_formula_sum "Si O2"
_cell_formula_units_Z 48
_cell_length_a 18.426167
_cell_length_b 17.089506
_cell_length_c 8.655035
_cell_angle_alpha 90.000000
_cell_angle_beta 90.000000
_cell_angle_gamma 90.000000
_cell_volume 2725.419383
_symmetry_space_group_name_H-M "P M M A"
_symmetry_group_IT_number 51
_symmetry_cell_setting 'orthorhombic'
loop_
_space_group_symop_operation_xyz
x,y,z
1/2-x,-y,z
1/2+x,-y,-z
-x,y,-z
-x,-y,-z
1/2+x,y,-z
1/2-x,y,z
x,-y,z
loop_
_atom_site_type_symbol
_atom_site_label
_atom_site_fract_x
_atom_site_fract_y
_atom_site_fract_z
Si Si1 0.920604 0.088040 0.432205
Si Si2 0.957189 0.806526 0.154704
Si Si3 0.425760 0.589028 0.084537
Si Si4 0.167449 0.264810 0.026643
Si Si5 0.954079 0.681117 0.642649
Si Si6 0.333214 0.208995 0.368274
O O1 0.929766 0.122550 0.260734
O O2 0.866296 0.132181 0.550175
O O3 0.000000 0.090571 0.500000
O O4 0.890531 0.000000 0.417589
O O5 0.881076 0.768414 0.109557
O O6 0.008081 0.746865 0.249372
O O7 0.000000 0.834733 0.000000
O O8 0.404224 0.500000 0.046372
O O9 0.441181 0.600833 0.265894
O O10 0.500000 0.614704 0.000000
O O11 0.358666 0.645702 0.048151
O O12 0.250000 0.266841 0.969916
O O13 0.159996 0.210846 0.180822
O O14 0.879390 0.716521 0.573408
O O15 0.000000 0.654229 0.500000
O O16 0.250000 0.217847 0.420089
#
# Coordination Sequence:
#
# PCOD8209403 Si02
#       6
#     8   8   8   8   8   8
#     4  11  22  36  55  80 107 140 180 223 278 330
#     4  12  18  35  58  80 108 140 182 235 265 322
#     4  10  19  33  54  81 110 142 180 223 275 326
#     4  10  20  34  56  82 106 144 187 224 272 324
#     4  11  18  34  57  80 105 143 184 229 266 321
#     4  10  19  35  55  78 106 141 182 223 268 327
#
# _framework density 17.611968999999998
#
# number of rings (size 3 to 8) (size 9 to 14) (size 15 to 20)
#    0.000    1.333    8.333    0.000    0.000    2.000 
#    0.000    0.833    0.000    1.000    0.000    0.000 
#    0.000    0.000    0.000    0.000    0.000    0.000 
#
# Total GULP energy -594731.270348 kJ/mol
# GULP energy per Si atom -12390.234799 kJ/mol
# Density = 1.757188 g / cm^3
# Si number density = 17.611969 Si / 1000 Ang^3
#
#
#
# Elastic Constant Matrix: (Units=GPa)
#
#
# Indices 1 2 3 4 5 6 
#
# 1 124.8790 40.3095 32.7730 0.0000 0.0000 0.0000
# 2 40.3095 86.8508 42.3672 0.0000 0.0000 0.0000
# 3 32.7730 42.3672 66.6931 0.0000 0.0000 0.0000
# 4 0.0000 0.0000 0.0000 12.2770 0.0000 0.0000
# 5 0.0000 0.0000 0.0000 0.0000 22.2946 0.0000
# 6 0.0000 0.0000 0.0000 0.0000 0.0000 20.3515
#
#
#
# Elastic Compliance Matrix: (Units=1/GPa)
#
#
# Indices 1 2 3 4 5 6 
#
# 1 0.009762 -0.003174 -0.002781 0.000000 0.000000 0.000000
# 2 -0.003174 0.017717 -0.009695 0.000000 0.000000 0.000000
# 3 -0.002781 -0.009695 0.022519 0.000000 0.000000 0.000000
# 4 0.000000 0.000000 0.000000 0.081453 0.000000 0.000000
# 5 0.000000 0.000000 0.000000 0.000000 0.044854 0.000000
# 6 0.000000 0.000000 0.000000 0.000000 0.000000 0.049136
#
#
# Mechanical properties :
#
#
# Convention : Reuss Voigt Hill
#
# Bulk Modulus (GPa) = 53.48035 56.59138 55.03586
# Shear Modulus (GPa) = 19.01337 21.84950 20.43144
#
# Velocity S-wave (km/s) = 3.28925 3.52604 3.40970
# Velocity P-wave (km/s) = 6.69756 6.98423 6.84240
#
# Compressibility (1/GPa) = 0.01869846
#
# Stress axis : x y z
#
# Youngs Moduli (GPa) = 102.43644 56.44450 44.40696
#
# Poissons Ratio (x) = 0.17918 0.12348
# Poissons Ratio (y) = 0.32518 0.43051
# Poissons Ratio (z) = 0.28483 0.54721
#
# Static dielectric constant tensor:
#      x y z
#    x 3.444400 0.000000 0.000000 
#    y 0.000000 3.175260 0.000000 
#    z 0.000000 0.000000 3.412960 
# 
# 
# High freq. dielectric constant tensor:
#      x y z
#    x 1.686700 0.000000 0.000000 
#    y 0.000000 1.657520 0.000000 
#    z 0.000000 0.000000 1.682450 
# 
# From -- ./inp_files/9805.got.cif
#   From: 2010.03.12/outbox.cif.g09.slc.cpg/sg51_5_cif.got.tgz:9805.got - 2010.04.16 13:43:02.
