data_PCOD8209625
_publ_section_title
;
Structure prediction by ZEFSAII (Michael W. Deem and Ramdas Pophale) SiO2 
 PCOD8209625
Probable space group: P M M A
;
_chemical_formula_sum "Si O2"
_cell_formula_units_Z 52
_cell_length_a 8.800058
_cell_length_b 20.445960
_cell_length_c 14.707129
_cell_angle_alpha 90.000000
_cell_angle_beta 90.000000
_cell_angle_gamma 90.000000
_cell_volume 2646.189508
_symmetry_space_group_name_H-M "P M M A"
_symmetry_group_IT_number 51
_symmetry_cell_setting 'orthorhombic'
loop_
_space_group_symop_operation_xyz
x,y,z
1/2-x,-y,z
1/2+x,-y,-z
-x,y,-z
-x,-y,-z
1/2+x,y,-z
1/2-x,y,z
x,-y,z
loop_
_atom_site_type_symbol
_atom_site_label
_atom_site_fract_x
_atom_site_fract_y
_atom_site_fract_z
Si Si1 0.930624 0.823983 0.904580
Si Si2 0.429268 0.122428 0.282639
Si Si3 0.428391 0.616113 0.407304
Si Si4 0.929385 0.236406 0.592495
Si Si5 0.924250 0.427726 0.231816
Si Si6 0.431069 0.315810 0.904845
Si Si7 0.568034 0.000000 0.601549
O O1 0.750000 0.817040 0.914793
O O2 0.975351 0.875505 0.824495
O O3 0.998274 0.753710 0.876653
O O4 0.000000 0.849212 0.000000
O O5 0.250000 0.118134 0.289803
O O6 0.488094 0.189996 0.326720
O O7 0.495109 0.061473 0.339721
O O8 0.500000 0.588581 0.500000
O O9 0.250000 0.612747 0.417872
O O10 0.486680 0.690132 0.388543
O O11 0.480316 0.571782 0.324175
O O12 0.750000 0.234031 0.582781
O O13 0.000000 0.208622 0.500000
O O14 0.750000 0.413687 0.256300
O O15 0.943480 0.500000 0.187318
O O16 0.985135 0.371603 0.164940
O O17 0.250000 0.309754 0.911433
O O18 0.500000 0.338542 0.000000
O O19 0.500000 0.000000 0.500000
O O20 0.750000 0.000000 0.592982
#
# Coordination Sequence:
#
# PCOD8209625 Si02
#       7
#     8   8   8   8   8   8   4
#     4  10  19  34  55  79 105 134 171 215 260 306
#     4   9  18  32  52  75 104 140 173 207 252 304
#     4  10  20  34  53  75 100 131 170 216 264 313
#     4   9  17  30  48  73 100 127 162 206 254 302
#     4  10  22  38  53  72 101 135 171 211 255 307
#     4  10  20  35  56  81 107 135 168 211 262 312
#     4  10  20  36  55  78 108 144 181 212 249 300
#
# _framework density 19.650898999999999
#
# number of rings (size 3 to 8) (size 9 to 14) (size 15 to 20)
#    0.000    2.308    0.000    3.692    0.000    4.000 
#    0.000    3.462    0.000    0.000    0.000    0.000 
#    0.000    0.000    0.000    0.000    0.000    0.000 
#
# Total GULP energy -644638.060072 kJ/mol
# GULP energy per Si atom -12396.885771 kJ/mol
# Density = 1.960617 g / cm^3
# Si number density = 19.650899 Si / 1000 Ang^3
#
#
#
# Elastic Constant Matrix: (Units=GPa)
#
#
# Indices 1 2 3 4 5 6 
#
# 1 56.5511 21.8571 34.5589 0.0000 0.0000 0.0000
# 2 21.8571 80.4104 63.9803 0.0000 0.0000 0.0000
# 3 34.5589 63.9803 149.5367 0.0000 0.0000 0.0000
# 4 0.0000 0.0000 0.0000 26.6273 0.0000 0.0000
# 5 0.0000 0.0000 0.0000 0.0000 33.0967 0.0000
# 6 0.0000 0.0000 0.0000 0.0000 0.0000 17.9462
#
#
#
# Elastic Compliance Matrix: (Units=1/GPa)
#
#
# Indices 1 2 3 4 5 6 
#
# 1 0.020999 -0.002800 -0.003655 0.000000 0.000000 0.000000
# 2 -0.002800 0.019228 -0.007580 0.000000 0.000000 0.000000
# 3 -0.003655 -0.007580 0.010775 0.000000 0.000000 0.000000
# 4 0.000000 0.000000 0.000000 0.037555 0.000000 0.000000
# 5 0.000000 0.000000 0.000000 0.000000 0.030214 0.000000
# 6 0.000000 0.000000 0.000000 0.000000 0.000000 0.055722
#
#
# Mechanical properties :
#
#
# Convention : Reuss Voigt Hill
#
# Bulk Modulus (GPa) = 43.60534 58.58788 51.09661
# Shear Modulus (GPa) = 23.78591 26.60749 25.19670
#
# Velocity S-wave (km/s) = 3.48289 3.68368 3.58469
# Velocity P-wave (km/s) = 6.19776 6.92616 6.57206
#
# Compressibility (1/GPa) = 0.02293297
#
# Stress axis : x y z
#
# Youngs Moduli (GPa) = 47.62160 52.00645 92.80568
#
# Poissons Ratio (x) = 0.14560 0.33922
# Poissons Ratio (y) = 0.13332 0.70347
# Poissons Ratio (z) = 0.17406 0.39421
#
# Static dielectric constant tensor:
#      x y z
#    x 3.371210 0.000000 0.000000 
#    y 0.000000 3.690820 0.000000 
#    z 0.000000 0.000000 3.802100 
# 
# 
# High freq. dielectric constant tensor:
#      x y z
#    x 1.750250 0.000000 0.000000 
#    y 0.000000 1.756490 0.000000 
#    z 0.000000 0.000000 1.773420 
# 
# From -- ./inp_files/21588.got.cif
#   From: 2010.03.12/outbox.cif.g09.slc.cpg/sg51_11_cif.got.tgz:21588.got - 2010.04.16 13:43:02.
