data_PCOD8209237
_publ_section_title
;
Structure prediction by ZEFSAII (Michael W. Deem and Ramdas Pophale) SiO2 
 PCOD8209237
Probable space group: P M M A
;
_chemical_formula_sum "Si O2"
_cell_formula_units_Z 64
_cell_length_a 28.221131
_cell_length_b 8.957639
_cell_length_c 13.271055
_cell_angle_alpha 90.000000
_cell_angle_beta 90.000000
_cell_angle_gamma 90.000000
_cell_volume 3354.852416
_symmetry_space_group_name_H-M "P M M A"
_symmetry_group_IT_number 51
_symmetry_cell_setting 'orthorhombic'
loop_
_space_group_symop_operation_xyz
x,y,z
1/2-x,-y,z
1/2+x,-y,-z
-x,y,-z
-x,-y,-z
1/2+x,y,-z
1/2-x,y,z
x,-y,z
loop_
_atom_site_type_symbol
_atom_site_label
_atom_site_fract_x
_atom_site_fract_y
_atom_site_fract_z
Si Si1 0.475874 0.173439 0.219626
Si Si2 0.306001 0.327123 0.794952
Si Si3 0.457949 0.335431 0.923121
Si Si4 0.036785 0.674989 0.419847
Si Si5 0.356294 0.323454 0.405452
Si Si6 0.862353 0.176116 0.025268
Si Si7 0.306132 0.829976 0.589966
Si Si8 0.369007 0.827117 0.197630
O O1 0.521293 0.226013 0.159202
O O2 0.484412 0.251968 0.323128
O O3 0.423934 0.218255 0.177874
O O4 0.479608 0.000000 0.232732
O O5 0.250000 0.308416 0.802733
O O6 0.321316 0.500000 0.795482
O O7 0.327236 0.244727 0.892306
O O8 0.325106 0.254409 0.690495
O O9 0.443394 0.500000 0.881291
O O10 0.412918 0.254895 0.969902
O O11 0.500000 0.358799 0.000000
O O12 0.034317 0.500000 0.407316
O O13 0.090914 0.723259 0.440334
O O14 0.000000 0.736879 0.500000
O O15 0.347925 0.500000 0.405732
O O16 0.321924 0.249382 0.486873
O O17 0.346601 0.266019 0.290738
O O18 0.867976 0.000000 0.044746
O O19 0.843018 0.203894 0.910148
O O20 0.250000 0.825413 0.590331
O O21 0.324921 0.000000 0.592205
O O22 0.364682 0.000000 0.228387
#
# Coordination Sequence:
#
# PCOD8209237 Si02
#       8
#     8   8   8   8   8   8   8   8
#     4  10  19  33  52  74 106 145 187 232 275 324
#     4  10  22  41  63  87 116 148 185 233 289 346
#     4  11  22  34  52  79 112 149 190 234 278 329
#     4   9  19  35  52  73 106 146 184 223 272 331
#     4  10  20  34  57  84 110 145 187 234 284 334
#     4  11  22  37  59  85 115 152 195 240 288 343
#     4  10  21  39  63  87 113 147 187 233 287 344
#     4   9  19  35  54  78 111 151 189 229 279 335
#
# _framework density 19.076844999999999
#
# number of rings (size 3 to 8) (size 9 to 14) (size 15 to 20)
#    0.000    2.000    1.250    2.250    0.000    5.250 
#    0.000    4.375    0.000    0.750    0.000    0.000 
#    0.000    0.000    0.000    0.000    0.000    0.000 
#
# Total GULP energy -793152.450301 kJ/mol
# GULP energy per Si atom -12393.007036 kJ/mol
# Density = 1.903343 g / cm^3
# Si number density = 19.076845 Si / 1000 Ang^3
#
#
#
# Elastic Constant Matrix: (Units=GPa)
#
#
# Indices 1 2 3 4 5 6 
#
# 1 31.8835 27.8414 33.7134 0.0000 0.0000 0.0000
# 2 27.8414 116.9827 80.3710 0.0000 0.0000 0.0000
# 3 33.7134 80.3710 146.4529 0.0000 0.0000 0.0000
# 4 0.0000 0.0000 0.0000 40.4116 0.0000 0.0000
# 5 0.0000 0.0000 0.0000 0.0000 35.4021 0.0000
# 6 0.0000 0.0000 0.0000 0.0000 0.0000 40.5423
#
#
#
# Elastic Compliance Matrix: (Units=1/GPa)
#
#
# Indices 1 2 3 4 5 6 
#
# 1 0.043619 -0.005590 -0.006973 0.000000 0.000000 0.000000
# 2 -0.005590 0.014438 -0.006637 0.000000 0.000000 0.000000
# 3 -0.006973 -0.006637 0.012075 0.000000 0.000000 0.000000
# 4 0.000000 0.000000 0.000000 0.024745 0.000000 0.000000
# 5 0.000000 0.000000 0.000000 0.000000 0.028247 0.000000
# 6 0.000000 0.000000 0.000000 0.000000 0.000000 0.024666
#
#
# Mechanical properties :
#
#
# Convention : Reuss Voigt Hill
#
# Bulk Modulus (GPa) = 31.51335 64.35230 47.93283
# Shear Modulus (GPa) = 25.41053 33.49743 29.45398
#
# Velocity S-wave (km/s) = 3.65363 4.19492 3.93359
# Velocity P-wave (km/s) = 5.86120 7.56766 6.76843
#
# Compressibility (1/GPa) = 0.03173258
#
# Stress axis : x y z
#
# Youngs Moduli (GPa) = 22.92566 69.26011 82.81283
#
# Poissons Ratio (x) = 0.38719 0.57747
# Poissons Ratio (y) = 0.12816 0.54960
# Poissons Ratio (z) = 0.15987 0.45965
#
# Static dielectric constant tensor:
#      x y z
#    x 3.200390 0.000000 0.000000 
#    y 0.000000 3.708170 0.000000 
#    z 0.000000 0.000000 3.596320 
# 
# 
# High freq. dielectric constant tensor:
#      x y z
#    x 1.718150 0.000000 0.000000 
#    y 0.000000 1.755360 0.000000 
#    z 0.000000 0.000000 1.751850 
# 
# From -- ./inp_files/19640.got.cif
#   From: 2010.03.12/outbox.cif.g09.slc.cpg/sg51_10_cif.got.tgz:19640.got - 2010.04.16 13:43:02.
