data_PCOD8209027
_publ_section_title
;
Structure prediction by ZEFSAII (Michael W. Deem and Ramdas Pophale) SiO2 
 PCOD8209027
Probable space group: P M M A
;
_chemical_formula_sum "Si O2"
_cell_formula_units_Z 64
_cell_length_a 25.541233
_cell_length_b 14.203865
_cell_length_c 9.758488
_cell_angle_alpha 90.000000
_cell_angle_beta 90.000000
_cell_angle_gamma 90.000000
_cell_volume 3540.225511
_symmetry_space_group_name_H-M "P M M A"
_symmetry_group_IT_number 51
_symmetry_cell_setting 'orthorhombic'
loop_
_space_group_symop_operation_xyz
x,y,z
1/2-x,-y,z
1/2+x,-y,-z
-x,y,-z
-x,-y,-z
1/2+x,y,-z
1/2-x,y,z
x,-y,z
loop_
_atom_site_type_symbol
_atom_site_label
_atom_site_fract_x
_atom_site_fract_y
_atom_site_fract_z
Si Si1 0.402254 0.894907 0.826253
Si Si2 0.143239 0.392022 0.634382
Si Si3 0.020458 0.392100 0.649244
Si Si4 0.190112 0.762430 0.821592
Si Si5 0.810544 0.606304 0.649036
Si Si6 0.900279 0.895748 0.849572
Si Si7 0.998546 0.774632 0.837312
Si Si8 0.190526 0.237130 0.138947
O O1 0.348031 0.847492 0.775567
O O2 0.450923 0.830500 0.780110
O O3 0.406157 0.000000 0.761850
O O4 0.404248 0.903787 0.988334
O O5 0.160776 0.500000 0.653726
O O6 0.082293 0.378329 0.660481
O O7 0.176908 0.332026 0.740590
O O8 0.155808 0.358724 0.480216
O O9 0.004202 0.500000 0.679792
O O10 0.000000 0.361840 0.500000
O O11 0.994005 0.326279 0.763662
O O12 0.250000 0.793298 0.793675
O O13 0.180564 0.739186 0.980632
O O14 0.750000 0.615266 0.608171
O O15 0.825460 0.500000 0.689691
O O16 0.824728 0.669013 0.779675
O O17 0.948364 0.835110 0.792629
O O18 0.845575 0.847815 0.808007
O O19 0.902229 0.000000 0.784023
O O20 0.000000 0.757382 0.000000
O O21 0.250000 0.205589 0.166435
#
# Coordination Sequence:
#
# PCOD8209027 Si02
#       8
#     8   8   8   8   8   8   8   8
#     4   9  17  32  52  77 108 137 169 214 263 307
#     4  10  20  35  54  75 102 138 177 213 256 314
#     4  10  22  38  54  77 108 140 172 211 263 318
#     4  10  19  32  52  80 109 138 174 215 262 311
#     4   9  18  33  52  74 100 135 177 213 251 307
#     4   9  18  31  52  80 105 134 174 215 259 313
#     4  10  19  34  58  81 104 134 174 218 261 307
#     4   9  19  33  51  78 110 138 170 217 266 309
#
# _framework density 18.077943999999999
#
# number of rings (size 3 to 8) (size 9 to 14) (size 15 to 20)
#    0.000    2.500    1.250    0.750    1.750    3.500 
#    0.000    3.750    0.000    3.750    0.000    1.750 
#    0.000    0.000    0.000    0.000    0.000    0.000 
#
# Total GULP energy -793617.770263 kJ/mol
# GULP energy per Si atom -12400.277660 kJ/mol
# Density = 1.803680 g / cm^3
# Si number density = 18.077944 Si / 1000 Ang^3
#
#
#
# Elastic Constant Matrix: (Units=GPa)
#
#
# Indices 1 2 3 4 5 6 
#
# 1 103.5290 60.1807 34.0124 0.0000 0.0000 0.0000
# 2 60.1807 132.1737 55.7281 0.0000 0.0000 0.0000
# 3 34.0124 55.7281 56.7638 0.0000 0.0000 0.0000
# 4 0.0000 0.0000 0.0000 8.0368 0.0000 0.0000
# 5 0.0000 0.0000 0.0000 0.0000 22.3186 0.0000
# 6 0.0000 0.0000 0.0000 0.0000 0.0000 30.3403
#
#
#
# Elastic Compliance Matrix: (Units=1/GPa)
#
#
# Indices 1 2 3 4 5 6 
#
# 1 0.013535 -0.004681 -0.003515 0.000000 0.000000 0.000000
# 2 -0.004681 0.014528 -0.011459 0.000000 0.000000 0.000000
# 3 -0.003515 -0.011459 0.030972 0.000000 0.000000 0.000000
# 4 0.000000 0.000000 0.000000 0.124427 0.000000 0.000000
# 5 0.000000 0.000000 0.000000 0.000000 0.044806 0.000000
# 6 0.000000 0.000000 0.000000 0.000000 0.000000 0.032960
#
#
# Mechanical properties :
#
#
# Convention : Reuss Voigt Hill
#
# Bulk Modulus (GPa) = 50.69054 65.81209 58.25132
# Shear Modulus (GPa) = 16.28078 21.64216 18.96147
#
# Velocity S-wave (km/s) = 3.00424 3.46375 3.24214
# Velocity P-wave (km/s) = 6.33520 7.24434 6.80497
#
# Compressibility (1/GPa) = 0.01972755
#
# Stress axis : x y z
#
# Youngs Moduli (GPa) = 73.88469 68.83161 32.28699
#
# Poissons Ratio (x) = 0.32218 0.11347
# Poissons Ratio (y) = 0.34583 0.36996
# Poissons Ratio (z) = 0.25967 0.78871
#
# Static dielectric constant tensor:
#      x y z
#    x 3.480850 0.000000 0.000000 
#    y 0.000000 3.477900 0.000000 
#    z 0.000000 0.000000 3.051150 
# 
# 
# High freq. dielectric constant tensor:
#      x y z
#    x 1.712390 0.000000 0.000000 
#    y 0.000000 1.701120 0.000000 
#    z 0.000000 0.000000 1.667390 
# 
# From -- ./inp_files/18826.got.cif
#   From: 2010.03.12/outbox.cif.g09.slc.cpg/sg51_10_cif.got.tgz:18826.got - 2010.04.16 13:43:02.
