data_PCOD8209411
_publ_section_title
;
Structure prediction by ZEFSAII (Michael W. Deem and Ramdas Pophale) SiO2 
 PCOD8209411
Probable space group: P M M A
;
_chemical_formula_sum "Si O2"
_cell_formula_units_Z 64
_cell_length_a 8.805040
_cell_length_b 24.183654
_cell_length_c 15.372576
_cell_angle_alpha 90.000000
_cell_angle_beta 90.000000
_cell_angle_gamma 90.000000
_cell_volume 3273.406216
_symmetry_space_group_name_H-M "P M M A"
_symmetry_group_IT_number 51
_symmetry_cell_setting 'orthorhombic'
loop_
_space_group_symop_operation_xyz
x,y,z
1/2-x,-y,z
1/2+x,-y,-z
-x,y,-z
-x,-y,-z
1/2+x,y,-z
1/2-x,y,z
x,-y,z
loop_
_atom_site_type_symbol
_atom_site_label
_atom_site_fract_x
_atom_site_fract_y
_atom_site_fract_z
Si Si1 0.072372 0.398285 0.914745
Si Si2 0.426948 0.288456 0.130541
Si Si3 0.074722 0.935010 0.410556
Si Si4 0.572846 0.139541 0.267673
Si Si5 0.927975 0.735979 0.307374
Si Si6 0.571895 0.835967 0.911387
Si Si7 0.430176 0.645863 0.410734
Si Si8 0.075969 0.562816 0.259533
O O1 0.250000 0.403897 0.921690
O O2 0.024518 0.333969 0.919204
O O3 0.019403 0.427711 0.827223
O O4 0.000000 0.427587 0.000000
O O5 0.250000 0.302593 0.122487
O O6 0.474154 0.291242 0.230895
O O7 0.468073 0.228899 0.091586
O O8 0.250000 0.918228 0.412880
O O9 0.000000 0.913751 0.500000
O O10 0.996137 0.907191 0.328413
O O11 0.050356 0.000000 0.399810
O O12 0.750000 0.129069 0.256411
O O13 0.538960 0.198686 0.312175
O O14 0.498833 0.134153 0.172395
O O15 0.750000 0.724461 0.292783
O O16 0.990797 0.705602 0.393191
O O17 0.750000 0.847171 0.911172
O O18 0.500000 0.860516 0.000000
O O19 0.500000 0.622916 0.500000
O O20 0.250000 0.652496 0.418045
O O21 0.480214 0.602382 0.336811
O O22 0.250000 0.575867 0.236568
O O23 0.053814 0.500000 0.291273
#
# Coordination Sequence:
#
# PCOD8209411 Si02
#       8
#     8   8   8   8   8   8   8   8
#     4  12  24  37  58  85 114 148 187 231 281 341
#     4  10  19  33  54  81 114 151 189 231 281 335
#     4  10  21  38  61  88 118 154 198 247 297 347
#     4  10  21  36  57  86 120 158 198 241 290 344
#     4  10  20  35  56  84 118 153 190 232 282 339
#     4  10  20  33  52  80 117 158 199 241 286 339
#     4  11  23  39  62  87 115 149 187 232 286 345
#     4  10  23  44  65  84 110 144 185 236 289 344
#
# _framework density 19.551500000000001
#
# number of rings (size 3 to 8) (size 9 to 14) (size 15 to 20)
#    0.000    1.625    1.250    3.750    0.000    6.500 
#    0.000    0.000    0.000    0.375    0.000    0.000 
#    0.000    0.000    0.000    0.000    0.000    0.000 
#
# Total GULP energy -793809.740332 kJ/mol
# GULP energy per Si atom -12403.277193 kJ/mol
# Density = 1.950700 g / cm^3
# Si number density = 19.551500 Si / 1000 Ang^3
#
#
#
# Elastic Constant Matrix: (Units=GPa)
#
#
# Indices 1 2 3 4 5 6 
#
# 1 113.6904 30.6243 65.4398 0.0000 0.0000 0.0000
# 2 30.6243 42.5384 42.1054 0.0000 0.0000 0.0000
# 3 65.4398 42.1054 149.8931 0.0000 0.0000 0.0000
# 4 0.0000 0.0000 0.0000 13.8450 0.0000 0.0000
# 5 0.0000 0.0000 0.0000 0.0000 39.8387 0.0000
# 6 0.0000 0.0000 0.0000 0.0000 0.0000 24.8832
#
#
#
# Elastic Compliance Matrix: (Units=1/GPa)
#
#
# Indices 1 2 3 4 5 6 
#
# 1 0.012462 -0.004968 -0.004045 0.000000 0.000000 0.000000
# 2 -0.004968 0.034542 -0.007534 0.000000 0.000000 0.000000
# 3 -0.004045 -0.007534 0.010554 0.000000 0.000000 0.000000
# 4 0.000000 0.000000 0.000000 0.072228 0.000000 0.000000
# 5 0.000000 0.000000 0.000000 0.000000 0.025101 0.000000
# 6 0.000000 0.000000 0.000000 0.000000 0.000000 0.040188
#
#
# Mechanical properties :
#
#
# Convention : Reuss Voigt Hill
#
# Bulk Modulus (GPa) = 40.87671 64.71785 52.79728
# Shear Modulus (GPa) = 21.15730 26.91020 24.03375
#
# Velocity S-wave (km/s) = 3.29315 3.71398 3.50988
# Velocity P-wave (km/s) = 5.95083 7.18085 6.59458
#
# Compressibility (1/GPa) = 0.02446381
#
# Stress axis : x y z
#
# Youngs Moduli (GPa) = 80.24101 28.95024 94.75187
#
# Poissons Ratio (x) = 0.14382 0.38330
# Poissons Ratio (y) = 0.39862 0.71387
# Poissons Ratio (z) = 0.32460 0.21811
#
# Static dielectric constant tensor:
#      x y z
#    x 3.634250 0.000000 0.000000 
#    y 0.000000 3.397620 0.000000 
#    z 0.000000 0.000000 3.627580 
# 
# 
# High freq. dielectric constant tensor:
#      x y z
#    x 1.773940 0.000000 0.000000 
#    y 0.000000 1.738210 0.000000 
#    z 0.000000 0.000000 1.770210 
# 
# From -- ./inp_files/22390.got.cif
#   From: 2010.03.12/outbox.cif.g09.slc.cpg/sg51_12_cif.got.tgz:22390.got - 2010.04.16 13:43:02.
