data_PCOD8209111
_publ_section_title
;
Structure prediction by ZEFSAII (Michael W. Deem and Ramdas Pophale) SiO2 
 PCOD8209111
Probable space group: P M M A
;
_chemical_formula_sum "Si O2"
_cell_formula_units_Z 52
_cell_length_a 9.351203
_cell_length_b 21.082191
_cell_length_c 14.717749
_cell_angle_alpha 90.000000
_cell_angle_beta 90.000000
_cell_angle_gamma 90.000000
_cell_volume 2901.513668
_symmetry_space_group_name_H-M "P M M A"
_symmetry_group_IT_number 51
_symmetry_cell_setting 'orthorhombic'
loop_
_space_group_symop_operation_xyz
x,y,z
1/2-x,-y,z
1/2+x,-y,-z
-x,y,-z
-x,-y,-z
1/2+x,y,-z
1/2-x,y,z
x,-y,z
loop_
_atom_site_type_symbol
_atom_site_label
_atom_site_fract_x
_atom_site_fract_y
_atom_site_fract_z
Si Si1 0.583502 0.204528 0.412071
Si Si2 0.918284 0.361456 0.902873
Si Si3 0.090347 0.500000 0.087780
Si Si4 0.587210 0.929664 0.335185
Si Si5 0.910321 0.272019 0.228878
Si Si6 0.908441 0.825277 0.075042
Si Si7 0.089771 0.928783 0.154756
O O1 0.500000 0.229489 0.500000
O O2 0.750000 0.215601 0.428235
O O3 0.550769 0.129230 0.401034
O O4 0.533192 0.248596 0.327092
O O5 0.750000 0.345147 0.917837
O O6 0.938567 0.433111 0.861385
O O7 0.982323 0.319462 0.821605
O O8 0.000000 0.352850 0.000000
O O9 0.250000 0.500000 0.051156
O O10 0.000000 0.500000 0.000000
O O11 0.750000 0.921639 0.298701
O O12 0.477712 0.925233 0.253740
O O13 0.570953 0.000000 0.382220
O O14 0.750000 0.301829 0.235100
O O15 0.902173 0.208080 0.171276
O O16 0.750000 0.838298 0.037181
O O17 0.994565 0.890482 0.083817
O O18 0.000000 0.784667 0.000000
O O19 0.250000 0.900563 0.160746
O O20 0.092871 0.000000 0.118203
#
# Coordination Sequence:
#
# PCOD8209111 Si02
#       7
#     8   8   4   8   8   8   8
#     4  10  21  37  54  77 103 132 169 214 265 318
#     4  10  19  32  53  81 113 149 182 212 251 294
#     4   8  16  30  48  76 113 146 179 214 245 290
#     4   9  17  33  55  74  96 128 163 205 264 323
#     4  10  21  37  53  74 105 137 173 214 255 303
#     4  11  22  36  52  71  97 131 168 208 253 302
#     4  10  20  33  50  72  95 122 162 209 255 305
#
# _framework density 17.921679999999999
#
# number of rings (size 3 to 8) (size 9 to 14) (size 15 to 20)
#    0.000    2.154    1.538    1.846    0.000    5.846 
#    0.000    0.000    0.000    0.000    0.000    0.538 
#    0.000    0.000    0.000    0.000    0.000    0.000 
#
# Total GULP energy -644207.702517 kJ/mol
# GULP energy per Si atom -12388.609664 kJ/mol
# Density = 1.788089 g / cm^3
# Si number density = 17.921680 Si / 1000 Ang^3
#
#
#
# Elastic Constant Matrix: (Units=GPa)
#
#
# Indices 1 2 3 4 5 6 
#
# 1 115.8711 52.5989 51.1215 0.0000 0.0000 0.0000
# 2 52.5989 91.5182 43.7684 0.0000 0.0000 0.0000
# 3 51.1215 43.7684 106.3575 0.0000 0.0000 0.0000
# 4 0.0000 0.0000 0.0000 16.0891 0.0000 0.0000
# 5 0.0000 0.0000 0.0000 0.0000 29.4983 0.0000
# 6 0.0000 0.0000 0.0000 0.0000 0.0000 20.5442
#
#
#
# Elastic Compliance Matrix: (Units=1/GPa)
#
#
# Indices 1 2 3 4 5 6 
#
# 1 0.012862 -0.005523 -0.003910 0.000000 0.000000 0.000000
# 2 -0.005523 0.015975 -0.003920 0.000000 0.000000 0.000000
# 3 -0.003910 -0.003920 0.012894 0.000000 0.000000 0.000000
# 4 0.000000 0.000000 0.000000 0.062154 0.000000 0.000000
# 5 0.000000 0.000000 0.000000 0.000000 0.033900 0.000000
# 6 0.000000 0.000000 0.000000 0.000000 0.000000 0.048675
#
#
# Mechanical properties :
#
#
# Convention : Reuss Voigt Hill
#
# Bulk Modulus (GPa) = 66.54181 67.63606 67.08893
# Shear Modulus (GPa) = 22.91738 24.31019 23.61379
#
# Velocity S-wave (km/s) = 3.57984 3.68702 3.63383
# Velocity P-wave (km/s) = 7.36864 7.47979 7.42442
#
# Compressibility (1/GPa) = 0.01502815
#
# Stress axis : x y z
#
# Youngs Moduli (GPa) = 77.74781 62.59612 77.55248
#
# Poissons Ratio (x) = 0.34569 0.30320
# Poissons Ratio (y) = 0.42937 0.30399
# Poissons Ratio (z) = 0.30396 0.24536
#
# Static dielectric constant tensor:
#      x y z
#    x 3.486720 0.000000 0.000000 
#    y 0.000000 3.122840 0.000000 
#    z 0.000000 0.000000 3.067190 
# 
# 
# High freq. dielectric constant tensor:
#      x y z
#    x 1.707340 0.000000 0.000000 
#    y 0.000000 1.680140 0.000000 
#    z 0.000000 0.000000 1.663560 
# 
# From -- ./inp_files/21601.got.cif
#   From: 2010.03.12/outbox.cif.g09.slc.cpg/sg51_11_cif.got.tgz:21601.got - 2010.04.16 13:43:02.
