data_PCOD8209489
_publ_section_title
;
Structure prediction by ZEFSAII (Michael W. Deem and Ramdas Pophale) SiO2 
 PCOD8209489
Probable space group: P M M A
;
_chemical_formula_sum "Si O2"
_cell_formula_units_Z 48
_cell_length_a 8.918989
_cell_length_b 19.987091
_cell_length_c 14.481850
_cell_angle_alpha 90.000000
_cell_angle_beta 90.000000
_cell_angle_gamma 90.000000
_cell_volume 2581.601846
_symmetry_space_group_name_H-M "P M M A"
_symmetry_group_IT_number 51
_symmetry_cell_setting 'orthorhombic'
loop_
_space_group_symop_operation_xyz
x,y,z
1/2-x,-y,z
1/2+x,-y,-z
-x,y,-z
-x,-y,-z
1/2+x,y,-z
1/2-x,y,z
x,-y,z
loop_
_atom_site_type_symbol
_atom_site_label
_atom_site_fract_x
_atom_site_fract_y
_atom_site_fract_z
Si Si1 0.576165 0.923668 0.210697
Si Si2 0.423363 0.421831 0.904654
Si Si3 0.073934 0.277040 0.593367
Si Si4 0.076129 0.878342 0.591969
Si Si5 0.426790 0.191174 0.098549
Si Si6 0.927324 0.317270 0.777842
O O1 0.750000 0.901871 0.205516
O O2 0.517610 0.915430 0.315991
O O3 0.482349 0.878504 0.140961
O O4 0.553463 0.000000 0.179520
O O5 0.250000 0.400675 0.909028
O O6 0.442932 0.500000 0.884932
O O7 0.507683 0.383557 0.823847
O O8 0.500000 0.400629 0.000000
O O9 0.250000 0.290901 0.591843
O O10 0.035366 0.199120 0.604157
O O11 0.000000 0.305168 0.500000
O O12 0.998917 0.315856 0.677176
O O13 0.250000 0.890954 0.578282
O O14 0.000000 0.908302 0.500000
O O15 0.250000 0.187497 0.085741
O O16 0.475907 0.251652 0.165033
O O17 0.500000 0.204182 0.000000
O O18 0.750000 0.322821 0.769732
#
# Coordination Sequence:
#
# PCOD8209489 Si02
#       6
#     8   8   8   8   8   8
#     4  10  21  38  57  77 105 142 183 227 279 335
#     4  10  21  37  58  86 120 156 191 228 274 328
#     4  10  19  33  55  82 114 148 183 230 279 329
#     4   9  18  32  52  78 107 140 176 221 274 328
#     4  11  24  39  57  80 107 139 182 230 278 330
#     4  11  22  36  58  87 115 148 188 230 276 329
#
# _framework density 18.593107
#
# number of rings (size 3 to 8) (size 9 to 14) (size 15 to 20)
#    0.000    1.833    1.667    2.500    0.000    6.667 
#    0.000    0.000    0.000    0.500    0.000    0.000 
#    0.000    0.000    0.000    0.000    0.000    0.000 
#
# Total GULP energy -595416.466853 kJ/mol
# GULP energy per Si atom -12404.509726 kJ/mol
# Density = 1.855079 g / cm^3
# Si number density = 18.593107 Si / 1000 Ang^3
#
#
#
# Elastic Constant Matrix: (Units=GPa)
#
#
# Indices 1 2 3 4 5 6 
#
# 1 82.2537 39.3233 56.6058 0.0000 0.0000 0.0000
# 2 39.3233 61.7430 48.2180 0.0000 0.0000 0.0000
# 3 56.6058 48.2180 142.9850 0.0000 0.0000 0.0000
# 4 0.0000 0.0000 0.0000 30.7082 0.0000 0.0000
# 5 0.0000 0.0000 0.0000 0.0000 40.4037 0.0000
# 6 0.0000 0.0000 0.0000 0.0000 0.0000 26.5451
#
#
#
# Elastic Compliance Matrix: (Units=1/GPa)
#
#
# Indices 1 2 3 4 5 6 
#
# 1 0.019669 -0.008750 -0.004836 0.000000 0.000000 0.000000
# 2 -0.008750 0.025879 -0.005263 0.000000 0.000000 0.000000
# 3 -0.004836 -0.005263 0.010683 0.000000 0.000000 0.000000
# 4 0.000000 0.000000 0.000000 0.032565 0.000000 0.000000
# 5 0.000000 0.000000 0.000000 0.000000 0.024750 0.000000
# 6 0.000000 0.000000 0.000000 0.000000 0.000000 0.037672
#
#
# Mechanical properties :
#
#
# Convention : Reuss Voigt Hill
#
# Bulk Modulus (GPa) = 53.95826 63.91954 58.93890
# Shear Modulus (GPa) = 25.62880 29.05370 27.34125
#
# Velocity S-wave (km/s) = 3.71671 3.95727 3.83888
# Velocity P-wave (km/s) = 6.89218 7.43859 7.17060
#
# Compressibility (1/GPa) = 0.01853284
#
# Stress axis : x y z
#
# Youngs Moduli (GPa) = 50.84233 38.64105 93.60690
#
# Poissons Ratio (x) = 0.33812 0.45266
# Poissons Ratio (y) = 0.44488 0.49265
# Poissons Ratio (z) = 0.24586 0.20337
#
# Static dielectric constant tensor:
#      x y z
#    x 3.458880 0.000000 0.000000 
#    y 0.000000 3.241270 0.000000 
#    z 0.000000 0.000000 3.551520 
# 
# 
# High freq. dielectric constant tensor:
#      x y z
#    x 1.728970 0.000000 0.000000 
#    y 0.000000 1.703400 0.000000 
#    z 0.000000 0.000000 1.730770 
# 
# From -- ./inp_files/21050.got.cif
#   From: 2010.03.12/outbox.cif.g09.slc.cpg/sg51_11_cif.got.tgz:21050.got - 2010.04.16 13:43:02.
