data_PCOD8209868
_publ_section_title
;
Structure prediction by ZEFSAII (Michael W. Deem and Ramdas Pophale) SiO2 
 PCOD8209868
Probable space group: P M M A
;
_chemical_formula_sum "Si O2"
_cell_formula_units_Z 48
_cell_length_a 25.346425
_cell_length_b 9.005906
_cell_length_c 11.866001
_cell_angle_alpha 90.000000
_cell_angle_beta 90.000000
_cell_angle_gamma 90.000000
_cell_volume 2708.622632
_symmetry_space_group_name_H-M "P M M A"
_symmetry_group_IT_number 51
_symmetry_cell_setting 'orthorhombic'
loop_
_space_group_symop_operation_xyz
x,y,z
1/2-x,-y,z
1/2+x,-y,-z
-x,y,-z
-x,-y,-z
1/2+x,y,-z
1/2-x,y,z
x,-y,z
loop_
_atom_site_type_symbol
_atom_site_label
_atom_site_fract_x
_atom_site_fract_y
_atom_site_fract_z
Si Si1 0.380466 0.171535 0.521550
Si Si2 0.071266 0.674180 0.718426
Si Si3 0.118672 0.167265 0.170862
Si Si4 0.528894 0.834697 0.649764
Si Si5 0.943405 0.825824 0.045865
Si Si6 0.811532 0.327969 0.661843
O O1 0.382332 0.254174 0.641900
O O2 0.437682 0.191569 0.463304
O O3 0.335175 0.240000 0.443660
O O4 0.366495 0.000000 0.539630
O O5 0.080098 0.500000 0.723793
O O6 0.073667 0.739718 0.843027
O O7 0.015583 0.710629 0.659943
O O8 0.065452 0.179789 0.241828
O O9 0.163043 0.276484 0.219691
O O10 0.141082 0.000000 0.178170
O O11 0.102893 0.209354 0.043690
O O12 0.503148 0.000000 0.647561
O O13 0.947341 0.000000 0.073204
O O14 0.000000 0.768883 0.000000
O O15 0.750000 0.294535 0.668021
O O16 0.824161 0.500000 0.644470
#
# Coordination Sequence:
#
# PCOD8209868 Si02
#       6
#     8   8   8   8   8   8
#     4  10  21  36  54  74 100 138 181 220 258 310
#     4  12  23  31  46  75 110 144 177 216 264 314
#     4   9  18  33  55  79 103 139 183 222 256 302
#     4   9  17  32  50  71 101 140 180 216 255 304
#     4  10  19  35  54  72 104 148 187 219 255 306
#     4  10  21  37  58  83 110 135 162 213 280 327
#
# _framework density 17.721184000000001
#
# number of rings (size 3 to 8) (size 9 to 14) (size 15 to 20)
#    0.000    2.000    1.667    4.000    0.000    7.667 
#    0.000    0.000    0.000    1.000    0.000    4.667 
#    0.000    0.000    0.000    0.000    0.000    0.000 
#
# Total GULP energy -595232.432341 kJ/mol
# GULP energy per Si atom -12400.675674 kJ/mol
# Density = 1.768085 g / cm^3
# Si number density = 17.721184 Si / 1000 Ang^3
#
#
#
# Elastic Constant Matrix: (Units=GPa)
#
#
# Indices 1 2 3 4 5 6 
#
# 1 70.3135 54.3584 47.3671 0.0000 0.0000 0.0000
# 2 54.3584 119.0375 65.5311 0.0000 0.0000 0.0000
# 3 47.3671 65.5311 115.4310 0.0000 0.0000 0.0000
# 4 0.0000 0.0000 0.0000 25.2162 0.0000 0.0000
# 5 0.0000 0.0000 0.0000 0.0000 6.9228 0.0000
# 6 0.0000 0.0000 0.0000 0.0000 0.0000 25.6597
#
#
#
# Elastic Compliance Matrix: (Units=1/GPa)
#
#
# Indices 1 2 3 4 5 6 
#
# 1 0.024006 -0.008057 -0.005276 0.000000 0.000000 0.000000
# 2 -0.008057 0.014924 -0.005166 0.000000 0.000000 0.000000
# 3 -0.005276 -0.005166 0.013761 0.000000 0.000000 0.000000
# 4 0.000000 0.000000 0.000000 0.039657 0.000000 0.000000
# 5 0.000000 0.000000 0.000000 0.000000 0.144450 0.000000
# 6 0.000000 0.000000 0.000000 0.000000 0.000000 0.038972
#
#
# Mechanical properties :
#
#
# Convention : Reuss Voigt Hill
#
# Bulk Modulus (GPa) = 63.73117 71.03281 67.38199
# Shear Modulus (GPa) = 15.72325 20.72809 18.22567
#
# Velocity S-wave (km/s) = 2.98192 3.42377 3.21045
# Velocity P-wave (km/s) = 6.92077 7.46995 7.20060
#
# Compressibility (1/GPa) = 0.01569091
#
# Stress axis : x y z
#
# Youngs Moduli (GPa) = 41.65686 67.00536 72.66764
#
# Poissons Ratio (x) = 0.53989 0.38343
# Poissons Ratio (y) = 0.33565 0.37542
# Poissons Ratio (z) = 0.21980 0.34616
#
# Static dielectric constant tensor:
#      x y z
#    x 2.976940 0.000000 0.000000 
#    y 0.000000 3.277730 0.000000 
#    z 0.000000 0.000000 3.476790 
# 
# 
# High freq. dielectric constant tensor:
#      x y z
#    x 1.648120 0.000000 0.000000 
#    y 0.000000 1.685530 0.000000 
#    z 0.000000 0.000000 1.695650 
# 
# From -- ./inp_files/19002.got.cif
#   From: 2010.03.12/outbox.cif.g09.slc.cpg/sg51_10_cif.got.tgz:19002.got - 2010.04.16 13:43:02.
