data_PCOD8209514
_publ_section_title
;
Structure prediction by ZEFSAII (Michael W. Deem and Ramdas Pophale) SiO2 
 PCOD8209514
Probable space group: P M M A
;
_chemical_formula_sum "Si O2"
_cell_formula_units_Z 48
_cell_length_a 31.065591
_cell_length_b 8.967790
_cell_length_c 9.072423
_cell_angle_alpha 90.000000
_cell_angle_beta 90.000000
_cell_angle_gamma 90.000000
_cell_volume 2527.483568
_symmetry_space_group_name_H-M "P M M A"
_symmetry_group_IT_number 51
_symmetry_cell_setting 'orthorhombic'
loop_
_space_group_symop_operation_xyz
x,y,z
1/2-x,-y,z
1/2+x,-y,-z
-x,y,-z
-x,-y,-z
1/2+x,y,-z
1/2-x,y,z
x,-y,z
loop_
_atom_site_type_symbol
_atom_site_label
_atom_site_fract_x
_atom_site_fract_y
_atom_site_fract_z
Si Si1 0.750000 0.665578 0.824204
Si Si2 0.158015 0.321259 0.849644
Si Si3 0.500421 0.826153 0.167012
Si Si4 0.750000 0.662672 0.173837
Si Si5 0.082452 0.170284 0.353966
Si Si6 0.835621 0.826477 0.841508
Si Si7 0.922820 0.324449 0.338974
O O1 0.750000 0.500000 0.752351
O O2 0.792391 0.754859 0.773843
O O3 0.750000 0.650385 0.998399
O O4 0.160410 0.500000 0.867556
O O5 0.204322 0.259255 0.784770
O O6 0.120909 0.268195 0.739198
O O7 0.148687 0.251515 0.008698
O O8 0.454137 0.790644 0.235783
O O9 0.536309 0.741934 0.258368
O O10 0.511709 0.000000 0.171241
O O11 0.500000 0.766344 0.000000
O O12 0.750000 0.500000 0.248241
O O13 0.128219 0.199782 0.280384
O O14 0.077358 0.277062 0.492301
O O15 0.077836 0.000000 0.407653
O O16 0.827864 0.000000 0.874444
O O17 0.926245 0.500000 0.329460
#
# Coordination Sequence:
#
# PCOD8209514 Si02
#       7
#     4   8   8   4   8   8   8
#     4   9  17  31  52  79 112 146 176 216 272 323
#     4   9  18  33  53  78 107 139 176 221 273 320
#     4  10  21  39  61  81 103 137 180 223 271 325
#     4   7  12  27  50  71  96 132 170 208 252 305
#     4  10  22  38  55  77 108 144 179 220 270 322
#     4  10  19  33  56  83 107 138 184 230 267 311
#     4  11  23  36  53  80 112 144 178 220 270 324
#
# _framework density 18.991220999999999
#
# number of rings (size 3 to 8) (size 9 to 14) (size 15 to 20)
#    0.000    2.333    0.000    3.750    0.000    7.000 
#    0.000    0.833    0.000    1.000    0.000    0.000 
#    0.000    0.000    0.000    0.000    0.000    0.000 
#
# Total GULP energy -595093.387527 kJ/mol
# GULP energy per Si atom -12397.778907 kJ/mol
# Density = 1.894800 g / cm^3
# Si number density = 18.991221 Si / 1000 Ang^3
#
#
#
# Elastic Constant Matrix: (Units=GPa)
#
#
# Indices 1 2 3 4 5 6 
#
# 1 145.0084 44.7721 44.5458 0.0000 0.0000 0.0000
# 2 44.7721 60.5955 30.4664 0.0000 0.0000 0.0000
# 3 44.5458 30.4664 87.0162 0.0000 0.0000 0.0000
# 4 0.0000 0.0000 0.0000 18.0512 0.0000 0.0000
# 5 0.0000 0.0000 0.0000 0.0000 5.8808 0.0000
# 6 0.0000 0.0000 0.0000 0.0000 0.0000 28.6959
#
#
#
# Elastic Compliance Matrix: (Units=1/GPa)
#
#
# Indices 1 2 3 4 5 6 
#
# 1 0.009510 -0.005557 -0.002923 0.000000 0.000000 0.000000
# 2 -0.005557 0.023276 -0.005305 0.000000 0.000000 0.000000
# 3 -0.002923 -0.005305 0.014846 0.000000 0.000000 0.000000
# 4 0.000000 0.000000 0.000000 0.055398 0.000000 0.000000
# 5 0.000000 0.000000 0.000000 0.000000 0.170045 0.000000
# 6 0.000000 0.000000 0.000000 0.000000 0.000000 0.034848
#
#
# Mechanical properties :
#
#
# Convention : Reuss Voigt Hill
#
# Bulk Modulus (GPa) = 49.84400 59.13208 54.48804
# Shear Modulus (GPa) = 14.61226 22.04795 18.33010
#
# Velocity S-wave (km/s) = 2.77685 3.41098 3.11012
# Velocity P-wave (km/s) = 6.04847 6.83499 6.45373
#
# Compressibility (1/GPa) = 0.02006260
#
# Stress axis : x y z
#
# Youngs Moduli (GPa) = 105.15556 42.96295 67.36011
#
# Poissons Ratio (x) = 0.23874 0.19687
# Poissons Ratio (y) = 0.58435 0.35732
# Poissons Ratio (z) = 0.30733 0.22790
#
# Static dielectric constant tensor:
#      x y z
#    x 3.971310 0.000000 0.000000 
#    y 0.000000 3.440640 0.000000 
#    z 0.000000 0.000000 3.282320 
# 
# 
# High freq. dielectric constant tensor:
#      x y z
#    x 1.763400 0.000000 0.000000 
#    y 0.000000 1.728930 0.000000 
#    z 0.000000 0.000000 1.716620 
# 
# From -- ./inp_files/12962.got.cif
#   From: 2010.03.12/outbox.cif.g09.slc.cpg/sg51_7_cif.got.tgz:12962.got - 2010.04.16 13:43:02.
