data_PCOD8209289
_publ_section_title
;
Structure prediction by ZEFSAII (Michael W. Deem and Ramdas Pophale) SiO2 
 PCOD8209289
Probable space group: P M M A
;
_chemical_formula_sum "Si O2"
_cell_formula_units_Z 40
_cell_length_a 9.053026
_cell_length_b 25.559659
_cell_length_c 9.399852
_cell_angle_alpha 90.000000
_cell_angle_beta 90.000000
_cell_angle_gamma 90.000000
_cell_volume 2175.052974
_symmetry_space_group_name_H-M "P M M A"
_symmetry_group_IT_number 51
_symmetry_cell_setting 'orthorhombic'
loop_
_space_group_symop_operation_xyz
x,y,z
1/2-x,-y,z
1/2+x,-y,-z
-x,y,-z
-x,-y,-z
1/2+x,y,-z
1/2-x,y,z
x,-y,z
loop_
_atom_site_type_symbol
_atom_site_label
_atom_site_fract_x
_atom_site_fract_y
_atom_site_fract_z
Si Si1 0.081784 0.000000 0.353779
Si Si2 0.923705 0.403767 0.348666
Si Si3 0.576082 0.500000 0.152757
Si Si4 0.078343 0.686958 0.855196
Si Si5 0.923896 0.112629 0.651941
Si Si6 0.923660 0.193418 0.146086
O O1 0.049030 0.055168 0.272193
O O2 0.000000 0.000000 0.500000
O O3 0.250000 0.000000 0.400531
O O4 0.750000 0.405987 0.375698
O O5 0.974599 0.449629 0.242704
O O6 0.973185 0.349138 0.276047
O O7 0.000000 0.410170 0.500000
O O8 0.750000 0.500000 0.126252
O O9 0.500000 0.500000 0.000000
O O10 0.250000 0.679112 0.884951
O O11 0.040227 0.746573 0.814641
O O12 0.000000 0.669291 0.000000
O O13 0.750000 0.125458 0.639841
O O14 0.000000 0.111178 0.500000
O O15 0.005383 0.157884 0.734958
O O16 0.750000 0.183056 0.134295
O O17 0.000000 0.177437 0.000000
#
# Coordination Sequence:
#
# PCOD8209289 Si02
#       6
#     4   8   4   8   8   8
#     4   8  16  30  49  72  99 130 166 206 252 304
#     4  10  21  36  53  78 108 137 170 212 256 301
#     4  10  21  36  56  80 106 136 175 214 252 302
#     4   9  19  35  54  75 101 133 172 211 252 304
#     4  10  19  33  53  77 103 133 169 211 256 306
#     4  10  20  35  53  75 103 136 172 213 258 307
#
# _framework density 18.390356000000001
#
# number of rings (size 3 to 8) (size 9 to 14) (size 15 to 20)
#    0.000    2.400    0.000    2.100    0.000    4.000 
#    0.000    2.500    0.000    0.000    0.000    0.000 
#    0.000    0.000    0.000    0.000    0.000    0.000 
#
# Total GULP energy -495786.252933 kJ/mol
# GULP energy per Si atom -12394.656323 kJ/mol
# Density = 1.834850 g / cm^3
# Si number density = 18.390356 Si / 1000 Ang^3
#
#
#
# Elastic Constant Matrix: (Units=GPa)
#
#
# Indices 1 2 3 4 5 6 
#
# 1 71.1770 49.6307 51.4294 0.0000 0.0000 0.0000
# 2 49.6307 126.3649 79.3185 0.0000 0.0000 0.0000
# 3 51.4294 79.3185 127.8713 0.0000 0.0000 0.0000
# 4 0.0000 0.0000 0.0000 10.6093 0.0000 0.0000
# 5 0.0000 0.0000 0.0000 0.0000 37.8048 0.0000
# 6 0.0000 0.0000 0.0000 0.0000 0.0000 25.6281
#
#
#
# Elastic Compliance Matrix: (Units=1/GPa)
#
#
# Indices 1 2 3 4 5 6 
#
# 1 0.021543 -0.004950 -0.005594 0.000000 0.000000 0.000000
# 2 -0.004950 0.014097 -0.006753 0.000000 0.000000 0.000000
# 3 -0.005594 -0.006753 0.014259 0.000000 0.000000 0.000000
# 4 0.000000 0.000000 0.000000 0.094257 0.000000 0.000000
# 5 0.000000 0.000000 0.000000 0.000000 0.026452 0.000000
# 6 0.000000 0.000000 0.000000 0.000000 0.000000 0.039020
#
#
# Mechanical properties :
#
#
# Convention : Reuss Voigt Hill
#
# Bulk Modulus (GPa) = 65.34031 76.24114 70.79073
# Shear Modulus (GPa) = 20.05426 24.47741 22.26584
#
# Velocity S-wave (km/s) = 3.30582 3.65223 3.48334
# Velocity P-wave (km/s) = 7.08365 7.70274 7.39967
#
# Compressibility (1/GPa) = 0.01530449
#
# Stress axis : x y z
#
# Youngs Moduli (GPa) = 46.41880 70.93854 70.12880
#
# Poissons Ratio (x) = 0.35113 0.39232
# Poissons Ratio (y) = 0.22976 0.47361
# Poissons Ratio (z) = 0.25968 0.47908
#
# Static dielectric constant tensor:
#      x y z
#    x 3.443430 0.000000 0.000000 
#    y 0.000000 3.919550 0.000000 
#    z 0.000000 0.000000 3.116940 
# 
# 
# High freq. dielectric constant tensor:
#      x y z
#    x 1.717430 0.000000 0.000000 
#    y 0.000000 1.734900 0.000000 
#    z 0.000000 0.000000 1.694010 
# 
# From -- ./inp_files/5603.got.cif
#   From: 2010.03.12/outbox.cif.g09.slc.cpg/sg51_3_cif.got.tgz:5603.got - 2010.04.16 13:43:02.
