data_PCOD8209729
_publ_section_title
;
Structure prediction by ZEFSAII (Michael W. Deem and Ramdas Pophale) SiO2 
 PCOD8209729
Probable space group: P M M A
;
_chemical_formula_sum "Si O2"
_cell_formula_units_Z 64
_cell_length_a 29.519282
_cell_length_b 17.063440
_cell_length_c 6.793355
_cell_angle_alpha 90.000000
_cell_angle_beta 90.000000
_cell_angle_gamma 90.000000
_cell_volume 3421.816291
_symmetry_space_group_name_H-M "P M M A"
_symmetry_group_IT_number 51
_symmetry_cell_setting 'orthorhombic'
loop_
_space_group_symop_operation_xyz
x,y,z
1/2-x,-y,z
1/2+x,-y,-z
-x,y,-z
-x,-y,-z
1/2+x,y,-z
1/2-x,y,z
x,-y,z
loop_
_atom_site_type_symbol
_atom_site_label
_atom_site_fract_x
_atom_site_fract_y
_atom_site_fract_z
Si Si1 0.200381 0.197132 0.798900
Si Si2 0.616465 0.908497 0.127067
Si Si3 0.956991 0.700156 0.107306
Si Si4 0.095025 0.798227 0.202975
Si Si5 0.372432 0.590101 0.822694
Si Si6 0.954761 0.166782 0.405225
Si Si7 0.174298 0.310766 0.135171
Si Si8 0.799747 0.655820 0.450817
O O1 0.250000 0.156462 0.785397
O O2 0.160941 0.133173 0.783607
O O3 0.192168 0.254825 0.616179
O O4 0.200418 0.249319 0.997238
O O5 0.571436 0.890639 0.255355
O O6 0.625508 0.000000 0.123118
O O7 0.611227 0.878243 0.903386
O O8 0.919148 0.638962 0.179058
O O9 0.969528 0.752072 0.298795
O O10 0.941577 0.760873 0.941643
O O11 0.000000 0.657567 0.000000
O O12 0.078890 0.816964 0.418416
O O13 0.133381 0.734419 0.236871
O O14 0.386243 0.500000 0.837691
O O15 0.341339 0.603110 0.628729
O O16 0.342711 0.615377 0.008896
O O17 0.000000 0.127532 0.500000
O O18 0.203631 0.345948 0.312293
O O19 0.750000 0.626381 0.374126
#
# Coordination Sequence:
#
# PCOD8209729 Si02
#       8
#     8   8   8   8   8   8   8   8
#     4   9  18  34  56  81 105 135 181 227 261 302
#     4  10  22  35  50  79 114 144 173 209 265 327
#     4  10  19  35  58  82 101 131 180 226 262 312
#     4   9  18  34  54  77 104 134 173 221 261 304
#     4  10  22  36  51  78 115 145 169 209 270 327
#     4  11  20  34  59  80 101 136 182 226 265 307
#     4   9  17  33  56  78 102 136 180 220 257 303
#     4  10  19  34  57  81 104 138 185 228 258 297
#
# _framework density 18.703517999999999
#
# number of rings (size 3 to 8) (size 9 to 14) (size 15 to 20)
#    0.000    2.250    1.250    4.125    0.000    2.500 
#    0.000    0.625    0.000    0.375    0.000    3.500 
#    0.000    0.000    0.000    0.000    0.000    0.000 
#
# Total GULP energy -793121.558552 kJ/mol
# GULP energy per Si atom -12392.524352 kJ/mol
# Density = 1.866095 g / cm^3
# Si number density = 18.703518 Si / 1000 Ang^3
#
#
#
# Elastic Constant Matrix: (Units=GPa)
#
#
# Indices 1 2 3 4 5 6 
#
# 1 100.1542 30.0041 17.6861 0.0000 0.0000 0.0000
# 2 30.0041 90.7990 15.1242 0.0000 0.0000 0.0000
# 3 17.6861 15.1242 76.8328 0.0000 0.0000 0.0000
# 4 0.0000 0.0000 0.0000 8.2618 0.0000 0.0000
# 5 0.0000 0.0000 0.0000 0.0000 -7.5606 0.0000
# 6 0.0000 0.0000 0.0000 0.0000 0.0000 10.0787
#
#
#
# Elastic Compliance Matrix: (Units=1/GPa)
#
#
# Indices 1 2 3 4 5 6 
#
# 1 0.011354 -0.003429 -0.001939 0.000000 0.000000 0.000000
# 2 -0.003429 0.012422 -0.001656 0.000000 0.000000 0.000000
# 3 -0.001939 -0.001656 0.013787 0.000000 0.000000 0.000000
# 4 0.000000 0.000000 0.000000 0.121040 0.000000 0.000000
# 5 0.000000 0.000000 0.000000 0.000000 -0.132264 0.000000
# 6 0.000000 0.000000 0.000000 0.000000 0.000000 0.099219
#
#
# Mechanical properties :
#
#
# Convention : Reuss Voigt Hill
#
# Bulk Modulus (GPa) = 42.52286 43.71276 43.11781
# Shear Modulus (GPa) = 33.91106 15.82074 24.86590
#
# Velocity S-wave (km/s) = 4.26265 2.91154 3.65016
# Velocity P-wave (km/s) = 6.85649 5.89278 6.39282
#
# Compressibility (1/GPa) = 0.02351676
#
# Stress axis : x y z
#
# Youngs Moduli (GPa) = 88.07301 80.50058 72.52954
#
# Poissons Ratio (x) = 0.27604 0.14061
# Poissons Ratio (y) = 0.30201 0.12010
# Poissons Ratio (z) = 0.17074 0.13330
#
# Static dielectric constant tensor:
#      x y z
#    x 3.628450 0.000000 0.000000 
#    y 0.000000 3.040880 0.000000 
#    z 0.000000 0.000000 3.512050 
# 
# 
# High freq. dielectric constant tensor:
#      x y z
#    x 1.739060 0.000000 0.000000 
#    y 0.000000 1.683710 0.000000 
#    z 0.000000 0.000000 1.733100 
# 
# From -- ./inp_files/4106.got.cif
#   From: 2010.03.12/outbox.cif.g09.slc.cpg/sg51_3_cif.got.tgz:4106.got - 2010.04.16 13:43:02.
