data_PCOD8209305
_publ_section_title
;
Structure prediction by ZEFSAII (Michael W. Deem and Ramdas Pophale) SiO2 
 PCOD8209305
Probable space group: P M M A
;
_chemical_formula_sum "Si O2"
_cell_formula_units_Z 56
_cell_length_a 8.785825
_cell_length_b 20.413866
_cell_length_c 15.491411
_cell_angle_alpha 90.000000
_cell_angle_beta 90.000000
_cell_angle_gamma 90.000000
_cell_volume 2778.425681
_symmetry_space_group_name_H-M "P M M A"
_symmetry_group_IT_number 51
_symmetry_cell_setting 'orthorhombic'
loop_
_space_group_symop_operation_xyz
x,y,z
1/2-x,-y,z
1/2+x,-y,-z
-x,y,-z
-x,-y,-z
1/2+x,y,-z
1/2-x,y,z
x,-y,z
loop_
_atom_site_type_symbol
_atom_site_label
_atom_site_fract_x
_atom_site_fract_y
_atom_site_fract_z
Si Si1 0.577395 0.207799 0.676938
Si Si2 0.929306 0.675584 0.409631
Si Si3 0.424880 0.243168 0.126792
Si Si4 0.925544 0.928321 0.742602
Si Si5 0.930248 0.892280 0.084868
Si Si6 0.929213 0.622549 0.086653
Si Si7 0.930666 0.572962 0.268882
O O1 0.750000 0.211330 0.642802
O O2 0.473552 0.249364 0.612004
O O3 0.561295 0.240127 0.770317
O O4 0.520964 0.131394 0.680326
O O5 0.750000 0.670337 0.416374
O O6 0.995508 0.625655 0.337316
O O7 0.000000 0.653816 0.500000
O O8 0.250000 0.251353 0.097799
O O9 0.495596 0.179044 0.085553
O O10 0.524843 0.301875 0.090612
O O11 0.750000 0.913773 0.768227
O O12 0.023699 0.931539 0.829522
O O13 0.942131 0.000000 0.697053
O O14 0.750000 0.888817 0.078785
O O15 0.000000 0.928015 0.000000
O O16 0.750000 0.615098 0.080870
O O17 0.993847 0.587106 0.172578
O O18 0.000000 0.590318 0.000000
O O19 0.750000 0.578950 0.266915
O O20 0.982484 0.500000 0.296697
#
# Coordination Sequence:
#
# PCOD8209305 Si02
#       7
#     8   8   8   8   8   8   8
#     4   9  18  34  58  85 114 146 183 232 284 339
#     4  11  22  38  63  92 119 150 189 235 289 349
#     4  10  19  33  53  77 108 145 189 241 294 343
#     4   9  19  36  56  79 109 148 189 231 286 346
#     4  11  21  32  47  70 104 144 192 243 293 343
#     4  11  21  34  54  81 113 153 199 243 290 341
#     4   9  20  39  60  83 117 158 196 237 289 346
#
# _framework density 20.155297999999998
#
# number of rings (size 3 to 8) (size 9 to 14) (size 15 to 20)
#    0.000    2.000    1.429    3.857    0.000    3.429 
#    0.000    0.000    0.000    6.429    0.000    0.000 
#    0.000    0.000    0.000    0.000    0.000    0.000 
#
# Total GULP energy -694273.807282 kJ/mol
# GULP energy per Si atom -12397.746559 kJ/mol
# Density = 2.010942 g / cm^3
# Si number density = 20.155298 Si / 1000 Ang^3
#
#
#
# Elastic Constant Matrix: (Units=GPa)
#
#
# Indices 1 2 3 4 5 6 
#
# 1 68.4952 14.4918 37.5744 0.0000 0.0000 0.0000
# 2 14.4918 119.6573 55.1193 0.0000 0.0000 0.0000
# 3 37.5744 55.1193 114.1113 0.0000 0.0000 0.0000
# 4 0.0000 0.0000 0.0000 10.6690 0.0000 0.0000
# 5 0.0000 0.0000 0.0000 0.0000 29.8407 0.0000
# 6 0.0000 0.0000 0.0000 0.0000 0.0000 18.7200
#
#
#
# Elastic Compliance Matrix: (Units=1/GPa)
#
#
# Indices 1 2 3 4 5 6 
#
# 1 0.017864 0.000702 -0.006221 0.000000 0.000000 0.000000
# 2 0.000702 0.010776 -0.005437 0.000000 0.000000 0.000000
# 3 -0.006221 -0.005437 0.013438 0.000000 0.000000 0.000000
# 4 0.000000 0.000000 0.000000 0.093730 0.000000 0.000000
# 5 0.000000 0.000000 0.000000 0.000000 0.033511 0.000000
# 6 0.000000 0.000000 0.000000 0.000000 0.000000 0.053419
#
#
# Mechanical properties :
#
#
# Convention : Reuss Voigt Hill
#
# Bulk Modulus (GPa) = 49.58618 57.40387 53.49502
# Shear Modulus (GPa) = 19.89085 24.85115 22.37100
#
# Velocity S-wave (km/s) = 3.14487 3.51520 3.33518
# Velocity P-wave (km/s) = 6.15162 6.70955 6.43663
#
# Compressibility (1/GPa) = 0.02016691
#
# Stress axis : x y z
#
# Youngs Moduli (GPa) = 55.97891 92.79452 74.41566
#
# Poissons Ratio (x) = -0.06517 0.46297
# Poissons Ratio (y) = -0.03932 0.40457
# Poissons Ratio (z) = 0.34827 0.50449
#
# Static dielectric constant tensor:
#      x y z
#    x 3.495410 0.000000 0.000000 
#    y 0.000000 3.726020 0.000000 
#    z 0.000000 0.000000 1.395940 
# 
# 
# High freq. dielectric constant tensor:
#      x y z
#    x 1.772660 0.000000 0.000000 
#    y 0.000000 1.788160 0.000000 
#    z 0.000000 0.000000 1.769130 
# 
# From -- ./inp_files/21708.got.cif
#   From: 2010.03.12/outbox.cif.g09.slc.cpg/sg51_11_cif.got.tgz:21708.got - 2010.04.16 13:43:02.
