data_PCOD8209102
_publ_section_title
;
Structure prediction by ZEFSAII (Michael W. Deem and Ramdas Pophale) SiO2 
 PCOD8209102
Probable space group: P M M A
;
_chemical_formula_sum "Si O2"
_cell_formula_units_Z 56
_cell_length_a 20.171857
_cell_length_b 9.660329
_cell_length_c 15.040839
_cell_angle_alpha 90.000000
_cell_angle_beta 90.000000
_cell_angle_gamma 90.000000
_cell_volume 2930.959792
_symmetry_space_group_name_H-M "P M M A"
_symmetry_group_IT_number 51
_symmetry_cell_setting 'orthorhombic'
loop_
_space_group_symop_operation_xyz
x,y,z
1/2-x,-y,z
1/2+x,-y,-z
-x,y,-z
-x,-y,-z
1/2+x,y,-z
1/2-x,y,z
x,-y,z
loop_
_atom_site_type_symbol
_atom_site_label
_atom_site_fract_x
_atom_site_fract_y
_atom_site_fract_z
Si Si1 0.951270 0.160907 0.080280
Si Si2 0.326065 0.343313 0.948106
Si Si3 0.825019 0.840217 0.523030
Si Si4 0.479058 0.847627 0.718801
Si Si5 0.126626 0.149817 0.290379
Si Si6 0.937628 0.336127 0.436051
Si Si7 0.676819 0.654252 0.845420
O O1 0.881024 0.240345 0.090550
O O2 0.985172 0.186311 0.175971
O O3 0.935479 0.000000 0.062534
O O4 0.000000 0.214736 0.000000
O O5 0.250000 0.295048 0.927024
O O6 0.336056 0.500000 0.911604
O O7 0.340212 0.342640 0.052057
O O8 0.750000 0.819051 0.489180
O O9 0.827505 0.803901 0.627789
O O10 0.871346 0.731948 0.473638
O O11 0.848025 0.000000 0.507861
O O12 0.551581 0.855960 0.675815
O O13 0.443010 0.727975 0.663010
O O14 0.444764 0.000000 0.706768
O O15 0.126147 0.253589 0.208389
O O16 0.149966 0.000000 0.255090
O O17 0.927804 0.500000 0.426848
O O18 0.000000 0.301865 0.500000
O O19 0.750000 0.714121 0.828629
O O20 0.671181 0.500000 0.807903
#
# Coordination Sequence:
#
# PCOD8209102 Si02
#       7
#     8   8   8   8   8   8   8
#     4  10  21  37  58  88 121 149 189 243 294 344
#     4   9  19  36  55  76 107 151 198 240 288 344
#     4  10  21  37  59  86 115 150 192 237 288 347
#     4  10  21  37  59  84 112 151 191 234 288 343
#     4  10  19  32  53  80 110 144 184 230 283 343
#     4  11  23  39  60  86 115 150 193 238 282 335
#     4   9  18  31  47  71 106 146 185 227 280 342
#
# _framework density 19.106369000000001
#
# number of rings (size 3 to 8) (size 9 to 14) (size 15 to 20)
#    0.000    2.143    1.429    2.571    0.000    5.714 
#    0.000    2.143    0.000    0.857    0.000    0.000 
#    0.000    0.000    0.000    0.000    0.000    0.000 
#
# Total GULP energy -693978.843904 kJ/mol
# GULP energy per Si atom -12392.479355 kJ/mol
# Density = 1.906288 g / cm^3
# Si number density = 19.106369 Si / 1000 Ang^3
#
#
#
# Elastic Constant Matrix: (Units=GPa)
#
#
# Indices 1 2 3 4 5 6 
#
# 1 92.9945 46.1058 27.6096 0.0000 0.0000 0.0000
# 2 46.1058 90.1910 47.7690 0.0000 0.0000 0.0000
# 3 27.6096 47.7690 78.1575 0.0000 0.0000 0.0000
# 4 0.0000 0.0000 0.0000 28.7495 0.0000 0.0000
# 5 0.0000 0.0000 0.0000 0.0000 27.6307 0.0000
# 6 0.0000 0.0000 0.0000 0.0000 0.0000 36.5255
#
#
#
# Elastic Compliance Matrix: (Units=1/GPa)
#
#
# Indices 1 2 3 4 5 6 
#
# 1 0.014444 -0.006922 -0.000872 0.000000 0.000000 0.000000
# 2 -0.006922 0.019712 -0.009603 0.000000 0.000000 0.000000
# 3 -0.000872 -0.009603 0.018972 0.000000 0.000000 0.000000
# 4 0.000000 0.000000 0.000000 0.034783 0.000000 0.000000
# 5 0.000000 0.000000 0.000000 0.000000 0.036192 0.000000
# 6 0.000000 0.000000 0.000000 0.000000 0.000000 0.027378
#
#
# Mechanical properties :
#
#
# Convention : Reuss Voigt Hill
#
# Bulk Modulus (GPa) = 54.54061 56.03467 55.28764
# Shear Modulus (GPa) = 25.98953 27.90503 26.94728
#
# Velocity S-wave (km/s) = 3.69216 3.82581 3.75958
# Velocity P-wave (km/s) = 6.83987 6.99336 6.91704
#
# Compressibility (1/GPa) = 0.01833496
#
# Stress axis : x y z
#
# Youngs Moduli (GPa) = 69.23262 50.73030 52.71047
#
# Poissons Ratio (x) = 0.35116 0.04595
# Poissons Ratio (y) = 0.47924 0.50615
# Poissons Ratio (z) = 0.06035 0.48714
#
# Static dielectric constant tensor:
#      x y z
#    x 3.476340 0.000000 0.000000 
#    y 0.000000 3.546500 0.000000 
#    z 0.000000 0.000000 3.292790 
# 
# 
# High freq. dielectric constant tensor:
#      x y z
#    x 1.736840 0.000000 0.000000 
#    y 0.000000 1.741620 0.000000 
#    z 0.000000 0.000000 1.727790 
# 
# From -- ./inp_files/25676.got.cif
#   From: 2010.03.12/outbox.cif.g09.slc.cpg/sg51_13_cif.got.tgz:25676.got - 2010.04.16 13:43:02.
