data_PCOD8209725
_publ_section_title
;
Structure prediction by ZEFSAII (Michael W. Deem and Ramdas Pophale) SiO2 
 PCOD8209725
Probable space group: P M M A
;
_chemical_formula_sum "Si O2"
_cell_formula_units_Z 64
_cell_length_a 32.491647
_cell_length_b 9.146455
_cell_length_c 11.512935
_cell_angle_alpha 90.000000
_cell_angle_beta 90.000000
_cell_angle_gamma 90.000000
_cell_volume 3421.453019
_symmetry_space_group_name_H-M "P M M A"
_symmetry_group_IT_number 51
_symmetry_cell_setting 'orthorhombic'
loop_
_space_group_symop_operation_xyz
x,y,z
1/2-x,-y,z
1/2+x,-y,-z
-x,y,-z
-x,-y,-z
1/2+x,y,-z
1/2-x,y,z
x,-y,z
loop_
_atom_site_type_symbol
_atom_site_label
_atom_site_fract_x
_atom_site_fract_y
_atom_site_fract_z
Si Si1 0.936398 0.167576 0.526694
Si Si2 0.203024 0.168737 0.755733
Si Si3 0.649242 0.168718 0.648891
Si Si4 0.053946 0.170080 0.737322
Si Si5 0.201462 0.336182 0.526403
Si Si6 0.889508 0.671678 0.854796
Si Si7 0.526057 0.671237 0.733085
Si Si8 0.627002 0.168857 0.090311
O O1 0.889998 0.190530 0.567393
O O2 0.938250 0.220908 0.394515
O O3 0.967200 0.262701 0.604694
O O4 0.950359 0.000000 0.540108
O O5 0.250000 0.207825 0.792056
O O6 0.187455 0.261841 0.646399
O O7 0.173034 0.202026 0.863673
O O8 0.199313 0.000000 0.718288
O O9 0.687027 0.244310 0.584292
O O10 0.642767 0.246361 0.772243
O O11 0.659568 0.000000 0.671783
O O12 0.094572 0.207961 0.809411
O O13 0.015024 0.258813 0.788432
O O14 0.043311 0.000000 0.744931
O O15 0.250000 0.339742 0.520166
O O16 0.183011 0.500000 0.522075
O O17 0.881253 0.500000 0.846171
O O18 0.936016 0.711195 0.817166
O O19 0.882265 0.725326 0.984346
O O20 0.520062 0.500000 0.720628
O O21 0.622788 0.000000 0.051588
#
# Coordination Sequence:
#
# PCOD8209725 Si02
#       8
#     8   8   8   8   8   8   8   8
#     4   9  18  33  53  77 104 134 170 214 265 318
#     4   9  18  35  59  84 110 139 172 213 259 308
#     4  10  19  34  57  79 102 137 179 220 262 311
#     4  10  20  33  51  76 106 137 171 215 264 315
#     4  10  20  33  52  82 117 145 170 207 259 318
#     4  10  22  39  55  73 102 140 180 223 270 317
#     4  10  21  35  51  74 104 137 175 218 264 316
#     4  10  21  37  56  79 105 137 182 226 263 311
#
# _framework density 18.705503
#
# number of rings (size 3 to 8) (size 9 to 14) (size 15 to 20)
#    0.000    2.250    0.000    2.625    0.000    8.250 
#    0.000    4.375    0.000    2.250    0.000    0.000 
#    0.000    0.000    0.000    0.000    0.000    0.000 
#
# Total GULP energy -793820.906270 kJ/mol
# GULP energy per Si atom -12403.451660 kJ/mol
# Density = 1.866293 g / cm^3
# Si number density = 18.705503 Si / 1000 Ang^3
#
#
#
# Elastic Constant Matrix: (Units=GPa)
#
#
# Indices 1 2 3 4 5 6 
#
# 1 66.3640 41.1779 50.0975 0.0000 0.0000 0.0000
# 2 41.1779 95.1685 54.9588 0.0000 0.0000 0.0000
# 3 50.0975 54.9588 106.7499 0.0000 0.0000 0.0000
# 4 0.0000 0.0000 0.0000 25.5558 0.0000 0.0000
# 5 0.0000 0.0000 0.0000 0.0000 21.3967 0.0000
# 6 0.0000 0.0000 0.0000 0.0000 0.0000 27.7073
#
#
#
# Elastic Compliance Matrix: (Units=1/GPa)
#
#
# Indices 1 2 3 4 5 6 
#
# 1 0.025437 -0.005852 -0.008924 0.000000 0.000000 0.000000
# 2 -0.005852 0.016300 -0.005645 0.000000 0.000000 0.000000
# 3 -0.008924 -0.005645 0.016462 0.000000 0.000000 0.000000
# 4 0.000000 0.000000 0.000000 0.039130 0.000000 0.000000
# 5 0.000000 0.000000 0.000000 0.000000 0.046736 0.000000
# 6 0.000000 0.000000 0.000000 0.000000 0.000000 0.036092
#
#
# Mechanical properties :
#
#
# Convention : Reuss Voigt Hill
#
# Bulk Modulus (GPa) = 57.62075 62.30566 59.96320
# Shear Modulus (GPa) = 22.04725 23.06851 22.55788
#
# Velocity S-wave (km/s) = 3.43687 3.51557 3.47645
# Velocity P-wave (km/s) = 6.82792 7.06116 6.94552
#
# Compressibility (1/GPa) = 0.01735486
#
# Stress axis : x y z
#
# Youngs Moduli (GPa) = 39.31351 61.34953 60.74477
#
# Poissons Ratio (x) = 0.35903 0.54211
# Poissons Ratio (y) = 0.23007 0.34293
# Poissons Ratio (z) = 0.35085 0.34634
#
# Static dielectric constant tensor:
#      x y z
#    x 3.493380 0.000000 0.000000 
#    y 0.000000 3.526290 0.000000 
#    z 0.000000 0.000000 3.301920 
# 
# 
# High freq. dielectric constant tensor:
#      x y z
#    x 1.727290 0.000000 0.000000 
#    y 0.000000 1.729230 0.000000 
#    z 0.000000 0.000000 1.714930 
# 
# From -- ./inp_files/19606.got.cif
#   From: 2010.03.12/outbox.cif.g09.slc.cpg/sg51_10_cif.got.tgz:19606.got - 2010.04.16 13:43:02.
