data_PCOD8209398
_publ_section_title
;
Structure prediction by ZEFSAII (Michael W. Deem and Ramdas Pophale) SiO2 
 PCOD8209398
Probable space group: P M M A
;
_chemical_formula_sum "Si O2"
_cell_formula_units_Z 56
_cell_length_a 19.425877
_cell_length_b 9.775305
_cell_length_c 16.277682
_cell_angle_alpha 90.000000
_cell_angle_beta 90.000000
_cell_angle_gamma 90.000000
_cell_volume 3091.032071
_symmetry_space_group_name_H-M "P M M A"
_symmetry_group_IT_number 51
_symmetry_cell_setting 'orthorhombic'
loop_
_space_group_symop_operation_xyz
x,y,z
1/2-x,-y,z
1/2+x,-y,-z
-x,y,-z
-x,-y,-z
1/2+x,y,-z
1/2-x,y,z
x,-y,z
loop_
_atom_site_type_symbol
_atom_site_label
_atom_site_fract_x
_atom_site_fract_y
_atom_site_fract_z
Si Si1 0.987804 0.851047 0.595108
Si Si2 0.750000 0.654523 0.583073
Si Si3 0.750000 0.159898 0.421831
Si Si4 0.569113 0.337890 0.851907
Si Si5 0.828372 0.338546 0.990435
Si Si6 0.089277 0.338499 0.846392
Si Si7 0.388246 0.656439 0.326224
Si Si8 0.123118 0.159189 0.692901
O O1 0.055438 0.805620 0.642543
O O2 0.000000 0.860888 0.500000
O O3 0.931077 0.737757 0.607190
O O4 0.963129 0.000000 0.627398
O O5 0.750000 0.500000 0.547324
O O6 0.750000 0.757158 0.506804
O O7 0.689137 0.678813 0.646860
O O8 0.815187 0.200244 0.367205
O O9 0.750000 0.000000 0.445434
O O10 0.571887 0.500000 0.858317
O O11 0.620905 0.275948 0.920512
O O12 0.489663 0.290416 0.863731
O O13 0.597839 0.284795 0.764724
O O14 0.750000 0.278392 0.984807
O O15 0.824055 0.500000 0.979423
O O16 0.863112 0.300885 0.076666
O O17 0.091142 0.500000 0.826006
O O18 0.123448 0.254779 0.772468
O O19 0.411995 0.500000 0.329735
O O20 0.128175 0.000000 0.719153
#
# Coordination Sequence:
#
# PCOD8209398 Si02
#       8
#     8   4   4   8   8   8   8   8
#     4  10  20  35  55  78 104 137 179 224 262 310
#     4  10  22  36  52  79 112 140 178 227 272 318
#     4  10  22  40  58  75 102 146 190 219 266 328
#     4   9  17  31  51  75 108 143 172 209 261 317
#     4   9  18  30  50  81 110 138 175 218 259 309
#     4  10  19  33  54  81 109 138 175 217 265 317
#     4  10  20  34  53  80 109 141 177 218 271 319
#     4  10  21  36  55  79 106 139 180 222 267 320
#
# _framework density 18.116925999999999
#
# number of rings (size 3 to 8) (size 9 to 14) (size 15 to 20)
#    0.000    2.286    1.429    1.286    2.000    4.286 
#    0.000    0.000    0.000    2.571    0.000    0.000 
#    0.000    0.000    0.000    0.000    0.000    0.000 
#
# Total GULP energy -694198.510937 kJ/mol
# GULP energy per Si atom -12396.401981 kJ/mol
# Density = 1.807569 g / cm^3
# Si number density = 18.116926 Si / 1000 Ang^3
#
#
#
# Elastic Constant Matrix: (Units=GPa)
#
#
# Indices 1 2 3 4 5 6 
#
# 1 112.8211 34.9589 37.8819 0.0000 0.0000 0.0000
# 2 34.9589 42.9527 33.3846 0.0000 0.0000 0.0000
# 3 37.8819 33.3846 90.7569 0.0000 0.0000 0.0000
# 4 0.0000 0.0000 0.0000 17.0624 0.0000 0.0000
# 5 0.0000 0.0000 0.0000 0.0000 32.1446 0.0000
# 6 0.0000 0.0000 0.0000 0.0000 0.0000 15.2512
#
#
#
# Elastic Compliance Matrix: (Units=1/GPa)
#
#
# Indices 1 2 3 4 5 6 
#
# 1 0.012107 -0.008299 -0.002001 0.000000 0.000000 0.000000
# 2 -0.008299 0.038291 -0.010621 0.000000 0.000000 0.000000
# 3 -0.002001 -0.010621 0.015761 0.000000 0.000000 0.000000
# 4 0.000000 0.000000 0.000000 0.058608 0.000000 0.000000
# 5 0.000000 0.000000 0.000000 0.000000 0.031109 0.000000
# 6 0.000000 0.000000 0.000000 0.000000 0.000000 0.065569
#
#
# Mechanical properties :
#
#
# Convention : Reuss Voigt Hill
#
# Bulk Modulus (GPa) = 41.12361 50.99795 46.06078
# Shear Modulus (GPa) = 18.42353 22.24531 20.33442
#
# Velocity S-wave (km/s) = 3.19238 3.50791 3.35386
# Velocity P-wave (km/s) = 6.02799 6.67964 6.36217
#
# Compressibility (1/GPa) = 0.02431693
#
# Stress axis : x y z
#
# Youngs Moduli (GPa) = 82.59827 26.11583 63.44931
#
# Poissons Ratio (x) = 0.21672 0.12695
# Poissons Ratio (y) = 0.68545 0.67392
# Poissons Ratio (z) = 0.16526 0.27739
#
# Static dielectric constant tensor:
#      x y z
#    x 3.898370 0.000000 0.000000 
#    y 0.000000 3.124980 0.000000 
#    z 0.000000 0.000000 3.550480 
# 
# 
# High freq. dielectric constant tensor:
#      x y z
#    x 1.717370 0.000000 0.000000 
#    y 0.000000 1.664760 0.000000 
#    z 0.000000 0.000000 1.710350 
# 
# From -- ./inp_files/25864.got.cif
#   From: 2010.03.12/outbox.cif.g09.slc.cpg/sg51_13_cif.got.tgz:25864.got - 2010.04.16 13:43:02.
