data_PCOD8209975
_publ_section_title
;
Structure prediction by ZEFSAII (Michael W. Deem and Ramdas Pophale) SiO2 
 PCOD8209975
Probable space group: P M M A
;
_chemical_formula_sum "Si O2"
_cell_formula_units_Z 64
_cell_length_a 23.815368
_cell_length_b 8.994223
_cell_length_c 14.736495
_cell_angle_alpha 90.000000
_cell_angle_beta 90.000000
_cell_angle_gamma 90.000000
_cell_volume 3156.567996
_symmetry_space_group_name_H-M "P M M A"
_symmetry_group_IT_number 51
_symmetry_cell_setting 'orthorhombic'
loop_
_space_group_symop_operation_xyz
x,y,z
1/2-x,-y,z
1/2+x,-y,-z
-x,y,-z
-x,-y,-z
1/2+x,y,-z
1/2-x,y,z
x,-y,z
loop_
_atom_site_type_symbol
_atom_site_label
_atom_site_fract_x
_atom_site_fract_y
_atom_site_fract_z
Si Si1 0.999532 0.675904 0.218187
Si Si2 0.812207 0.833916 0.267032
Si Si3 0.124186 0.326167 0.186690
Si Si4 0.034436 0.676212 0.585369
Si Si5 0.185475 0.175957 0.024432
Si Si6 0.385206 0.673742 0.867554
Si Si7 0.686643 0.332135 0.631070
Si Si8 0.353030 0.832112 0.541623
O O1 0.000364 0.500000 0.228654
O O2 0.059553 0.729826 0.179238
O O3 0.988572 0.742937 0.319099
O O4 0.950362 0.721858 0.147259
O O5 0.750000 0.804671 0.228357
O O6 0.853531 0.710948 0.225989
O O7 0.809208 0.822888 0.375723
O O8 0.832157 0.000000 0.237690
O O9 0.129608 0.500000 0.162383
O O10 0.144093 0.293116 0.288534
O O11 0.163893 0.234204 0.120548
O O12 0.030850 0.500000 0.587723
O O13 0.097531 0.723863 0.569850
O O14 0.000000 0.740804 0.500000
O O15 0.250000 0.228806 0.008630
O O16 0.143583 0.236832 0.948225
O O17 0.182232 0.000000 0.023643
O O18 0.380444 0.500000 0.889052
O O19 0.750000 0.314473 0.667610
O O20 0.675573 0.500000 0.596804
O O21 0.677362 0.220127 0.549068
O O22 0.374913 0.000000 0.527326
#
# Coordination Sequence:
#
# PCOD8209975 Si02
#       8
#     8   8   8   8   8   8   8   8
#     4   9  19  36  59  90 123 154 193 245 301 352
#     4  10  21  37  55  79 116 159 197 238 293 350
#     4  10  21  41  67  91 117 153 199 249 301 357
#     4  10  19  35  59  83 115 160 206 250 295 348
#     4  11  25  44  64  89 122 157 194 242 304 366
#     4  11  22  38  62  90 120 154 198 246 292 349
#     4  10  21  37  59  87 118 155 203 255 301 354
#     4  11  22  35  54  83 120 160 199 244 300 360
#
# _framework density 20.275186999999999
#
# number of rings (size 3 to 8) (size 9 to 14) (size 15 to 20)
#    0.000    1.750    1.250    3.000    0.000    7.750 
#    0.000    4.375    0.000    0.000    0.000    0.000 
#    0.000    0.000    0.000    0.000    0.000    0.000 
#
# Total GULP energy -793561.814494 kJ/mol
# GULP energy per Si atom -12399.403351 kJ/mol
# Density = 2.022904 g / cm^3
# Si number density = 20.275187 Si / 1000 Ang^3
#
#
#
# Elastic Constant Matrix: (Units=GPa)
#
#
# Indices 1 2 3 4 5 6 
#
# 1 118.8997 25.2202 35.4665 0.0000 0.0000 0.0000
# 2 25.2202 36.6667 29.3972 0.0000 0.0000 0.0000
# 3 35.4665 29.3972 88.4413 0.0000 0.0000 0.0000
# 4 0.0000 0.0000 0.0000 30.4159 0.0000 0.0000
# 5 0.0000 0.0000 0.0000 0.0000 35.0881 0.0000
# 6 0.0000 0.0000 0.0000 0.0000 0.0000 20.0806
#
#
#
# Elastic Compliance Matrix: (Units=1/GPa)
#
#
# Indices 1 2 3 4 5 6 
#
# 1 0.010207 -0.005097 -0.002399 0.000000 0.000000 0.000000
# 2 -0.005097 0.039727 -0.011161 0.000000 0.000000 0.000000
# 3 -0.002399 -0.011161 0.015979 0.000000 0.000000 0.000000
# 4 0.000000 0.000000 0.000000 0.032878 0.000000 0.000000
# 5 0.000000 0.000000 0.000000 0.000000 0.028500 0.000000
# 6 0.000000 0.000000 0.000000 0.000000 0.000000 0.049799
#
#
# Mechanical properties :
#
#
# Convention : Reuss Voigt Hill
#
# Bulk Modulus (GPa) = 34.96675 47.13059 41.04867
# Shear Modulus (GPa) = 22.32775 27.37851 24.85313
#
# Velocity S-wave (km/s) = 3.32209 3.67869 3.50493
# Velocity P-wave (km/s) = 5.65672 6.42959 6.05550
#
# Compressibility (1/GPa) = 0.02859860
#
# Stress axis : x y z
#
# Youngs Moduli (GPa) = 97.96947 25.17185 62.58333
#
# Poissons Ratio (x) = 0.12831 0.15013
# Poissons Ratio (y) = 0.49940 0.69848
# Poissons Ratio (z) = 0.23502 0.28094
#
# Static dielectric constant tensor:
#      x y z
#    x 3.923240 0.000000 0.000000 
#    y 0.000000 3.546400 0.000000 
#    z 0.000000 0.000000 3.768940 
# 
# 
# High freq. dielectric constant tensor:
#      x y z
#    x 1.803330 0.000000 0.000000 
#    y 0.000000 1.770380 0.000000 
#    z 0.000000 0.000000 1.795870 
# 
# From -- ./inp_files/26248.got.cif
#   From: 2010.03.12/outbox.cif.g09.slc.cpg/sg51_14_cif.got.tgz:26248.got - 2010.04.16 13:43:02.
