data_PCOD8209004
_publ_section_title
;
Structure prediction by ZEFSAII (Michael W. Deem and Ramdas Pophale) SiO2 
 PCOD8209004
Probable space group: P M M A
;
_chemical_formula_sum "Si O2"
_cell_formula_units_Z 64
_cell_length_a 24.086192
_cell_length_b 8.642628
_cell_length_c 16.248416
_cell_angle_alpha 90.000000
_cell_angle_beta 90.000000
_cell_angle_gamma 90.000000
_cell_volume 3382.400220
_symmetry_space_group_name_H-M "P M M A"
_symmetry_group_IT_number 51
_symmetry_cell_setting 'orthorhombic'
loop_
_space_group_symop_operation_xyz
x,y,z
1/2-x,-y,z
1/2+x,-y,-z
-x,y,-z
-x,-y,-z
1/2+x,y,-z
1/2-x,y,z
x,-y,z
loop_
_atom_site_type_symbol
_atom_site_label
_atom_site_fract_x
_atom_site_fract_y
_atom_site_fract_z
Si Si1 0.612996 0.816517 0.118868
Si Si2 0.096151 0.177777 0.622758
Si Si3 0.974310 0.682407 0.229010
Si Si4 0.686851 0.180048 0.966334
Si Si5 0.939740 0.321536 0.535631
Si Si6 0.186882 0.680661 0.208656
Si Si7 0.690303 0.177923 0.259327
Si Si8 0.417616 0.180543 0.290029
O O1 0.553475 0.741141 0.142896
O O2 0.655101 0.745821 0.186230
O O3 0.605783 0.000000 0.126150
O O4 0.639325 0.768918 0.031428
O O5 0.053358 0.245379 0.689467
O O6 0.100413 0.272639 0.538357
O O7 0.158726 0.193732 0.654854
O O8 0.079135 0.000000 0.607132
O O9 0.969157 0.500000 0.234586
O O10 0.038900 0.731400 0.230355
O O11 0.750000 0.210353 0.999504
O O12 0.674736 0.280042 0.886101
O O13 0.680039 0.000000 0.944540
O O14 0.931579 0.500000 0.559602
O O15 0.928201 0.219118 0.614979
O O16 0.000000 0.285320 0.500000
O O17 0.250000 0.729683 0.231366
O O18 0.177746 0.500000 0.222357
O O19 0.144996 0.771861 0.267434
O O20 0.750000 0.260934 0.266859
O O21 0.698526 0.000000 0.235254
O O22 0.425482 0.000000 0.275724
#
# Coordination Sequence:
#
# PCOD8209004 Si02
#       8
#     8   8   8   8   8   8   8   8
#     4   9  17  30  51  80 112 147 188 231 273 321
#     4  10  19  32  52  78 107 142 184 228 271 320
#     4  11  21  34  52  78 114 150 182 224 279 336
#     4   9  17  32  57  86 114 147 191 238 279 325
#     4  11  22  36  57  83 111 143 180 225 277 334
#     4  10  22  41  63  86 115 148 182 226 281 336
#     4   8  14  26  46  73 106 143 181 220 264 313
#     4  12  24  39  62  86 110 142 185 234 279 332
#
# _framework density 18.921475000000001
#
# number of rings (size 3 to 8) (size 9 to 14) (size 15 to 20)
#    0.000    2.000    1.250    4.500    0.000    3.250 
#    0.000    1.250    0.000   18.375    0.000    0.000 
#    0.000    0.000    0.000    0.000    0.000    0.000 
#
# Total GULP energy -793403.341855 kJ/mol
# GULP energy per Si atom -12396.927216 kJ/mol
# Density = 1.887841 g / cm^3
# Si number density = 18.921475 Si / 1000 Ang^3
#
#
#
# Elastic Constant Matrix: (Units=GPa)
#
#
# Indices 1 2 3 4 5 6 
#
# 1 96.8166 32.6370 37.5458 0.0000 0.0000 0.0000
# 2 32.6370 51.6483 30.6270 0.0000 0.0000 0.0000
# 3 37.5458 30.6270 71.5206 0.0000 0.0000 0.0000
# 4 0.0000 0.0000 0.0000 27.6535 0.0000 0.0000
# 5 0.0000 0.0000 0.0000 0.0000 23.1383 0.0000
# 6 0.0000 0.0000 0.0000 0.0000 0.0000 22.1890
#
#
#
# Elastic Compliance Matrix: (Units=1/GPa)
#
#
# Indices 1 2 3 4 5 6 
#
# 1 0.014288 -0.006140 -0.004871 0.000000 0.000000 0.000000
# 2 -0.006140 0.028590 -0.009020 0.000000 0.000000 0.000000
# 3 -0.004871 -0.009020 0.020402 0.000000 0.000000 0.000000
# 4 0.000000 0.000000 0.000000 0.036162 0.000000 0.000000
# 5 0.000000 0.000000 0.000000 0.000000 0.043218 0.000000
# 6 0.000000 0.000000 0.000000 0.000000 0.000000 0.045067
#
#
# Mechanical properties :
#
#
# Convention : Reuss Voigt Hill
#
# Bulk Modulus (GPa) = 43.07067 46.84500 44.95784
# Shear Modulus (GPa) = 21.22886 22.54122 21.88504
#
# Velocity S-wave (km/s) = 3.35318 3.45527 3.40461
# Velocity P-wave (km/s) = 6.14850 6.38200 6.26633
#
# Compressibility (1/GPa) = 0.02321766
#
# Stress axis : x y z
#
# Youngs Moduli (GPa) = 69.99049 34.97693 49.01536
#
# Poissons Ratio (x) = 0.21475 0.23877
# Poissons Ratio (y) = 0.42973 0.44211
# Poissons Ratio (z) = 0.34094 0.31549
#
# Static dielectric constant tensor:
#      x y z
#    x 3.685090 0.000000 0.000000 
#    y 0.000000 3.338870 0.000000 
#    z 0.000000 0.000000 3.380910 
# 
# 
# High freq. dielectric constant tensor:
#      x y z
#    x 1.733030 0.000000 0.000000 
#    y 0.000000 1.728100 0.000000 
#    z 0.000000 0.000000 1.722740 
# 
# From -- ./inp_files/26167.got.cif
#   From: 2010.03.12/outbox.cif.g09.slc.cpg/sg51_14_cif.got.tgz:26167.got - 2010.04.16 13:43:02.
