data_PCOD8209525
_publ_section_title
;
Structure prediction by ZEFSAII (Michael W. Deem and Ramdas Pophale) SiO2 
 PCOD8209525
Probable space group: P M M A
;
_chemical_formula_sum "Si O2"
_cell_formula_units_Z 64
_cell_length_a 19.319676
_cell_length_b 9.214927
_cell_length_c 18.885443
_cell_angle_alpha 90.000000
_cell_angle_beta 90.000000
_cell_angle_gamma 90.000000
_cell_volume 3362.164162
_symmetry_space_group_name_H-M "P M M A"
_symmetry_group_IT_number 51
_symmetry_cell_setting 'orthorhombic'
loop_
_space_group_symop_operation_xyz
x,y,z
1/2-x,-y,z
1/2+x,-y,-z
-x,y,-z
-x,-y,-z
1/2+x,y,-z
1/2-x,y,z
x,-y,z
loop_
_atom_site_type_symbol
_atom_site_label
_atom_site_fract_x
_atom_site_fract_y
_atom_site_fract_z
Si Si1 0.828524 0.830244 0.474431
Si Si2 0.675084 0.335453 0.201686
Si Si3 0.876070 0.170912 0.320043
Si Si4 0.939622 0.331780 0.552359
Si Si5 0.328744 0.828702 0.040704
Si Si6 0.415175 0.831429 0.906130
Si Si7 0.437728 0.168671 0.154189
Si Si8 0.514728 0.670384 0.711004
O O1 0.750000 0.774444 0.471770
O O2 0.866758 0.789797 0.401700
O O3 0.868086 0.749316 0.536865
O O4 0.831197 0.000000 0.489231
O O5 0.750000 0.329924 0.163293
O O6 0.652288 0.500000 0.216865
O O7 0.684323 0.248088 0.275475
O O8 0.616476 0.259747 0.156817
O O9 0.944679 0.240026 0.287581
O O10 0.875233 0.000000 0.307061
O O11 0.929498 0.500000 0.536040
O O12 0.951792 0.300517 0.634650
O O13 0.000000 0.270963 0.500000
O O14 0.250000 0.762981 0.037755
O O15 0.366994 0.786232 0.113851
O O16 0.323311 0.000000 0.034581
O O17 0.379114 0.772116 0.977809
O O18 0.498023 0.805931 0.900768
O O19 0.397281 0.000000 0.895571
O O20 0.439189 0.267028 0.224749
O O21 0.436291 0.000000 0.176945
O O22 0.501676 0.500000 0.722872
#
# Coordination Sequence:
#
# PCOD8209525 Si02
#       8
#     8   8   8   8   8   8   8   8
#     4  10  22  38  57  85 117 147 185 235 287 337
#     4  11  23  35  49  76 116 157 191 225 270 329
#     4  11  21  35  56  81 113 150 188 230 278 335
#     4  10  21  38  59  83 112 150 192 232 278 336
#     4   9  18  34  57  84 113 147 189 237 287 337
#     4  10  19  33  56  84 112 145 187 234 279 333
#     4  10  20  35  57  85 114 147 190 235 283 337
#     4  11  22  37  58  84 115 147 188 236 282 335
#
# _framework density 19.035359
#
# number of rings (size 3 to 8) (size 9 to 14) (size 15 to 20)
#    0.000    1.750    2.500    2.250    0.000    5.500 
#    0.000    1.250    0.000    4.875    0.000    0.000 
#    0.000    0.000    0.000    0.000    0.000    0.000 
#
# Total GULP energy -793336.228704 kJ/mol
# GULP energy per Si atom -12395.878574 kJ/mol
# Density = 1.899203 g / cm^3
# Si number density = 19.035359 Si / 1000 Ang^3
#
#
#
# Elastic Constant Matrix: (Units=GPa)
#
#
# Indices 1 2 3 4 5 6 
#
# 1 96.1886 37.9781 54.0288 0.0000 0.0000 0.0000
# 2 37.9781 59.3614 38.9093 0.0000 0.0000 0.0000
# 3 54.0288 38.9093 101.4601 0.0000 0.0000 0.0000
# 4 0.0000 0.0000 0.0000 23.8226 0.0000 0.0000
# 5 0.0000 0.0000 0.0000 0.0000 26.2146 0.0000
# 6 0.0000 0.0000 0.0000 0.0000 0.0000 21.4621
#
#
#
# Elastic Compliance Matrix: (Units=1/GPa)
#
#
# Indices 1 2 3 4 5 6 
#
# 1 0.016470 -0.006396 -0.006318 0.000000 0.000000 0.000000
# 2 -0.006396 0.024986 -0.006176 0.000000 0.000000 0.000000
# 3 -0.006318 -0.006176 0.015589 0.000000 0.000000 0.000000
# 4 0.000000 0.000000 0.000000 0.041977 0.000000 0.000000
# 5 0.000000 0.000000 0.000000 0.000000 0.038147 0.000000
# 6 0.000000 0.000000 0.000000 0.000000 0.000000 0.046594
#
#
# Mechanical properties :
#
#
# Convention : Reuss Voigt Hill
#
# Bulk Modulus (GPa) = 51.90642 57.64917 54.77779
# Shear Modulus (GPa) = 21.93321 22.70611 22.31966
#
# Velocity S-wave (km/s) = 3.39814 3.45750 3.42795
# Velocity P-wave (km/s) = 6.53637 6.80368 6.67136
#
# Compressibility (1/GPa) = 0.01926544
#
# Stress axis : x y z
#
# Youngs Moduli (GPa) = 60.71518 40.02190 64.14857
#
# Poissons Ratio (x) = 0.25599 0.40527
# Poissons Ratio (y) = 0.38835 0.39618
# Poissons Ratio (z) = 0.38358 0.24717
#
# Static dielectric constant tensor:
#      x y z
#    x 3.643810 0.000000 0.000000 
#    y 0.000000 3.316220 0.000000 
#    z 0.000000 0.000000 3.631420 
# 
# 
# High freq. dielectric constant tensor:
#      x y z
#    x 1.737310 0.000000 0.000000 
#    y 0.000000 1.724870 0.000000 
#    z 0.000000 0.000000 1.740240 
# 
# From -- ./inp_files/30672.got.cif
#   From: 2010.03.12/outbox.cif.g09.slc.cpg/sg51_16_cif.got.tgz:30672.got - 2010.04.16 13:43:02.
