data_PCOD8209658
_publ_section_title
;
Structure prediction by ZEFSAII (Michael W. Deem and Ramdas Pophale) SiO2 
 PCOD8209658
Probable space group: P M M A
;
_chemical_formula_sum "Si O2"
_cell_formula_units_Z 56
_cell_length_a 22.723950
_cell_length_b 9.056813
_cell_length_c 14.776099
_cell_angle_alpha 90.000000
_cell_angle_beta 90.000000
_cell_angle_gamma 90.000000
_cell_volume 3041.018191
_symmetry_space_group_name_H-M "P M M A"
_symmetry_group_IT_number 51
_symmetry_cell_setting 'orthorhombic'
loop_
_space_group_symop_operation_xyz
x,y,z
1/2-x,-y,z
1/2+x,-y,-z
-x,y,-z
-x,-y,-z
1/2+x,y,-z
1/2-x,y,z
x,-y,z
loop_
_atom_site_type_symbol
_atom_site_label
_atom_site_fract_x
_atom_site_fract_y
_atom_site_fract_z
Si Si1 0.986278 0.171760 0.396306
Si Si2 0.420540 0.172845 0.915103
Si Si3 0.087449 0.324853 0.290870
Si Si4 0.633178 0.670774 0.382935
Si Si5 0.684138 0.670559 0.190309
Si Si6 0.685385 0.675023 0.572972
Si Si7 0.947751 0.826582 0.881934
O O1 0.921355 0.220994 0.370071
O O2 0.000000 0.207400 0.500000
O O3 0.027785 0.269340 0.334714
O O4 0.994794 0.000000 0.373378
O O5 0.365760 0.248562 0.866837
O O6 0.483529 0.221700 0.873196
O O7 0.412445 0.000000 0.902558
O O8 0.421342 0.215541 0.020707
O O9 0.087483 0.500000 0.287063
O O10 0.141417 0.262535 0.350817
O O11 0.091975 0.260858 0.189937
O O12 0.612624 0.500000 0.391927
O O13 0.675530 0.693250 0.297511
O O14 0.666536 0.724632 0.472824
O O15 0.750000 0.729166 0.166312
O O16 0.679040 0.500000 0.164758
O O17 0.750000 0.740376 0.593082
O O18 0.686417 0.500000 0.577577
O O19 0.942402 0.000000 0.864227
#
# Coordination Sequence:
#
# PCOD8209658 Si02
#       7
#     8   8   8   8   8   8   8
#     4  11  22  34  50  75 110 145 175 217 271 314
#     4   9  19  37  59  80 104 140 179 216 267 330
#     4  11  21  33  54  82 108 138 178 219 261 315
#     4  10  19  34  56  78 104 140 182 222 262 314
#     4  10  21  35  53  81 113 143 178 224 273 315
#     4   9  18  33  52  73 101 139 179 216 254 303
#     4   9  19  37  59  81 107 137 172 220 276 325
#
# _framework density 18.414885000000002
#
# number of rings (size 3 to 8) (size 9 to 14) (size 15 to 20)
#    0.000    2.143    1.429    3.000    0.000    6.571 
#    0.000    2.143    0.000    7.286    0.000    0.000 
#    0.000    0.000    0.000    0.000    0.000    0.000 
#
# Total GULP energy -694369.821757 kJ/mol
# GULP energy per Si atom -12399.461103 kJ/mol
# Density = 1.837297 g / cm^3
# Si number density = 18.414885 Si / 1000 Ang^3
#
#
#
# Elastic Constant Matrix: (Units=GPa)
#
#
# Indices 1 2 3 4 5 6 
#
# 1 131.4196 32.3456 70.0257 0.0000 0.0000 0.0000
# 2 32.3456 45.3200 43.1813 0.0000 0.0000 0.0000
# 3 70.0257 43.1813 129.5406 0.0000 0.0000 0.0000
# 4 0.0000 0.0000 0.0000 29.9506 0.0000 0.0000
# 5 0.0000 0.0000 0.0000 0.0000 24.6245 0.0000
# 6 0.0000 0.0000 0.0000 0.0000 0.0000 80.9009
#
#
#
# Elastic Compliance Matrix: (Units=1/GPa)
#
#
# Indices 1 2 3 4 5 6 
#
# 1 0.010996 -0.003201 -0.004877 0.000000 0.000000 0.000000
# 2 -0.003201 0.033267 -0.009359 0.000000 0.000000 0.000000
# 3 -0.004877 -0.009359 0.013476 0.000000 0.000000 0.000000
# 4 0.000000 0.000000 0.000000 0.033388 0.000000 0.000000
# 5 0.000000 0.000000 0.000000 0.000000 0.040610 0.000000
# 6 0.000000 0.000000 0.000000 0.000000 0.000000 0.012361
#
#
# Mechanical properties :
#
#
# Convention : Reuss Voigt Hill
#
# Bulk Modulus (GPa) = 43.73546 66.37616 55.05581
# Shear Modulus (GPa) = 26.79629 37.81038 32.30333
#
# Velocity S-wave (km/s) = 3.81877 4.53620 4.19286
# Velocity P-wave (km/s) = 6.57614 7.97240 7.30770
#
# Compressibility (1/GPa) = 0.02286474
#
# Stress axis : x y z
#
# Youngs Moduli (GPa) = 90.94485 30.05956 74.20817
#
# Poissons Ratio (x) = 0.09622 0.36190
# Poissons Ratio (y) = 0.29112 0.69451
# Poissons Ratio (z) = 0.44353 0.28133
#
# Static dielectric constant tensor:
#      x y z
#    x 3.471130 0.000000 0.000000 
#    y 0.000000 3.179220 0.000000 
#    z 0.000000 0.000000 3.558430 
# 
# 
# High freq. dielectric constant tensor:
#      x y z
#    x 1.711540 0.000000 0.000000 
#    y 0.000000 1.695710 0.000000 
#    z 0.000000 0.000000 1.722290 
# 
# From -- ./inp_files/25665.got.cif
#   From: 2010.03.12/outbox.cif.g09.slc.cpg/sg51_13_cif.got.tgz:25665.got - 2010.04.16 13:43:02.
