data_PCOD8209356
_publ_section_title
;
Structure prediction by ZEFSAII (Michael W. Deem and Ramdas Pophale) SiO2 
 PCOD8209356
Probable space group: P M M A
;
_chemical_formula_sum "Si O2"
_cell_formula_units_Z 64
_cell_length_a 9.032580
_cell_length_b 28.027415
_cell_length_c 13.753813
_cell_angle_alpha 90.000000
_cell_angle_beta 90.000000
_cell_angle_gamma 90.000000
_cell_volume 3481.913486
_symmetry_space_group_name_H-M "P M M A"
_symmetry_group_IT_number 51
_symmetry_cell_setting 'orthorhombic'
loop_
_space_group_symop_operation_xyz
x,y,z
1/2-x,-y,z
1/2+x,-y,-z
-x,y,-z
-x,-y,-z
1/2+x,y,-z
1/2-x,y,z
x,-y,z
loop_
_atom_site_type_symbol
_atom_site_label
_atom_site_fract_x
_atom_site_fract_y
_atom_site_fract_z
Si Si1 0.411885 0.056348 0.410242
Si Si2 0.421070 0.444254 0.600014
Si Si3 0.920325 0.227079 0.228984
Si Si4 0.422488 0.275823 0.397124
Si Si5 0.425170 0.945447 0.195543
Si Si6 0.576381 0.860325 0.097402
Si Si7 0.423708 0.681532 0.896474
Si Si8 0.575739 0.631071 0.725333
O O1 0.500000 0.079849 0.500000
O O2 0.250000 0.079584 0.413882
O O3 0.483498 0.066664 0.304760
O O4 0.399652 0.000000 0.424939
O O5 0.500000 0.430001 0.500000
O O6 0.250000 0.428483 0.593362
O O7 0.436706 0.500000 0.621707
O O8 0.503333 0.417489 0.687089
O O9 0.750000 0.230074 0.261044
O O10 0.961012 0.175715 0.184852
O O11 0.954870 0.266218 0.146761
O O12 0.018953 0.234950 0.324460
O O13 0.500000 0.270933 0.500000
O O14 0.250000 0.267908 0.412145
O O15 0.459169 0.327365 0.352072
O O16 0.250000 0.936506 0.188862
O O17 0.511950 0.912346 0.120884
O O18 0.462609 0.000000 0.168790
O O19 0.750000 0.864142 0.078689
O O20 0.500000 0.840780 0.000000
O O21 0.250000 0.670781 0.905918
O O22 0.498756 0.642183 0.827667
O O23 0.500000 0.678166 0.000000
O O24 0.750000 0.624264 0.741359
#
# Coordination Sequence:
#
# PCOD8209356 Si02
#       8
#     8   8   8   8   8   8   8   8
#     4   8  14  26  46  71  97 124 154 190 232 277
#     4  10  20  33  50  74 105 142 183 225 269 317
#     4   9  20  37  55  77 105 136 171 210 253 305
#     4  10  20  33  53  80 110 143 176 213 257 308
#     4   9  19  36  55  76 104 136 170 208 249 295
#     4  11  23  38  57  79 102 131 167 208 255 305
#     4  10  19  33  54  78 105 135 170 216 265 314
#     4  10  20  33  51  77 107 141 181 222 267 316
#
# _framework density 18.380697999999999
#
# number of rings (size 3 to 8) (size 9 to 14) (size 15 to 20)
#    0.000    2.375    0.000    3.375    0.000    5.750 
#    0.000    1.875    0.000    1.875    0.000    0.000 
#    0.000    0.000    0.000    0.000    0.000    0.000 
#
# Total GULP energy -793672.975586 kJ/mol
# GULP energy per Si atom -12401.140244 kJ/mol
# Density = 1.833886 g / cm^3
# Si number density = 18.380698 Si / 1000 Ang^3
#
#
#
# Elastic Constant Matrix: (Units=GPa)
#
#
# Indices 1 2 3 4 5 6 
#
# 1 112.7161 45.5679 71.8805 0.0000 0.0000 0.0000
# 2 45.5679 68.0073 43.5197 0.0000 0.0000 0.0000
# 3 71.8805 43.5197 130.3246 0.0000 0.0000 0.0000
# 4 0.0000 0.0000 0.0000 21.9239 0.0000 0.0000
# 5 0.0000 0.0000 0.0000 0.0000 39.5887 0.0000
# 6 0.0000 0.0000 0.0000 0.0000 0.0000 23.7105
#
#
#
# Elastic Compliance Matrix: (Units=1/GPa)
#
#
# Indices 1 2 3 4 5 6 
#
# 1 0.015534 -0.006264 -0.006476 0.000000 0.000000 0.000000
# 2 -0.006264 0.021227 -0.003633 0.000000 0.000000 0.000000
# 3 -0.006476 -0.003633 0.012458 0.000000 0.000000 0.000000
# 4 0.000000 0.000000 0.000000 0.045612 0.000000 0.000000
# 5 0.000000 0.000000 0.000000 0.000000 0.025260 0.000000
# 6 0.000000 0.000000 0.000000 0.000000 0.000000 0.042175
#
#
# Mechanical properties :
#
#
# Convention : Reuss Voigt Hill
#
# Bulk Modulus (GPa) = 60.70923 70.33159 65.52041
# Shear Modulus (GPa) = 24.93712 27.04996 25.99354
#
# Velocity S-wave (km/s) = 3.68734 3.84037 3.76463
# Velocity P-wave (km/s) = 7.15745 7.61653 7.39056
#
# Compressibility (1/GPa) = 0.01647196
#
# Stress axis : x y z
#
# Youngs Moduli (GPa) = 64.37400 47.11047 80.26841
#
# Poissons Ratio (x) = 0.29512 0.51982
# Poissons Ratio (y) = 0.40327 0.29163
# Poissons Ratio (z) = 0.41689 0.17116
#
# Static dielectric constant tensor:
#      x y z
#    x 3.530990 0.000000 0.000000 
#    y 0.000000 3.203870 0.000000 
#    z 0.000000 0.000000 3.397470 
# 
# 
# High freq. dielectric constant tensor:
#      x y z
#    x 1.721580 0.000000 0.000000 
#    y 0.000000 1.690110 0.000000 
#    z 0.000000 0.000000 1.715130 
# 
# From -- ./inp_files/14802.got.cif
#   From: 2010.03.12/outbox.cif.g09.slc.cpg/sg51_8_cif.got.tgz:14802.got - 2010.04.16 13:43:02.
