data_PCOD8209058
_publ_section_title
;
Structure prediction by ZEFSAII (Michael W. Deem and Ramdas Pophale) SiO2 
 PCOD8209058
Probable space group: P M M A
;
_chemical_formula_sum "Si O2"
_cell_formula_units_Z 64
_cell_length_a 18.667805
_cell_length_b 9.318299
_cell_length_c 20.156498
_cell_angle_alpha 90.000000
_cell_angle_beta 90.000000
_cell_angle_gamma 90.000000
_cell_volume 3506.266943
_symmetry_space_group_name_H-M "P M M A"
_symmetry_group_IT_number 51
_symmetry_cell_setting 'orthorhombic'
loop_
_space_group_symop_operation_xyz
x,y,z
1/2-x,-y,z
1/2+x,-y,-z
-x,y,-z
-x,-y,-z
1/2+x,y,-z
1/2-x,y,z
x,-y,z
loop_
_atom_site_type_symbol
_atom_site_label
_atom_site_fract_x
_atom_site_fract_y
_atom_site_fract_z
Si Si1 0.080721 0.830083 0.936930
Si Si2 0.065289 0.334601 0.317104
Si Si3 0.421944 0.830058 0.695717
Si Si4 0.171065 0.828790 0.817139
Si Si5 0.667706 0.168289 0.431064
Si Si6 0.167320 0.667556 0.197306
Si Si7 0.079152 0.170011 0.084869
Si Si8 0.924056 0.667143 0.529776
O O1 0.139698 0.770391 0.886349
O O2 0.003202 0.777112 0.910942
O O3 0.076105 0.000000 0.937139
O O4 0.103531 0.781802 0.010819
O O5 0.042379 0.500000 0.310834
O O6 0.131698 0.298163 0.268812
O O7 0.084665 0.297927 0.392764
O O8 0.999309 0.237573 0.295837
O O9 0.375944 0.771338 0.756820
O O10 0.381647 0.778832 0.629520
O O11 0.430405 0.000000 0.697359
O O12 0.250000 0.764511 0.809044
O O13 0.172691 0.000000 0.816639
O O14 0.750000 0.208127 0.415928
O O15 0.641380 0.249491 0.496305
O O16 0.659083 0.000000 0.443003
O O17 0.250000 0.717291 0.200773
O O18 0.161486 0.500000 0.181007
O O19 0.127252 0.751663 0.139093
O O20 0.087202 0.000000 0.096205
O O21 0.915341 0.500000 0.514229
O O22 0.000000 0.722292 0.500000
#
# Coordination Sequence:
#
# PCOD8209058 Si02
#       8
#     8   8   8   8   8   8   8   8
#     4   8  15  28  48  76 107 134 166 213 262 302
#     4  10  21  37  57  77 100 132 172 216 259 310
#     4  10  19  32  53  78 104 135 170 210 253 301
#     4   9  16  26  43  70 103 136 169 203 244 299
#     4  10  21  35  52  79 113 143 170 206 259 318
#     4  10  22  38  53  73 104 140 175 214 265 318
#     4   9  17  32  54  78 103 132 171 218 260 302
#     4  10  20  36  57  80 103 132 177 224 261 307
#
# _framework density 18.253032000000001
#
# number of rings (size 3 to 8) (size 9 to 14) (size 15 to 20)
#    0.000    2.500    1.250    1.875    0.000    5.250 
#    0.000    3.750    0.000    1.875    0.000    0.000 
#    0.000    0.000    0.000    0.000    0.000    0.000 
#
# Total GULP energy -793472.811932 kJ/mol
# GULP energy per Si atom -12398.012686 kJ/mol
# Density = 1.821149 g / cm^3
# Si number density = 18.253032 Si / 1000 Ang^3
#
#
#
# Elastic Constant Matrix: (Units=GPa)
#
#
# Indices 1 2 3 4 5 6 
#
# 1 114.3170 34.4448 72.1945 0.0000 0.0000 0.0000
# 2 34.4448 27.8953 36.3547 0.0000 0.0000 0.0000
# 3 72.1945 36.3547 149.0791 0.0000 0.0000 0.0000
# 4 0.0000 0.0000 0.0000 24.6338 0.0000 0.0000
# 5 0.0000 0.0000 0.0000 0.0000 26.7604 0.0000
# 6 0.0000 0.0000 0.0000 0.0000 0.0000 18.1924
#
#
#
# Elastic Compliance Matrix: (Units=1/GPa)
#
#
# Indices 1 2 3 4 5 6 
#
# 1 0.015515 -0.013729 -0.004165 0.000000 0.000000 0.000000
# 2 -0.013729 0.064698 -0.009129 0.000000 0.000000 0.000000
# 3 -0.004165 -0.009129 0.010951 0.000000 0.000000 0.000000
# 4 0.000000 0.000000 0.000000 0.040595 0.000000 0.000000
# 5 0.000000 0.000000 0.000000 0.000000 0.037369 0.000000
# 6 0.000000 0.000000 0.000000 0.000000 0.000000 0.054968
#
#
# Mechanical properties :
#
#
# Convention : Reuss Voigt Hill
#
# Bulk Modulus (GPa) = 26.94138 64.14214 45.54176
# Shear Modulus (GPa) = 17.21087 23.80383 20.50735
#
# Velocity S-wave (km/s) = 3.07401 3.61515 3.35551
# Velocity P-wave (km/s) = 5.23367 7.25552 6.32590
#
# Compressibility (1/GPa) = 0.03711762
#
# Stress axis : x y z
#
# Youngs Moduli (GPa) = 64.45444 15.45643 91.31412
#
# Poissons Ratio (x) = 0.21220 0.38036
# Poissons Ratio (y) = 0.88489 0.83359
# Poissons Ratio (z) = 0.26848 0.14110
#
# Static dielectric constant tensor:
#      x y z
#    x 3.479430 0.000000 0.000000 
#    y 0.000000 3.005320 0.000000 
#    z 0.000000 0.000000 3.616390 
# 
# 
# High freq. dielectric constant tensor:
#      x y z
#    x 1.710160 0.000000 0.000000 
#    y 0.000000 1.669880 0.000000 
#    z 0.000000 0.000000 1.723620 
# 
# From -- ./inp_files/33767.got.cif
#   From: 2010.03.12/outbox.cif.g09.slc.cpg/sg51_17_cif.got.tgz:33767.got - 2010.04.16 13:43:02.
