data_PCOD8209929
_publ_section_title
;
Structure prediction by ZEFSAII (Michael W. Deem and Ramdas Pophale) SiO2 
 PCOD8209929
Probable space group: P M M A
;
_chemical_formula_sum "Si O2"
_cell_formula_units_Z 56
_cell_length_a 15.478524
_cell_length_b 9.388484
_cell_length_c 19.841087
_cell_angle_alpha 90.000000
_cell_angle_beta 90.000000
_cell_angle_gamma 90.000000
_cell_volume 2883.304281
_symmetry_space_group_name_H-M "P M M A"
_symmetry_group_IT_number 51
_symmetry_cell_setting 'orthorhombic'
loop_
_space_group_symop_operation_xyz
x,y,z
1/2-x,-y,z
1/2+x,-y,-z
-x,y,-z
-x,-y,-z
1/2+x,y,-z
1/2-x,y,z
x,-y,z
loop_
_atom_site_type_symbol
_atom_site_label
_atom_site_fract_x
_atom_site_fract_y
_atom_site_fract_z
Si Si1 0.844196 0.658397 0.124472
Si Si2 0.501968 0.831511 0.923839
Si Si3 0.250000 0.167715 0.643003
Si Si4 0.067820 0.336122 0.445855
Si Si5 0.151274 0.833868 0.177348
Si Si6 0.929941 0.665387 0.705491
Si Si7 0.377132 0.656779 0.725627
Si Si8 0.250000 0.660523 0.512195
O O1 0.750000 0.694018 0.091932
O O2 0.874883 0.500000 0.101540
O O3 0.828460 0.660527 0.204084
O O4 0.913658 0.776716 0.107740
O O5 0.586505 0.778690 0.882033
O O6 0.499021 0.000000 0.923082
O O7 0.500000 0.772191 0.000000
O O8 0.163102 0.226464 0.676696
O O9 0.250000 0.216534 0.566649
O O10 0.250000 0.000000 0.648102
O O11 0.040437 0.500000 0.439215
O O12 0.062964 0.270245 0.370498
O O13 0.165994 0.315321 0.467392
O O14 0.000000 0.265616 0.500000
O O15 0.250000 0.806209 0.153627
O O16 0.136578 0.751709 0.247765
O O17 0.134873 0.000000 0.191203
O O18 0.900690 0.500000 0.704260
O O19 0.022753 0.687835 0.739486
O O20 0.366362 0.500000 0.691666
O O21 0.250000 0.500000 0.542894
#
# Coordination Sequence:
#
# PCOD8209929 Si02
#       8
#     8   8   4   8   8   8   8   4
#     4  10  20  36  58  87 120 151 186 231 289 350
#     4  10  22  40  62  87 117 157 201 241 282 338
#     4  12  24  34  52  84 116 149 194 239 280 345
#     4   9  18  33  54  82 109 139 187 238 285 339
#     4  10  22  39  58  84 120 159 194 236 295 354
#     4  10  20  35  61  89 111 142 193 249 291 340
#     4  10  19  35  57  82 114 151 184 230 296 348
#     4  10  20  36  56  74 106 151 186 231 294 341
#
# _framework density 19.422160000000002
#
# number of rings (size 3 to 8) (size 9 to 14) (size 15 to 20)
#    0.000    2.000    2.143    1.500    1.000    4.857 
#    0.000    2.143    0.000    1.714    0.000    0.000 
#    0.000    0.000    0.000    0.000    0.000    0.000 
#
# Total GULP energy -694146.707054 kJ/mol
# GULP energy per Si atom -12395.476912 kJ/mol
# Density = 1.937795 g / cm^3
# Si number density = 19.422160 Si / 1000 Ang^3
#
#
#
# Elastic Constant Matrix: (Units=GPa)
#
#
# Indices 1 2 3 4 5 6 
#
# 1 125.4995 26.4626 47.7440 0.0000 0.0000 0.0000
# 2 26.4626 55.3132 30.4872 0.0000 0.0000 0.0000
# 3 47.7440 30.4872 113.6234 0.0000 0.0000 0.0000
# 4 0.0000 0.0000 0.0000 24.2664 0.0000 0.0000
# 5 0.0000 0.0000 0.0000 0.0000 28.2397 0.0000
# 6 0.0000 0.0000 0.0000 0.0000 0.0000 21.1132
#
#
#
# Elastic Compliance Matrix: (Units=1/GPa)
#
#
# Indices 1 2 3 4 5 6 
#
# 1 0.009854 -0.002854 -0.003375 0.000000 0.000000 0.000000
# 2 -0.002854 0.022043 -0.004715 0.000000 0.000000 0.000000
# 3 -0.003375 -0.004715 0.011484 0.000000 0.000000 0.000000
# 4 0.000000 0.000000 0.000000 0.041209 0.000000 0.000000
# 5 0.000000 0.000000 0.000000 0.000000 0.035411 0.000000
# 6 0.000000 0.000000 0.000000 0.000000 0.000000 0.047364
#
#
# Mechanical properties :
#
#
# Convention : Reuss Voigt Hill
#
# Bulk Modulus (GPa) = 46.52674 55.98041 51.25357
# Shear Modulus (GPa) = 25.45589 27.37334 26.41462
#
# Velocity S-wave (km/s) = 3.62423 3.75825 3.69185
# Velocity P-wave (km/s) = 6.44367 6.90783 6.67979
#
# Compressibility (1/GPa) = 0.02149302
#
# Stress axis : x y z
#
# Youngs Moduli (GPa) = 101.48335 45.36526 87.07577
#
# Poissons Ratio (x) = 0.12948 0.29386
# Poissons Ratio (y) = 0.28965 0.41059
# Poissons Ratio (z) = 0.34248 0.21391
#
# Static dielectric constant tensor:
#      x y z
#    x 3.548040 0.000000 0.000000 
#    y 0.000000 3.237070 0.000000 
#    z 0.000000 0.000000 3.606680 
# 
# 
# High freq. dielectric constant tensor:
#      x y z
#    x 1.770210 0.000000 0.000000 
#    y 0.000000 1.721620 0.000000 
#    z 0.000000 0.000000 1.752890 
# 
# From -- ./inp_files/33549.got.cif
#   From: 2010.03.12/outbox.cif.g09.slc.cpg/sg51_17_cif.got.tgz:33549.got - 2010.04.16 13:43:02.
