data_PCOD8209063
_publ_section_title
;
Structure prediction by ZEFSAII (Michael W. Deem and Ramdas Pophale) SiO2 
 PCOD8209063
Probable space group: P M M A
;
_chemical_formula_sum "Si O2"
_cell_formula_units_Z 40
_cell_length_a 8.749040
_cell_length_b 13.662036
_cell_length_c 18.767630
_cell_angle_alpha 90.000000
_cell_angle_beta 90.000000
_cell_angle_gamma 90.000000
_cell_volume 2243.289173
_symmetry_space_group_name_H-M "P M M A"
_symmetry_group_IT_number 51
_symmetry_cell_setting 'orthorhombic'
loop_
_space_group_symop_operation_xyz
x,y,z
1/2-x,-y,z
1/2+x,-y,-z
-x,y,-z
-x,-y,-z
1/2+x,y,-z
1/2-x,y,z
x,-y,z
loop_
_atom_site_type_symbol
_atom_site_label
_atom_site_fract_x
_atom_site_fract_y
_atom_site_fract_z
Si Si1 0.931320 0.297084 0.424665
Si Si2 0.430814 0.892703 0.653172
Si Si3 0.426432 0.387515 0.289257
Si Si4 0.930126 0.111713 0.924921
Si Si5 0.068958 0.782092 0.792811
O O1 0.750000 0.305541 0.426823
O O2 0.985378 0.186146 0.405517
O O3 0.000000 0.328168 0.500000
O O4 0.993045 0.370832 0.365231
O O5 0.250000 0.899501 0.651813
O O6 0.483437 0.857651 0.731292
O O7 0.502785 0.000000 0.637088
O O8 0.250000 0.356982 0.295907
O O9 0.445485 0.500000 0.267430
O O10 0.506392 0.325006 0.227106
O O11 0.750000 0.124123 0.928449
O O12 0.997525 0.183961 0.866461
O O13 0.977302 0.000000 0.906981
O O14 0.000000 0.144043 0.000000
O O15 0.250000 0.776873 0.799874
#
# Coordination Sequence:
#
# PCOD8209063 Si02
#       5
#     8   8   8   8   8
#     4  10  20  33  50  72  99 131 166 208 257 308
#     4   8  15  28  46  69  97 130 166 201 241 292
#     4  10  21  37  56  76  98 127 166 213 262 311
#     4  10  20  33  51  78 112 147 180 212 247 291
#     4  10  19  32  53  78 105 136 169 210 256 305
#
# _framework density 17.830960000000001
#
# number of rings (size 3 to 8) (size 9 to 14) (size 15 to 20)
#    0.000    2.400    0.000    4.200    0.000    4.400 
#    0.000    0.000    0.000   12.000    0.000    0.000 
#    0.000    0.000    0.000    0.000    0.000    0.000 
#
# Total GULP energy -496003.549303 kJ/mol
# GULP energy per Si atom -12400.088733 kJ/mol
# Density = 1.779038 g / cm^3
# Si number density = 17.830960 Si / 1000 Ang^3
#
#
#
# Elastic Constant Matrix: (Units=GPa)
#
#
# Indices 1 2 3 4 5 6 
#
# 1 81.0285 29.1562 47.0337 0.0000 0.0000 0.0000
# 2 29.1562 82.9151 42.6633 0.0000 0.0000 0.0000
# 3 47.0337 42.6633 130.1607 0.0000 0.0000 0.0000
# 4 0.0000 0.0000 0.0000 21.7676 0.0000 0.0000
# 5 0.0000 0.0000 0.0000 0.0000 31.0226 0.0000
# 6 0.0000 0.0000 0.0000 0.0000 0.0000 25.2012
#
#
#
# Elastic Compliance Matrix: (Units=1/GPa)
#
#
# Indices 1 2 3 4 5 6 
#
# 1 0.016315 -0.003252 -0.004829 0.000000 0.000000 0.000000
# 2 -0.003252 0.015155 -0.003792 0.000000 0.000000 0.000000
# 3 -0.004829 -0.003792 0.010671 0.000000 0.000000 0.000000
# 4 0.000000 0.000000 0.000000 0.045940 0.000000 0.000000
# 5 0.000000 0.000000 0.000000 0.000000 0.032235 0.000000
# 6 0.000000 0.000000 0.000000 0.000000 0.000000 0.039681
#
#
# Mechanical properties :
#
#
# Convention : Reuss Voigt Hill
#
# Bulk Modulus (GPa) = 54.36713 59.09009 56.72861
# Shear Modulus (GPa) = 26.33308 27.28168 26.80738
#
# Velocity S-wave (km/s) = 3.84711 3.91579 3.88160
# Velocity P-wave (km/s) = 7.09155 7.32499 7.20922
#
# Compressibility (1/GPa) = 0.01839347
#
# Stress axis : x y z
#
# Youngs Moduli (GPa) = 61.29415 65.98301 93.71181
#
# Poissons Ratio (x) = 0.21457 0.45258
# Poissons Ratio (y) = 0.19933 0.35540
# Poissons Ratio (z) = 0.29602 0.25024
#
# Static dielectric constant tensor:
#      x y z
#    x 3.279380 0.000000 0.000000 
#    y 0.000000 3.401730 0.000000 
#    z 0.000000 0.000000 3.227240 
# 
# 
# High freq. dielectric constant tensor:
#      x y z
#    x 1.691410 0.000000 0.000000 
#    y 0.000000 1.683520 0.000000 
#    z 0.000000 0.000000 1.681360 
# 
# From -- ./inp_files/27037.got.cif
#   From: 2010.03.12/outbox.cif.g09.slc.cpg/sg51_14_cif.got.tgz:27037.got - 2010.04.16 13:43:02.
