data_PCOD8209635
_publ_section_title
;
Structure prediction by ZEFSAII (Michael W. Deem and Ramdas Pophale) SiO2 
 PCOD8209635
Probable space group: P M M A
;
_chemical_formula_sum "Si O2"
_cell_formula_units_Z 48
_cell_length_a 19.130694
_cell_length_b 9.139336
_cell_length_c 15.035792
_cell_angle_alpha 90.000000
_cell_angle_beta 90.000000
_cell_angle_gamma 90.000000
_cell_volume 2628.885545
_symmetry_space_group_name_H-M "P M M A"
_symmetry_group_IT_number 51
_symmetry_cell_setting 'orthorhombic'
loop_
_space_group_symop_operation_xyz
x,y,z
1/2-x,-y,z
1/2+x,-y,-z
-x,y,-z
-x,-y,-z
1/2+x,y,-z
1/2-x,y,z
x,-y,z
loop_
_atom_site_type_symbol
_atom_site_label
_atom_site_fract_x
_atom_site_fract_y
_atom_site_fract_z
Si Si1 0.829368 0.670539 0.879002
Si Si2 0.672014 0.826749 0.393672
Si Si3 0.427867 0.169510 0.450000
Si Si4 0.916614 0.826267 0.226873
Si Si5 0.329798 0.828731 0.944501
Si Si6 0.058739 0.327517 0.266910
O O1 0.750000 0.719344 0.857491
O O2 0.834054 0.500000 0.899017
O O3 0.876372 0.715156 0.795488
O O4 0.857717 0.751010 0.966846
O O5 0.750000 0.759184 0.392316
O O6 0.634963 0.781950 0.485455
O O7 0.627971 0.766446 0.310374
O O8 0.675879 0.000000 0.385196
O O9 0.500000 0.198604 0.500000
O O10 0.422826 0.269941 0.364190
O O11 0.422138 0.000000 0.421703
O O12 0.876885 0.778193 0.137833
O O13 0.991119 0.749552 0.226481
O O14 0.927346 0.000000 0.233175
O O15 0.250000 0.783153 0.923743
O O16 0.336251 0.000000 0.960236
O O17 0.045946 0.500000 0.271002
#
# Coordination Sequence:
#
# PCOD8209635 Si02
#       6
#     8   8   8   8   8   8
#     4   9  20  39  57  73 102 145 184 219 265 318
#     4   9  17  31  54  81 106 136 175 215 258 317
#     4  10  19  35  56  78 104 138 175 214 267 322
#     4  10  19  34  55  80 111 142 172 214 269 322
#     4   9  18  33  56  84 109 137 177 224 269 311
#     4  11  23  36  54  79 106 141 182 221 264 316
#
# _framework density 18.258686999999998
#
# number of rings (size 3 to 8) (size 9 to 14) (size 15 to 20)
#    0.000    2.333    1.667    1.000    0.000    5.667 
#    0.000    3.333    0.000    2.500    0.000    0.000 
#    0.000    0.000    0.000    0.000    0.000    0.000 
#
# Total GULP energy -595294.735710 kJ/mol
# GULP energy per Si atom -12401.973661 kJ/mol
# Density = 1.821713 g / cm^3
# Si number density = 18.258687 Si / 1000 Ang^3
#
#
#
# Elastic Constant Matrix: (Units=GPa)
#
#
# Indices 1 2 3 4 5 6 
#
# 1 122.3663 39.4484 75.3424 0.0000 0.0000 0.0000
# 2 39.4484 40.9362 52.2941 0.0000 0.0000 0.0000
# 3 75.3424 52.2941 152.5992 0.0000 0.0000 0.0000
# 4 0.0000 0.0000 0.0000 14.0946 0.0000 0.0000
# 5 0.0000 0.0000 0.0000 0.0000 28.5232 0.0000
# 6 0.0000 0.0000 0.0000 0.0000 0.0000 20.0041
#
#
#
# Elastic Compliance Matrix: (Units=1/GPa)
#
#
# Indices 1 2 3 4 5 6 
#
# 1 0.012971 -0.007681 -0.003772 0.000000 0.000000 0.000000
# 2 -0.007681 0.047997 -0.012656 0.000000 0.000000 0.000000
# 3 -0.003772 -0.012656 0.012752 0.000000 0.000000 0.000000
# 4 0.000000 0.000000 0.000000 0.070949 0.000000 0.000000
# 5 0.000000 0.000000 0.000000 0.000000 0.035059 0.000000
# 6 0.000000 0.000000 0.000000 0.000000 0.000000 0.049990
#
#
# Mechanical properties :
#
#
# Convention : Reuss Voigt Hill
#
# Bulk Modulus (GPa) = 39.21088 72.23015 55.72051
# Shear Modulus (GPa) = 17.45585 22.44551 19.95068
#
# Velocity S-wave (km/s) = 3.09533 3.50995 3.30914
# Velocity P-wave (km/s) = 5.85633 7.48809 6.72191
#
# Compressibility (1/GPa) = 0.02550313
#
# Stress axis : x y z
#
# Youngs Moduli (GPa) = 77.09664 20.83450 78.41677
#
# Poissons Ratio (x) = 0.16003 0.29577
# Poissons Ratio (y) = 0.59218 0.99243
# Poissons Ratio (z) = 0.29079 0.26368
#
# Static dielectric constant tensor:
#      x y z
#    x 3.566570 0.000000 0.000000 
#    y 0.000000 3.121860 0.000000 
#    z 0.000000 0.000000 3.481040 
# 
# 
# High freq. dielectric constant tensor:
#      x y z
#    x 1.714490 0.000000 0.000000 
#    y 0.000000 1.682580 0.000000 
#    z 0.000000 0.000000 1.718200 
# 
# From -- ./inp_files/24741.got.cif
#   From: 2010.03.12/outbox.cif.g09.slc.cpg/sg51_13_cif.got.tgz:24741.got - 2010.04.16 13:43:02.
