data_PCOD8209837
_publ_section_title
;
Structure prediction by ZEFSAII (Michael W. Deem and Ramdas Pophale) SiO2 
 PCOD8209837
Probable space group: P M M A
;
_chemical_formula_sum "Si O2"
_cell_formula_units_Z 56
_cell_length_a 14.841038
_cell_length_b 8.683778
_cell_length_c 21.895447
_cell_angle_alpha 90.000000
_cell_angle_beta 90.000000
_cell_angle_gamma 90.000000
_cell_volume 2821.803743
_symmetry_space_group_name_H-M "P M M A"
_symmetry_group_IT_number 51
_symmetry_cell_setting 'orthorhombic'
loop_
_space_group_symop_operation_xyz
x,y,z
1/2-x,-y,z
1/2+x,-y,-z
-x,y,-z
-x,-y,-z
1/2+x,y,-z
1/2-x,y,z
x,-y,z
loop_
_atom_site_type_symbol
_atom_site_label
_atom_site_fract_x
_atom_site_fract_y
_atom_site_fract_z
Si Si1 0.250000 0.817799 0.885928
Si Si2 0.848628 0.674111 0.389242
Si Si3 0.750000 0.182914 0.975811
Si Si4 0.352413 0.822239 0.356621
Si Si5 0.441425 0.818146 0.838582
Si Si6 0.900009 0.181586 0.509746
Si Si7 0.939172 0.682035 0.943211
Si Si8 0.011763 0.318583 0.710175
O O1 0.340024 0.757609 0.852300
O O2 0.250000 0.000000 0.886350
O O3 0.250000 0.754604 0.954897
O O4 0.750000 0.684303 0.358204
O O5 0.876495 0.500000 0.403828
O O6 0.841190 0.762489 0.453146
O O7 0.921209 0.744389 0.342548
O O8 0.660018 0.243980 0.943264
O O9 0.750000 0.000000 0.972509
O O10 0.250000 0.804692 0.335045
O O11 0.361940 0.757800 0.425743
O O12 0.410607 0.719207 0.310635
O O13 0.384101 0.000000 0.353258
O O14 0.512244 0.732064 0.881401
O O15 0.465060 0.777273 0.769792
O O16 0.449417 0.000000 0.849663
O O17 0.000000 0.246895 0.500000
O O18 0.897131 0.000000 0.510016
O O19 0.927977 0.500000 0.945110
O O20 0.000000 0.741116 0.000000
O O21 0.023580 0.500000 0.722437
#
# Coordination Sequence:
#
# PCOD8209837 Si02
#       8
#     4   8   4   8   8   8   8   8
#     4   9  20  37  63  97 127 157 200 247 294 357
#     4  10  22  38  56  82 118 156 193 235 293 362
#     4  11  21  39  67  97 129 165 206 253 302 355
#     4  10  21  39  62  86 114 152 199 251 304 362
#     4  11  23  42  65  91 124 164 207 250 301 360
#     4  10  19  34  59  87 115 146 189 246 303 354
#     4  11  23  40  63  95 131 164 202 251 306 359
#     4  11  24  41  60  85 119 158 199 247 301 357
#
# _framework density 19.845461
#
# number of rings (size 3 to 8) (size 9 to 14) (size 15 to 20)
#    0.000    1.571    2.857    1.929    1.000    3.143 
#    1.286    1.071    0.000    0.000    0.000    0.000 
#    0.000    0.000    0.000    0.000    0.000    0.000 
#
# Total GULP energy -694539.158604 kJ/mol
# GULP energy per Si atom -12402.484975 kJ/mol
# Density = 1.980029 g / cm^3
# Si number density = 19.845461 Si / 1000 Ang^3
#
#
#
# Elastic Constant Matrix: (Units=GPa)
#
#
# Indices 1 2 3 4 5 6 
#
# 1 145.8763 30.5778 53.3839 0.0000 0.0000 0.0000
# 2 30.5778 43.2618 15.1896 0.0000 0.0000 0.0000
# 3 53.3839 15.1896 109.0153 0.0000 0.0000 0.0000
# 4 0.0000 0.0000 0.0000 28.1592 0.0000 0.0000
# 5 0.0000 0.0000 0.0000 0.0000 19.7618 0.0000
# 6 0.0000 0.0000 0.0000 0.0000 0.0000 26.2114
#
#
#
# Elastic Compliance Matrix: (Units=1/GPa)
#
#
# Indices 1 2 3 4 5 6 
#
# 1 0.009370 -0.005270 -0.003854 0.000000 0.000000 0.000000
# 2 -0.005270 0.027268 -0.001219 0.000000 0.000000 0.000000
# 3 -0.003854 -0.001219 0.011230 0.000000 0.000000 0.000000
# 4 0.000000 0.000000 0.000000 0.035512 0.000000 0.000000
# 5 0.000000 0.000000 0.000000 0.000000 0.050603 0.000000
# 6 0.000000 0.000000 0.000000 0.000000 0.000000 0.038151
#
#
# Mechanical properties :
#
#
# Convention : Reuss Voigt Hill
#
# Bulk Modulus (GPa) = 36.78823 55.16179 45.97501
# Shear Modulus (GPa) = 24.76708 28.09329 26.43019
#
# Velocity S-wave (km/s) = 3.53653 3.76653 3.65334
# Velocity P-wave (km/s) = 5.93748 6.83898 6.40411
#
# Compressibility (1/GPa) = 0.02718260
#
# Stress axis : x y z
#
# Youngs Moduli (GPa) = 106.72122 36.67348 89.04527
#
# Poissons Ratio (x) = 0.19326 0.34320
# Poissons Ratio (y) = 0.56239 0.10853
# Poissons Ratio (z) = 0.41133 0.04470
#
# Static dielectric constant tensor:
#      x y z
#    x 3.776070 0.000000 0.000000 
#    y 0.000000 3.439170 0.000000 
#    z 0.000000 0.000000 3.555340 
# 
# 
# High freq. dielectric constant tensor:
#      x y z
#    x 1.788920 0.000000 0.000000 
#    y 0.000000 1.763100 0.000000 
#    z 0.000000 0.000000 1.767320 
# 
# From -- ./inp_files/33505.got.cif
#   From: 2010.03.12/outbox.cif.g09.slc.cpg/sg51_17_cif.got.tgz:33505.got - 2010.04.16 13:43:02.
