data_PCOD8209914
_publ_section_title
;
Structure prediction by ZEFSAII (Michael W. Deem and Ramdas Pophale) SiO2 
 PCOD8209914
Probable space group: P M M A
;
_chemical_formula_sum "Si O2"
_cell_formula_units_Z 40
_cell_length_a 9.161808
_cell_length_b 10.145899
_cell_length_c 24.736823
_cell_angle_alpha 90.000000
_cell_angle_beta 90.000000
_cell_angle_gamma 90.000000
_cell_volume 2299.405906
_symmetry_space_group_name_H-M "P M M A"
_symmetry_group_IT_number 51
_symmetry_cell_setting 'orthorhombic'
loop_
_space_group_symop_operation_xyz
x,y,z
1/2-x,-y,z
1/2+x,-y,-z
-x,y,-z
-x,-y,-z
1/2+x,y,-z
1/2-x,y,z
x,-y,z
loop_
_atom_site_type_symbol
_atom_site_label
_atom_site_fract_x
_atom_site_fract_y
_atom_site_fract_z
Si Si1 0.412868 0.842868 0.154445
Si Si2 0.583065 0.000000 0.555320
Si Si3 0.920934 0.265227 0.617711
Si Si4 0.923173 0.146290 0.727633
Si Si5 0.913825 0.157259 0.051991
Si Si6 0.424718 0.500000 0.558260
O O1 0.250000 0.787060 0.145017
O O2 0.474521 0.799203 0.213554
O O3 0.514706 0.786384 0.106945
O O4 0.408780 0.000000 0.152822
O O5 0.500000 0.000000 0.500000
O O6 0.543031 0.127627 0.589635
O O7 0.750000 0.000000 0.539199
O O8 0.750000 0.304135 0.611612
O O9 0.967474 0.248783 0.680599
O O10 0.024404 0.373052 0.591303
O O11 0.750000 0.131413 0.728394
O O12 0.989506 0.000000 0.716631
O O13 0.750000 0.211241 0.048665
O O14 0.917058 0.000000 0.052439
O O15 0.000000 0.211627 0.000000
O O16 0.250000 0.500000 0.551481
O O17 0.500000 0.500000 0.500000
#
# Coordination Sequence:
#
# PCOD8209914 Si02
#       6
#     8   4   8   8   8   4
#     4   8  13  21  35  55  79 109 144 183 226 275
#     4  10  20  32  52  78 102 124 155 196 239 286
#     4  10  19  35  57  79 101 129 161 199 243 292
#     4   8  13  25  47  72  95 119 152 192 236 287
#     4   9  15  21  29  43  68 105 149 193 232 273
#     4  12  26  42  56  74 100 132 167 202 243 294
#
# _framework density 17.395797000000002
#
# number of rings (size 3 to 8) (size 9 to 14) (size 15 to 20)
#    0.000    2.800    1.000    3.300    0.000    4.800 
#    0.000    1.000    0.000    1.200    0.000    0.000 
#    0.000    0.000    0.000    0.900    0.000   10.400 
#
# Total GULP energy -495732.291105 kJ/mol
# GULP energy per Si atom -12393.307278 kJ/mol
# Density = 1.735620 g / cm^3
# Si number density = 17.395797 Si / 1000 Ang^3
#
#
#
# Elastic Constant Matrix: (Units=GPa)
#
#
# Indices 1 2 3 4 5 6 
#
# 1 99.3209 35.5701 76.5163 0.0000 0.0000 0.0000
# 2 35.5701 59.0701 41.6001 0.0000 0.0000 0.0000
# 3 76.5163 41.6001 189.1352 0.0000 0.0000 0.0000
# 4 0.0000 0.0000 0.0000 13.6706 0.0000 0.0000
# 5 0.0000 0.0000 0.0000 0.0000 29.3457 0.0000
# 6 0.0000 0.0000 0.0000 0.0000 0.0000 10.1544
#
#
#
# Elastic Compliance Matrix: (Units=1/GPa)
#
#
# Indices 1 2 3 4 5 6 
#
# 1 0.016305 -0.006121 -0.005250 0.000000 0.000000 0.000000
# 2 -0.006121 0.022330 -0.002435 0.000000 0.000000 0.000000
# 3 -0.005250 -0.002435 0.007947 0.000000 0.000000 0.000000
# 4 0.000000 0.000000 0.000000 0.073150 0.000000 0.000000
# 5 0.000000 0.000000 0.000000 0.000000 0.034077 0.000000
# 6 0.000000 0.000000 0.000000 0.000000 0.000000 0.098480
#
#
# Mechanical properties :
#
#
# Convention : Reuss Voigt Hill
#
# Bulk Modulus (GPa) = 52.71670 72.76659 62.74164
# Shear Modulus (GPa) = 17.46886 23.55677 20.51281
#
# Velocity S-wave (km/s) = 3.17235 3.68389 3.43765
# Velocity P-wave (km/s) = 6.61728 7.74697 7.20430
#
# Compressibility (1/GPa) = 0.01896932
#
# Stress axis : x y z
#
# Youngs Moduli (GPa) = 61.33023 44.78304 125.83708
#
# Poissons Ratio (x) = 0.27412 0.66065
# Poissons Ratio (y) = 0.37541 0.30643
# Poissons Ratio (z) = 0.32199 0.10905
#
# Static dielectric constant tensor:
#      x y z
#    x 3.066440 0.000000 0.000000 
#    y 0.000000 2.675590 0.000000 
#    z 0.000000 0.000000 3.757850 
# 
# 
# High freq. dielectric constant tensor:
#      x y z
#    x 1.650090 0.000000 0.000000 
#    y 0.000000 1.607130 0.000000 
#    z 0.000000 0.000000 1.697800 
# 
# From -- ./inp_files/36046.got.cif
#   From: 2010.03.12/outbox.cif.g09.slc.cpg/sg51_19_cif.got.tgz:36046.got - 2010.04.16 13:43:02.
