data_PCOD8209117
_publ_section_title
;
Structure prediction by ZEFSAII (Michael W. Deem and Ramdas Pophale) SiO2 
 PCOD8209117
Probable space group: P M M A
;
_chemical_formula_sum "Si O2"
_cell_formula_units_Z 48
_cell_length_a 21.252514
_cell_length_b 9.640662
_cell_length_c 12.155082
_cell_angle_alpha 90.000000
_cell_angle_beta 90.000000
_cell_angle_gamma 90.000000
_cell_volume 2490.434137
_symmetry_space_group_name_H-M "P M M A"
_symmetry_group_IT_number 51
_symmetry_cell_setting 'orthorhombic'
loop_
_space_group_symop_operation_xyz
x,y,z
1/2-x,-y,z
1/2+x,-y,-z
-x,y,-z
-x,-y,-z
1/2+x,y,-z
1/2-x,y,z
x,-y,z
loop_
_atom_site_type_symbol
_atom_site_label
_atom_site_fract_x
_atom_site_fract_y
_atom_site_fract_z
Si Si1 0.426559 0.339492 0.490208
Si Si2 0.320375 0.162708 0.613620
Si Si3 0.988987 0.845390 0.121346
Si Si4 0.180205 0.343651 0.064160
Si Si5 0.079933 0.340865 0.239304
Si Si6 0.656747 0.846513 0.140873
O O1 0.500000 0.290264 0.500000
O O2 0.422241 0.500000 0.528243
O O3 0.377361 0.249658 0.560522
O O4 0.402201 0.320734 0.365889
O O5 0.250000 0.196272 0.564737
O O6 0.316062 0.201670 0.742376
O O7 0.336200 0.000000 0.598041
O O8 0.917298 0.849346 0.152274
O O9 0.018967 0.749322 0.213818
O O10 0.018887 0.000000 0.124815
O O11 0.000000 0.780791 0.000000
O O12 0.250000 0.338712 0.113908
O O13 0.160545 0.500000 0.032870
O O14 0.135654 0.285271 0.160567
O O15 0.178414 0.255925 0.953668
O O16 0.063714 0.500000 0.214474
O O17 0.681948 0.000000 0.111041
#
# Coordination Sequence:
#
# PCOD8209117 Si02
#       6
#     8   8   8   8   8   8
#     4  10  22  40  61  86 115 149 195 245 292 347
#     4  10  22  39  59  85 115 151 197 242 290 350
#     4  10  19  32  53  83 114 143 181 225 272 335
#     4  10  21  35  51  75 107 142 181 222 268 328
#     4  10  21  36  55  80 110 145 182 225 278 332
#     4  10  20  36  57  81 113 148 181 226 280 334
#
# _framework density 19.273748000000001
#
# number of rings (size 3 to 8) (size 9 to 14) (size 15 to 20)
#    0.000    2.000    1.667    1.500    0.000    4.667 
#    0.000    1.667    0.000    0.000    0.000    0.000 
#    0.000    0.000    0.000    0.000    0.000    0.000 
#
# Total GULP energy -595039.264191 kJ/mol
# GULP energy per Si atom -12396.651337 kJ/mol
# Density = 1.922988 g / cm^3
# Si number density = 19.273748 Si / 1000 Ang^3
#
#
#
# Elastic Constant Matrix: (Units=GPa)
#
#
# Indices 1 2 3 4 5 6 
#
# 1 122.0599 48.4137 47.0377 0.0000 0.0000 0.0000
# 2 48.4137 68.8014 46.8964 0.0000 0.0000 0.0000
# 3 47.0377 46.8964 90.4312 0.0000 0.0000 0.0000
# 4 0.0000 0.0000 0.0000 29.3433 0.0000 0.0000
# 5 0.0000 0.0000 0.0000 0.0000 19.4809 0.0000
# 6 0.0000 0.0000 0.0000 0.0000 0.0000 61.0366
#
#
#
# Elastic Compliance Matrix: (Units=1/GPa)
#
#
# Indices 1 2 3 4 5 6 
#
# 1 0.011817 -0.006381 -0.002837 0.000000 0.000000 0.000000
# 2 -0.006381 0.025927 -0.010126 0.000000 0.000000 0.000000
# 3 -0.002837 -0.010126 0.017785 0.000000 0.000000 0.000000
# 4 0.000000 0.000000 0.000000 0.034079 0.000000 0.000000
# 5 0.000000 0.000000 0.000000 0.000000 0.051332 0.000000
# 6 0.000000 0.000000 0.000000 0.000000 0.000000 0.016384
#
#
# Mechanical properties :
#
#
# Convention : Reuss Voigt Hill
#
# Bulk Modulus (GPa) = 59.38347 62.88755 61.13551
# Shear Modulus (GPa) = 24.79808 31.23514 28.01661
#
# Velocity S-wave (km/s) = 3.59085 4.03004 3.81677
# Velocity P-wave (km/s) = 6.93323 7.37254 7.15626
#
# Compressibility (1/GPa) = 0.01683970
#
# Stress axis : x y z
#
# Youngs Moduli (GPa) = 84.62189 38.56942 56.22614
#
# Poissons Ratio (x) = 0.24613 0.15954
# Poissons Ratio (y) = 0.54001 0.56936
# Poissons Ratio (z) = 0.24011 0.39056
#
# Static dielectric constant tensor:
#      x y z
#    x 3.629660 0.000000 0.000000 
#    y 0.000000 3.560300 0.000000 
#    z 0.000000 0.000000 3.451090 
# 
# 
# High freq. dielectric constant tensor:
#      x y z
#    x 1.761790 0.000000 0.000000 
#    y 0.000000 1.742550 0.000000 
#    z 0.000000 0.000000 1.744580 
# 
# From -- ./inp_files/18603.got.cif
#   From: 2010.03.12/outbox.cif.g09.slc.cpg/sg51_10_cif.got.tgz:18603.got - 2010.04.16 13:43:02.
