data_PCOD8209937
_publ_section_title
;
Structure prediction by ZEFSAII (Michael W. Deem and Ramdas Pophale) SiO2 
 PCOD8209937
Probable space group: P M M A
;
_chemical_formula_sum "Si O2"
_cell_formula_units_Z 64
_cell_length_a 21.158958
_cell_length_b 19.341433
_cell_length_c 7.726475
_cell_angle_alpha 90.000000
_cell_angle_beta 90.000000
_cell_angle_gamma 90.000000
_cell_volume 3162.017927
_symmetry_space_group_name_H-M "P M M A"
_symmetry_group_IT_number 51
_symmetry_cell_setting 'orthorhombic'
loop_
_space_group_symop_operation_xyz
x,y,z
1/2-x,-y,z
1/2+x,-y,-z
-x,y,-z
-x,-y,-z
1/2+x,y,-z
1/2-x,y,z
x,-y,z
loop_
_atom_site_type_symbol
_atom_site_label
_atom_site_fract_x
_atom_site_fract_y
_atom_site_fract_z
Si Si1 0.681281 0.311066 0.689367
Si Si2 0.054963 0.640544 0.181229
Si Si3 0.177233 0.921079 0.009235
Si Si4 0.510008 0.203245 0.810354
Si Si5 0.362991 0.162557 0.325611
Si Si6 0.569134 0.580253 0.195167
Si Si7 0.127493 0.178412 0.721205
Si Si8 0.818817 0.321356 0.287991
O O1 0.750000 0.333960 0.768951
O O2 0.624552 0.364255 0.733350
O O3 0.664832 0.233932 0.752132
O O4 0.687976 0.306833 0.487354
O O5 0.033572 0.718965 0.159517
O O6 0.997780 0.602449 0.287245
O O7 0.062239 0.600434 0.003186
O O8 0.250000 0.913011 0.958024
O O9 0.167507 0.897183 0.208250
O O10 0.154823 0.000000 0.998136
O O11 0.136918 0.879532 0.866678
O O12 0.561686 0.160522 0.703348
O O13 0.445938 0.198761 0.700359
O O14 0.500000 0.169702 0.000000
O O15 0.348164 0.153131 0.531184
O O16 0.581593 0.500000 0.222692
O O17 0.630086 0.619084 0.266580
O O18 0.161376 0.247764 0.794041
O O19 0.750000 0.343584 0.211185
#
# Coordination Sequence:
#
# PCOD8209937 Si02
#       8
#     8   8   8   8   8   8   8   8
#     4   9  20  36  59  88 114 147 198 256 306 356
#     4  10  19  35  57  86 116 152 194 250 301 363
#     4  11  25  42  62  91 126 167 209 251 308 371
#     4  11  17  34  63  94 122 150 201 260 313 361
#     4  10  22  37  62  92 126 160 199 256 313 366
#     4  11  22  37  56  83 119 157 198 247 308 372
#     4  11  21  40  64  93 124 162 208 254 309 370
#     4  10  21  38  59  86 116 153 204 254 303 362
#
# _framework density 20.24024
#
# number of rings (size 3 to 8) (size 9 to 14) (size 15 to 20)
#    0.000    1.625    3.750    1.875    1.750    3.250 
#    0.000    4.375    0.000    4.125    0.000    0.000 
#    0.000    0.000    0.000    0.000    0.000    0.000 
#
# Total GULP energy -793081.203005 kJ/mol
# GULP energy per Si atom -12391.893797 kJ/mol
# Density = 2.019417 g / cm^3
# Si number density = 20.240240 Si / 1000 Ang^3
#
#
#
# Elastic Constant Matrix: (Units=GPa)
#
#
# Indices 1 2 3 4 5 6 
#
# 1 170.0410 60.0540 16.3646 0.0000 0.0000 0.0000
# 2 60.0540 113.8533 29.4959 0.0000 0.0000 0.0000
# 3 16.3646 29.4959 64.8591 0.0000 0.0000 0.0000
# 4 0.0000 0.0000 0.0000 -27.2595 0.0000 0.0000
# 5 0.0000 0.0000 0.0000 0.0000 25.5581 0.0000
# 6 0.0000 0.0000 0.0000 0.0000 0.0000 24.0639
#
#
#
# Elastic Compliance Matrix: (Units=1/GPa)
#
#
# Indices 1 2 3 4 5 6 
#
# 1 0.007228 -0.003786 -0.000102 0.000000 0.000000 0.000000
# 2 -0.003786 0.011939 -0.004474 0.000000 0.000000 0.000000
# 3 -0.000102 -0.004474 0.017479 0.000000 0.000000 0.000000
# 4 0.000000 0.000000 0.000000 -0.036684 0.000000 0.000000
# 5 0.000000 0.000000 0.000000 0.000000 0.039126 0.000000
# 6 0.000000 0.000000 0.000000 0.000000 0.000000 0.041556
#
#
# Mechanical properties :
#
#
# Convention : Reuss Voigt Hill
#
# Bulk Modulus (GPa) = 50.19792 62.28693 56.24243
# Shear Modulus (GPa) = 48.07271 20.66177 34.36724
#
# Velocity S-wave (km/s) = 4.87879 3.19850 4.12511
# Velocity P-wave (km/s) = 7.52275 6.66942 7.10890
#
# Compressibility (1/GPa) = 0.01992114
#
# Stress axis : x y z
#
# Youngs Moduli (GPa) = 138.35307 83.75588 57.21292
#
# Poissons Ratio (x) = 0.31711 0.00583
# Poissons Ratio (y) = 0.52382 0.25599
# Poissons Ratio (z) = 0.01410 0.37476
#
# Static dielectric constant tensor:
#      x y z
#    x 6.374110 0.000000 0.000000 
#    y 0.000000 3.414670 0.000000 
#    z 0.000000 0.000000 3.591390 
# 
# 
# High freq. dielectric constant tensor:
#      x y z
#    x 1.814310 0.000000 0.000000 
#    y 0.000000 1.753270 0.000000 
#    z 0.000000 0.000000 1.780790 
# 
# From -- ./inp_files/11196.got.cif
#   From: 2010.03.12/outbox.cif.g09.slc.cpg/sg51_6_cif.got.tgz:11196.got - 2010.04.16 13:43:02.
