data_PCOD8209460
_publ_section_title
;
Structure prediction by ZEFSAII (Michael W. Deem and Ramdas Pophale) SiO2 
 PCOD8209460
Probable space group: P M M A
;
_chemical_formula_sum "Si O2"
_cell_formula_units_Z 48
_cell_length_a 15.559174
_cell_length_b 8.663018
_cell_length_c 17.847320
_cell_angle_alpha 90.000000
_cell_angle_beta 90.000000
_cell_angle_gamma 90.000000
_cell_volume 2405.629633
_symmetry_space_group_name_H-M "P M M A"
_symmetry_group_IT_number 51
_symmetry_cell_setting 'orthorhombic'
loop_
_space_group_symop_operation_xyz
x,y,z
1/2-x,-y,z
1/2+x,-y,-z
-x,y,-z
-x,-y,-z
1/2+x,y,-z
1/2-x,y,z
x,-y,z
loop_
_atom_site_type_symbol
_atom_site_label
_atom_site_fract_x
_atom_site_fract_y
_atom_site_fract_z
Si Si1 0.750000 0.182598 0.547139
Si Si2 0.250000 0.320702 0.960014
Si Si3 0.914972 0.816362 0.290547
Si Si4 0.750000 0.678917 0.709582
Si Si5 0.910974 0.821435 0.786740
Si Si6 0.588429 0.177902 0.962510
Si Si7 0.250000 0.182917 0.797134
Si Si8 0.914862 0.815819 0.459758
O O1 0.750000 0.226513 0.633312
O O2 0.666216 0.249844 0.505621
O O3 0.750000 0.000000 0.541017
O O4 0.250000 0.500000 0.941248
O O5 0.250000 0.227616 0.883286
O O6 0.333892 0.280396 0.007809
O O7 0.834360 0.749337 0.244054
O O8 0.910911 0.752276 0.375121
O O9 0.002706 0.759307 0.252391
O O10 0.911737 0.000000 0.290079
O O11 0.750000 0.500000 0.689934
O O12 0.832916 0.719449 0.758102
O O13 0.921390 0.797694 0.874601
O O14 0.893405 0.000000 0.766452
O O15 0.607408 0.000000 0.982954
O O16 0.500000 0.233801 0.000000
O O17 0.250000 0.000000 0.791327
O O18 0.000000 0.751725 0.500000
O O19 0.915013 0.000000 0.459410
#
# Coordination Sequence:
#
# PCOD8209460 Si02
#       8
#     4   4   8   4   8   8   4   8
#     4  10  19  33  55  80 107 141 179 220 268 322
#     4  12  25  38  55  82 117 154 189 228 278 334
#     4   9  17  31  56  89 116 139 175 225 277 325
#     4  12  25  38  53  76 109 148 189 232 274 318
#     4  10  20  36  59  84 110 142 180 223 273 330
#     4  10  21  39  63  88 112 143 186 233 281 333
#     4  10  19  35  59  84 113 147 185 228 270 322
#     4   9  16  27  49  82 112 135 168 219 272 320
#
# _framework density 19.953195000000001
#
# number of rings (size 3 to 8) (size 9 to 14) (size 15 to 20)
#    0.000    2.000    0.000    4.500    0.000   10.333 
#    0.000    2.500    0.000    6.500    0.000    0.000 
#    0.000    0.000    0.000    0.000    0.000    0.000 
#
# Total GULP energy -595361.375138 kJ/mol
# GULP energy per Si atom -12403.361982 kJ/mol
# Density = 1.990778 g / cm^3
# Si number density = 19.953195 Si / 1000 Ang^3
#
#
#
# Elastic Constant Matrix: (Units=GPa)
#
#
# Indices 1 2 3 4 5 6 
#
# 1 178.5099 21.7712 59.3924 0.0000 0.0000 0.0000
# 2 21.7712 16.6315 6.4426 0.0000 0.0000 0.0000
# 3 59.3924 6.4426 116.6208 0.0000 0.0000 0.0000
# 4 0.0000 0.0000 0.0000 4.1966 0.0000 0.0000
# 5 0.0000 0.0000 0.0000 0.0000 97.7088 0.0000
# 6 0.0000 0.0000 0.0000 0.0000 0.0000 -12.8929
#
#
#
# Elastic Compliance Matrix: (Units=1/GPa)
#
#
# Indices 1 2 3 4 5 6 
#
# 1 0.007858 -0.008927 -0.003509 0.000000 0.000000 0.000000
# 2 -0.008927 0.071584 0.000592 0.000000 0.000000 0.000000
# 3 -0.003509 0.000592 0.010329 0.000000 0.000000 0.000000
# 4 0.000000 0.000000 0.000000 0.238288 0.000000 0.000000
# 5 0.000000 0.000000 0.000000 0.000000 0.010234 0.000000
# 6 0.000000 0.000000 0.000000 0.000000 0.000000 -0.077562
#
#
# Mechanical properties :
#
#
# Convention : Reuss Voigt Hill
#
# Bulk Modulus (GPa) = 15.13259 54.10827 34.62043
# Shear Modulus (GPa) = 16.31601 32.74624 24.53113
#
# Velocity S-wave (km/s) = 2.86267 4.05551 3.51013
# Velocity P-wave (km/s) = 4.30430 7.00757 5.81520
#
# Compressibility (1/GPa) = 0.06608253
#
# Stress axis : x y z
#
# Youngs Moduli (GPa) = 127.25676 13.96965 96.81440
#
# Poissons Ratio (x) = 0.12471 0.33970
# Poissons Ratio (y) = 1.13606 -0.05731
# Poissons Ratio (z) = 0.44652 -0.00827
#
# Static dielectric constant tensor:
#      x y z
#    x 3.940400 0.000000 0.000000 
#    y 0.000000 3.106840 0.000000 
#    z 0.000000 0.000000 3.748540 
# 
# 
# High freq. dielectric constant tensor:
#      x y z
#    x 1.799960 0.000000 0.000000 
#    y 0.000000 1.722380 0.000000 
#    z 0.000000 0.000000 1.798140 
# 
# From -- ./inp_files/29706.got.cif
#   From: 2010.03.12/outbox.cif.g09.slc.cpg/sg51_15_cif.got.tgz:29706.got - 2010.04.16 13:43:02.
