data_PCOD8209960
_publ_section_title
;
Structure prediction by ZEFSAII (Michael W. Deem and Ramdas Pophale) SiO2 
 PCOD8209960
Probable space group: P M M A
;
_chemical_formula_sum "Si O2"
_cell_formula_units_Z 48
_cell_length_a 8.666885
_cell_length_b 30.573423
_cell_length_c 9.322641
_cell_angle_alpha 90.000000
_cell_angle_beta 90.000000
_cell_angle_gamma 90.000000
_cell_volume 2470.279302
_symmetry_space_group_name_H-M "P M M A"
_symmetry_group_IT_number 51
_symmetry_cell_setting 'orthorhombic'
loop_
_space_group_symop_operation_xyz
x,y,z
1/2-x,-y,z
1/2+x,-y,-z
-x,y,-z
-x,-y,-z
1/2+x,y,-z
1/2-x,y,z
x,-y,z
loop_
_atom_site_type_symbol
_atom_site_label
_atom_site_fract_x
_atom_site_fract_y
_atom_site_fract_z
Si Si1 0.066856 0.000000 0.341362
Si Si2 0.932640 0.405400 0.340907
Si Si3 0.067107 0.744415 0.651219
Si Si4 0.567621 0.922105 0.157580
Si Si5 0.432081 0.671331 0.155860
Si Si6 0.930238 0.843212 0.352107
Si Si7 0.427760 0.500000 0.653110
O O1 0.000000 0.000000 0.500000
O O2 0.009303 0.957481 0.259167
O O3 0.250000 0.000000 0.348595
O O4 0.750000 0.395364 0.342953
O O5 0.969593 0.453710 0.270266
O O6 0.000000 0.402718 0.500000
O O7 0.020869 0.370468 0.247033
O O8 0.250000 0.739872 0.647629
O O9 0.011207 0.794127 0.680839
O O10 0.000000 0.727577 0.500000
O O11 0.999730 0.715582 0.778209
O O12 0.750000 0.929913 0.153097
O O13 0.523553 0.874466 0.220348
O O14 0.500000 0.926335 0.000000
O O15 0.250000 0.675323 0.148383
O O16 0.500000 0.664872 0.000000
O O17 0.750000 0.842992 0.376247
O O18 0.000000 0.861471 0.500000
O O19 0.250000 0.500000 0.620162
O O20 0.500000 0.500000 0.500000
#
# Coordination Sequence:
#
# PCOD8209960 Si02
#       7
#     4   8   8   8   8   8   4
#     4  12  25  42  63  88 116 152 194 240 287 338
#     4  10  19  35  58  85 113 145 183 227 274 328
#     4  10  20  38  61  87 115 148 188 233 279 331
#     4  11  23  40  60  87 120 156 193 235 284 338
#     4  12  25  40  56  79 110 148 188 232 282 336
#     4   9  20  37  60  87 116 148 188 232 280 333
#     4   8  16  30  53  82 111 140 178 224 272 322
#
# _framework density 19.431000000000001
#
# number of rings (size 3 to 8) (size 9 to 14) (size 15 to 20)
#    0.000    1.667    0.000    5.000    0.000    4.667 
#    0.000    2.083    0.000    0.000    0.000    0.000 
#    0.000    0.000    0.000    0.000    0.000    0.000 
#
# Total GULP energy -595117.290597 kJ/mol
# GULP energy per Si atom -12398.276887 kJ/mol
# Density = 1.938677 g / cm^3
# Si number density = 19.431000 Si / 1000 Ang^3
#
#
#
# Elastic Constant Matrix: (Units=GPa)
#
#
# Indices 1 2 3 4 5 6 
#
# 1 105.2066 49.2343 46.0382 0.0000 0.0000 0.0000
# 2 49.2343 126.7402 66.9983 0.0000 0.0000 0.0000
# 3 46.0382 66.9983 129.5369 0.0000 0.0000 0.0000
# 4 0.0000 0.0000 0.0000 20.0388 0.0000 0.0000
# 5 0.0000 0.0000 0.0000 0.0000 36.4979 0.0000
# 6 0.0000 0.0000 0.0000 0.0000 0.0000 15.2369
#
#
#
# Elastic Compliance Matrix: (Units=1/GPa)
#
#
# Indices 1 2 3 4 5 6 
#
# 1 0.012221 -0.003374 -0.002598 0.000000 0.000000 0.000000
# 2 -0.003374 0.011791 -0.004899 0.000000 0.000000 0.000000
# 3 -0.002598 -0.004899 0.011177 0.000000 0.000000 0.000000
# 4 0.000000 0.000000 0.000000 0.049903 0.000000 0.000000
# 5 0.000000 0.000000 0.000000 0.000000 0.027399 0.000000
# 6 0.000000 0.000000 0.000000 0.000000 0.000000 0.065630
#
#
# Mechanical properties :
#
#
# Convention : Reuss Voigt Hill
#
# Bulk Modulus (GPa) = 74.37178 76.22504 75.29841
# Shear Modulus (GPa) = 24.46826 27.63556 26.05191
#
# Velocity S-wave (km/s) = 3.55242 3.77535 3.66558
# Velocity P-wave (km/s) = 7.42861 7.63663 7.53334
#
# Compressibility (1/GPa) = 0.01344596
#
# Stress axis : x y z
#
# Youngs Moduli (GPa) = 81.82586 84.81307 89.46751
#
# Poissons Ratio (x) = 0.28615 0.23248
# Poissons Ratio (y) = 0.27607 0.43832
# Poissons Ratio (z) = 0.21262 0.41552
#
# Static dielectric constant tensor:
#      x y z
#    x 3.986760 0.000000 0.000000 
#    y 0.000000 4.247840 0.000000 
#    z 0.000000 0.000000 3.459890 
# 
# 
# High freq. dielectric constant tensor:
#      x y z
#    x 1.770140 0.000000 0.000000 
#    y 0.000000 1.779400 0.000000 
#    z 0.000000 0.000000 1.743390 
# 
# From -- ./inp_files/6191.got.cif
#   From: 2010.03.12/outbox.cif.g09.slc.cpg/sg51_4_cif.got.tgz:6191.got - 2010.04.16 13:43:02.
