data_PCOD8209623
_publ_section_title
;
Structure prediction by ZEFSAII (Michael W. Deem and Ramdas Pophale) SiO2 
 PCOD8209623
Probable space group: P M M A
;
_chemical_formula_sum "Si O2"
_cell_formula_units_Z 56
_cell_length_a 9.326860
_cell_length_b 15.975447
_cell_length_c 19.474075
_cell_angle_alpha 90.000000
_cell_angle_beta 90.000000
_cell_angle_gamma 90.000000
_cell_volume 2901.651929
_symmetry_space_group_name_H-M "P M M A"
_symmetry_group_IT_number 51
_symmetry_cell_setting 'orthorhombic'
loop_
_space_group_symop_operation_xyz
x,y,z
1/2-x,-y,z
1/2+x,-y,-z
-x,y,-z
-x,-y,-z
1/2+x,y,-z
1/2-x,y,z
x,-y,z
loop_
_atom_site_type_symbol
_atom_site_label
_atom_site_fract_x
_atom_site_fract_y
_atom_site_fract_z
Si Si1 0.585631 0.598182 0.564785
Si Si2 0.583854 0.174202 0.291713
Si Si3 0.416519 0.091252 0.847093
Si Si4 0.916791 0.903351 0.434904
Si Si5 0.414269 0.593319 0.832930
Si Si6 0.579621 0.747169 0.071427
Si Si7 0.920390 0.339337 0.711915
O O1 0.500000 0.635733 0.500000
O O2 0.750000 0.620482 0.552044
O O3 0.559582 0.500000 0.571488
O O4 0.529169 0.639205 0.634814
O O5 0.750000 0.202780 0.292993
O O6 0.560359 0.103146 0.234473
O O7 0.532728 0.141550 0.365572
O O8 0.483172 0.249579 0.268701
O O9 0.250000 0.088236 0.864201
O O10 0.480170 0.169365 0.890067
O O11 0.484772 0.000000 0.866986
O O12 0.750000 0.890263 0.448224
O O13 0.000000 0.864155 0.500000
O O14 0.957361 0.000000 0.426436
O O15 0.250000 0.610529 0.811357
O O16 0.430720 0.500000 0.865340
O O17 0.464645 0.664085 0.886493
O O18 0.512337 0.594990 0.765016
O O19 0.750000 0.750544 0.060437
O O20 0.500000 0.741228 0.000000
O O21 0.750000 0.341621 0.718804
#
# Coordination Sequence:
#
# PCOD8209623 Si02
#       7
#     8   8   8   8   8   8   8
#     4   9  19  35  52  72 101 138 181 228 276 328
#     4  10  19  34  55  78 106 143 191 236 277 331
#     4   9  17  33  59  85 110 145 189 233 275 323
#     4   9  18  32  51  75 104 142 188 238 290 343
#     4  10  21  39  62  86 113 149 192 232 272 327
#     4  10  21  38  59  87 119 149 184 225 273 330
#     4  11  22  35  54  81 114 146 183 233 289 336
#
# _framework density 19.29935
#
# number of rings (size 3 to 8) (size 9 to 14) (size 15 to 20)
#    0.000    2.286    1.429    1.286    0.000    6.000 
#    0.000    4.286    0.000    2.143    0.000    0.000 
#    0.000    0.000    0.000    0.000    0.000    0.000 
#
# Total GULP energy -694286.224833 kJ/mol
# GULP energy per Si atom -12397.968301 kJ/mol
# Density = 1.925542 g / cm^3
# Si number density = 19.299350 Si / 1000 Ang^3
#
#
#
# Elastic Constant Matrix: (Units=GPa)
#
#
# Indices 1 2 3 4 5 6 
#
# 1 44.0229 28.5598 45.7513 0.0000 0.0000 0.0000
# 2 28.5598 117.2152 71.2801 0.0000 0.0000 0.0000
# 3 45.7513 71.2801 128.2767 0.0000 0.0000 0.0000
# 4 0.0000 0.0000 0.0000 26.8190 0.0000 0.0000
# 5 0.0000 0.0000 0.0000 0.0000 35.5408 0.0000
# 6 0.0000 0.0000 0.0000 0.0000 0.0000 13.6681
#
#
#
# Elastic Compliance Matrix: (Units=1/GPa)
#
#
# Indices 1 2 3 4 5 6 
#
# 1 0.036260 -0.001466 -0.012118 0.000000 0.000000 0.000000
# 2 -0.001466 0.012945 -0.006670 0.000000 0.000000 0.000000
# 3 -0.012118 -0.006670 0.015824 0.000000 0.000000 0.000000
# 4 0.000000 0.000000 0.000000 0.037287 0.000000 0.000000
# 5 0.000000 0.000000 0.000000 0.000000 0.028137 0.000000
# 6 0.000000 0.000000 0.000000 0.000000 0.000000 0.073163
#
#
# Mechanical properties :
#
#
# Convention : Reuss Voigt Hill
#
# Bulk Modulus (GPa) = 40.78155 64.52191 52.65173
# Shear Modulus (GPa) = 19.81782 24.80048 22.30915
#
# Velocity S-wave (km/s) = 3.20795 3.58864 3.40362
# Velocity P-wave (km/s) = 5.90747 7.11870 6.54118
#
# Compressibility (1/GPa) = 0.02452089
#
# Stress axis : x y z
#
# Youngs Moduli (GPa) = 27.57842 77.25141 63.19413
#
# Poissons Ratio (x) = 0.11323 0.76580
# Poissons Ratio (y) = 0.04042 0.42152
# Poissons Ratio (z) = 0.33420 0.51529
#
# Static dielectric constant tensor:
#      x y z
#    x 3.301110 0.000000 0.000000 
#    y 0.000000 3.681490 0.000000 
#    z 0.000000 0.000000 3.584680 
# 
# 
# High freq. dielectric constant tensor:
#      x y z
#    x 1.723830 0.000000 0.000000 
#    y 0.000000 1.756940 0.000000 
#    z 0.000000 0.000000 1.752850 
# 
# From -- ./inp_files/31933.got.cif
#   From: 2010.03.12/outbox.cif.g09.slc.cpg/sg51_16_cif.got.tgz:31933.got - 2010.04.16 13:43:02.
