data_PCOD8209743
_publ_section_title
;
Structure prediction by ZEFSAII (Michael W. Deem and Ramdas Pophale) SiO2 
 PCOD8209743
Probable space group: P M M A
;
_chemical_formula_sum "Si O2"
_cell_formula_units_Z 64
_cell_length_a 23.527879
_cell_length_b 9.412243
_cell_length_c 15.290477
_cell_angle_alpha 90.000000
_cell_angle_beta 90.000000
_cell_angle_gamma 90.000000
_cell_volume 3386.077881
_symmetry_space_group_name_H-M "P M M A"
_symmetry_group_IT_number 51
_symmetry_cell_setting 'orthorhombic'
loop_
_space_group_symop_operation_xyz
x,y,z
1/2-x,-y,z
1/2+x,-y,-z
-x,y,-z
-x,-y,-z
1/2+x,y,-z
1/2-x,y,z
x,-y,z
loop_
_atom_site_type_symbol
_atom_site_label
_atom_site_fract_x
_atom_site_fract_y
_atom_site_fract_z
Si Si1 0.889987 0.161316 0.110829
Si Si2 0.119865 0.332215 0.051924
Si Si3 0.186729 0.668393 0.222340
Si Si4 0.684474 0.664309 0.447721
Si Si5 0.387405 0.332332 0.383901
Si Si6 0.509571 0.836643 0.669754
Si Si7 0.118055 0.832076 0.691250
Si Si8 0.021724 0.158742 0.127533
O O1 0.874314 0.215083 0.207916
O O2 0.957325 0.171323 0.095746
O O3 0.869007 0.000000 0.097896
O O4 0.859573 0.261331 0.039078
O O5 0.117278 0.500000 0.039546
O O6 0.163323 0.285459 0.127838
O O7 0.057618 0.276356 0.077049
O O8 0.250000 0.732060 0.233357
O O9 0.188842 0.500000 0.230011
O O10 0.146574 0.727122 0.299499
O O11 0.750000 0.695390 0.469107
O O12 0.674314 0.500000 0.425874
O O13 0.648159 0.711907 0.531244
O O14 0.666187 0.754346 0.363888
O O15 0.396885 0.500000 0.377877
O O16 0.449029 0.258371 0.389865
O O17 0.444364 0.787998 0.655867
O O18 0.526322 0.812424 0.769854
O O19 0.517050 0.000000 0.642159
O O20 0.125650 0.000000 0.683429
O O21 0.044635 0.000000 0.105958
#
# Coordination Sequence:
#
# PCOD8209743 Si02
#       8
#     8   8   8   8   8   8   8   8
#     4   9  19  35  53  73 102 142 179 211 262 324
#     4  11  20  29  48  79 106 135 179 224 263 306
#     4   9  18  33  51  72 104 144 180 215 261 320
#     4  10  22  39  59  83 108 138 180 228 275 320
#     4  10  19  34  57  82 108 140 178 218 267 329
#     4   9  18  33  54  81 112 144 177 218 271 325
#     4   9  20  39  59  79 107 145 185 223 270 328
#     4   9  17  31  50  72 104 144 176 208 258 319
#
# _framework density 18.900925000000001
#
# number of rings (size 3 to 8) (size 9 to 14) (size 15 to 20)
#    0.000    2.500    1.250    2.625    0.000    5.750 
#    0.000    5.625    0.000    6.375    0.000    0.000 
#    0.000    0.000    0.000    0.000    0.000    0.000 
#
# Total GULP energy -793596.620537 kJ/mol
# GULP energy per Si atom -12399.947196 kJ/mol
# Density = 1.885791 g / cm^3
# Si number density = 18.900925 Si / 1000 Ang^3
#
#
#
# Elastic Constant Matrix: (Units=GPa)
#
#
# Indices 1 2 3 4 5 6 
#
# 1 39.6643 17.9973 28.7337 0.0000 0.0000 0.0000
# 2 17.9973 48.7177 36.4212 0.0000 0.0000 0.0000
# 3 28.7337 36.4212 84.9932 0.0000 0.0000 0.0000
# 4 0.0000 0.0000 0.0000 30.3039 0.0000 0.0000
# 5 0.0000 0.0000 0.0000 0.0000 23.7817 0.0000
# 6 0.0000 0.0000 0.0000 0.0000 0.0000 18.9730
#
#
#
# Elastic Compliance Matrix: (Units=1/GPa)
#
#
# Indices 1 2 3 4 5 6 
#
# 1 0.034513 -0.005925 -0.009129 0.000000 0.000000 0.000000
# 2 -0.005925 0.031219 -0.011375 0.000000 0.000000 0.000000
# 3 -0.009129 -0.011375 0.019726 0.000000 0.000000 0.000000
# 4 0.000000 0.000000 0.000000 0.032999 0.000000 0.000000
# 5 0.000000 0.000000 0.000000 0.000000 0.042049 0.000000
# 6 0.000000 0.000000 0.000000 0.000000 0.000000 0.052707
#
#
# Mechanical properties :
#
#
# Convention : Reuss Voigt Hill
#
# Bulk Modulus (GPa) = 30.67414 37.74219 34.20816
# Shear Modulus (GPa) = 18.05458 20.62659 19.34059
#
# Velocity S-wave (km/s) = 3.09402 3.30707 3.20232
# Velocity P-wave (km/s) = 5.38777 5.88167 5.64013
#
# Compressibility (1/GPa) = 0.03260076
#
# Stress axis : x y z
#
# Youngs Moduli (GPa) = 28.97442 32.03161 50.69398
#
# Poissons Ratio (x) = 0.18979 0.46278
# Poissons Ratio (y) = 0.17168 0.57664
# Poissons Ratio (z) = 0.26450 0.36436
#
# Static dielectric constant tensor:
#      x y z
#    x 3.363170 0.000000 0.000000 
#    y 0.000000 3.241900 0.000000 
#    z 0.000000 0.000000 3.547420 
# 
# 
# High freq. dielectric constant tensor:
#      x y z
#    x 1.718510 0.000000 0.000000 
#    y 0.000000 1.713600 0.000000 
#    z 0.000000 0.000000 1.743470 
# 
# From -- ./inp_files/26347.got.cif
#   From: 2010.03.12/outbox.cif.g09.slc.cpg/sg51_14_cif.got.tgz:26347.got - 2010.04.16 13:43:02.
