data_PCOD8209627
_publ_section_title
;
Structure prediction by ZEFSAII (Michael W. Deem and Ramdas Pophale) SiO2 
 PCOD8209627
Probable space group: P M M A
;
_chemical_formula_sum "Si O2"
_cell_formula_units_Z 56
_cell_length_a 18.970486
_cell_length_b 17.194223
_cell_length_c 9.493739
_cell_angle_alpha 90.000000
_cell_angle_beta 90.000000
_cell_angle_gamma 90.000000
_cell_volume 3096.694053
_symmetry_space_group_name_H-M "P M M A"
_symmetry_group_IT_number 51
_symmetry_cell_setting 'orthorhombic'
loop_
_space_group_symop_operation_xyz
x,y,z
1/2-x,-y,z
1/2+x,-y,-z
-x,y,-z
-x,-y,-z
1/2+x,y,-z
1/2-x,y,z
x,-y,z
loop_
_atom_site_type_symbol
_atom_site_label
_atom_site_fract_x
_atom_site_fract_y
_atom_site_fract_z
Si Si1 0.416736 0.239787 0.989135
Si Si2 0.667483 0.090121 0.063005
Si Si3 0.918926 0.680466 0.735695
Si Si4 0.075326 0.676886 0.702748
Si Si5 0.331623 0.083744 0.615214
Si Si6 0.072054 0.807107 0.470237
Si Si7 0.831292 0.408873 0.504399
O O1 0.377132 0.156889 0.016830
O O2 0.395146 0.279026 0.840532
O O3 0.500000 0.222830 0.000000
O O4 0.393836 0.305719 0.103577
O O5 0.750000 0.100153 0.028138
O O6 0.651866 0.108832 0.226079
O O7 0.645178 0.000000 0.026561
O O8 0.923601 0.770680 0.684363
O O9 0.864347 0.630609 0.644204
O O10 0.997157 0.641146 0.731757
O O11 0.068388 0.735389 0.575332
O O12 0.129372 0.611869 0.643132
O O13 0.250000 0.079701 0.588548
O O14 0.360346 0.141485 0.498207
O O15 0.366102 0.000000 0.587255
O O16 0.000000 0.855974 0.500000
O O17 0.750000 0.381889 0.492068
O O18 0.837369 0.500000 0.528333
#
# Coordination Sequence:
#
# PCOD8209627 Si02
#       7
#     8   8   8   8   8   8   8
#     4  10  19  34  55  79 107 138 177 221 260 307
#     4   9  18  32  50  73 101 137 181 222 261 306
#     4   9  20  34  52  79 108 134 166 209 264 314
#     4   9  18  34  55  78 101 134 175 213 249 302
#     4   9  17  29  46  68  94 129 174 218 259 304
#     4   9  16  29  48  71  98 127 166 213 256 299
#     4  10  21  37  57  81 107 136 171 209 253 311
#
# _framework density 18.083801999999999
#
# number of rings (size 3 to 8) (size 9 to 14) (size 15 to 20)
#    0.000    2.714    1.429    2.143    0.000    5.143 
#    0.000    1.429    0.000    6.000    0.000    0.000 
#    0.000    0.000    0.000    0.000    0.000    0.000 
#
# Total GULP energy -693755.007377 kJ/mol
# GULP energy per Si atom -12388.482275 kJ/mol
# Density = 1.804264 g / cm^3
# Si number density = 18.083802 Si / 1000 Ang^3
#
#
#
# Elastic Constant Matrix: (Units=GPa)
#
#
# Indices 1 2 3 4 5 6 
#
# 1 78.2042 50.0383 27.0307 0.0000 0.0000 0.0000
# 2 50.0383 71.7262 26.6923 0.0000 0.0000 0.0000
# 3 27.0307 26.6923 66.5403 0.0000 0.0000 0.0000
# 4 0.0000 0.0000 0.0000 26.8462 0.0000 0.0000
# 5 0.0000 0.0000 0.0000 0.0000 21.5420 0.0000
# 6 0.0000 0.0000 0.0000 0.0000 0.0000 271.1606
#
#
#
# Elastic Compliance Matrix: (Units=1/GPa)
#
#
# Indices 1 2 3 4 5 6 
#
# 1 0.023783 -0.015277 -0.003533 0.000000 0.000000 0.000000
# 2 -0.015277 0.026202 -0.004305 0.000000 0.000000 0.000000
# 3 -0.003533 -0.004305 0.018191 0.000000 0.000000 0.000000
# 4 0.000000 0.000000 0.000000 0.037249 0.000000 0.000000
# 5 0.000000 0.000000 0.000000 0.000000 0.046421 0.000000
# 6 0.000000 0.000000 0.000000 0.000000 0.000000 0.003688
#
#
# Mechanical properties :
#
#
# Convention : Reuss Voigt Hill
#
# Bulk Modulus (GPa) = 45.56710 47.11038 46.33874
# Shear Modulus (GPa) = 23.91454 71.42373 47.66913
#
# Velocity S-wave (km/s) = 3.64047 6.29140 5.13978
# Velocity P-wave (km/s) = 6.55157 8.88163 7.80405
#
# Compressibility (1/GPa) = 0.02194566
#
# Stress axis : x y z
#
# Youngs Moduli (GPa) = 42.04669 38.16572 54.97366
#
# Poissons Ratio (x) = 0.58306 0.19423
# Poissons Ratio (y) = 0.64235 0.23664
# Poissons Ratio (z) = 0.14856 0.16429
#
# Static dielectric constant tensor:
#      x y z
#    x 3.513760 0.000000 0.000000 
#    y 0.000000 3.177990 0.000000 
#    z 0.000000 0.000000 3.325020 
# 
# 
# High freq. dielectric constant tensor:
#      x y z
#    x 1.698360 0.000000 0.000000 
#    y 0.000000 1.680490 0.000000 
#    z 0.000000 0.000000 1.690670 
# 
# From -- ./inp_files/11120.got.cif
#   From: 2010.03.12/outbox.cif.g09.slc.cpg/sg51_6_cif.got.tgz:11120.got - 2010.04.16 13:43:02.
