data_PCOD8209535
_publ_section_title
;
Structure prediction by ZEFSAII (Michael W. Deem and Ramdas Pophale) SiO2 
 PCOD8209535
Probable space group: P M M A
;
_chemical_formula_sum "Si O2"
_cell_formula_units_Z 64
_cell_length_a 9.310200
_cell_length_b 23.585417
_cell_length_c 14.760447
_cell_angle_alpha 90.000000
_cell_angle_beta 90.000000
_cell_angle_gamma 90.000000
_cell_volume 3241.172007
_symmetry_space_group_name_H-M "P M M A"
_symmetry_group_IT_number 51
_symmetry_cell_setting 'orthorhombic'
loop_
_space_group_symop_operation_xyz
x,y,z
1/2-x,-y,z
1/2+x,-y,-z
-x,y,-z
-x,-y,-z
1/2+x,y,-z
1/2-x,y,z
x,-y,z
loop_
_atom_site_type_symbol
_atom_site_label
_atom_site_fract_x
_atom_site_fract_y
_atom_site_fract_z
Si Si1 0.913187 0.435918 0.263895
Si Si2 0.091999 0.933372 0.581083
Si Si3 0.917664 0.250995 0.718347
Si Si4 0.909254 0.721227 0.916912
Si Si5 0.421002 0.338501 0.595505
Si Si6 0.089126 0.587676 0.084318
Si Si7 0.086795 0.879888 0.270192
Si Si8 0.415304 0.935900 0.086793
O O1 0.750000 0.423099 0.232795
O O2 0.928368 0.500000 0.300954
O O3 0.957494 0.393866 0.344783
O O4 0.015348 0.428065 0.178381
O O5 0.250000 0.905752 0.578794
O O6 0.000000 0.905715 0.500000
O O7 0.017801 0.920510 0.675480
O O8 0.103648 0.000000 0.567929
O O9 0.750000 0.269195 0.709571
O O10 0.977065 0.264395 0.819138
O O11 0.938422 0.184652 0.700949
O O12 0.014373 0.283574 0.645515
O O13 0.750000 0.748078 0.922331
O O14 0.902420 0.654390 0.927584
O O15 0.000000 0.747652 0.000000
O O16 0.500000 0.346189 0.500000
O O17 0.250000 0.330648 0.581356
O O18 0.250000 0.561960 0.083714
O O19 0.000000 0.561403 0.000000
O O20 0.250000 0.898587 0.290434
O O21 0.050358 0.890881 0.165468
O O22 0.250000 0.935082 0.060356
O O23 0.462154 0.000000 0.114830
O O24 0.500000 0.913953 0.000000
#
# Coordination Sequence:
#
# PCOD8209535 Si02
#       8
#     8   8   8   8   8   8   8   8
#     4  10  22  40  61  87 118 149 187 236 285 340
#     4  10  21  37  58  83 111 143 181 228 282 339
#     4  10  21  39  59  83 115 150 190 235 282 334
#     4   9  18  32  53  80 111 146 185 227 269 321
#     4  11  24  42  65  87 111 146 187 233 289 347
#     4  10  19  33  56  85 118 155 191 229 275 329
#     4  10  21  36  57  83 114 151 190 235 284 335
#     4   9  18  33  53  79 113 153 195 236 280 330
#
# _framework density 19.745943
#
# number of rings (size 3 to 8) (size 9 to 14) (size 15 to 20)
#    0.000    2.125    1.250    1.500    0.000    5.500 
#    0.000    1.250    0.000    0.000    0.000    0.000 
#    0.000    0.000    0.000    0.000    0.000    0.000 
#
# Total GULP energy -793603.695383 kJ/mol
# GULP energy per Si atom -12400.057740 kJ/mol
# Density = 1.970100 g / cm^3
# Si number density = 19.745943 Si / 1000 Ang^3
#
#
#
# Elastic Constant Matrix: (Units=GPa)
#
#
# Indices 1 2 3 4 5 6 
#
# 1 123.9834 38.3795 85.1808 0.0000 0.0000 0.0000
# 2 38.3795 50.4766 35.1033 0.0000 0.0000 0.0000
# 3 85.1808 35.1033 147.5463 0.0000 0.0000 0.0000
# 4 0.0000 0.0000 0.0000 -1.1584 0.0000 0.0000
# 5 0.0000 0.0000 0.0000 0.0000 41.5037 0.0000
# 6 0.0000 0.0000 0.0000 0.0000 0.0000 15.8112
#
#
#
# Elastic Compliance Matrix: (Units=1/GPa)
#
#
# Indices 1 2 3 4 5 6 
#
# 1 0.014921 -0.006416 -0.007088 0.000000 0.000000 0.000000
# 2 -0.006416 0.026498 -0.002600 0.000000 0.000000 0.000000
# 3 -0.007088 -0.002600 0.011488 0.000000 0.000000 0.000000
# 4 0.000000 0.000000 0.000000 -0.863277 0.000000 0.000000
# 5 0.000000 0.000000 0.000000 0.000000 0.024094 0.000000
# 6 0.000000 0.000000 0.000000 0.000000 0.000000 0.063246
#
#
# Mechanical properties :
#
#
# Convention : Reuss Voigt Hill
#
# Bulk Modulus (GPa) = 48.31126 71.03707 59.67416
# Shear Modulus (GPa) = -7.31078 22.12081 7.40501
#
# Velocity S-wave (km/s) = -1.92626 3.35068 1.93863
# Velocity P-wave (km/s) = 4.42405 7.14304 5.94118
#
# Compressibility (1/GPa) = 0.02069911
#
# Stress axis : x y z
#
# Youngs Moduli (GPa) = 67.01817 37.73891 87.04717
#
# Poissons Ratio (x) = 0.24214 0.61697
# Poissons Ratio (y) = 0.43000 0.22633
# Poissons Ratio (z) = 0.47501 0.09812
#
# Static dielectric constant tensor:
#      x y z
#    x 3.812420 0.000000 0.000000 
#    y 0.000000 3.471880 0.000000 
#    z 0.000000 0.000000 3.565440 
# 
# 
# High freq. dielectric constant tensor:
#      x y z
#    x 1.772240 0.000000 0.000000 
#    y 0.000000 1.759890 0.000000 
#    z 0.000000 0.000000 1.771040 
# 
# From -- ./inp_files/14811.got.cif
#   From: 2010.03.12/outbox.cif.g09.slc.cpg/sg51_8_cif.got.tgz:14811.got - 2010.04.16 13:43:02.
