data_PCOD8209368
_publ_section_title
;
Structure prediction by ZEFSAII (Michael W. Deem and Ramdas Pophale) SiO2 
 PCOD8209368
Probable space group: P M M A
;
_chemical_formula_sum "Si O2"
_cell_formula_units_Z 36
_cell_length_a 8.917599
_cell_length_b 22.026762
_cell_length_c 10.113202
_cell_angle_alpha 90.000000
_cell_angle_beta 90.000000
_cell_angle_gamma 90.000000
_cell_volume 1986.494105
_symmetry_space_group_name_H-M "P M M A"
_symmetry_group_IT_number 51
_symmetry_cell_setting 'orthorhombic'
loop_
_space_group_symop_operation_xyz
x,y,z
1/2-x,-y,z
1/2+x,-y,-z
-x,y,-z
-x,-y,-z
1/2+x,y,-z
1/2-x,y,z
x,-y,z
loop_
_atom_site_type_symbol
_atom_site_label
_atom_site_fract_x
_atom_site_fract_y
_atom_site_fract_z
Si Si1 0.923282 0.288208 0.635781
Si Si2 0.924935 0.069907 0.137512
Si Si3 0.076852 0.854297 0.365073
Si Si4 0.922065 0.500000 0.137611
Si Si5 0.572948 0.631670 0.144393
O O1 0.750000 0.306949 0.629832
O O2 0.944874 0.216943 0.656876
O O3 0.000000 0.309890 0.500000
O O4 0.001773 0.319461 0.759324
O O5 0.750000 0.083807 0.126940
O O6 0.996608 0.111617 0.247480
O O7 0.956800 0.000000 0.173191
O O8 0.000000 0.087917 0.000000
O O9 0.250000 0.872932 0.370238
O O10 0.000000 0.875808 0.500000
O O11 0.750000 0.500000 0.101764
O O12 0.961567 0.435767 0.208456
O O13 0.000000 0.500000 0.000000
O O14 0.750000 0.643613 0.132126
O O15 0.500000 0.638481 0.000000
#
# Coordination Sequence:
#
# PCOD8209368 Si02
#       5
#     8   8   8   4   8
#     4  10  21  37  55  77 105 138 175 216 263 311
#     4  10  21  37  57  81 109 140 174 214 260 308
#     4  10  21  37  57  79 105 138 176 217 260 309
#     4   8  16  30  49  74 103 134 170 212 258 306
#     4  10  19  33  54  79 106 137 174 216 260 309
#
# _framework density 18.122378999999999
#
# number of rings (size 3 to 8) (size 9 to 14) (size 15 to 20)
#    0.000    2.222    0.000    2.667    0.000    6.222 
#    0.000    0.556    0.000    0.000    0.000    0.000 
#    0.000    0.000    0.000    0.000    0.000    0.000 
#
# Total GULP energy -446287.591543 kJ/mol
# GULP energy per Si atom -12396.877543 kJ/mol
# Density = 1.808113 g / cm^3
# Si number density = 18.122379 Si / 1000 Ang^3
#
#
#
# Elastic Constant Matrix: (Units=GPa)
#
#
# Indices 1 2 3 4 5 6 
#
# 1 127.8529 51.0186 76.4833 0.0000 0.0000 0.0000
# 2 51.0186 53.0412 58.5474 0.0000 0.0000 0.0000
# 3 76.4833 58.5474 130.5425 0.0000 0.0000 0.0000
# 4 0.0000 0.0000 0.0000 11.1586 0.0000 0.0000
# 5 0.0000 0.0000 0.0000 0.0000 39.2274 0.0000
# 6 0.0000 0.0000 0.0000 0.0000 0.0000 33.2165
#
#
#
# Elastic Compliance Matrix: (Units=1/GPa)
#
#
# Indices 1 2 3 4 5 6 
#
# 1 0.013772 -0.008596 -0.004214 0.000000 0.000000 0.000000
# 2 -0.008596 0.042702 -0.014115 0.000000 0.000000 0.000000
# 3 -0.004214 -0.014115 0.016460 0.000000 0.000000 0.000000
# 4 0.000000 0.000000 0.000000 0.089617 0.000000 0.000000
# 5 0.000000 0.000000 0.000000 0.000000 0.025492 0.000000
# 6 0.000000 0.000000 0.000000 0.000000 0.000000 0.030106
#
#
# Mechanical properties :
#
#
# Convention : Reuss Voigt Hill
#
# Bulk Modulus (GPa) = 52.39978 75.94834 64.17406
# Shear Modulus (GPa) = 17.96231 25.07967 21.52099
#
# Velocity S-wave (km/s) = 3.15170 3.72412 3.44980
# Velocity P-wave (km/s) = 6.49780 7.77764 7.16635
#
# Compressibility (1/GPa) = 0.01908405
#
# Stress axis : x y z
#
# Youngs Moduli (GPa) = 72.60889 23.41808 60.75400
#
# Poissons Ratio (x) = 0.20130 0.25601
# Poissons Ratio (y) = 0.62414 0.85756
# Poissons Ratio (z) = 0.30597 0.33055
#
# Static dielectric constant tensor:
#      x y z
#    x 3.900720 0.000000 0.000000 
#    y 0.000000 3.700440 0.000000 
#    z 0.000000 0.000000 3.229020 
# 
# 
# High freq. dielectric constant tensor:
#      x y z
#    x 1.723470 0.000000 0.000000 
#    y 0.000000 1.707190 0.000000 
#    z 0.000000 0.000000 1.692570 
# 
# From -- ./inp_files/5233.got.cif
#   From: 2010.03.12/outbox.cif.g09.slc.cpg/sg51_3_cif.got.tgz:5233.got - 2010.04.16 13:43:02.
