data_PCOD8209767
_publ_section_title
;
Structure prediction by ZEFSAII (Michael W. Deem and Ramdas Pophale) SiO2 
 PCOD8209767
Probable space group: P M M A
;
_chemical_formula_sum "Si O2"
_cell_formula_units_Z 48
_cell_length_a 8.802777
_cell_length_b 30.231635
_cell_length_c 9.335447
_cell_angle_alpha 90.000000
_cell_angle_beta 90.000000
_cell_angle_gamma 90.000000
_cell_volume 2484.371012
_symmetry_space_group_name_H-M "P M M A"
_symmetry_group_IT_number 51
_symmetry_cell_setting 'orthorhombic'
loop_
_space_group_symop_operation_xyz
x,y,z
1/2-x,-y,z
1/2+x,-y,-z
-x,y,-z
-x,-y,-z
1/2+x,y,-z
1/2-x,y,z
x,-y,z
loop_
_atom_site_type_symbol
_atom_site_label
_atom_site_fract_x
_atom_site_fract_y
_atom_site_fract_z
Si Si1 0.430225 0.500000 0.654765
Si Si2 0.075194 0.000000 0.349378
Si Si3 0.071914 0.255646 0.653058
Si Si4 0.429358 0.096047 0.342322
Si Si5 0.573038 0.428470 0.850526
Si Si6 0.928318 0.828312 0.154597
Si Si7 0.073745 0.325573 0.149835
O O1 0.250000 0.500000 0.648499
O O2 0.500000 0.500000 0.500000
O O3 0.487822 0.455544 0.729321
O O4 0.033253 0.953089 0.274712
O O5 0.000000 0.000000 0.500000
O O6 0.250000 0.000000 0.383846
O O7 0.250000 0.262329 0.634500
O O8 0.030813 0.214811 0.754374
O O9 0.000000 0.245820 0.500000
O O10 0.002577 0.300047 0.719297
O O11 0.500000 0.102333 0.500000
O O12 0.250000 0.104636 0.354423
O O13 0.501766 0.129358 0.231026
O O14 0.750000 0.440723 0.852979
O O15 0.545768 0.377010 0.819371
O O16 0.500000 0.442687 0.000000
O O17 0.750000 0.835396 0.138983
O O18 0.000000 0.821887 0.000000
O O19 0.250000 0.313556 0.141327
O O20 0.000000 0.310844 0.000000
#
# Coordination Sequence:
#
# PCOD8209767 Si02
#       7
#     4   4   8   8   8   8   8
#     4  12  25  40  59  84 116 154 194 240 289 338
#     4   8  16  30  51  80 111 144 182 224 274 328
#     4  11  24  40  60  85 115 149 187 231 280 334
#     4  10  19  34  57  84 114 147 185 230 277 331
#     4  10  21  39  62  88 117 152 192 234 280 335
#     4  11  24  40  58  82 111 147 188 232 282 335
#     4  10  21  38  62  89 118 151 189 232 280 334
#
# _framework density 19.320785000000001
#
# number of rings (size 3 to 8) (size 9 to 14) (size 15 to 20)
#    0.000    1.667    0.000    4.500    0.000    8.667 
#    0.000    0.417    0.000    0.000    0.000    0.000 
#    0.000    0.000    0.000    0.000    0.000    0.000 
#
# Total GULP energy -595221.685074 kJ/mol
# GULP energy per Si atom -12400.451772 kJ/mol
# Density = 1.927681 g / cm^3
# Si number density = 19.320785 Si / 1000 Ang^3
#
#
#
# Elastic Constant Matrix: (Units=GPa)
#
#
# Indices 1 2 3 4 5 6 
#
# 1 132.6783 75.9839 84.8109 0.0000 0.0000 0.0000
# 2 75.9839 116.7044 77.2323 0.0000 0.0000 0.0000
# 3 84.8109 77.2323 155.2443 0.0000 0.0000 0.0000
# 4 0.0000 0.0000 0.0000 32.8952 0.0000 0.0000
# 5 0.0000 0.0000 0.0000 0.0000 39.1104 0.0000
# 6 0.0000 0.0000 0.0000 0.0000 0.0000 24.3019
#
#
#
# Elastic Compliance Matrix: (Units=1/GPa)
#
#
# Indices 1 2 3 4 5 6 
#
# 1 0.013936 -0.006015 -0.004620 0.000000 0.000000 0.000000
# 2 -0.006015 0.015371 -0.004361 0.000000 0.000000 0.000000
# 3 -0.004620 -0.004361 0.011135 0.000000 0.000000 0.000000
# 4 0.000000 0.000000 0.000000 0.030400 0.000000 0.000000
# 5 0.000000 0.000000 0.000000 0.000000 0.025569 0.000000
# 6 0.000000 0.000000 0.000000 0.000000 0.000000 0.041149
#
#
# Mechanical properties :
#
#
# Convention : Reuss Voigt Hill
#
# Bulk Modulus (GPa) = 95.70770 97.85346 96.78058
# Shear Modulus (GPa) = 29.23390 30.36818 29.80104
#
# Velocity S-wave (km/s) = 3.89405 3.96888 3.93164
# Velocity P-wave (km/s) = 8.35834 8.47109 8.41490
#
# Compressibility (1/GPa) = 0.01044848
#
# Stress axis : x y z
#
# Youngs Moduli (GPa) = 71.75912 65.05789 89.80698
#
# Poissons Ratio (x) = 0.39135 0.41495
# Poissons Ratio (y) = 0.43166 0.39161
# Poissons Ratio (z) = 0.33156 0.28369
#
# Static dielectric constant tensor:
#      x y z
#    x 3.720730 0.000000 0.000000 
#    y 0.000000 3.794310 0.000000 
#    z 0.000000 0.000000 3.396150 
# 
# 
# High freq. dielectric constant tensor:
#      x y z
#    x 1.771160 0.000000 0.000000 
#    y 0.000000 1.771660 0.000000 
#    z 0.000000 0.000000 1.741760 
# 
# From -- ./inp_files/6204.got.cif
#   From: 2010.03.12/outbox.cif.g09.slc.cpg/sg51_4_cif.got.tgz:6204.got - 2010.04.16 13:43:02.
