data_PCOD8209217
_publ_section_title
;
Structure prediction by ZEFSAII (Michael W. Deem and Ramdas Pophale) SiO2 
 PCOD8209217
Probable space group: P M M A
;
_chemical_formula_sum "Si O2"
_cell_formula_units_Z 52
_cell_length_a 9.138612
_cell_length_b 23.429977
_cell_length_c 14.369994
_cell_angle_alpha 90.000000
_cell_angle_beta 90.000000
_cell_angle_gamma 90.000000
_cell_volume 3076.866744
_symmetry_space_group_name_H-M "P M M A"
_symmetry_group_IT_number 51
_symmetry_cell_setting 'orthorhombic'
loop_
_space_group_symop_operation_xyz
x,y,z
1/2-x,-y,z
1/2+x,-y,-z
-x,y,-z
-x,-y,-z
1/2+x,y,-z
1/2-x,y,z
x,-y,z
loop_
_atom_site_type_symbol
_atom_site_label
_atom_site_fract_x
_atom_site_fract_y
_atom_site_fract_z
Si Si1 0.083586 0.563949 0.770093
Si Si2 0.081320 0.733466 0.410568
Si Si3 0.577058 0.333152 0.098782
Si Si4 0.079112 0.123072 0.097878
Si Si5 0.080994 0.000000 0.095757
Si Si6 0.578033 0.397963 0.592282
Si Si7 0.921903 0.233173 0.791498
O O1 0.250000 0.577005 0.738778
O O2 0.068947 0.500000 0.811047
O O3 0.035455 0.607912 0.850084
O O4 0.979461 0.568197 0.681157
O O5 0.250000 0.738274 0.434340
O O6 0.035292 0.668067 0.393786
O O7 0.039869 0.768271 0.317929
O O8 0.000000 0.759846 0.500000
O O9 0.750000 0.325884 0.085215
O O10 0.517077 0.280886 0.158576
O O11 0.500000 0.333466 0.000000
O O12 0.250000 0.128433 0.076811
O O13 0.041404 0.060664 0.145240
O O14 0.029959 0.171639 0.169661
O O15 0.000000 0.132275 0.000000
O O16 0.250000 0.000000 0.071460
O O17 0.000000 0.000000 0.000000
O O18 0.500000 0.422263 0.500000
O O19 0.750000 0.407837 0.582695
O O20 0.750000 0.246486 0.806975
#
# Coordination Sequence:
#
# PCOD8209217 Si02
#       7
#     8   8   8   8   4   8   8
#     4  10  22  39  55  72  95 124 161 201 241 289
#     4   9  18  31  49  72  98 124 154 192 237 286
#     4  11  23  37  54  73  96 126 159 199 243 287
#     4   9  17  28  45  68  99 132 165 199 235 277
#     4   8  14  26  42  64  93 130 166 198 233 274
#     4  10  19  33  54  77 100 126 155 193 241 293
#     4  10  19  33  51  74 101 128 159 200 242 285
#
# _framework density 16.900310000000001
#
# number of rings (size 3 to 8) (size 9 to 14) (size 15 to 20)
#    0.000    2.308    1.538    1.385    0.000    4.615 
#    0.000    0.000    0.000    0.000    0.000    0.538 
#    0.000    0.000    0.000    0.000    0.000    0.000 
#
# Total GULP energy -644601.963769 kJ/mol
# GULP energy per Si atom -12396.191611 kJ/mol
# Density = 1.686184 g / cm^3
# Si number density = 16.900310 Si / 1000 Ang^3
#
#
#
# Elastic Constant Matrix: (Units=GPa)
#
#
# Indices 1 2 3 4 5 6 
#
# 1 56.1579 39.5755 42.8001 0.0000 0.0000 0.0000
# 2 39.5755 129.8952 62.0827 0.0000 0.0000 0.0000
# 3 42.8001 62.0827 112.2974 0.0000 0.0000 0.0000
# 4 0.0000 0.0000 0.0000 19.5563 0.0000 0.0000
# 5 0.0000 0.0000 0.0000 0.0000 27.8878 0.0000
# 6 0.0000 0.0000 0.0000 0.0000 0.0000 17.0177
#
#
#
# Elastic Compliance Matrix: (Units=1/GPa)
#
#
# Indices 1 2 3 4 5 6 
#
# 1 0.026885 -0.004477 -0.007772 0.000000 0.000000 0.000000
# 2 -0.004477 0.011209 -0.004490 0.000000 0.000000 0.000000
# 3 -0.007772 -0.004490 0.014350 0.000000 0.000000 0.000000
# 4 0.000000 0.000000 0.000000 0.051134 0.000000 0.000000
# 5 0.000000 0.000000 0.000000 0.000000 0.035858 0.000000
# 6 0.000000 0.000000 0.000000 0.000000 0.000000 0.058762
#
#
# Mechanical properties :
#
#
# Convention : Reuss Voigt Hill
#
# Bulk Modulus (GPa) = 52.72785 65.25191 58.98988
# Shear Modulus (GPa) = 21.00867 23.15185 22.08026
#
# Velocity S-wave (km/s) = 3.52958 3.70524 3.61848
# Velocity P-wave (km/s) = 6.91937 7.54975 7.24142
#
# Compressibility (1/GPa) = 0.01896531
#
# Stress axis : x y z
#
# Youngs Moduli (GPa) = 37.19565 89.21747 69.68881
#
# Poissons Ratio (x) = 0.39939 0.54161
# Poissons Ratio (y) = 0.16651 0.31293
# Poissons Ratio (z) = 0.28908 0.40062
#
# Static dielectric constant tensor:
#      x y z
#    x 3.143760 0.000000 0.000000 
#    y 0.000000 3.500570 0.000000 
#    z 0.000000 0.000000 3.115800 
# 
# 
# High freq. dielectric constant tensor:
#      x y z
#    x 1.656390 0.000000 0.000000 
#    y 0.000000 1.645870 0.000000 
#    z 0.000000 0.000000 1.636650 
# 
# From -- ./inp_files/21575.got.cif
#   From: 2010.03.12/outbox.cif.g09.slc.cpg/sg51_11_cif.got.tgz:21575.got - 2010.04.16 13:43:02.
