data_PCOD8209494
_publ_section_title
;
Structure prediction by ZEFSAII (Michael W. Deem and Ramdas Pophale) SiO2 
 PCOD8209494
Probable space group: P M M A
;
_chemical_formula_sum "Si O2"
_cell_formula_units_Z 56
_cell_length_a 19.307130
_cell_length_b 8.993409
_cell_length_c 16.696055
_cell_angle_alpha 90.000000
_cell_angle_beta 90.000000
_cell_angle_gamma 90.000000
_cell_volume 2899.051511
_symmetry_space_group_name_H-M "P M M A"
_symmetry_group_IT_number 51
_symmetry_cell_setting 'orthorhombic'
loop_
_space_group_symop_operation_xyz
x,y,z
1/2-x,-y,z
1/2+x,-y,-z
-x,y,-z
-x,-y,-z
1/2+x,y,-z
1/2-x,y,z
x,-y,z
loop_
_atom_site_type_symbol
_atom_site_label
_atom_site_fract_x
_atom_site_fract_y
_atom_site_fract_z
Si Si1 0.006658 0.835115 0.410996
Si Si2 0.750000 0.677621 0.584692
Si Si3 0.750000 0.323886 0.401910
Si Si4 0.582718 0.323247 0.856947
Si Si5 0.828889 0.323525 0.005380
Si Si6 0.075879 0.323814 0.846655
Si Si7 0.380022 0.675388 0.316702
Si Si8 0.128773 0.166026 0.688393
O O1 0.931417 0.846117 0.375128
O O2 0.000000 0.770650 0.500000
O O3 0.049896 0.718660 0.360348
O O4 0.041339 0.000000 0.411588
O O5 0.750000 0.500000 0.583824
O O6 0.750000 0.738356 0.493445
O O7 0.684204 0.741556 0.633333
O O8 0.750000 0.500000 0.403796
O O9 0.815296 0.269166 0.352903
O O10 0.584238 0.500000 0.858985
O O11 0.630434 0.258538 0.928169
O O12 0.502698 0.271631 0.866577
O O13 0.616048 0.262599 0.774103
O O14 0.750000 0.260238 0.009216
O O15 0.825989 0.500000 0.000026
O O16 0.872702 0.274059 0.082526
O O17 0.078455 0.500000 0.831931
O O18 0.102456 0.240698 0.768986
O O19 0.374243 0.500000 0.313736
O O20 0.157597 0.000000 0.706915
#
# Coordination Sequence:
#
# PCOD8209494 Si02
#       8
#     8   4   4   8   8   8   8   8
#     4  10  21  37  56  79 109 145 186 230 274 330
#     4   9  20  35  53  82 115 144 182 235 287 333
#     4  11  23  39  57  78 109 148 188 231 279 337
#     4   9  17  30  51  79 112 145 179 224 276 327
#     4   9  18  30  50  82 114 144 181 228 275 322
#     4  10  19  34  55  82 112 145 185 227 274 327
#     4  10  19  33  55  83 112 145 184 230 284 332
#     4  11  23  38  57  82 112 146 185 232 283 332
#
# _framework density 19.316662999999998
#
# number of rings (size 3 to 8) (size 9 to 14) (size 15 to 20)
#    0.000    2.143    1.429    1.929    2.000    2.571 
#    0.000    1.071    0.000    2.571    0.000    0.000 
#    0.000    0.000    0.000    0.000    0.000    0.000 
#
# Total GULP energy -694260.318982 kJ/mol
# GULP energy per Si atom -12397.505696 kJ/mol
# Density = 1.927270 g / cm^3
# Si number density = 19.316663 Si / 1000 Ang^3
#
#
#
# Elastic Constant Matrix: (Units=GPa)
#
#
# Indices 1 2 3 4 5 6 
#
# 1 136.4690 24.3802 69.5782 0.0000 0.0000 0.0000
# 2 24.3802 29.3060 29.9890 0.0000 0.0000 0.0000
# 3 69.5782 29.9890 161.8832 0.0000 0.0000 0.0000
# 4 0.0000 0.0000 0.0000 13.6904 0.0000 0.0000
# 5 0.0000 0.0000 0.0000 0.0000 38.8171 0.0000
# 6 0.0000 0.0000 0.0000 0.0000 0.0000 -1.2297
#
#
#
# Elastic Compliance Matrix: (Units=1/GPa)
#
#
# Indices 1 2 3 4 5 6 
#
# 1 0.009901 -0.004790 -0.003368 0.000000 0.000000 0.000000
# 2 -0.004790 0.044422 -0.006170 0.000000 0.000000 0.000000
# 3 -0.003368 -0.006170 0.008768 0.000000 0.000000 0.000000
# 4 0.000000 0.000000 0.000000 0.073044 0.000000 0.000000
# 5 0.000000 0.000000 0.000000 0.000000 0.025762 0.000000
# 6 0.000000 0.000000 0.000000 0.000000 0.000000 -0.813182
#
#
# Mechanical properties :
#
#
# Convention : Reuss Voigt Hill
#
# Bulk Modulus (GPa) = 29.04143 63.95034 46.49588
# Shear Modulus (GPa) = -8.18128 23.83627 7.82749
#
# Velocity S-wave (km/s) = -2.06023 3.51661 2.01519
# Velocity P-wave (km/s) = 3.06719 7.04747 5.43482
#
# Compressibility (1/GPa) = 0.03443357
#
# Stress axis : x y z
#
# Youngs Moduli (GPa) = 101.00458 22.51144 114.05196
#
# Poissons Ratio (x) = 0.10783 0.38412
# Poissons Ratio (y) = 0.48381 0.70375
# Poissons Ratio (z) = 0.34018 0.13891
#
# Static dielectric constant tensor:
#      x y z
#    x 3.747350 0.000000 0.000000 
#    y 0.000000 3.150110 0.000000 
#    z 0.000000 0.000000 3.825200 
# 
# 
# High freq. dielectric constant tensor:
#      x y z
#    x 1.761460 0.000000 0.000000 
#    y 0.000000 1.705690 0.000000 
#    z 0.000000 0.000000 1.770680 
# 
# From -- ./inp_files/25865.got.cif
#   From: 2010.03.12/outbox.cif.g09.slc.cpg/sg51_13_cif.got.tgz:25865.got - 2010.04.16 13:43:02.
