data_PCOD8209605
_publ_section_title
;
Structure prediction by ZEFSAII (Michael W. Deem and Ramdas Pophale) SiO2 
 PCOD8209605
Probable space group: P M M A
;
_chemical_formula_sum "Si O2"
_cell_formula_units_Z 64
_cell_length_a 17.829233
_cell_length_b 9.255029
_cell_length_c 21.507025
_cell_angle_alpha 90.000000
_cell_angle_beta 90.000000
_cell_angle_gamma 90.000000
_cell_volume 3548.875668
_symmetry_space_group_name_H-M "P M M A"
_symmetry_group_IT_number 51
_symmetry_cell_setting 'orthorhombic'
loop_
_space_group_symop_operation_xyz
x,y,z
1/2-x,-y,z
1/2+x,-y,-z
-x,y,-z
-x,-y,-z
1/2+x,y,-z
1/2-x,y,z
x,-y,z
loop_
_atom_site_type_symbol
_atom_site_label
_atom_site_fract_x
_atom_site_fract_y
_atom_site_fract_z
Si Si1 0.332961 0.831919 0.364956
Si Si2 0.016691 0.830314 0.429797
Si Si3 0.162933 0.164230 0.013756
Si Si4 0.056709 0.330864 0.679240
Si Si5 0.662762 0.168242 0.233584
Si Si6 0.924954 0.831367 0.110046
Si Si7 0.901754 0.665949 0.742697
Si Si8 0.420097 0.669967 0.117250
O O1 0.250000 0.791389 0.391087
O O2 0.397218 0.785133 0.414010
O O3 0.344429 0.756555 0.298655
O O4 0.339024 0.000000 0.351444
O O5 0.000000 0.784487 0.500000
O O6 0.958901 0.742708 0.387129
O O7 0.003415 0.000000 0.419003
O O8 0.250000 0.182521 0.000344
O O9 0.140116 0.270105 0.069056
O O10 0.142729 0.000000 0.032601
O O11 0.121620 0.209105 0.950850
O O12 0.070505 0.500000 0.668987
O O13 0.130251 0.260230 0.709259
O O14 0.987508 0.298524 0.725096
O O15 0.750000 0.204357 0.227125
O O16 0.623065 0.215729 0.169774
O O17 0.649052 0.000000 0.247550
O O18 0.000381 0.741903 0.105820
O O19 0.944844 0.000000 0.112625
O O20 0.883544 0.500000 0.729611
O O21 0.889511 0.707734 0.814236
O O22 0.429708 0.500000 0.108415
#
# Coordination Sequence:
#
# PCOD8209605 Si02
#       8
#     8   8   8   8   8   8   8   8
#     4   9  18  32  52  79 107 135 174 222 265 306
#     4   9  18  34  56  80 108 145 185 221 264 315
#     4  10  22  39  55  74 103 138 178 224 273 323
#     4  10  19  34  54  77 108 141 176 216 262 316
#     4  10  20  34  55  82 108 137 176 222 272 322
#     4  10  20  36  58  79 102 136 179 224 270 322
#     4   9  19  34  51  73 103 138 172 209 259 315
#     4  11  22  36  54  78 107 138 176 219 267 326
#
# _framework density 18.033881000000001
#
# number of rings (size 3 to 8) (size 9 to 14) (size 15 to 20)
#    0.000    2.250    1.250    1.500    0.000    6.500 
#    0.000    3.125    0.000    4.500    0.000    0.000 
#    0.000    0.000    0.000    0.000    0.000    0.000 
#
# Total GULP energy -793760.280885 kJ/mol
# GULP energy per Si atom -12402.504389 kJ/mol
# Density = 1.799283 g / cm^3
# Si number density = 18.033881 Si / 1000 Ang^3
#
#
#
# Elastic Constant Matrix: (Units=GPa)
#
#
# Indices 1 2 3 4 5 6 
#
# 1 73.1341 24.9314 40.9356 0.0000 0.0000 0.0000
# 2 24.9314 49.4060 45.4871 0.0000 0.0000 0.0000
# 3 40.9356 45.4871 125.1213 0.0000 0.0000 0.0000
# 4 0.0000 0.0000 0.0000 25.1230 0.0000 0.0000
# 5 0.0000 0.0000 0.0000 0.0000 19.8919 0.0000
# 6 0.0000 0.0000 0.0000 0.0000 0.0000 12.1443
#
#
#
# Elastic Compliance Matrix: (Units=1/GPa)
#
#
# Indices 1 2 3 4 5 6 
#
# 1 0.017646 -0.005395 -0.003812 0.000000 0.000000 0.000000
# 2 -0.005395 0.032073 -0.009895 0.000000 0.000000 0.000000
# 3 -0.003812 -0.009895 0.012837 0.000000 0.000000 0.000000
# 4 0.000000 0.000000 0.000000 0.039804 0.000000 0.000000
# 5 0.000000 0.000000 0.000000 0.000000 0.050272 0.000000
# 6 0.000000 0.000000 0.000000 0.000000 0.000000 0.082343
#
#
# Mechanical properties :
#
#
# Convention : Reuss Voigt Hill
#
# Bulk Modulus (GPa) = 41.06426 52.26329 46.66378
# Shear Modulus (GPa) = 17.77486 20.51900 19.14693
#
# Velocity S-wave (km/s) = 3.14289 3.37679 3.26194
# Velocity P-wave (km/s) = 5.99920 6.65185 6.33394
#
# Compressibility (1/GPa) = 0.02435207
#
# Stress axis : x y z
#
# Youngs Moduli (GPa) = 56.66877 31.17889 77.90230
#
# Poissons Ratio (x) = 0.16822 0.29696
# Poissons Ratio (y) = 0.30574 0.77083
# Poissons Ratio (z) = 0.21602 0.30851
#
# Static dielectric constant tensor:
#      x y z
#    x 3.353670 0.000000 0.000000 
#    y 0.000000 3.333630 0.000000 
#    z 0.000000 0.000000 3.346930 
# 
# 
# High freq. dielectric constant tensor:
#      x y z
#    x 1.697430 0.000000 0.000000 
#    y 0.000000 1.696100 0.000000 
#    z 0.000000 0.000000 1.696130 
# 
# From -- ./inp_files/33763.got.cif
#   From: 2010.03.12/outbox.cif.g09.slc.cpg/sg51_17_cif.got.tgz:33763.got - 2010.04.16 13:43:02.
