data_PCOD8209636
_publ_section_title
;
Structure prediction by ZEFSAII (Michael W. Deem and Ramdas Pophale) SiO2 
 PCOD8209636
Probable space group: P M M A
;
_chemical_formula_sum "Si O2"
_cell_formula_units_Z 64
_cell_length_a 13.742325
_cell_length_b 24.675433
_cell_length_c 9.086954
_cell_angle_alpha 90.000000
_cell_angle_beta 90.000000
_cell_angle_gamma 90.000000
_cell_volume 3081.366290
_symmetry_space_group_name_H-M "P M M A"
_symmetry_group_IT_number 51
_symmetry_cell_setting 'orthorhombic'
loop_
_space_group_symop_operation_xyz
x,y,z
1/2-x,-y,z
1/2+x,-y,-z
-x,y,-z
-x,-y,-z
1/2+x,y,-z
1/2-x,y,z
x,-y,z
loop_
_atom_site_type_symbol
_atom_site_label
_atom_site_fract_x
_atom_site_fract_y
_atom_site_fract_z
Si Si1 0.469963 0.059297 0.332557
Si Si2 0.860595 0.840074 0.592710
Si Si3 0.141037 0.128540 0.738991
Si Si4 0.973883 0.561802 0.840892
Si Si5 0.861624 0.438905 0.391791
Si Si6 0.551615 0.254283 0.768028
Si Si7 0.859922 0.233831 0.083445
Si Si8 0.637859 0.638147 0.655171
O O1 0.500000 0.052458 0.500000
O O2 0.381167 0.102030 0.328267
O O3 0.562416 0.080970 0.238162
O O4 0.438733 0.000000 0.270083
O O5 0.750000 0.823058 0.627430
O O6 0.879654 0.841947 0.417659
O O7 0.935279 0.796996 0.661595
O O8 0.250000 0.103588 0.736229
O O9 0.131361 0.170300 0.874915
O O10 0.938144 0.500000 0.842603
O O11 0.883923 0.598222 0.790067
O O12 0.071378 0.570331 0.747851
O O13 0.000000 0.583586 0.000000
O O14 0.750000 0.430481 0.343754
O O15 0.876400 0.500000 0.456594
O O16 0.894740 0.394586 0.510371
O O17 0.439203 0.264076 0.814587
O O18 0.579739 0.306431 0.673002
O O19 0.617721 0.244071 0.912281
O O20 0.750000 0.254667 0.118063
O O21 0.750000 0.653180 0.651860
#
# Coordination Sequence:
#
# PCOD8209636 Si02
#       8
#     8   8   8   8   8   8   8   8
#     4   9  17  30  49  79 114 147 190 242 294 347
#     4  10  19  34  55  80 112 152 194 240 290 345
#     4   9  18  34  56  82 110 145 193 240 293 359
#     4  10  22  40  62  91 124 159 200 246 302 359
#     4   9  19  40  67  92 121 159 204 251 299 355
#     4  11  23  39  61  85 118 155 192 243 297 353
#     4  10  21  39  61  84 111 152 196 235 292 360
#     4  11  23  39  59  87 119 156 202 248 299 358
#
# _framework density 20.770008000000001
#
# number of rings (size 3 to 8) (size 9 to 14) (size 15 to 20)
#    0.000    2.125    1.250    1.875    1.750    2.750 
#    4.500    4.375    0.000    1.500    0.000    1.750 
#    0.000    0.000    0.000    0.000    0.000    0.000 
#
# Total GULP energy -793410.032495 kJ/mol
# GULP energy per Si atom -12397.031758 kJ/mol
# Density = 2.072273 g / cm^3
# Si number density = 20.770008 Si / 1000 Ang^3
#
#
#
# Elastic Constant Matrix: (Units=GPa)
#
#
# Indices 1 2 3 4 5 6 
#
# 1 96.1620 36.4266 27.0491 0.0000 0.0000 0.0000
# 2 36.4266 114.3326 43.3486 0.0000 0.0000 0.0000
# 3 27.0491 43.3486 73.0050 0.0000 0.0000 0.0000
# 4 0.0000 0.0000 0.0000 24.1642 0.0000 0.0000
# 5 0.0000 0.0000 0.0000 0.0000 23.4245 0.0000
# 6 0.0000 0.0000 0.0000 0.0000 0.0000 -153.1047
#
#
#
# Elastic Compliance Matrix: (Units=1/GPa)
#
#
# Indices 1 2 3 4 5 6 
#
# 1 0.012276 -0.002822 -0.002873 0.000000 0.000000 0.000000
# 2 -0.002822 0.011936 -0.006042 0.000000 0.000000 0.000000
# 3 -0.002873 -0.006042 0.018350 0.000000 0.000000 0.000000
# 4 0.000000 0.000000 0.000000 0.041384 0.000000 0.000000
# 5 0.000000 0.000000 0.000000 0.000000 0.042690 0.000000
# 6 0.000000 0.000000 0.000000 0.000000 0.000000 -0.006531
#
#
# Mechanical properties :
#
#
# Convention : Reuss Voigt Hill
#
# Bulk Modulus (GPa) = 52.38707 55.23866 53.81287
# Shear Modulus (GPa) = 33.34649 -9.32485 12.01082
#
# Velocity S-wave (km/s) = 4.01123 -2.12116 2.40735
# Velocity P-wave (km/s) = 6.83597 4.54467 5.80450
#
# Compressibility (1/GPa) = 0.01908868
#
# Stress axis : x y z
#
# Youngs Moduli (GPa) = 81.45850 83.77836 54.49707
#
# Poissons Ratio (x) = 0.23642 0.15656
# Poissons Ratio (y) = 0.22988 0.32926
# Poissons Ratio (z) = 0.23401 0.50618
#
# Static dielectric constant tensor:
#      x y z
#    x 3.933130 0.000000 0.000000 
#    y 0.000000 3.854950 0.000000 
#    z 0.000000 0.000000 3.622520 
# 
# 
# High freq. dielectric constant tensor:
#      x y z
#    x 1.823770 0.000000 0.000000 
#    y 0.000000 1.802400 0.000000 
#    z 0.000000 0.000000 1.793430 
# 
# From -- ./inp_files/8733.got.cif
#   From: 2010.03.12/outbox.cif.g09.slc.cpg/sg51_5_cif.got.tgz:8733.got - 2010.04.16 13:43:02.
