data_PCOD8209596
_publ_section_title
;
Structure prediction by ZEFSAII (Michael W. Deem and Ramdas Pophale) SiO2 
 PCOD8209596
Probable space group: P M M A
;
_chemical_formula_sum "Si O2"
_cell_formula_units_Z 48
_cell_length_a 8.820083
_cell_length_b 16.450530
_cell_length_c 18.479565
_cell_angle_alpha 90.000000
_cell_angle_beta 90.000000
_cell_angle_gamma 90.000000
_cell_volume 2681.293223
_symmetry_space_group_name_H-M "P M M A"
_symmetry_group_IT_number 51
_symmetry_cell_setting 'orthorhombic'
loop_
_space_group_symop_operation_xyz
x,y,z
1/2-x,-y,z
1/2+x,-y,-z
-x,y,-z
-x,-y,-z
1/2+x,y,-z
1/2-x,y,z
x,-y,z
loop_
_atom_site_type_symbol
_atom_site_label
_atom_site_fract_x
_atom_site_fract_y
_atom_site_fract_z
Si Si1 0.925670 0.270143 0.708174
Si Si2 0.570903 0.839532 0.575847
Si Si3 0.429869 0.000000 0.642033
Si Si4 0.929790 0.692137 0.074491
Si Si5 0.070428 0.000000 0.808701
Si Si6 0.928982 0.165506 0.845375
Si Si7 0.571217 0.590815 0.212963
O O1 0.750000 0.290115 0.714780
O O2 0.968752 0.233608 0.630499
O O3 0.973994 0.204311 0.768260
O O4 0.012787 0.354792 0.720270
O O5 0.500000 0.812918 0.500000
O O6 0.750000 0.853370 0.569620
O O7 0.495584 0.922062 0.602300
O O8 0.482953 0.000000 0.725225
O O9 0.250000 0.000000 0.634627
O O10 0.750000 0.698800 0.068558
O O11 0.981435 0.629465 0.136852
O O12 0.999824 0.780550 0.090806
O O13 0.000000 0.658966 0.000000
O O14 0.003183 0.922688 0.849836
O O15 0.250000 0.000000 0.814983
O O16 0.750000 0.158795 0.856227
O O17 0.750000 0.588184 0.217369
O O18 0.503207 0.500000 0.219077
#
# Coordination Sequence:
#
# PCOD8209596 Si02
#       7
#     8   8   4   8   4   8   8
#     4   9  19  34  53  76 103 136 174 216 260 310
#     4  11  22  36  52  75 108 143 180 221 266 313
#     4  11  22  34  51  76 107 143 180 219 265 310
#     4  10  20  35  54  78 109 141 173 210 257 311
#     4  11  21  32  51  78 105 135 178 223 263 306
#     4  10  19  34  54  75 101 137 179 219 263 308
#     4   9  19  35  56  82 109 136 169 211 258 310
#
# _framework density 17.901810000000001
#
# number of rings (size 3 to 8) (size 9 to 14) (size 15 to 20)
#    0.000    2.000    1.667    2.250    0.000    4.000 
#    0.000    0.417    0.000    0.500    0.000    0.000 
#    0.000    0.000    0.000    0.000    0.000    0.000 
#
# Total GULP energy -595362.049887 kJ/mol
# GULP energy per Si atom -12403.376039 kJ/mol
# Density = 1.786106 g / cm^3
# Si number density = 17.901810 Si / 1000 Ang^3
#
#
#
# Elastic Constant Matrix: (Units=GPa)
#
#
# Indices 1 2 3 4 5 6 
#
# 1 65.9747 41.8512 33.6595 0.0000 0.0000 0.0000
# 2 41.8512 147.6241 49.9777 0.0000 0.0000 0.0000
# 3 33.6595 49.9777 85.2359 0.0000 0.0000 0.0000
# 4 0.0000 0.0000 0.0000 17.7178 0.0000 0.0000
# 5 0.0000 0.0000 0.0000 0.0000 30.4391 0.0000
# 6 0.0000 0.0000 0.0000 0.0000 0.0000 29.3163
#
#
#
# Elastic Compliance Matrix: (Units=1/GPa)
#
#
# Indices 1 2 3 4 5 6 
#
# 1 0.020598 -0.003850 -0.005877 0.000000 0.000000 0.000000
# 2 -0.003850 0.009171 -0.003857 0.000000 0.000000 0.000000
# 3 -0.005877 -0.003857 0.016314 0.000000 0.000000 0.000000
# 4 0.000000 0.000000 0.000000 0.056440 0.000000 0.000000
# 5 0.000000 0.000000 0.000000 0.000000 0.032852 0.000000
# 6 0.000000 0.000000 0.000000 0.000000 0.000000 0.034111
#
#
# Mechanical properties :
#
#
# Convention : Reuss Voigt Hill
#
# Bulk Modulus (GPa) = 52.86540 61.09016 56.97778
# Shear Modulus (GPa) = 24.63545 27.05108 25.84327
#
# Velocity S-wave (km/s) = 3.71366 3.89148 3.80361
# Velocity P-wave (km/s) = 6.92700 7.37500 7.15451
#
# Compressibility (1/GPa) = 0.01891596
#
# Stress axis : x y z
#
# Youngs Moduli (GPa) = 48.54919 109.03645 61.29537
#
# Poissons Ratio (x) = 0.41978 0.36021
# Poissons Ratio (y) = 0.18691 0.23643
# Poissons Ratio (z) = 0.28530 0.42058
#
# Static dielectric constant tensor:
#      x y z
#    x 3.321260 0.000000 0.000000 
#    y 0.000000 3.410840 0.000000 
#    z 0.000000 0.000000 3.340330 
# 
# 
# High freq. dielectric constant tensor:
#      x y z
#    x 1.701570 0.000000 0.000000 
#    y 0.000000 1.687000 0.000000 
#    z 0.000000 0.000000 1.681560 
# 
# From -- ./inp_files/27641.got.cif
#   From: 2010.03.12/outbox.cif.g09.slc.cpg/sg51_14_cif.got.tgz:27641.got - 2010.04.16 13:43:02.
