data_PCOD8209068
_publ_section_title
;
Structure prediction by ZEFSAII (Michael W. Deem and Ramdas Pophale) SiO2 
 PCOD8209068
Probable space group: P M M A
;
_chemical_formula_sum "Si O2"
_cell_formula_units_Z 56
_cell_length_a 18.366479
_cell_length_b 9.608253
_cell_length_c 15.983567
_cell_angle_alpha 90.000000
_cell_angle_beta 90.000000
_cell_angle_gamma 90.000000
_cell_volume 2820.616503
_symmetry_space_group_name_H-M "P M M A"
_symmetry_group_IT_number 51
_symmetry_cell_setting 'orthorhombic'
loop_
_space_group_symop_operation_xyz
x,y,z
1/2-x,-y,z
1/2+x,-y,-z
-x,y,-z
-x,-y,-z
1/2+x,y,-z
1/2-x,y,z
x,-y,z
loop_
_atom_site_type_symbol
_atom_site_label
_atom_site_fract_x
_atom_site_fract_y
_atom_site_fract_z
Si Si1 0.167642 0.336113 0.083559
Si Si2 0.166152 0.153704 0.768731
Si Si3 0.893856 0.339474 0.094875
Si Si4 0.167813 0.347660 0.627167
Si Si5 0.037674 0.338272 0.194737
Si Si6 0.109593 0.157312 0.508545
Si Si7 0.516033 0.842390 0.642139
O O1 0.250000 0.270339 0.086888
O O2 0.176006 0.500000 0.088540
O O3 0.116322 0.284957 0.160263
O O4 0.122556 0.297097 0.000301
O O5 0.250000 0.132568 0.747750
O O6 0.158167 0.236799 0.854255
O O7 0.128298 0.245387 0.694986
O O8 0.128994 0.000000 0.772458
O O9 0.871675 0.500000 0.112023
O O10 0.977724 0.314280 0.121425
O O11 0.250000 0.370846 0.656507
O O12 0.129124 0.500000 0.624916
O O13 0.168803 0.272592 0.536164
O O14 0.041554 0.500000 0.218469
O O15 0.015493 0.256412 0.277748
O O16 0.090768 0.177175 0.410991
O O17 0.043925 0.192149 0.572429
O O18 0.137704 0.000000 0.524056
O O19 0.509247 0.000000 0.674774
#
# Coordination Sequence:
#
# PCOD8209068 Si02
#       7
#     8   8   8   8   8   8   8
#     4   9  18  34  55  76 102 139 177 212 255 306
#     4  10  20  32  47  71 105 142 176 211 257 315
#     4  10  19  32  53  79 104 131 169 217 263 306
#     4  10  20  32  47  71 103 136 171 211 254 302
#     4  10  20  33  52  80 107 132 169 216 260 306
#     4   9  18  34  54  74  99 133 172 211 253 306
#     4   9  19  35  54  76 102 133 168 208 257 309
#
# _framework density 19.853815000000001
#
# number of rings (size 3 to 8) (size 9 to 14) (size 15 to 20)
#    0.000    2.429    0.000    3.429    0.000    8.000 
#    0.000    2.857    0.000    5.571    0.000    0.000 
#    0.000    0.000    0.000    0.000    0.000    0.000 
#
# Total GULP energy -693801.585239 kJ/mol
# GULP energy per Si atom -12389.314022 kJ/mol
# Density = 1.980863 g / cm^3
# Si number density = 19.853815 Si / 1000 Ang^3
#
#
#
# Elastic Constant Matrix: (Units=GPa)
#
#
# Indices 1 2 3 4 5 6 
#
# 1 69.7223 24.4456 37.5291 0.0000 0.0000 0.0000
# 2 24.4456 104.0924 37.3449 0.0000 0.0000 0.0000
# 3 37.5291 37.3449 86.7968 0.0000 0.0000 0.0000
# 4 0.0000 0.0000 0.0000 19.4610 0.0000 0.0000
# 5 0.0000 0.0000 0.0000 0.0000 31.6531 0.0000
# 6 0.0000 0.0000 0.0000 0.0000 0.0000 17.4665
#
#
#
# Elastic Compliance Matrix: (Units=1/GPa)
#
#
# Indices 1 2 3 4 5 6 
#
# 1 0.018971 -0.001788 -0.007433 0.000000 0.000000 0.000000
# 2 -0.001788 0.011529 -0.004187 0.000000 0.000000 0.000000
# 3 -0.007433 -0.004187 0.016537 0.000000 0.000000 0.000000
# 4 0.000000 0.000000 0.000000 0.051385 0.000000 0.000000
# 5 0.000000 0.000000 0.000000 0.000000 0.031592 0.000000
# 6 0.000000 0.000000 0.000000 0.000000 0.000000 0.057252
#
#
# Mechanical properties :
#
#
# Convention : Reuss Voigt Hill
#
# Bulk Modulus (GPa) = 49.45834 51.02786 50.24310
# Shear Modulus (GPa) = 22.64257 24.46891 23.55574
#
# Velocity S-wave (km/s) = 3.38074 3.51444 3.44824
# Velocity P-wave (km/s) = 6.34070 6.49815 6.41991
#
# Compressibility (1/GPa) = 0.02021904
#
# Stress axis : x y z
#
# Youngs Moduli (GPa) = 52.71313 86.73721 60.47194
#
# Poissons Ratio (x) = 0.15512 0.44949
# Poissons Ratio (y) = 0.09427 0.25321
# Poissons Ratio (z) = 0.39182 0.36318
#
# Static dielectric constant tensor:
#      x y z
#    x 3.849830 0.000000 0.000000 
#    y 0.000000 3.691870 0.000000 
#    z 0.000000 0.000000 3.774550 
# 
# 
# High freq. dielectric constant tensor:
#      x y z
#    x 1.761300 0.000000 0.000000 
#    y 0.000000 1.760600 0.000000 
#    z 0.000000 0.000000 1.763360 
# 
# From -- ./inp_files/25644.got.cif
#   From: 2010.03.12/outbox.cif.g09.slc.cpg/sg51_13_cif.got.tgz:25644.got - 2010.04.16 13:43:02.
