data_PCOD8209035
_publ_section_title
;
Structure prediction by ZEFSAII (Michael W. Deem and Ramdas Pophale) SiO2 
 PCOD8209035
Probable space group: P M M A
;
_chemical_formula_sum "Si O2"
_cell_formula_units_Z 48
_cell_length_a 17.878628
_cell_length_b 9.144492
_cell_length_c 16.426694
_cell_angle_alpha 90.000000
_cell_angle_beta 90.000000
_cell_angle_gamma 90.000000
_cell_volume 2685.616148
_symmetry_space_group_name_H-M "P M M A"
_symmetry_group_IT_number 51
_symmetry_cell_setting 'orthorhombic'
loop_
_space_group_symop_operation_xyz
x,y,z
1/2-x,-y,z
1/2+x,-y,-z
-x,y,-z
-x,-y,-z
1/2+x,y,-z
1/2-x,y,z
x,-y,z
loop_
_atom_site_type_symbol
_atom_site_label
_atom_site_fract_x
_atom_site_fract_y
_atom_site_fract_z
Si Si1 0.954548 0.167129 0.265443
Si Si2 0.836742 0.831951 0.134779
Si Si3 0.105021 0.170510 0.174402
Si Si4 0.519370 0.671921 0.588703
Si Si5 0.085857 0.327392 0.010710
Si Si6 0.833082 0.668135 0.677910
O O1 0.877137 0.203671 0.220303
O O2 0.961166 0.264085 0.346112
O O3 0.020415 0.203324 0.201878
O O4 0.959281 0.000000 0.293818
O O5 0.750000 0.802026 0.149140
O O6 0.852893 0.000000 0.109247
O O7 0.866618 0.724665 0.065962
O O8 0.120496 0.251046 0.089822
O O9 0.161293 0.233715 0.241640
O O10 0.121278 0.000000 0.162806
O O11 0.500000 0.737166 0.500000
O O12 0.507684 0.500000 0.588847
O O13 0.604763 0.716161 0.611569
O O14 0.093933 0.500000 0.020225
O O15 0.000000 0.279311 0.000000
O O16 0.750000 0.689903 0.640324
O O17 0.846768 0.500000 0.703115
#
# Coordination Sequence:
#
# PCOD8209035 Si02
#       6
#     8   8   8   8   8   8
#     4   9  18  33  53  76 100 130 168 209 253 305
#     4  10  21  37  55  75 103 139 177 218 262 306
#     4  10  19  32  53  76 100 133 173 214 256 305
#     4   9  18  33  54  79 104 133 171 210 251 309
#     4  11  22  34  52  77 105 139 178 219 260 305
#     4   9  18  33  52  74 104 138 170 211 262 310
#
# _framework density 17.872993000000001
#
# number of rings (size 3 to 8) (size 9 to 14) (size 15 to 20)
#    0.000    2.333    1.667    1.000    0.000    3.667 
#    0.000    0.833    0.000    1.000    0.000    0.000 
#    0.000    0.000    0.000    0.000    0.000    0.000 
#
# Total GULP energy -595293.180320 kJ/mol
# GULP energy per Si atom -12401.941257 kJ/mol
# Density = 1.783231 g / cm^3
# Si number density = 17.872993 Si / 1000 Ang^3
#
#
#
# Elastic Constant Matrix: (Units=GPa)
#
#
# Indices 1 2 3 4 5 6 
#
# 1 107.7905 33.6087 55.6812 0.0000 0.0000 0.0000
# 2 33.6087 59.3712 48.8190 0.0000 0.0000 0.0000
# 3 55.6812 48.8190 131.7647 0.0000 0.0000 0.0000
# 4 0.0000 0.0000 0.0000 27.4631 0.0000 0.0000
# 5 0.0000 0.0000 0.0000 0.0000 21.1950 0.0000
# 6 0.0000 0.0000 0.0000 0.0000 0.0000 19.5713
#
#
#
# Elastic Compliance Matrix: (Units=1/GPa)
#
#
# Indices 1 2 3 4 5 6 
#
# 1 0.012472 -0.003921 -0.003818 0.000000 0.000000 0.000000
# 2 -0.003921 0.025455 -0.007774 0.000000 0.000000 0.000000
# 3 -0.003818 -0.007774 0.012083 0.000000 0.000000 0.000000
# 4 0.000000 0.000000 0.000000 0.036413 0.000000 0.000000
# 5 0.000000 0.000000 0.000000 0.000000 0.047181 0.000000
# 6 0.000000 0.000000 0.000000 0.000000 0.000000 0.051095
#
#
# Mechanical properties :
#
#
# Convention : Reuss Voigt Hill
#
# Bulk Modulus (GPa) = 52.67506 63.90493 58.29000
# Shear Modulus (GPa) = 22.51716 24.36703 23.44210
#
# Velocity S-wave (km/s) = 3.55328 3.69635 3.62552
# Velocity P-wave (km/s) = 6.80957 7.35187 7.08591
#
# Compressibility (1/GPa) = 0.01898432
#
# Stress axis : x y z
#
# Youngs Moduli (GPa) = 80.18051 39.28454 82.76120
#
# Poissons Ratio (x) = 0.15403 0.31595
# Poissons Ratio (y) = 0.31438 0.64341
# Poissons Ratio (z) = 0.30610 0.30541
#
# Static dielectric constant tensor:
#      x y z
#    x 3.330850 0.000000 0.000000 
#    y 0.000000 3.290220 0.000000 
#    z 0.000000 0.000000 3.242620 
# 
# 
# High freq. dielectric constant tensor:
#      x y z
#    x 1.685490 0.000000 0.000000 
#    y 0.000000 1.692320 0.000000 
#    z 0.000000 0.000000 1.680580 
# 
# From -- ./inp_files/24728.got.cif
#   From: 2010.03.12/outbox.cif.g09.slc.cpg/sg51_13_cif.got.tgz:24728.got - 2010.04.16 13:43:02.
