data_PCOD8209908
_publ_section_title
;
Structure prediction by ZEFSAII (Michael W. Deem and Ramdas Pophale) SiO2 
 PCOD8209908
Probable space group: P M M A
;
_chemical_formula_sum "Si O2"
_cell_formula_units_Z 64
_cell_length_a 9.034042
_cell_length_b 19.443439
_cell_length_c 20.882397
_cell_angle_alpha 90.000000
_cell_angle_beta 90.000000
_cell_angle_gamma 90.000000
_cell_volume 3668.052434
_symmetry_space_group_name_H-M "P M M A"
_symmetry_group_IT_number 51
_symmetry_cell_setting 'orthorhombic'
loop_
_space_group_symop_operation_xyz
x,y,z
1/2-x,-y,z
1/2+x,-y,-z
-x,y,-z
-x,-y,-z
1/2+x,y,-z
1/2-x,y,z
x,-y,z
loop_
_atom_site_type_symbol
_atom_site_label
_atom_site_fract_x
_atom_site_fract_y
_atom_site_fract_z
Si Si1 0.922370 0.711074 0.565093
Si Si2 0.423237 0.785463 0.310370
Si Si3 0.578040 0.078195 0.119056
Si Si4 0.580377 0.076338 0.748672
Si Si5 0.576345 0.577978 0.232570
Si Si6 0.575002 0.705509 0.814329
Si Si7 0.419673 0.423230 0.364425
Si Si8 0.925092 0.794803 0.936200
O O1 0.750000 0.725804 0.556375
O O2 0.990794 0.756080 0.623631
O O3 0.954771 0.630622 0.579260
O O4 0.000000 0.733747 0.500000
O O5 0.250000 0.770705 0.312384
O O6 0.459020 0.866922 0.305084
O O7 0.486396 0.746157 0.247969
O O8 0.750000 0.097745 0.114872
O O9 0.526407 0.087705 0.191838
O O10 0.484466 0.127845 0.073557
O O11 0.549390 0.000000 0.096463
O O12 0.750000 0.087242 0.772296
O O13 0.559225 0.000000 0.719002
O O14 0.750000 0.590046 0.230528
O O15 0.534445 0.500000 0.212755
O O16 0.498563 0.630062 0.183168
O O17 0.521174 0.593872 0.304050
O O18 0.750000 0.696867 0.812403
O O19 0.525627 0.747137 0.877098
O O20 0.250000 0.415026 0.341474
O O21 0.450899 0.500000 0.390878
O O22 0.750000 0.797200 0.944569
O O23 0.000000 0.763913 0.000000
#
# Coordination Sequence:
#
# PCOD8209908 Si02
#       8
#     8   8   8   8   8   8   8   8
#     4  10  20  33  48  68  99 134 169 212 255 302
#     4   9  16  31  52  75 100 129 169 214 255 301
#     4  10  20  33  50  76 110 144 176 210 253 306
#     4   9  16  29  52  78 102 131 170 216 261 304
#     4  10  20  32  50  80 111 134 164 212 260 300
#     4  10  19  35  57  78 101 135 175 212 254 308
#     4   9  17  31  50  70  96 135 174 204 246 305
#     4  11  23  38  56  78 106 139 176 217 260 308
#
# _framework density 17.447951
#
# number of rings (size 3 to 8) (size 9 to 14) (size 15 to 20)
#    0.000    2.250    2.500    1.125    0.000    3.500 
#    0.000    0.625    0.000    0.750    0.000    0.000 
#    0.000    0.000    0.000    0.000    0.000    0.000 
#
# Total GULP energy -793518.130150 kJ/mol
# GULP energy per Si atom -12398.720784 kJ/mol
# Density = 1.740824 g / cm^3
# Si number density = 17.447951 Si / 1000 Ang^3
#
#
#
# Elastic Constant Matrix: (Units=GPa)
#
#
# Indices 1 2 3 4 5 6 
#
# 1 50.5851 35.7110 38.8597 0.0000 0.0000 0.0000
# 2 35.7110 108.6589 64.9865 0.0000 0.0000 0.0000
# 3 38.8597 64.9865 123.8897 0.0000 0.0000 0.0000
# 4 0.0000 0.0000 0.0000 23.7454 0.0000 0.0000
# 5 0.0000 0.0000 0.0000 0.0000 26.8619 0.0000
# 6 0.0000 0.0000 0.0000 0.0000 0.0000 22.5344
#
#
#
# Elastic Compliance Matrix: (Units=1/GPa)
#
#
# Indices 1 2 3 4 5 6 
#
# 1 0.028372 -0.005832 -0.005840 0.000000 0.000000 0.000000
# 2 -0.005832 0.014609 -0.005834 0.000000 0.000000 0.000000
# 3 -0.005840 -0.005834 0.012964 0.000000 0.000000 0.000000
# 4 0.000000 0.000000 0.000000 0.042113 0.000000 0.000000
# 5 0.000000 0.000000 0.000000 0.000000 0.037228 0.000000
# 6 0.000000 0.000000 0.000000 0.000000 0.000000 0.044377
#
#
# Mechanical properties :
#
#
# Convention : Reuss Voigt Hill
#
# Bulk Modulus (GPa) = 47.77139 62.47201 55.12170
# Shear Modulus (GPa) = 22.55793 24.20009 23.37901
#
# Velocity S-wave (km/s) = 3.59955 3.72827 3.66447
# Velocity P-wave (km/s) = 6.68689 7.37671 7.04025
#
# Compressibility (1/GPa) = 0.02093303
#
# Stress axis : x y z
#
# Youngs Moduli (GPa) = 35.24595 68.45193 77.13804
#
# Poissons Ratio (x) = 0.39918 0.45051
# Poissons Ratio (y) = 0.20554 0.45002
# Poissons Ratio (z) = 0.20585 0.39934
#
# Static dielectric constant tensor:
#      x y z
#    x 3.130640 0.000000 0.000000 
#    y 0.000000 3.484910 0.000000 
#    z 0.000000 0.000000 3.088110 
# 
# 
# High freq. dielectric constant tensor:
#      x y z
#    x 1.662890 0.000000 0.000000 
#    y 0.000000 1.680740 0.000000 
#    z 0.000000 0.000000 1.645820 
# 
# From -- ./inp_files/28458.got.cif
#   From: 2010.03.12/outbox.cif.g09.slc.cpg/sg51_15_cif.got.tgz:28458.got - 2010.04.16 13:43:02.
