data_PCOD8209892
_publ_section_title
;
Structure prediction by ZEFSAII (Michael W. Deem and Ramdas Pophale) SiO2 
 PCOD8209892
Probable space group: P M M A
;
_chemical_formula_sum "Si O2"
_cell_formula_units_Z 64
_cell_length_a 32.646167
_cell_length_b 9.047016
_cell_length_c 10.419497
_cell_angle_alpha 90.000000
_cell_angle_beta 90.000000
_cell_angle_gamma 90.000000
_cell_volume 3077.402557
_symmetry_space_group_name_H-M "P M M A"
_symmetry_group_IT_number 51
_symmetry_cell_setting 'orthorhombic'
loop_
_space_group_symop_operation_xyz
x,y,z
1/2-x,-y,z
1/2+x,-y,-z
-x,y,-z
-x,-y,-z
1/2+x,y,-z
1/2-x,y,z
x,-y,z
loop_
_atom_site_type_symbol
_atom_site_label
_atom_site_fract_x
_atom_site_fract_y
_atom_site_fract_z
Si Si1 0.640503 0.171521 0.807788
Si Si2 0.494380 0.166075 0.273164
Si Si3 0.070377 0.328274 0.796995
Si Si4 0.546069 0.324963 0.533375
Si Si5 0.204454 0.824599 0.984548
Si Si6 0.627553 0.828357 0.523576
Si Si7 0.557923 0.163821 0.956798
Si Si8 0.846775 0.830029 0.254513
O O1 0.643592 0.236099 0.660600
O O2 0.595933 0.201770 0.864157
O O3 0.650456 0.000000 0.797169
O O4 0.674628 0.242236 0.904457
O O5 0.537524 0.253456 0.301668
O O6 0.454420 0.257744 0.322760
O O7 0.484926 0.159222 0.121150
O O8 0.497598 0.000000 0.329296
O O9 0.068837 0.500000 0.765965
O O10 0.115512 0.268591 0.787112
O O11 0.054547 0.291983 0.938728
O O12 0.500000 0.260369 0.500000
O O13 0.547599 0.500000 0.524548
O O14 0.587278 0.258853 0.469746
O O15 0.250000 0.758909 0.004286
O O16 0.190249 0.781198 0.838983
O O17 0.205149 0.000000 0.995702
O O18 0.661354 0.807863 0.408496
O O19 0.615542 0.000000 0.539934
O O20 0.565314 0.000000 0.018939
O O21 0.858240 0.000000 0.227408
#
# Coordination Sequence:
#
# PCOD8209892 Si02
#       8
#     8   8   8   8   8   8   8   8
#     4   9  16  32  56  82 112 144 186 231 278 337
#     4  11  22  36  54  75 104 148 198 242 287 336
#     4  12  24  35  51  79 115 149 191 240 289 337
#     4  11  23  36  50  73 109 150 194 245 294 336
#     4   9  17  32  59  91 118 145 178 225 287 348
#     4  10  20  35  56  81 108 150 198 238 277 333
#     4  10  19  35  56  76 104 145 191 238 285 337
#     4  10  20  36  58  83 113 149 192 233 279 340
#
# _framework density 20.796759000000002
#
# number of rings (size 3 to 8) (size 9 to 14) (size 15 to 20)
#    0.000    1.750    2.500    3.000    0.000    6.000 
#    0.000    0.625    0.000    4.125    0.000    0.000 
#    0.000    1.000    0.000    0.000    0.000    0.000 
#
# Total GULP energy -792865.918086 kJ/mol
# GULP energy per Si atom -12388.529970 kJ/mol
# Density = 2.074943 g / cm^3
# Si number density = 20.796759 Si / 1000 Ang^3
#
#
#
# Elastic Constant Matrix: (Units=GPa)
#
#
# Indices 1 2 3 4 5 6 
#
# 1 97.6805 24.3659 45.0862 0.0000 0.0000 0.0000
# 2 24.3659 61.4658 6.8023 0.0000 0.0000 0.0000
# 3 45.0862 6.8023 95.9018 0.0000 0.0000 0.0000
# 4 0.0000 0.0000 0.0000 13.2092 0.0000 0.0000
# 5 0.0000 0.0000 0.0000 0.0000 30.3110 0.0000
# 6 0.0000 0.0000 0.0000 0.0000 0.0000 10.5530
#
#
#
# Elastic Compliance Matrix: (Units=1/GPa)
#
#
# Indices 1 2 3 4 5 6 
#
# 1 0.014464 -0.005021 -0.006444 0.000000 0.000000 0.000000
# 2 -0.005021 0.018141 0.001074 0.000000 0.000000 0.000000
# 3 -0.006444 0.001074 0.013381 0.000000 0.000000 0.000000
# 4 0.000000 0.000000 0.000000 0.075705 0.000000 0.000000
# 5 0.000000 0.000000 0.000000 0.000000 0.032991 0.000000
# 6 0.000000 0.000000 0.000000 0.000000 0.000000 0.094760
#
#
# Mechanical properties :
#
#
# Convention : Reuss Voigt Hill
#
# Bulk Modulus (GPa) = 39.67687 45.28412 42.48049
# Shear Modulus (GPa) = 17.94529 22.73420 20.33975
#
# Velocity S-wave (km/s) = 2.94068 3.30989 3.13073
# Velocity P-wave (km/s) = 5.53624 6.03564 5.79133
#
# Compressibility (1/GPa) = 0.02520360
#
# Stress axis : x y z
#
# Youngs Moduli (GPa) = 69.13653 55.12483 74.73477
#
# Poissons Ratio (x) = 0.27676 0.48158
# Poissons Ratio (y) = 0.34711 -0.08024
# Poissons Ratio (z) = 0.44551 -0.05918
#
# Static dielectric constant tensor:
#      x y z
#    x 3.674530 0.000000 0.000000 
#    y 0.000000 3.320400 0.000000 
#    z 0.000000 0.000000 4.456400 
# 
# 
# High freq. dielectric constant tensor:
#      x y z
#    x 1.783220 0.000000 0.000000 
#    y 0.000000 1.767020 0.000000 
#    z 0.000000 0.000000 1.847850 
# 
# From -- ./inp_files/19431.got.cif
#   From: 2010.03.12/outbox.cif.g09.slc.cpg/sg51_10_cif.got.tgz:19431.got - 2010.04.16 13:43:02.
