data_PCOD8209865
_publ_section_title
;
Structure prediction by ZEFSAII (Michael W. Deem and Ramdas Pophale) SiO2 
 PCOD8209865
Probable space group: P M M A
;
_chemical_formula_sum "Si O2"
_cell_formula_units_Z 48
_cell_length_a 34.562426
_cell_length_b 7.434967
_cell_length_c 9.747026
_cell_angle_alpha 90.000000
_cell_angle_beta 90.000000
_cell_angle_gamma 90.000000
_cell_volume 2504.698113
_symmetry_space_group_name_H-M "P M M A"
_symmetry_group_IT_number 51
_symmetry_cell_setting 'orthorhombic'
loop_
_space_group_symop_operation_xyz
x,y,z
1/2-x,-y,z
1/2+x,-y,-z
-x,y,-z
-x,-y,-z
1/2+x,y,-z
1/2-x,y,z
x,-y,z
loop_
_atom_site_type_symbol
_atom_site_label
_atom_site_fract_x
_atom_site_fract_y
_atom_site_fract_z
Si Si1 0.151695 0.205165 0.605572
Si Si2 0.582236 0.205890 0.190098
Si Si3 0.055209 0.500000 0.384899
Si Si4 0.793243 0.784562 0.166271
Si Si5 0.382113 0.214647 0.329430
Si Si6 0.530539 0.500000 0.301729
Si Si7 0.858370 0.212078 0.968897
O O1 0.111196 0.228596 0.682638
O O2 0.186536 0.293045 0.694355
O O3 0.146225 0.283501 0.452087
O O4 0.163095 0.000000 0.588981
O O5 0.544525 0.323972 0.219365
O O6 0.568726 0.000000 0.173479
O O7 0.604101 0.278960 0.053786
O O8 0.077505 0.681413 0.341846
O O9 0.047643 0.500000 0.546119
O O10 0.015554 0.500000 0.300318
O O11 0.750000 0.705618 0.154828
O O12 0.792716 0.000000 0.168809
O O13 0.818547 0.714388 0.036516
O O14 0.361170 0.272715 0.188508
O O15 0.390287 0.000000 0.336667
O O16 0.857813 0.000000 0.984294
#
# Coordination Sequence:
#
# PCOD8209865 Si02
#       7
#     8   8   4   8   8   4   8
#     4   8  14  26  47  70  97 136 172 203 246 294
#     4   9  17  33  53  74 100 135 175 213 250 300
#     4  11  24  35  51  81 104 128 171 218 269 311
#     4   8  13  24  45  77 110 134 168 217 252 288
#     4  10  19  35  53  74 105 138 173 212 252 307
#     4  11  22  35  53  79 102 128 173 218 265 319
#     4   8  16  30  51  75 103 141 177 207 252 310
#
# _framework density 19.163986999999999
#
# number of rings (size 3 to 8) (size 9 to 14) (size 15 to 20)
#    0.000    3.000    1.667    2.000    0.000    1.333 
#    0.000    4.167    0.000    8.000    0.000   22.167 
#    0.000    0.000    0.000    0.000    0.000    0.000 
#
# Total GULP energy -594756.265758 kJ/mol
# GULP energy per Si atom -12390.755537 kJ/mol
# Density = 1.912037 g / cm^3
# Si number density = 19.163987 Si / 1000 Ang^3
#
#
#
# Elastic Constant Matrix: (Units=GPa)
#
#
# Indices 1 2 3 4 5 6 
#
# 1 136.5963 33.8413 69.2764 0.0000 0.0000 0.0000
# 2 33.8413 60.6555 20.2604 0.0000 0.0000 0.0000
# 3 69.2764 20.2604 159.1094 0.0000 0.0000 0.0000
# 4 0.0000 0.0000 0.0000 8.4707 0.0000 0.0000
# 5 0.0000 0.0000 0.0000 0.0000 21.8952 0.0000
# 6 0.0000 0.0000 0.0000 0.0000 0.0000 -9.0879
#
#
#
# Elastic Compliance Matrix: (Units=1/GPa)
#
#
# Indices 1 2 3 4 5 6 
#
# 1 0.010454 -0.004504 -0.003978 0.000000 0.000000 0.000000
# 2 -0.004504 0.019159 -0.000479 0.000000 0.000000 0.000000
# 3 -0.003978 -0.000479 0.008078 0.000000 0.000000 0.000000
# 4 0.000000 0.000000 0.000000 0.118054 0.000000 0.000000
# 5 0.000000 0.000000 0.000000 0.000000 0.045672 0.000000
# 6 0.000000 0.000000 0.000000 0.000000 0.000000 -0.110036
#
#
# Mechanical properties :
#
#
# Convention : Reuss Voigt Hill
#
# Bulk Modulus (GPa) = 50.58183 67.01305 58.79744
# Shear Modulus (GPa) = 43.14324 19.78781 31.46552
#
# Velocity S-wave (km/s) = 4.74990 3.21682 4.05644
# Velocity P-wave (km/s) = 7.51888 6.98866 7.25861
#
# Compressibility (1/GPa) = 0.01976994
#
# Stress axis : x y z
#
# Youngs Moduli (GPa) = 95.65428 52.19407 123.79146
#
# Poissons Ratio (x) = 0.23508 0.49248
# Poissons Ratio (y) = 0.43082 0.05926
# Poissons Ratio (z) = 0.38054 0.02498
#
# Static dielectric constant tensor:
#      x y z
#    x 3.478830 0.000000 0.000000 
#    y 0.000000 3.242970 0.000000 
#    z 0.000000 0.000000 3.859460 
# 
# 
# High freq. dielectric constant tensor:
#      x y z
#    x 1.718430 0.000000 0.000000 
#    y 0.000000 1.731610 0.000000 
#    z 0.000000 0.000000 1.747800 
# 
# From -- ./inp_files/12882.got.cif
#   From: 2010.03.12/outbox.cif.g09.slc.cpg/sg51_7_cif.got.tgz:12882.got - 2010.04.16 13:43:02.
