data_PCOD8209276
_publ_section_title
;
Structure prediction by ZEFSAII (Michael W. Deem and Ramdas Pophale) SiO2 
 PCOD8209276
Probable space group: P M M A
;
_chemical_formula_sum "Si O2"
_cell_formula_units_Z 40
_cell_length_a 8.665678
_cell_length_b 26.211339
_cell_length_c 9.482338
_cell_angle_alpha 90.000000
_cell_angle_beta 90.000000
_cell_angle_gamma 90.000000
_cell_volume 2153.808996
_symmetry_space_group_name_H-M "P M M A"
_symmetry_group_IT_number 51
_symmetry_cell_setting 'orthorhombic'
loop_
_space_group_symop_operation_xyz
x,y,z
1/2-x,-y,z
1/2+x,-y,-z
-x,y,-z
-x,-y,-z
1/2+x,y,-z
1/2-x,y,z
x,-y,z
loop_
_atom_site_type_symbol
_atom_site_label
_atom_site_fract_x
_atom_site_fract_y
_atom_site_fract_z
Si Si1 0.068428 0.890150 0.654611
Si Si2 0.930224 0.000000 0.347731
Si Si3 0.432835 0.410042 0.842076
Si Si4 0.066351 0.500000 0.343110
Si Si5 0.570626 0.692152 0.847600
Si Si6 0.071405 0.195942 0.153494
O O1 0.250000 0.884376 0.642903
O O2 0.021788 0.945829 0.724411
O O3 0.000000 0.884457 0.500000
O O4 0.006351 0.845468 0.749716
O O5 0.000000 0.000000 0.500000
O O6 0.750000 0.000000 0.368714
O O7 0.250000 0.417272 0.846322
O O8 0.507584 0.450810 0.739394
O O9 0.478364 0.354659 0.775323
O O10 0.500000 0.415932 0.000000
O O11 0.250000 0.500000 0.349439
O O12 0.000000 0.500000 0.500000
O O13 0.750000 0.677008 0.857366
O O14 0.547751 0.747667 0.774958
O O15 0.500000 0.699074 0.000000
O O16 0.250000 0.183209 0.138857
O O17 0.000000 0.192809 0.000000
#
# Coordination Sequence:
#
# PCOD8209276 Si02
#       6
#     8   4   8   4   8   8
#     4  10  19  33  53  76 103 134 173 217 263 313
#     4   8  16  30  49  72  97 130 170 214 260 310
#     4  11  21  36  59  86 111 140 180 222 260 304
#     4  12  25  42  59  80 112 146 178 216 267 320
#     4   9  17  31  52  78 106 137 174 217 261 308
#     4  10  20  34  53  78 108 140 175 214 262 314
#
# _framework density 18.571749000000001
#
# number of rings (size 3 to 8) (size 9 to 14) (size 15 to 20)
#    0.000    2.000    0.000    6.000    0.000    3.200 
#    0.000    1.500    0.000    4.800    0.000    0.000 
#    0.000    0.000    0.000    0.000    0.000    0.000 
#
# Total GULP energy -495534.284716 kJ/mol
# GULP energy per Si atom -12388.357118 kJ/mol
# Density = 1.852948 g / cm^3
# Si number density = 18.571749 Si / 1000 Ang^3
#
#
#
# Elastic Constant Matrix: (Units=GPa)
#
#
# Indices 1 2 3 4 5 6 
#
# 1 130.0898 72.7216 44.2485 0.0000 0.0000 0.0000
# 2 72.7216 191.7260 71.0394 0.0000 0.0000 0.0000
# 3 44.2485 71.0394 74.5246 0.0000 0.0000 0.0000
# 4 0.0000 0.0000 0.0000 46.5515 0.0000 0.0000
# 5 0.0000 0.0000 0.0000 0.0000 29.7447 0.0000
# 6 0.0000 0.0000 0.0000 0.0000 0.0000 32.3726
#
#
#
# Elastic Compliance Matrix: (Units=1/GPa)
#
#
# Indices 1 2 3 4 5 6 
#
# 1 0.010385 -0.002558 -0.003728 0.000000 0.000000 0.000000
# 2 -0.002558 0.008694 -0.006769 0.000000 0.000000 0.000000
# 3 -0.003728 -0.006769 0.022084 0.000000 0.000000 0.000000
# 4 0.000000 0.000000 0.000000 0.021482 0.000000 0.000000
# 5 0.000000 0.000000 0.000000 0.000000 0.033619 0.000000
# 6 0.000000 0.000000 0.000000 0.000000 0.000000 0.030890
#
#
# Mechanical properties :
#
#
# Convention : Reuss Voigt Hill
#
# Bulk Modulus (GPa) = 66.42680 85.81769 76.12225
# Shear Modulus (GPa) = 31.58952 35.62247 33.60600
#
# Velocity S-wave (km/s) = 4.12873 4.38436 4.25846
# Velocity P-wave (km/s) = 7.65335 8.48170 8.07815
#
# Compressibility (1/GPa) = 0.01505417
#
# Stress axis : x y z
#
# Youngs Moduli (GPa) = 96.29522 115.02346 45.28184
#
# Poissons Ratio (x) = 0.29419 0.16880
# Poissons Ratio (y) = 0.24629 0.30650
# Poissons Ratio (z) = 0.35897 0.77856
#
# Static dielectric constant tensor:
#      x y z
#    x 3.650820 0.000000 0.000000 
#    y 0.000000 4.511160 0.000000 
#    z 0.000000 0.000000 3.009190 
# 
# 
# High freq. dielectric constant tensor:
#      x y z
#    x 1.741950 0.000000 0.000000 
#    y 0.000000 1.755250 0.000000 
#    z 0.000000 0.000000 1.669340 
# 
# From -- ./inp_files/5509.got.cif
#   From: 2010.03.12/outbox.cif.g09.slc.cpg/sg51_3_cif.got.tgz:5509.got - 2010.04.16 13:43:02.
