data_PCOD8209327
_publ_section_title
;
Structure prediction by ZEFSAII (Michael W. Deem and Ramdas Pophale) SiO2 
 PCOD8209327
Probable space group: P M M A
;
_chemical_formula_sum "Si O2"
_cell_formula_units_Z 64
_cell_length_a 18.668223
_cell_length_b 9.193045
_cell_length_c 19.667683
_cell_angle_alpha 90.000000
_cell_angle_beta 90.000000
_cell_angle_gamma 90.000000
_cell_volume 3375.324765
_symmetry_space_group_name_H-M "P M M A"
_symmetry_group_IT_number 51
_symmetry_cell_setting 'orthorhombic'
loop_
_space_group_symop_operation_xyz
x,y,z
1/2-x,-y,z
1/2+x,-y,-z
-x,y,-z
-x,-y,-z
1/2+x,y,-z
1/2-x,y,z
x,-y,z
loop_
_atom_site_type_symbol
_atom_site_label
_atom_site_fract_x
_atom_site_fract_y
_atom_site_fract_z
Si Si1 0.559635 0.671576 0.710679
Si Si2 0.666436 0.163907 0.620011
Si Si3 0.429975 0.330433 0.134649
Si Si4 0.831405 0.171143 0.465954
Si Si5 0.910067 0.327514 0.348742
Si Si6 0.329506 0.672732 0.783035
Si Si7 0.666689 0.827977 0.965246
Si Si8 0.413950 0.669790 0.914244
O O1 0.563824 0.500000 0.709550
O O2 0.629096 0.733092 0.674106
O O3 0.556266 0.724557 0.788676
O O4 0.489738 0.724819 0.670013
O O5 0.750000 0.172313 0.635119
O O6 0.650418 0.215918 0.543218
O O7 0.638327 0.000000 0.629903
O O8 0.409344 0.500000 0.133286
O O9 0.364143 0.238693 0.104470
O O10 0.500986 0.303535 0.089352
O O11 0.750000 0.217431 0.448140
O O12 0.887185 0.255166 0.419011
O O13 0.840818 0.000000 0.455822
O O14 0.905416 0.500000 0.356909
O O15 0.858502 0.269645 0.288852
O O16 0.250000 0.735426 0.794558
O O17 0.329694 0.500000 0.781540
O O18 0.379993 0.726196 0.843781
O O19 0.750000 0.784689 0.972630
O O20 0.656651 0.000000 0.963973
O O21 0.621053 0.762713 0.026582
O O22 0.397000 0.500000 0.927113
#
# Coordination Sequence:
#
# PCOD8209327 Si02
#       8
#     8   8   8   8   8   8   8   8
#     4  10  21  37  57  84 116 143 177 230 281 326
#     4   9  20  39  59  78 105 145 191 234 277 329
#     4  10  21  39  61  84 112 146 184 227 276 331
#     4   9  19  36  55  77 109 148 189 232 275 322
#     4  10  19  33  53  81 115 146 180 223 274 331
#     4   9  16  28  51  81 110 142 179 217 261 317
#     4  11  25  41  56  81 116 148 183 230 278 325
#     4  10  19  36  61  86 110 143 185 227 270 327
#
# _framework density 18.961137999999998
#
# number of rings (size 3 to 8) (size 9 to 14) (size 15 to 20)
#    0.000    2.250    1.250    2.250    0.000    7.000 
#    0.000    6.875    0.000    2.250    0.000    0.000 
#    0.000    0.000    0.000    0.000    0.000    0.000 
#
# Total GULP energy -793671.215478 kJ/mol
# GULP energy per Si atom -12401.112742 kJ/mol
# Density = 1.891798 g / cm^3
# Si number density = 18.961138 Si / 1000 Ang^3
#
#
#
# Elastic Constant Matrix: (Units=GPa)
#
#
# Indices 1 2 3 4 5 6 
#
# 1 90.5076 36.4548 61.0450 0.0000 0.0000 0.0000
# 2 36.4548 37.3770 44.5596 0.0000 0.0000 0.0000
# 3 61.0450 44.5596 114.4410 0.0000 0.0000 0.0000
# 4 0.0000 0.0000 0.0000 -35.8532 0.0000 0.0000
# 5 0.0000 0.0000 0.0000 0.0000 37.5594 0.0000
# 6 0.0000 0.0000 0.0000 0.0000 0.0000 29.0442
#
#
#
# Elastic Compliance Matrix: (Units=1/GPa)
#
#
# Indices 1 2 3 4 5 6 
#
# 1 0.020036 -0.012692 -0.005746 0.000000 0.000000 0.000000
# 2 -0.012692 0.057972 -0.015802 0.000000 0.000000 0.000000
# 3 -0.005746 -0.015802 0.017956 0.000000 0.000000 0.000000
# 4 0.000000 0.000000 0.000000 -0.027892 0.000000 0.000000
# 5 0.000000 0.000000 0.000000 0.000000 0.026625 0.000000
# 6 0.000000 0.000000 0.000000 0.000000 0.000000 0.034430
#
#
# Mechanical properties :
#
#
# Convention : Reuss Voigt Hill
#
# Bulk Modulus (GPa) = 36.38456 58.49383 47.43919
# Shear Modulus (GPa) = 24.18145 12.83450 18.50798
#
# Velocity S-wave (km/s) = 3.57503 2.60452 3.12765
# Velocity P-wave (km/s) = 6.02261 6.32147 6.17385
#
# Compressibility (1/GPa) = 0.02748419
#
# Stress axis : x y z
#
# Youngs Moduli (GPa) = 49.90929 17.24961 55.69134
#
# Poissons Ratio (x) = 0.21893 0.32000
# Poissons Ratio (y) = 0.63344 0.88006
# Poissons Ratio (z) = 0.28678 0.27259
#
# Static dielectric constant tensor:
#      x y z
#    x 3.583440 0.000000 0.000000 
#    y 0.000000 3.192890 0.000000 
#    z 0.000000 0.000000 3.563970 
# 
# 
# High freq. dielectric constant tensor:
#      x y z
#    x 1.743340 0.000000 0.000000 
#    y 0.000000 1.710350 0.000000 
#    z 0.000000 0.000000 1.747540 
# 
# From -- ./inp_files/30503.got.cif
#   From: 2010.03.12/outbox.cif.g09.slc.cpg/sg51_16_cif.got.tgz:30503.got - 2010.04.16 13:43:02.
