data_PCOD8209711
_publ_section_title
;
Structure prediction by ZEFSAII (Michael W. Deem and Ramdas Pophale) SiO2 
 PCOD8209711
Probable space group: P M M A
;
_chemical_formula_sum "Si O2"
_cell_formula_units_Z 48
_cell_length_a 8.622627
_cell_length_b 31.424044
_cell_length_c 9.151043
_cell_angle_alpha 90.000000
_cell_angle_beta 90.000000
_cell_angle_gamma 90.000000
_cell_volume 2479.546573
_symmetry_space_group_name_H-M "P M M A"
_symmetry_group_IT_number 51
_symmetry_cell_setting 'orthorhombic'
loop_
_space_group_symop_operation_xyz
x,y,z
1/2-x,-y,z
1/2+x,-y,-z
-x,y,-z
-x,-y,-z
1/2+x,y,-z
1/2-x,y,z
x,-y,z
loop_
_atom_site_type_symbol
_atom_site_label
_atom_site_fract_x
_atom_site_fract_y
_atom_site_fract_z
Si Si1 0.933869 0.418772 0.840105
Si Si2 0.933435 0.500000 0.660524
Si Si3 0.933870 0.154824 0.663308
Si Si4 0.566348 0.338956 0.661321
Si Si5 0.933646 0.078200 0.161087
Si Si6 0.069711 0.752686 0.342804
Si Si7 0.434038 0.000000 0.338748
O O1 0.750000 0.418306 0.848907
O O2 0.994379 0.458338 0.744697
O O3 0.999496 0.375376 0.767693
O O4 0.000000 0.423585 0.000000
O O5 0.750000 0.500000 0.651087
O O6 0.000000 0.500000 0.500000
O O7 0.750000 0.145668 0.659906
O O8 0.971230 0.202034 0.732829
O O9 0.000000 0.149517 0.500000
O O10 0.020259 0.123337 0.771817
O O11 0.500000 0.345437 0.500000
O O12 0.750000 0.343186 0.649766
O O13 0.515552 0.292346 0.729502
O O14 0.750000 0.073077 0.157275
O O15 0.007094 0.041721 0.258641
O O16 0.000000 0.074058 0.000000
O O17 0.250000 0.749780 0.365760
O O18 0.000000 0.755354 0.500000
O O19 0.500000 0.000000 0.500000
O O20 0.250000 0.000000 0.343413
#
# Coordination Sequence:
#
# PCOD8209711 Si02
#       7
#     8   4   8   8   8   8   4
#     4  10  21  35  51  73 104 137 173 213 261 316
#     4  10  21  36  54  78 102 130 169 216 262 314
#     4  10  19  34  56  83 112 146 185 228 273 322
#     4   9  17  31  51  76 103 135 175 221 265 314
#     4  12  25  42  61  85 116 151 187 227 275 328
#     4   8  15  28  49  75 105 137 175 221 268 312
#     4  12  25  44  67  92 118 148 186 228 271 320
#
# _framework density 19.358378999999999
#
# number of rings (size 3 to 8) (size 9 to 14) (size 15 to 20)
#    0.000    2.000    0.000    4.250    0.000    2.000 
#    0.000    0.833    0.000    2.000    0.000    0.000 
#    0.000    0.000    0.000    0.000    0.000    0.000 
#
# Total GULP energy -594808.372138 kJ/mol
# GULP energy per Si atom -12391.841086 kJ/mol
# Density = 1.931432 g / cm^3
# Si number density = 19.358379 Si / 1000 Ang^3
#
#
#
# Elastic Constant Matrix: (Units=GPa)
#
#
# Indices 1 2 3 4 5 6 
#
# 1 78.3964 53.1189 42.1532 0.0000 0.0000 0.0000
# 2 53.1189 190.1144 87.0911 0.0000 0.0000 0.0000
# 3 42.1532 87.0911 138.1667 0.0000 0.0000 0.0000
# 4 0.0000 0.0000 0.0000 -11.2516 0.0000 0.0000
# 5 0.0000 0.0000 0.0000 0.0000 32.6414 0.0000
# 6 0.0000 0.0000 0.0000 0.0000 0.0000 11.5820
#
#
#
# Elastic Compliance Matrix: (Units=1/GPa)
#
#
# Indices 1 2 3 4 5 6 
#
# 1 0.016577 -0.003255 -0.003006 0.000000 0.000000 0.000000
# 2 -0.003255 0.008034 -0.004071 0.000000 0.000000 0.000000
# 3 -0.003006 -0.004071 0.010721 0.000000 0.000000 0.000000
# 4 0.000000 0.000000 0.000000 -0.088876 0.000000 0.000000
# 5 0.000000 0.000000 0.000000 0.000000 0.030636 0.000000
# 6 0.000000 0.000000 0.000000 0.000000 0.000000 0.086341
#
#
# Mechanical properties :
#
#
# Convention : Reuss Voigt Hill
#
# Bulk Modulus (GPa) = 68.17297 85.71155 76.94226
# Shear Modulus (GPa) = 56.18763 21.54863 38.86813
#
# Velocity S-wave (km/s) = 5.39333 3.34000 4.48573
# Velocity P-wave (km/s) = 8.60678 7.69717 8.16465
#
# Compressibility (1/GPa) = 0.01466857
#
# Stress axis : x y z
#
# Youngs Moduli (GPa) = 60.32347 124.46335 93.27411
#
# Poissons Ratio (x) = 0.40510 0.28038
# Poissons Ratio (y) = 0.19634 0.37976
# Poissons Ratio (z) = 0.18133 0.50674
#
# Static dielectric constant tensor:
#      x y z
#    x 3.576680 0.000000 0.000000 
#    y 0.000000 4.471160 0.000000 
#    z 0.000000 0.000000 3.363090 
# 
# 
# High freq. dielectric constant tensor:
#      x y z
#    x 1.753990 0.000000 0.000000 
#    y 0.000000 1.787740 0.000000 
#    z 0.000000 0.000000 1.729590 
# 
# From -- ./inp_files/6151.got.cif
#   From: 2010.03.12/outbox.cif.g09.slc.cpg/sg51_4_cif.got.tgz:6151.got - 2010.04.16 13:43:02.
