data_PCOD8209653
_publ_section_title
;
Structure prediction by ZEFSAII (Michael W. Deem and Ramdas Pophale) SiO2 
 PCOD8209653
Probable space group: P M M A
;
_chemical_formula_sum "Si O2"
_cell_formula_units_Z 44
_cell_length_a 9.178927
_cell_length_b 13.546927
_cell_length_c 19.351638
_cell_angle_alpha 90.000000
_cell_angle_beta 90.000000
_cell_angle_gamma 90.000000
_cell_volume 2406.303694
_symmetry_space_group_name_H-M "P M M A"
_symmetry_group_IT_number 51
_symmetry_cell_setting 'orthorhombic'
loop_
_space_group_symop_operation_xyz
x,y,z
1/2-x,-y,z
1/2+x,-y,-z
-x,y,-z
-x,-y,-z
1/2+x,y,-z
1/2-x,y,z
x,-y,z
loop_
_atom_site_type_symbol
_atom_site_label
_atom_site_fract_x
_atom_site_fract_y
_atom_site_fract_z
Si Si1 0.084828 0.110075 0.834615
Si Si2 0.079518 0.288986 0.928073
Si Si3 0.412729 0.386071 0.189393
Si Si4 0.921951 0.891728 0.693578
Si Si5 0.575550 0.500000 0.573254
Si Si6 0.577956 0.682032 0.664457
O O1 0.250000 0.129987 0.809965
O O2 0.041759 0.181566 0.897265
O O3 0.981919 0.128103 0.769681
O O4 0.065761 0.000000 0.863914
O O5 0.250000 0.306055 0.939243
O O6 0.019557 0.369782 0.874775
O O7 0.000000 0.302853 0.000000
O O8 0.250000 0.345482 0.172428
O O9 0.403969 0.500000 0.207057
O O10 0.480034 0.335097 0.257786
O O11 0.750000 0.894592 0.700512
O O12 0.965922 0.796807 0.645205
O O13 0.977371 0.000000 0.665212
O O14 0.750000 0.500000 0.565482
O O15 0.500000 0.500000 0.500000
O O16 0.516901 0.599424 0.611844
O O17 0.750000 0.668014 0.665283
#
# Coordination Sequence:
#
# PCOD8209653 Si02
#       6
#     8   8   8   8   4   8
#     4   9  18  32  48  69  99 131 164 210 266 312
#     4  11  23  36  50  69  97 134 173 218 265 313
#     4  10  19  34  56  77  96 126 168 212 261 315
#     4   9  16  27  49  79 103 128 168 214 255 303
#     4  10  20  36  56  82 113 144 171 204 247 296
#     4   9  16  30  54  79 105 135 168 206 252 301
#
# _framework density 18.285305999999999
#
# number of rings (size 3 to 8) (size 9 to 14) (size 15 to 20)
#    0.000    2.364    2.727    0.545    0.000    1.818 
#    0.000    1.818    0.000    0.545    0.000    0.000 
#    0.000    0.000    0.000    0.000    0.000    0.000 
#
# Total GULP energy -545192.412044 kJ/mol
# GULP energy per Si atom -12390.736637 kJ/mol
# Density = 1.824369 g / cm^3
# Si number density = 18.285306 Si / 1000 Ang^3
#
#
#
# Elastic Constant Matrix: (Units=GPa)
#
#
# Indices 1 2 3 4 5 6 
#
# 1 39.5631 30.4121 21.6665 0.0000 0.0000 0.0000
# 2 30.4121 143.9785 61.1882 0.0000 0.0000 0.0000
# 3 21.6665 61.1882 83.9336 0.0000 0.0000 0.0000
# 4 0.0000 0.0000 0.0000 22.2083 0.0000 0.0000
# 5 0.0000 0.0000 0.0000 0.0000 24.8775 0.0000
# 6 0.0000 0.0000 0.0000 0.0000 0.0000 20.2941
#
#
#
# Elastic Compliance Matrix: (Units=1/GPa)
#
#
# Indices 1 2 3 4 5 6 
#
# 1 0.031427 -0.004623 -0.004742 0.000000 0.000000 0.000000
# 2 -0.004623 0.010743 -0.006639 0.000000 0.000000 0.000000
# 3 -0.004742 -0.006639 0.017978 0.000000 0.000000 0.000000
# 4 0.000000 0.000000 0.000000 0.045028 0.000000 0.000000
# 5 0.000000 0.000000 0.000000 0.000000 0.040197 0.000000
# 6 0.000000 0.000000 0.000000 0.000000 0.000000 0.049275
#
#
# Mechanical properties :
#
#
# Convention : Reuss Voigt Hill
#
# Bulk Modulus (GPa) = 35.53611 54.88986 45.21298
# Shear Modulus (GPa) = 21.18323 23.75657 22.46990
#
# Velocity S-wave (km/s) = 3.40734 3.60837 3.50930
# Velocity P-wave (km/s) = 5.91240 6.88798 6.41875
#
# Compressibility (1/GPa) = 0.02814039
#
# Stress axis : x y z
#
# Youngs Moduli (GPa) = 31.82011 93.08234 55.62376
#
# Poissons Ratio (x) = 0.43029 0.26379
# Poissons Ratio (y) = 0.14709 0.36926
# Poissons Ratio (z) = 0.15090 0.61793
#
# Static dielectric constant tensor:
#      x y z
#    x 3.217420 0.000000 0.000000 
#    y 0.000000 3.971700 0.000000 
#    z 0.000000 0.000000 3.035850 
# 
# 
# High freq. dielectric constant tensor:
#      x y z
#    x 1.687410 0.000000 0.000000 
#    y 0.000000 1.734550 0.000000 
#    z 0.000000 0.000000 1.668320 
# 
# From -- ./inp_files/27321.got.cif
#   From: 2010.03.12/outbox.cif.g09.slc.cpg/sg51_14_cif.got.tgz:27321.got - 2010.04.16 13:43:02.
