data_PCOD8209578
_publ_section_title
;
Structure prediction by ZEFSAII (Michael W. Deem and Ramdas Pophale) SiO2 
 PCOD8209578
Probable space group: P M M A
;
_chemical_formula_sum "Si O2"
_cell_formula_units_Z 64
_cell_length_a 19.798742
_cell_length_b 9.403203
_cell_length_c 20.723754
_cell_angle_alpha 90.000000
_cell_angle_beta 90.000000
_cell_angle_gamma 90.000000
_cell_volume 3858.174236
_symmetry_space_group_name_H-M "P M M A"
_symmetry_group_IT_number 51
_symmetry_cell_setting 'orthorhombic'
loop_
_space_group_symop_operation_xyz
x,y,z
1/2-x,-y,z
1/2+x,-y,-z
-x,y,-z
-x,-y,-z
1/2+x,y,-z
1/2-x,y,z
x,-y,z
loop_
_atom_site_type_symbol
_atom_site_label
_atom_site_fract_x
_atom_site_fract_y
_atom_site_fract_z
Si Si1 0.676975 0.844520 0.956971
Si Si2 0.948224 0.666812 0.802216
Si Si3 0.172781 0.667499 0.511850
Si Si4 0.823498 0.155744 0.805166
Si Si5 0.036006 0.163317 0.315999
Si Si6 0.947288 0.667128 0.947954
Si Si7 0.048475 0.167013 0.559310
Si Si8 0.173891 0.838843 0.383058
O O1 0.750000 0.799415 0.985839
O O2 0.683071 0.855376 0.881021
O O3 0.622516 0.727396 0.975332
O O4 0.656038 0.000000 0.984336
O O5 0.957220 0.500000 0.793414
O O6 0.871557 0.713606 0.787515
O O7 0.990383 0.747842 0.746541
O O8 0.967650 0.716850 0.875212
O O9 0.250000 0.696963 0.535525
O O10 0.157589 0.500000 0.510766
O O11 0.118795 0.745602 0.558146
O O12 0.162460 0.728666 0.440446
O O13 0.750000 0.186909 0.774760
O O14 0.849981 0.000000 0.779344
O O15 0.116623 0.190296 0.328934
O O16 0.991727 0.212917 0.376674
O O17 0.021468 0.000000 0.300961
O O18 0.939861 0.500000 0.947885
O O19 0.000000 0.723546 0.000000
O O20 0.000000 0.208443 0.500000
O O21 0.065560 0.000000 0.558171
O O22 0.250000 0.821101 0.354259
O O23 0.163821 0.000000 0.409946
#
# Coordination Sequence:
#
# PCOD8209578 Si02
#       8
#     8   8   8   8   8   8   8   8
#     4   8  14  25  42  66  93 118 148 188 230 271
#     4  10  20  31  44  65  93 122 155 196 239 282
#     4  10  20  32  48  73 101 126 156 198 245 286
#     4   8  14  26  43  60  83 119 157 188 220 264
#     4  10  20  33  48  68  95 126 162 201 237 282
#     4   9  18  32  48  67  93 126 161 195 232 280
#     4  10  19  34  53  73  95 124 164 200 233 280
#     4   9  17  31  49  66  90 129 169 198 226 266
#
# _framework density 16.588156999999999
#
# number of rings (size 3 to 8) (size 9 to 14) (size 15 to 20)
#    0.000    2.750    1.250    1.500    0.000    3.750 
#    0.000    3.750    0.000    0.000    0.000    0.875 
#    0.000    1.000    0.000    0.000    0.000    0.000 
#
# Total GULP energy -792920.366744 kJ/mol
# GULP energy per Si atom -12389.380730 kJ/mol
# Density = 1.655040 g / cm^3
# Si number density = 16.588157 Si / 1000 Ang^3
#
#
#
# Elastic Constant Matrix: (Units=GPa)
#
#
# Indices 1 2 3 4 5 6 
#
# 1 83.3532 39.2015 50.0507 0.0000 0.0000 0.0000
# 2 39.2015 56.6712 42.2789 0.0000 0.0000 0.0000
# 3 50.0507 42.2789 92.5917 0.0000 0.0000 0.0000
# 4 0.0000 0.0000 0.0000 21.4935 0.0000 0.0000
# 5 0.0000 0.0000 0.0000 0.0000 16.2748 0.0000
# 6 0.0000 0.0000 0.0000 0.0000 0.0000 26.4521
#
#
#
# Elastic Compliance Matrix: (Units=1/GPa)
#
#
# Indices 1 2 3 4 5 6 
#
# 1 0.020347 -0.008902 -0.006934 0.000000 0.000000 0.000000
# 2 -0.008902 0.030657 -0.009186 0.000000 0.000000 0.000000
# 3 -0.006934 -0.009186 0.018743 0.000000 0.000000 0.000000
# 4 0.000000 0.000000 0.000000 0.046526 0.000000 0.000000
# 5 0.000000 0.000000 0.000000 0.000000 0.061445 0.000000
# 6 0.000000 0.000000 0.000000 0.000000 0.000000 0.037804
#
#
# Mechanical properties :
#
#
# Convention : Reuss Voigt Hill
#
# Bulk Modulus (GPa) = 50.75533 55.07536 52.91535
# Shear Modulus (GPa) = 18.37326 19.58307 18.97816
#
# Velocity S-wave (km/s) = 3.33169 3.43963 3.38609
# Velocity P-wave (km/s) = 6.74270 7.00346 6.87432
#
# Compressibility (1/GPa) = 0.01970236
#
# Stress axis : x y z
#
# Youngs Moduli (GPa) = 49.14616 32.61910 53.35314
#
# Poissons Ratio (x) = 0.29037 0.36996
# Poissons Ratio (y) = 0.43750 0.49013
# Poissons Ratio (z) = 0.34079 0.29965
#
# Static dielectric constant tensor:
#      x y z
#    x 3.286780 0.000000 0.000000 
#    y 0.000000 3.103540 0.000000 
#    z 0.000000 0.000000 3.038570 
# 
# 
# High freq. dielectric constant tensor:
#      x y z
#    x 1.621600 0.000000 0.000000 
#    y 0.000000 1.637220 0.000000 
#    z 0.000000 0.000000 1.614950 
# 
# From -- ./inp_files/34145.got.cif
#   From: 2010.03.12/outbox.cif.g09.slc.cpg/sg51_18_cif.got.tgz:34145.got - 2010.04.16 13:43:02.
