data_PCOD8209379
_publ_section_title
;
Structure prediction by ZEFSAII (Michael W. Deem and Ramdas Pophale) SiO2 
 PCOD8209379
Probable space group: P M M A
;
_chemical_formula_sum "Si O2"
_cell_formula_units_Z 64
_cell_length_a 9.181466
_cell_length_b 23.234927
_cell_length_c 15.583292
_cell_angle_alpha 90.000000
_cell_angle_beta 90.000000
_cell_angle_gamma 90.000000
_cell_volume 3324.394470
_symmetry_space_group_name_H-M "P M M A"
_symmetry_group_IT_number 51
_symmetry_cell_setting 'orthorhombic'
loop_
_space_group_symop_operation_xyz
x,y,z
1/2-x,-y,z
1/2+x,-y,-z
-x,y,-z
-x,-y,-z
1/2+x,y,-z
1/2-x,y,z
x,-y,z
loop_
_atom_site_type_symbol
_atom_site_label
_atom_site_fract_x
_atom_site_fract_y
_atom_site_fract_z
Si Si1 0.420956 0.872682 0.759588
Si Si2 0.594300 0.251470 0.573373
Si Si3 0.578324 0.566665 0.589142
Si Si4 0.086419 0.117592 0.418905
Si Si5 0.083147 0.068259 0.084854
Si Si6 0.416680 0.618779 0.748893
Si Si7 0.088035 0.567691 0.920944
Si Si8 0.589381 0.745351 0.265954
O O1 0.250000 0.888751 0.756355
O O2 0.493152 0.889350 0.668323
O O3 0.500648 0.908561 0.832238
O O4 0.444397 0.804878 0.784152
O O5 0.500000 0.281534 0.500000
O O6 0.750000 0.281719 0.569035
O O7 0.606999 0.183809 0.557833
O O8 0.530051 0.265197 0.663867
O O9 0.500000 0.583069 0.500000
O O10 0.750000 0.578684 0.580459
O O11 0.547690 0.500000 0.612094
O O12 0.513100 0.606576 0.664845
O O13 0.250000 0.090349 0.408468
O O14 0.000000 0.088738 0.500000
O O15 0.250000 0.090509 0.082906
O O16 0.078676 0.000000 0.089331
O O17 0.000000 0.090621 0.000000
O O18 0.250000 0.600609 0.727703
O O19 0.482130 0.582874 0.828732
O O20 0.419369 0.685208 0.784723
O O21 0.250000 0.593955 0.924294
O O22 0.091377 0.500000 0.931934
O O23 0.000000 0.595638 0.000000
O O24 0.750000 0.753012 0.307993
#
# Coordination Sequence:
#
# PCOD8209379 Si02
#       8
#     8   8   8   8   8   8   8   8
#     4  10  19  33  54  79 110 146 181 219 266 318
#     4   9  16  26  42  63  90 127 171 216 256 294
#     4  10  21  36  54  77 105 139 181 228 278 331
#     4   9  16  27  45  71 102 137 179 221 259 302
#     4  10  21  38  61  88 114 140 176 223 272 322
#     4  10  20  35  54  75 103 138 175 216 263 314
#     4   9  18  33  54  77  97 120 155 202 255 307
#     4   9  19  33  48  70 102 139 176 213 255 309
#
# _framework density 19.251625000000001
#
# number of rings (size 3 to 8) (size 9 to 14) (size 15 to 20)
#    0.000    2.500    0.000    2.250    0.000    7.000 
#    0.000    1.875    0.000    1.875    0.000    0.000 
#    0.000    0.000    0.000    0.000    0.000    0.000 
#
# Total GULP energy -792988.729055 kJ/mol
# GULP energy per Si atom -12390.448891 kJ/mol
# Density = 1.920781 g / cm^3
# Si number density = 19.251625 Si / 1000 Ang^3
#
#
#
# Elastic Constant Matrix: (Units=GPa)
#
#
# Indices 1 2 3 4 5 6 
#
# 1 136.7701 19.7237 68.7344 0.0000 0.0000 0.0000
# 2 19.7237 21.1363 19.8097 0.0000 0.0000 0.0000
# 3 68.7344 19.8097 128.2355 0.0000 0.0000 0.0000
# 4 0.0000 0.0000 0.0000 46.1077 0.0000 0.0000
# 5 0.0000 0.0000 0.0000 0.0000 35.6160 0.0000
# 6 0.0000 0.0000 0.0000 0.0000 0.0000 16.1906
#
#
#
# Elastic Compliance Matrix: (Units=1/GPa)
#
#
# Indices 1 2 3 4 5 6 
#
# 1 0.010489 -0.005284 -0.004806 0.000000 0.000000 0.000000
# 2 -0.005284 0.057983 -0.006125 0.000000 0.000000 0.000000
# 3 -0.004806 -0.006125 0.011320 0.000000 0.000000 0.000000
# 4 0.000000 0.000000 0.000000 0.021688 0.000000 0.000000
# 5 0.000000 0.000000 0.000000 0.000000 0.028077 0.000000
# 6 0.000000 0.000000 0.000000 0.000000 0.000000 0.061764
#
#
# Mechanical properties :
#
#
# Convention : Reuss Voigt Hill
#
# Bulk Modulus (GPa) = 21.11345 55.85305 38.48325
# Shear Modulus (GPa) = 20.87344 31.44112 26.15728
#
# Velocity S-wave (km/s) = 3.29636 4.04563 3.69006
# Velocity P-wave (km/s) = 5.04766 7.13428 6.17968
#
# Compressibility (1/GPa) = 0.04736318
#
# Stress axis : x y z
#
# Youngs Moduli (GPa) = 95.34150 17.24634 88.33738
#
# Poissons Ratio (x) = 0.09112 0.42452
# Poissons Ratio (y) = 0.50374 0.54109
# Poissons Ratio (z) = 0.45818 0.10564
#
# Static dielectric constant tensor:
#      x y z
#    x 3.895980 0.000000 0.000000 
#    y 0.000000 3.379780 0.000000 
#    z 0.000000 0.000000 3.388030 
# 
# 
# High freq. dielectric constant tensor:
#      x y z
#    x 1.763600 0.000000 0.000000 
#    y 0.000000 1.725540 0.000000 
#    z 0.000000 0.000000 1.735090 
# 
# From -- ./inp_files/22220.got.cif
#   From: 2010.03.12/outbox.cif.g09.slc.cpg/sg51_12_cif.got.tgz:22220.got - 2010.04.16 13:43:02.
