data_PCOD8209402
_publ_section_title
;
Structure prediction by ZEFSAII (Michael W. Deem and Ramdas Pophale) SiO2 
 PCOD8209402
Probable space group: P M M A
;
_chemical_formula_sum "Si O2"
_cell_formula_units_Z 48
_cell_length_a 8.739658
_cell_length_b 30.668015
_cell_length_c 9.576540
_cell_angle_alpha 90.000000
_cell_angle_beta 90.000000
_cell_angle_gamma 90.000000
_cell_volume 2566.780505
_symmetry_space_group_name_H-M "P M M A"
_symmetry_group_IT_number 51
_symmetry_cell_setting 'orthorhombic'
loop_
_space_group_symop_operation_xyz
x,y,z
1/2-x,-y,z
1/2+x,-y,-z
-x,y,-z
-x,-y,-z
1/2+x,y,-z
1/2-x,y,z
x,-y,z
loop_
_atom_site_type_symbol
_atom_site_label
_atom_site_fract_x
_atom_site_fract_y
_atom_site_fract_z
Si Si1 0.930205 0.118599 0.347157
Si Si2 0.927951 0.551038 0.353853
Si Si3 0.070199 0.049531 0.144844
Si Si4 0.431584 0.618835 0.153597
Si Si5 0.573457 0.787646 0.351627
Si Si6 0.568646 0.692912 0.345142
O O1 0.750000 0.109884 0.353283
O O2 0.968066 0.166341 0.274855
O O3 0.000000 0.117771 0.500000
O O4 0.009147 0.080139 0.264928
O O5 0.750000 0.563532 0.354941
O O6 0.954845 0.500000 0.331805
O O7 0.000000 0.566885 0.500000
O O8 0.011730 0.574585 0.226428
O O9 0.250000 0.053744 0.134125
O O10 0.019308 0.000000 0.177997
O O11 0.000000 0.065694 0.000000
O O12 0.250000 0.618735 0.144219
O O13 0.487811 0.659785 0.242122
O O14 0.500000 0.621621 0.000000
O O15 0.500000 0.788070 0.500000
O O16 0.750000 0.787779 0.383814
O O17 0.531188 0.741340 0.279363
O O18 0.500000 0.687720 0.500000
O O19 0.750000 0.683735 0.351102
#
# Coordination Sequence:
#
# PCOD8209402 Si02
#       6
#     8   8   8   8   8   8
#     4  10  19  33  54  81 110 139 174 217 266 316
#     4  10  21  39  63  89 115 145 183 225 268 317
#     4  10  21  37  55  75 101 136 177 219 265 318
#     4  12  25  40  57  80 112 148 185 226 274 323
#     4   8  16  30  51  78 107 138 173 216 263 313
#     4  10  19  35  58  83 110 142 182 223 265 315
#
# _framework density 18.700468999999998
#
# number of rings (size 3 to 8) (size 9 to 14) (size 15 to 20)
#    0.000    2.000    0.000    4.000    0.000    4.000 
#    0.000    0.833    0.000    0.000    0.000    0.000 
#    0.000    0.000    0.000    0.000    0.000    0.000 
#
# Total GULP energy -594834.617628 kJ/mol
# GULP energy per Si atom -12392.387867 kJ/mol
# Density = 1.865791 g / cm^3
# Si number density = 18.700469 Si / 1000 Ang^3
#
#
#
# Elastic Constant Matrix: (Units=GPa)
#
#
# Indices 1 2 3 4 5 6 
#
# 1 107.9003 53.4097 49.9656 0.0000 0.0000 0.0000
# 2 53.4097 120.8710 64.3331 0.0000 0.0000 0.0000
# 3 49.9656 64.3331 105.2295 0.0000 0.0000 0.0000
# 4 0.0000 0.0000 0.0000 1.8181 0.0000 0.0000
# 5 0.0000 0.0000 0.0000 0.0000 34.9315 0.0000
# 6 0.0000 0.0000 0.0000 0.0000 0.0000 5.1710
#
#
#
# Elastic Compliance Matrix: (Units=1/GPa)
#
#
# Indices 1 2 3 4 5 6 
#
# 1 0.012859 -0.003606 -0.003902 0.000000 0.000000 0.000000
# 2 -0.003606 0.013275 -0.006404 0.000000 0.000000 0.000000
# 3 -0.003902 -0.006404 0.015271 0.000000 0.000000 0.000000
# 4 0.000000 0.000000 0.000000 0.550015 0.000000 0.000000
# 5 0.000000 0.000000 0.000000 0.000000 0.028627 0.000000
# 6 0.000000 0.000000 0.000000 0.000000 0.000000 0.193387
#
#
# Mechanical properties :
#
#
# Convention : Reuss Voigt Hill
#
# Bulk Modulus (GPa) = 73.62165 74.37973 74.00069
# Shear Modulus (GPa) = 5.91168 19.47028 12.69098
#
# Velocity S-wave (km/s) = 1.77992 3.23021 2.60791
# Velocity P-wave (km/s) = 6.60897 7.33300 6.98038
#
# Compressibility (1/GPa) = 0.01358296
#
# Stress axis : x y z
#
# Youngs Moduli (GPa) = 77.76503 75.33062 65.48536
#
# Poissons Ratio (x) = 0.27161 0.25550
# Poissons Ratio (y) = 0.28038 0.41935
# Poissons Ratio (z) = 0.30341 0.48239
#
# Static dielectric constant tensor:
#      x y z
#    x 3.654500 0.000000 0.000000 
#    y 0.000000 4.123500 0.000000 
#    z 0.000000 0.000000 3.208800 
# 
# 
# High freq. dielectric constant tensor:
#      x y z
#    x 1.744150 0.000000 0.000000 
#    y 0.000000 1.752090 0.000000 
#    z 0.000000 0.000000 1.695960 
# 
# From -- ./inp_files/6060.got.cif
#   From: 2010.03.12/outbox.cif.g09.slc.cpg/sg51_4_cif.got.tgz:6060.got - 2010.04.16 13:43:02.
