data_PCOD8209248
_publ_section_title
;
Structure prediction by ZEFSAII (Michael W. Deem and Ramdas Pophale) SiO2 
 PCOD8209248
Probable space group: P M M A
;
_chemical_formula_sum "Si O2"
_cell_formula_units_Z 64
_cell_length_a 8.911876
_cell_length_b 19.144624
_cell_length_c 19.868109
_cell_angle_alpha 90.000000
_cell_angle_beta 90.000000
_cell_angle_gamma 90.000000
_cell_volume 3389.787784
_symmetry_space_group_name_H-M "P M M A"
_symmetry_group_IT_number 51
_symmetry_cell_setting 'orthorhombic'
loop_
_space_group_symop_operation_xyz
x,y,z
1/2-x,-y,z
1/2+x,-y,-z
-x,y,-z
-x,-y,-z
1/2+x,y,-z
1/2-x,y,z
x,-y,z
loop_
_atom_site_type_symbol
_atom_site_label
_atom_site_fract_x
_atom_site_fract_y
_atom_site_fract_z
Si Si1 0.921091 0.421982 0.103966
Si Si2 0.587776 0.260718 0.560828
Si Si3 0.926593 0.202328 0.193537
Si Si4 0.575944 0.296913 0.702960
Si Si5 0.924309 0.920726 0.292418
Si Si6 0.571006 0.723257 0.930532
Si Si7 0.414973 0.099785 0.435733
Si Si8 0.084753 0.423052 0.737403
O O1 0.750000 0.406761 0.080992
O O2 0.970632 0.500000 0.077001
O O3 0.933355 0.424036 0.183251
O O4 0.024378 0.358187 0.078854
O O5 0.500000 0.297877 0.500000
O O6 0.750000 0.297494 0.564876
O O7 0.509257 0.269320 0.632662
O O8 0.604682 0.179837 0.545395
O O9 0.750000 0.199438 0.178579
O O10 0.981986 0.131484 0.232746
O O11 0.966646 0.266785 0.240889
O O12 0.012290 0.220157 0.124358
O O13 0.750000 0.276348 0.714903
O O14 0.550681 0.379586 0.704592
O O15 0.750000 0.905718 0.305207
O O16 0.003535 0.909769 0.364217
O O17 0.952592 0.000000 0.267346
O O18 0.750000 0.726889 0.931631
O O19 0.500000 0.750188 0.000000
O O20 0.500000 0.064549 0.500000
O O21 0.250000 0.065375 0.429424
O O22 0.250000 0.393418 0.718430
O O23 0.066879 0.500000 0.707471
#
# Coordination Sequence:
#
# PCOD8209248 Si02
#       8
#     8   8   8   8   8   8   8   8
#     4   9  18  34  55  81 116 153 189 226 266 320
#     4   9  19  32  48  74 108 141 181 228 275 325
#     4  11  22  38  60  84 112 144 181 226 274 326
#     4  11  20  32  53  82 110 140 182 233 278 325
#     4  10  22  39  59  84 113 148 188 229 278 333
#     4  12  25  40  60  85 115 149 187 229 274 327
#     4  10  19  33  52  78 114 153 191 229 272 325
#     4   9  18  32  51  77 109 145 184 225 272 328
#
# _framework density 18.880237999999999
#
# number of rings (size 3 to 8) (size 9 to 14) (size 15 to 20)
#    0.000    1.875    2.500    3.000    0.000    3.250 
#    0.000    1.250    0.000    0.750    0.000    0.000 
#    0.000    0.000    0.000    0.000    0.000    0.000 
#
# Total GULP energy -792891.874576 kJ/mol
# GULP energy per Si atom -12388.935540 kJ/mol
# Density = 1.883727 g / cm^3
# Si number density = 18.880238 Si / 1000 Ang^3
#
#
#
# Elastic Constant Matrix: (Units=GPa)
#
#
# Indices 1 2 3 4 5 6 
#
# 1 97.8449 41.3487 54.2523 0.0000 0.0000 0.0000
# 2 41.3487 83.2353 46.6636 0.0000 0.0000 0.0000
# 3 54.2523 46.6636 115.9689 0.0000 0.0000 0.0000
# 4 0.0000 0.0000 0.0000 -171.8184 0.0000 0.0000
# 5 0.0000 0.0000 0.0000 0.0000 28.5703 0.0000
# 6 0.0000 0.0000 0.0000 0.0000 0.0000 1.4687
#
#
#
# Elastic Compliance Matrix: (Units=1/GPa)
#
#
# Indices 1 2 3 4 5 6 
#
# 1 0.015025 -0.004550 -0.005198 0.000000 0.000000 0.000000
# 2 -0.004550 0.016891 -0.004668 0.000000 0.000000 0.000000
# 3 -0.005198 -0.004668 0.012933 0.000000 0.000000 0.000000
# 4 0.000000 0.000000 0.000000 -0.005820 0.000000 0.000000
# 5 0.000000 0.000000 0.000000 0.000000 0.035001 0.000000
# 6 0.000000 0.000000 0.000000 0.000000 0.000000 0.680876
#
#
# Mechanical properties :
#
#
# Convention : Reuss Voigt Hill
#
# Bulk Modulus (GPa) = 62.43299 64.61983 63.52641
# Shear Modulus (GPa) = 6.33650 -18.03692 -5.85021
#
# Velocity S-wave (km/s) = 1.83397 -3.09420 -1.76219
# Velocity P-wave (km/s) = 6.13386 4.64059 5.43872
#
# Compressibility (1/GPa) = 0.01601717
#
# Stress axis : x y z
#
# Youngs Moduli (GPa) = 66.55426 59.20142 77.31962
#
# Poissons Ratio (x) = 0.26935 0.40194
# Poissons Ratio (y) = 0.30281 0.36095
# Poissons Ratio (z) = 0.34597 0.27637
#
# Static dielectric constant tensor:
#      x y z
#    x 3.653620 0.000000 0.000000 
#    y 0.000000 3.787570 0.000000 
#    z 0.000000 0.000000 3.484880 
# 
# 
# High freq. dielectric constant tensor:
#      x y z
#    x 1.735390 0.000000 0.000000 
#    y 0.000000 1.718750 0.000000 
#    z 0.000000 0.000000 1.724340 
# 
# From -- ./inp_files/32296.got.cif
#   From: 2010.03.12/outbox.cif.g09.slc.cpg/sg51_17_cif.got.tgz:32296.got - 2010.04.16 13:43:02.
