data_PCOD8209572
_publ_section_title
;
Structure prediction by ZEFSAII (Michael W. Deem and Ramdas Pophale) SiO2 
 PCOD8209572
Probable space group: P M M A
;
_chemical_formula_sum "Si O2"
_cell_formula_units_Z 64
_cell_length_a 18.416334
_cell_length_b 13.866358
_cell_length_c 12.644363
_cell_angle_alpha 90.000000
_cell_angle_beta 90.000000
_cell_angle_gamma 90.000000
_cell_volume 3228.959119
_symmetry_space_group_name_H-M "P M M A"
_symmetry_group_IT_number 51
_symmetry_cell_setting 'orthorhombic'
loop_
_space_group_symop_operation_xyz
x,y,z
1/2-x,-y,z
1/2+x,-y,-z
-x,y,-z
-x,-y,-z
1/2+x,y,-z
1/2-x,y,z
x,-y,z
loop_
_atom_site_type_symbol
_atom_site_label
_atom_site_fract_x
_atom_site_fract_y
_atom_site_fract_z
Si Si1 0.940078 0.188110 0.284996
Si Si2 0.166664 0.885524 0.546055
Si Si3 0.093892 0.109849 0.337543
Si Si4 0.828841 0.390007 0.086264
Si Si5 0.597519 0.608049 0.875689
Si Si6 0.078864 0.112033 0.949807
Si Si7 0.335468 0.799012 0.142084
Si Si8 0.452206 0.393663 0.761756
O O1 0.869647 0.160607 0.350842
O O2 0.921820 0.169349 0.161530
O O3 0.963199 0.299985 0.310802
O O4 0.008876 0.127496 0.322128
O O5 0.250000 0.852539 0.543250
O O6 0.127415 0.839682 0.442071
O O7 0.159758 0.000000 0.555030
O O8 0.139709 0.127919 0.232106
O O9 0.104173 0.000000 0.364405
O O10 0.750000 0.335354 0.086449
O O11 0.811531 0.500000 0.065136
O O12 0.870734 0.377571 0.195761
O O13 0.883303 0.356760 0.994121
O O14 0.627882 0.500000 0.848720
O O15 0.636198 0.694763 0.812187
O O16 0.511189 0.608818 0.856774
O O17 0.101799 0.000000 0.932165
O O18 0.134060 0.165620 0.028785
O O19 0.000000 0.117374 0.000000
O O20 0.250000 0.795477 0.131249
O O21 0.457850 0.500000 0.705084
#
# Coordination Sequence:
#
# PCOD8209572 Si02
#       8
#     8   8   8   8   8   8   8   8
#     4  12  22  38  65  91 119 160 207 246 297 361
#     4  10  23  42  65  94 122 148 191 255 315 361
#     4  11  22  41  65  89 117 154 199 252 303 361
#     4   9  17  29  48  76 109 149 197 246 293 338
#     4  10  19  34  52  75 112 157 204 250 294 344
#     4  11  22  37  56  84 127 167 197 236 289 361
#     4  12  24  37  58  89 122 163 206 247 301 362
#     4  10  20  34  55  82 117 157 198 245 296 350
#
# _framework density 19.820629
#
# number of rings (size 3 to 8) (size 9 to 14) (size 15 to 20)
#    0.000    1.375    2.500    3.750    0.000    5.750 
#    0.000    0.000    0.000    2.250    0.000    0.000 
#    0.000    0.000    0.000    0.000    0.000    0.000 
#
# Total GULP energy -792899.674602 kJ/mol
# GULP energy per Si atom -12389.057416 kJ/mol
# Density = 1.977552 g / cm^3
# Si number density = 19.820629 Si / 1000 Ang^3
#
#
#
# Elastic Constant Matrix: (Units=GPa)
#
#
# Indices 1 2 3 4 5 6 
#
# 1 119.5813 27.3375 40.9998 0.0000 0.0000 0.0000
# 2 27.3375 100.9728 23.1500 0.0000 0.0000 0.0000
# 3 40.9998 23.1500 100.9104 0.0000 0.0000 0.0000
# 4 0.0000 0.0000 0.0000 11.4903 0.0000 0.0000
# 5 0.0000 0.0000 0.0000 0.0000 20.6529 0.0000
# 6 0.0000 0.0000 0.0000 0.0000 0.0000 22.6359
#
#
#
# Elastic Compliance Matrix: (Units=1/GPa)
#
#
# Indices 1 2 3 4 5 6 
#
# 1 0.010044 -0.001883 -0.003649 0.000000 0.000000 0.000000
# 2 -0.001883 0.010806 -0.001714 0.000000 0.000000 0.000000
# 3 -0.003649 -0.001714 0.011786 0.000000 0.000000 0.000000
# 4 0.000000 0.000000 0.000000 0.087030 0.000000 0.000000
# 5 0.000000 0.000000 0.000000 0.000000 0.048419 0.000000
# 6 0.000000 0.000000 0.000000 0.000000 0.000000 0.044178
#
#
# Mechanical properties :
#
#
# Convention : Reuss Voigt Hill
#
# Bulk Modulus (GPa) = 55.11368 56.04878 55.58123
# Shear Modulus (GPa) = 21.47741 26.28762 23.88252
#
# Velocity S-wave (km/s) = 3.29536 3.64576 3.47498
# Velocity P-wave (km/s) = 6.50737 6.78686 6.64858
#
# Compressibility (1/GPa) = 0.01814432
#
# Stress axis : x y z
#
# Youngs Moduli (GPa) = 99.56186 92.53777 84.84941
#
# Poissons Ratio (x) = 0.17422 0.30961
# Poissons Ratio (y) = 0.18745 0.14545
# Poissons Ratio (z) = 0.36330 0.15862
#
# Static dielectric constant tensor:
#      x y z
#    x 3.711150 0.000000 0.000000 
#    y 0.000000 3.962160 0.000000 
#    z 0.000000 0.000000 3.386210 
# 
# 
# High freq. dielectric constant tensor:
#      x y z
#    x 1.781500 0.000000 0.000000 
#    y 0.000000 1.781260 0.000000 
#    z 0.000000 0.000000 1.735610 
# 
# From -- ./inp_files/17625.got.cif
#   From: 2010.03.12/outbox.cif.g09.slc.cpg/sg51_9_cif.got.tgz:17625.got - 2010.04.16 13:43:02.
