data_PCOD8209670
_publ_section_title
;
Structure prediction by ZEFSAII (Michael W. Deem and Ramdas Pophale) SiO2 
 PCOD8209670
Probable space group: P M M A
;
_chemical_formula_sum "Si O2"
_cell_formula_units_Z 48
_cell_length_a 8.886267
_cell_length_b 20.380345
_cell_length_c 14.596728
_cell_angle_alpha 90.000000
_cell_angle_beta 90.000000
_cell_angle_gamma 90.000000
_cell_volume 2643.543157
_symmetry_space_group_name_H-M "P M M A"
_symmetry_group_IT_number 51
_symmetry_cell_setting 'orthorhombic'
loop_
_space_group_symop_operation_xyz
x,y,z
1/2-x,-y,z
1/2+x,-y,-z
-x,y,-z
-x,-y,-z
1/2+x,y,-z
1/2-x,y,z
x,-y,z
loop_
_atom_site_type_symbol
_atom_site_label
_atom_site_fract_x
_atom_site_fract_y
_atom_site_fract_z
Si Si1 0.071120 0.693117 0.714607
Si Si2 0.928974 0.817782 0.400508
Si Si3 0.576926 0.266461 0.091549
Si Si4 0.427389 0.573669 0.595608
Si Si5 0.577736 0.925432 0.722588
Si Si6 0.925131 0.887744 0.093538
O O1 0.250000 0.696927 0.718428
O O2 0.012592 0.753380 0.653095
O O3 0.007419 0.698685 0.818143
O O4 0.014579 0.624194 0.672634
O O5 0.750000 0.819352 0.408494
O O6 0.000000 0.816756 0.500000
O O7 0.982138 0.882020 0.347107
O O8 0.750000 0.283940 0.081205
O O9 0.549778 0.189579 0.104173
O O10 0.500000 0.294043 0.000000
O O11 0.500000 0.594303 0.500000
O O12 0.250000 0.579024 0.583093
O O13 0.476017 0.500000 0.624397
O O14 0.750000 0.900602 0.725943
O O15 0.507410 0.923198 0.823440
O O16 0.569721 0.000000 0.687043
O O17 0.750000 0.906450 0.093777
O O18 0.000000 0.913385 0.000000
#
# Coordination Sequence:
#
# PCOD8209670 Si02
#       6
#     8   8   8   8   8   8
#     4   9  17  32  53  77 107 137 171 212 256 305
#     4  11  22  38  57  78 103 134 172 219 267 313
#     4   9  17  31  50  75 103 133 167 209 255 302
#     4   9  17  30  50  76 107 142 175 209 252 303
#     4  11  24  40  56  76 103 136 175 218 264 318
#     4  10  19  34  56  80 106 137 171 214 265 315
#
# _framework density 18.157449
#
# number of rings (size 3 to 8) (size 9 to 14) (size 15 to 20)
#    0.000    2.167    1.667    2.000    0.000    2.667 
#    0.000    1.667    0.000    0.500    0.000    0.000 
#    0.000    0.000    0.000    0.000    0.000    0.000 
#
# Total GULP energy -595220.906549 kJ/mol
# GULP energy per Si atom -12400.435553 kJ/mol
# Density = 1.811612 g / cm^3
# Si number density = 18.157449 Si / 1000 Ang^3
#
#
#
# Elastic Constant Matrix: (Units=GPa)
#
#
# Indices 1 2 3 4 5 6 
#
# 1 62.0932 32.4350 39.9825 0.0000 0.0000 0.0000
# 2 32.4350 93.0569 68.9347 0.0000 0.0000 0.0000
# 3 39.9825 68.9347 160.8912 0.0000 0.0000 0.0000
# 4 0.0000 0.0000 0.0000 31.5222 0.0000 0.0000
# 5 0.0000 0.0000 0.0000 0.0000 34.5245 0.0000
# 6 0.0000 0.0000 0.0000 0.0000 0.0000 17.0293
#
#
#
# Elastic Compliance Matrix: (Units=1/GPa)
#
#
# Indices 1 2 3 4 5 6 
#
# 1 0.020631 -0.004971 -0.002997 0.000000 0.000000 0.000000
# 2 -0.004971 0.016940 -0.006023 0.000000 0.000000 0.000000
# 3 -0.002997 -0.006023 0.009541 0.000000 0.000000 0.000000
# 4 0.000000 0.000000 0.000000 0.031724 0.000000 0.000000
# 5 0.000000 0.000000 0.000000 0.000000 0.028965 0.000000
# 6 0.000000 0.000000 0.000000 0.000000 0.000000 0.058722
#
#
# Mechanical properties :
#
#
# Convention : Reuss Voigt Hill
#
# Bulk Modulus (GPa) = 52.27237 66.52730 59.39983
# Shear Modulus (GPa) = 24.89023 28.26114 26.57569
#
# Velocity S-wave (km/s) = 3.70645 3.94947 3.82988
# Velocity P-wave (km/s) = 6.86789 7.58395 7.23479
#
# Compressibility (1/GPa) = 0.01913057
#
# Stress axis : x y z
#
# Youngs Moduli (GPa) = 48.47004 59.03082 104.81333
#
# Poissons Ratio (x) = 0.29343 0.31416
# Poissons Ratio (y) = 0.24093 0.63128
# Poissons Ratio (z) = 0.14528 0.35554
#
# Static dielectric constant tensor:
#      x y z
#    x 3.299950 0.000000 0.000000 
#    y 0.000000 3.373710 0.000000 
#    z 0.000000 0.000000 3.677350 
# 
# 
# High freq. dielectric constant tensor:
#      x y z
#    x 1.694300 0.000000 0.000000 
#    y 0.000000 1.689160 0.000000 
#    z 0.000000 0.000000 1.711720 
# 
# From -- ./inp_files/21058.got.cif
#   From: 2010.03.12/outbox.cif.g09.slc.cpg/sg51_11_cif.got.tgz:21058.got - 2010.04.16 13:43:02.
