data_PCOD8209874
_publ_section_title
;
Structure prediction by ZEFSAII (Michael W. Deem and Ramdas Pophale) SiO2 
 PCOD8209874
Probable space group: P M M A
;
_chemical_formula_sum "Si O2"
_cell_formula_units_Z 56
_cell_length_a 21.055122
_cell_length_b 16.068236
_cell_length_c 8.965495
_cell_angle_alpha 90.000000
_cell_angle_beta 90.000000
_cell_angle_gamma 90.000000
_cell_volume 3033.194338
_symmetry_space_group_name_H-M "P M M A"
_symmetry_group_IT_number 51
_symmetry_cell_setting 'orthorhombic'
loop_
_space_group_symop_operation_xyz
x,y,z
1/2-x,-y,z
1/2+x,-y,-z
-x,y,-z
-x,-y,-z
1/2+x,y,-z
1/2-x,y,z
x,-y,z
loop_
_atom_site_type_symbol
_atom_site_label
_atom_site_fract_x
_atom_site_fract_y
_atom_site_fract_z
Si Si1 0.605652 0.838853 0.678997
Si Si2 0.323243 0.261160 0.081337
Si Si3 0.822270 0.404542 0.692954
Si Si4 0.616443 0.777119 0.228560
Si Si5 0.427387 0.679228 0.497347
Si Si6 0.510950 0.906391 0.167959
Si Si7 0.679146 0.908479 0.407723
O O1 0.656274 0.811025 0.804168
O O2 0.570500 0.759099 0.609549
O O3 0.555548 0.901500 0.748682
O O4 0.637222 0.892006 0.551165
O O5 0.250000 0.247524 0.037410
O O6 0.334254 0.350516 0.158487
O O7 0.366883 0.258668 0.933686
O O8 0.750000 0.386312 0.632460
O O9 0.829038 0.500000 0.740919
O O10 0.875482 0.385532 0.567680
O O11 0.598248 0.700751 0.336940
O O12 0.558419 0.840903 0.237795
O O13 0.674270 0.834003 0.287441
O O14 0.500000 0.642854 0.500000
O O15 0.538000 0.000000 0.181203
O O16 0.500000 0.879293 0.000000
O O17 0.750000 0.908422 0.467657
O O18 0.661740 0.000000 0.340398
#
# Coordination Sequence:
#
# PCOD8209874 Si02
#       7
#     8   8   8   8   8   8   8
#     4  10  19  35  54  76 103 144 191 230 267 327
#     4  10  20  35  58  82 105 140 182 225 274 329
#     4   9  20  40  63  86 114 147 182 220 270 338
#     4  11  21  35  54  80 111 143 183 229 280 330
#     4  10  20  34  58  86 114 149 182 225 276 326
#     4  11  21  33  52  77 108 147 189 237 280 318
#     4  10  21  35  50  72 107 145 183 233 283 327
#
# _framework density 18.462384
#
# number of rings (size 3 to 8) (size 9 to 14) (size 15 to 20)
#    0.000    1.857    2.857    1.714    0.000    4.286 
#    0.000    2.857    0.000    6.000    0.000    0.000 
#    0.000    0.000    0.000    0.000    0.000    0.000 
#
# Total GULP energy -694209.962856 kJ/mol
# GULP energy per Si atom -12396.606480 kJ/mol
# Density = 1.842036 g / cm^3
# Si number density = 18.462384 Si / 1000 Ang^3
#
#
#
# Elastic Constant Matrix: (Units=GPa)
#
#
# Indices 1 2 3 4 5 6 
#
# 1 104.4805 39.2370 32.2148 0.0000 0.0000 0.0000
# 2 39.2370 68.5756 28.9802 0.0000 0.0000 0.0000
# 3 32.2148 28.9802 88.4470 0.0000 0.0000 0.0000
# 4 0.0000 0.0000 0.0000 20.9427 0.0000 0.0000
# 5 0.0000 0.0000 0.0000 0.0000 28.1128 0.0000
# 6 0.0000 0.0000 0.0000 0.0000 0.0000 16.4173
#
#
#
# Elastic Compliance Matrix: (Units=1/GPa)
#
#
# Indices 1 2 3 4 5 6 
#
# 1 0.012687 -0.006159 -0.002603 0.000000 0.000000 0.000000
# 2 -0.006159 0.019916 -0.004282 0.000000 0.000000 0.000000
# 3 -0.002603 -0.004282 0.013657 0.000000 0.000000 0.000000
# 4 0.000000 0.000000 0.000000 0.047749 0.000000 0.000000
# 5 0.000000 0.000000 0.000000 0.000000 0.035571 0.000000
# 6 0.000000 0.000000 0.000000 0.000000 0.000000 0.060911
#
#
# Mechanical properties :
#
#
# Convention : Reuss Voigt Hill
#
# Bulk Modulus (GPa) = 49.57400 51.37412 50.47406
# Shear Modulus (GPa) = 22.39097 23.83263 23.11180
#
# Velocity S-wave (km/s) = 3.48629 3.59677 3.54196
# Velocity P-wave (km/s) = 6.56622 6.71832 6.64271
#
# Compressibility (1/GPa) = 0.02017186
#
# Stress axis : x y z
#
# Youngs Moduli (GPa) = 78.82295 50.21040 73.22060
#
# Poissons Ratio (x) = 0.30925 0.19058
# Poissons Ratio (y) = 0.48547 0.31356
# Poissons Ratio (z) = 0.20516 0.21502
#
# Static dielectric constant tensor:
#      x y z
#    x 3.412980 0.000000 0.000000 
#    y 0.000000 3.310240 0.000000 
#    z 0.000000 0.000000 3.344510 
# 
# 
# High freq. dielectric constant tensor:
#      x y z
#    x 1.728300 0.000000 0.000000 
#    y 0.000000 1.697660 0.000000 
#    z 0.000000 0.000000 1.712590 
# 
# From -- ./inp_files/10962.got.cif
#   From: 2010.03.12/outbox.cif.g09.slc.cpg/sg51_6_cif.got.tgz:10962.got - 2010.04.16 13:43:02.
