data_PCOD8209846
_publ_section_title
;
Structure prediction by ZEFSAII (Michael W. Deem and Ramdas Pophale) SiO2 
 PCOD8209846
Probable space group: P M M A
;
_chemical_formula_sum "Si O2"
_cell_formula_units_Z 44
_cell_length_a 8.852845
_cell_length_b 17.600539
_cell_length_c 14.260426
_cell_angle_alpha 90.000000
_cell_angle_beta 90.000000
_cell_angle_gamma 90.000000
_cell_volume 2221.986048
_symmetry_space_group_name_H-M "P M M A"
_symmetry_group_IT_number 51
_symmetry_cell_setting 'orthorhombic'
loop_
_space_group_symop_operation_xyz
x,y,z
1/2-x,-y,z
1/2+x,-y,-z
-x,y,-z
-x,-y,-z
1/2+x,y,-z
1/2-x,y,z
x,-y,z
loop_
_atom_site_type_symbol
_atom_site_label
_atom_site_fract_x
_atom_site_fract_y
_atom_site_fract_z
Si Si1 0.927130 0.135115 0.715069
Si Si2 0.425722 0.717057 0.402384
Si Si3 0.074573 0.649402 0.905838
Si Si4 0.429368 0.000000 0.601753
Si Si5 0.427758 0.826224 0.903990
Si Si6 0.073301 0.412901 0.710505
O O1 0.750000 0.116022 0.714426
O O2 0.961114 0.218259 0.673684
O O3 0.990899 0.129759 0.819972
O O4 0.016468 0.074812 0.654160
O O5 0.500000 0.741152 0.500000
O O6 0.250000 0.707144 0.420172
O O7 0.490223 0.637224 0.366833
O O8 0.250000 0.634770 0.917240
O O9 0.035017 0.737556 0.893265
O O10 0.011199 0.605487 0.814834
O O11 0.000000 0.616155 0.000000
O O12 0.500000 0.000000 0.500000
O O13 0.250000 0.000000 0.594119
O O14 0.250000 0.842895 0.902538
O O15 0.500000 0.857509 0.000000
O O16 0.250000 0.393620 0.706168
O O17 0.039257 0.500000 0.686250
#
# Coordination Sequence:
#
# PCOD8209846 Si02
#       6
#     8   8   8   4   8   8
#     4  11  23  41  65  94 125 160 201 247 298 359
#     4  11  24  40  62  87 114 151 198 247 300 358
#     4   9  18  32  53  82 116 154 196 243 294 350
#     4  12  26  44  67  96 129 164 200 246 302 356
#     4  10  19  34  59  90 124 162 202 249 297 354
#     4  10  21  38  58  82 116 156 199 249 302 355
#
# _framework density 19.802105999999998
#
# number of rings (size 3 to 8) (size 9 to 14) (size 15 to 20)
#    0.000    1.636    1.818    3.000    0.000    6.182 
#    0.000    0.455    0.000    0.000    0.000    0.000 
#    0.000    0.000    0.000    0.000    0.000    0.000 
#
# Total GULP energy -545814.507200 kJ/mol
# GULP energy per Si atom -12404.875164 kJ/mol
# Density = 1.975704 g / cm^3
# Si number density = 19.802106 Si / 1000 Ang^3
#
#
#
# Elastic Constant Matrix: (Units=GPa)
#
#
# Indices 1 2 3 4 5 6 
#
# 1 110.9477 54.1905 67.6299 0.0000 0.0000 0.0000
# 2 54.1905 76.5386 43.4093 0.0000 0.0000 0.0000
# 3 67.6299 43.4093 150.5855 0.0000 0.0000 0.0000
# 4 0.0000 0.0000 0.0000 -142.2959 0.0000 0.0000
# 5 0.0000 0.0000 0.0000 0.0000 42.4369 0.0000
# 6 0.0000 0.0000 0.0000 0.0000 0.0000 27.3847
#
#
#
# Elastic Compliance Matrix: (Units=1/GPa)
#
#
# Indices 1 2 3 4 5 6 
#
# 1 0.016188 -0.008772 -0.004742 0.000000 0.000000 0.000000
# 2 -0.008772 0.020373 -0.001933 0.000000 0.000000 0.000000
# 3 -0.004742 -0.001933 0.009327 0.000000 0.000000 0.000000
# 4 0.000000 0.000000 0.000000 -0.007028 0.000000 0.000000
# 5 0.000000 0.000000 0.000000 0.000000 0.023564 0.000000
# 6 0.000000 0.000000 0.000000 0.000000 0.000000 0.036517
#
#
# Mechanical properties :
#
#
# Convention : Reuss Voigt Hill
#
# Bulk Modulus (GPa) = 66.69129 74.28125 70.48627
# Shear Modulus (GPa) = 37.08267 -2.97206 17.05531
#
# Velocity S-wave (km/s) = 4.33212 -1.22643 2.93795
# Velocity P-wave (km/s) = 7.66649 5.96554 6.86887
#
# Compressibility (1/GPa) = 0.01499446
#
# Stress axis : x y z
#
# Youngs Moduli (GPa) = 61.77323 49.08555 107.21021
#
# Poissons Ratio (x) = 0.43060 0.50834
# Poissons Ratio (y) = 0.54190 0.20724
# Poissons Ratio (z) = 0.29290 0.09488
#
# Static dielectric constant tensor:
#      x y z
#    x 3.610210 0.000000 0.000000 
#    y 0.000000 3.298060 0.000000 
#    z 0.000000 0.000000 3.752890 
# 
# 
# High freq. dielectric constant tensor:
#      x y z
#    x 1.775930 0.000000 0.000000 
#    y 0.000000 1.758270 0.000000 
#    z 0.000000 0.000000 1.788100 
# 
# From -- ./inp_files/20911.got.cif
#   From: 2010.03.12/outbox.cif.g09.slc.cpg/sg51_11_cif.got.tgz:20911.got - 2010.04.16 13:43:02.
