data_PCOD8209442
_publ_section_title
;
Structure prediction by ZEFSAII (Michael W. Deem and Ramdas Pophale) SiO2 
 PCOD8209442
Probable space group: P M M A
;
_chemical_formula_sum "Si O2"
_cell_formula_units_Z 64
_cell_length_a 13.724069
_cell_length_b 8.927947
_cell_length_c 26.431291
_cell_angle_alpha 90.000000
_cell_angle_beta 90.000000
_cell_angle_gamma 90.000000
_cell_volume 3238.566897
_symmetry_space_group_name_H-M "P M M A"
_symmetry_group_IT_number 51
_symmetry_cell_setting 'orthorhombic'
loop_
_space_group_symop_operation_xyz
x,y,z
1/2-x,-y,z
1/2+x,-y,-z
-x,y,-z
-x,-y,-z
1/2+x,y,-z
1/2-x,y,z
x,-y,z
loop_
_atom_site_type_symbol
_atom_site_label
_atom_site_fract_x
_atom_site_fract_y
_atom_site_fract_z
Si Si1 0.454317 0.674620 0.374741
Si Si2 0.640906 0.674067 0.430449
Si Si3 0.865882 0.330390 0.024425
Si Si4 0.634182 0.829719 0.924312
Si Si5 0.360190 0.678156 0.272692
Si Si6 0.634870 0.167029 0.530632
Si Si7 0.138814 0.176995 0.872759
Si Si8 0.462099 0.678158 0.170605
O O1 0.431497 0.500000 0.375778
O O2 0.569677 0.706785 0.382964
O O3 0.419714 0.741777 0.321019
O O4 0.392370 0.744247 0.419507
O O5 0.750000 0.729772 0.416289
O O6 0.642269 0.500000 0.444380
O O7 0.594884 0.757549 0.479101
O O8 0.750000 0.329397 0.021596
O O9 0.905470 0.500000 0.029113
O O10 0.899812 0.234693 0.072916
O O11 0.909272 0.254161 0.973812
O O12 0.750000 0.829055 0.926773
O O13 0.601987 0.740900 0.874955
O O14 0.594490 0.000000 0.922676
O O15 0.250000 0.741058 0.274219
O O16 0.359042 0.500000 0.272979
O O17 0.413211 0.735768 0.222289
O O18 0.750000 0.167335 0.526240
O O19 0.592242 0.000000 0.534092
O O20 0.250000 0.226506 0.862754
O O21 0.071462 0.254771 0.830540
O O22 0.127313 0.000000 0.870801
O O23 0.466287 0.500000 0.167405
#
# Coordination Sequence:
#
# PCOD8209442 Si02
#       8
#     8   8   8   8   8   8   8   8
#     4  10  19  33  55  79 103 138 182 222 264 314
#     4   9  18  32  50  75 108 143 178 216 258 308
#     4   9  17  31  53  81 111 141 175 217 264 315
#     4  10  20  34  53  79 112 147 181 218 265 322
#     4   9  19  36  57  81 108 136 169 215 268 315
#     4  10  20  32  48  75 110 144 177 216 265 317
#     4  10  21  38  58  79 107 141 175 215 265 320
#     4  11  22  36  56  80 105 137 180 225 269 318
#
# _framework density 19.761828000000001
#
# number of rings (size 3 to 8) (size 9 to 14) (size 15 to 20)
#    0.000    2.250    0.000    3.000    0.000    7.250 
#    0.000    4.375    0.000    5.250    0.000    1.750 
#    0.000    0.000    0.000    0.000    0.000    0.000 
#
# Total GULP energy -793653.221939 kJ/mol
# GULP energy per Si atom -12400.831593 kJ/mol
# Density = 1.971685 g / cm^3
# Si number density = 19.761828 Si / 1000 Ang^3
#
#
#
# Elastic Constant Matrix: (Units=GPa)
#
#
# Indices 1 2 3 4 5 6 
#
# 1 81.2322 32.2247 74.7968 0.0000 0.0000 0.0000
# 2 32.2247 79.7814 46.9366 0.0000 0.0000 0.0000
# 3 74.7968 46.9366 161.2222 0.0000 0.0000 0.0000
# 4 0.0000 0.0000 0.0000 3.0111 0.0000 0.0000
# 5 0.0000 0.0000 0.0000 0.0000 35.5905 0.0000
# 6 0.0000 0.0000 0.0000 0.0000 0.0000 23.9772
#
#
#
# Elastic Compliance Matrix: (Units=1/GPa)
#
#
# Indices 1 2 3 4 5 6 
#
# 1 0.022282 -0.003521 -0.009312 0.000000 0.000000 0.000000
# 2 -0.003521 0.015681 -0.002932 0.000000 0.000000 0.000000
# 3 -0.009312 -0.002932 0.011376 0.000000 0.000000 0.000000
# 4 0.000000 0.000000 0.000000 0.332108 0.000000 0.000000
# 5 0.000000 0.000000 0.000000 0.000000 0.028097 0.000000
# 6 0.000000 0.000000 0.000000 0.000000 0.000000 0.041706
#
#
# Mechanical properties :
#
#
# Convention : Reuss Voigt Hill
#
# Bulk Modulus (GPa) = 56.15101 70.01689 63.08395
# Shear Modulus (GPa) = 10.23087 23.73427 16.98257
#
# Velocity S-wave (km/s) = 2.27779 3.46933 2.93467
# Velocity P-wave (km/s) = 5.94923 7.18022 6.59352
#
# Compressibility (1/GPa) = 0.01780912
#
# Stress axis : x y z
#
# Youngs Moduli (GPa) = 44.87990 63.77031 87.90191
#
# Poissons Ratio (x) = 0.22456 0.81855
# Poissons Ratio (y) = 0.15804 0.25769
# Poissons Ratio (z) = 0.41793 0.18695
#
# Static dielectric constant tensor:
#      x y z
#    x 3.805930 0.000000 0.000000 
#    y 0.000000 3.585020 0.000000 
#    z 0.000000 0.000000 3.619470 
# 
# 
# High freq. dielectric constant tensor:
#      x y z
#    x 1.786270 0.000000 0.000000 
#    y 0.000000 1.761310 0.000000 
#    z 0.000000 0.000000 1.754260 
# 
# From -- ./inp_files/35837.got.cif
#   From: 2010.03.12/outbox.cif.g09.slc.cpg/sg51_18_cif.got.tgz:35837.got - 2010.04.16 13:43:02.
