data_PCOD8209387
_publ_section_title
;
Structure prediction by ZEFSAII (Michael W. Deem and Ramdas Pophale) SiO2 
 PCOD8209387
Probable space group: P M M A
;
_chemical_formula_sum "Si O2"
_cell_formula_units_Z 48
_cell_length_a 8.976407
_cell_length_b 31.342231
_cell_length_c 9.118350
_cell_angle_alpha 90.000000
_cell_angle_beta 90.000000
_cell_angle_gamma 90.000000
_cell_volume 2565.362258
_symmetry_space_group_name_H-M "P M M A"
_symmetry_group_IT_number 51
_symmetry_cell_setting 'orthorhombic'
loop_
_space_group_symop_operation_xyz
x,y,z
1/2-x,-y,z
1/2+x,-y,-z
-x,y,-z
-x,-y,-z
1/2+x,y,-z
1/2-x,y,z
x,-y,z
loop_
_atom_site_type_symbol
_atom_site_label
_atom_site_fract_x
_atom_site_fract_y
_atom_site_fract_z
Si Si1 0.073039 0.418310 0.843563
Si Si2 0.076122 0.500000 0.655819
Si Si3 0.925272 0.160189 0.657695
Si Si4 0.573973 0.345078 0.659879
Si Si5 0.073994 0.081014 0.156000
Si Si6 0.079316 0.747713 0.348359
Si Si7 0.425189 0.000000 0.343538
O O1 0.250000 0.413605 0.859625
O O2 0.026548 0.458304 0.744342
O O3 0.005116 0.376176 0.772578
O O4 0.000000 0.425957 0.000000
O O5 0.250000 0.500000 0.627549
O O6 0.000000 0.500000 0.500000
O O7 0.750000 0.154139 0.634436
O O8 0.985397 0.124528 0.769023
O O9 0.964798 0.207196 0.729229
O O10 0.000000 0.154374 0.500000
O O11 0.500000 0.349938 0.500000
O O12 0.750000 0.355196 0.646469
O O13 0.546252 0.297532 0.731459
O O14 0.250000 0.081577 0.134392
O O15 0.022047 0.041671 0.255821
O O16 0.000000 0.075769 0.000000
O O17 0.250000 0.750151 0.389331
O O18 0.000000 0.745268 0.500000
O O19 0.500000 0.000000 0.500000
O O20 0.250000 0.000000 0.367200
#
# Coordination Sequence:
#
# PCOD8209387 Si02
#       7
#     8   4   8   8   8   8   4
#     4  11  23  39  57  80 109 142 177 215 261 312
#     4  10  23  40  60  84 108 136 173 214 257 306
#     4   9  17  31  51  75 101 132 171 214 255 302
#     4  10  19  33  54  80 108 140 177 219 262 308
#     4  10  21  35  51  73 103 135 169 207 252 304
#     4   8  15  28  48  73 102 133 169 213 258 299
#     4  10  21  36  54  78 102 128 165 210 254 302
#
# _framework density 18.710808
#
# number of rings (size 3 to 8) (size 9 to 14) (size 15 to 20)
#    0.000    2.333    0.000    2.500    0.000    4.667 
#    0.000    0.833    0.000    2.000    0.000    0.000 
#    0.000    0.000    0.000    0.000    0.000    0.000 
#
# Total GULP energy -594815.137753 kJ/mol
# GULP energy per Si atom -12391.982037 kJ/mol
# Density = 1.866822 g / cm^3
# Si number density = 18.710808 Si / 1000 Ang^3
#
#
#
# Elastic Constant Matrix: (Units=GPa)
#
#
# Indices 1 2 3 4 5 6 
#
# 1 54.0862 53.8112 47.2894 0.0000 0.0000 0.0000
# 2 53.8112 187.2190 87.1862 0.0000 0.0000 0.0000
# 3 47.2894 87.1862 136.5285 0.0000 0.0000 0.0000
# 4 0.0000 0.0000 0.0000 3.6694 0.0000 0.0000
# 5 0.0000 0.0000 0.0000 0.0000 33.8396 0.0000
# 6 0.0000 0.0000 0.0000 0.0000 0.0000 21.6794
#
#
#
# Elastic Compliance Matrix: (Units=1/GPa)
#
#
# Indices 1 2 3 4 5 6 
#
# 1 0.029879 -0.005363 -0.006924 0.000000 0.000000 0.000000
# 2 -0.005363 0.008565 -0.003612 0.000000 0.000000 0.000000
# 3 -0.006924 -0.003612 0.012029 0.000000 0.000000 0.000000
# 4 0.000000 0.000000 0.000000 0.272525 0.000000 0.000000
# 5 0.000000 0.000000 0.000000 0.000000 0.029551 0.000000
# 6 0.000000 0.000000 0.000000 0.000000 0.000000 0.046127
#
#
# Mechanical properties :
#
#
# Convention : Reuss Voigt Hill
#
# Bulk Modulus (GPa) = 53.54876 83.82305 68.68591
# Shear Modulus (GPa) = 11.44950 24.47413 17.96181
#
# Velocity S-wave (km/s) = 2.47638 3.62058 3.10170
# Velocity P-wave (km/s) = 6.07107 7.89776 7.04388
#
# Compressibility (1/GPa) = 0.01867457
#
# Stress axis : x y z
#
# Youngs Moduli (GPa) = 33.46799 116.75592 83.13071
#
# Poissons Ratio (x) = 0.62622 0.57562
# Poissons Ratio (y) = 0.17950 0.30025
# Poissons Ratio (z) = 0.23174 0.42169
#
# Static dielectric constant tensor:
#      x y z
#    x 3.451230 0.000000 0.000000 
#    y 0.000000 4.303870 0.000000 
#    z 0.000000 0.000000 3.152160 
# 
# 
# High freq. dielectric constant tensor:
#      x y z
#    x 1.727230 0.000000 0.000000 
#    y 0.000000 1.758300 0.000000 
#    z 0.000000 0.000000 1.700260 
# 
# From -- ./inp_files/6154.got.cif
#   From: 2010.03.12/outbox.cif.g09.slc.cpg/sg51_4_cif.got.tgz:6154.got - 2010.04.16 13:43:02.
