data_PCOD8209833
_publ_section_title
;
Structure prediction by ZEFSAII (Michael W. Deem and Ramdas Pophale) SiO2 
 PCOD8209833
Probable space group: P M M A
;
_chemical_formula_sum "Si O2"
_cell_formula_units_Z 56
_cell_length_a 19.006933
_cell_length_b 8.864355
_cell_length_c 17.473669
_cell_angle_alpha 90.000000
_cell_angle_beta 90.000000
_cell_angle_gamma 90.000000
_cell_volume 2944.037170
_symmetry_space_group_name_H-M "P M M A"
_symmetry_group_IT_number 51
_symmetry_cell_setting 'orthorhombic'
loop_
_space_group_symop_operation_xyz
x,y,z
1/2-x,-y,z
1/2+x,-y,-z
-x,y,-z
-x,-y,-z
1/2+x,y,-z
1/2-x,y,z
x,-y,z
loop_
_atom_site_type_symbol
_atom_site_label
_atom_site_fract_x
_atom_site_fract_y
_atom_site_fract_z
Si Si1 0.941953 0.173232 0.696424
Si Si2 0.418734 0.323711 0.883307
Si Si3 0.831216 0.178016 0.982062
Si Si4 0.397890 0.171677 0.730303
Si Si5 0.428455 0.676170 0.460960
Si Si6 0.078512 0.677965 0.146831
Si Si7 0.831237 0.830392 0.424396
O O1 0.911771 0.238432 0.617729
O O2 0.908994 0.262714 0.767594
O O3 0.025407 0.194871 0.694566
O O4 0.919418 0.000000 0.704114
O O5 0.409786 0.500000 0.899413
O O6 0.385162 0.282741 0.801357
O O7 0.500965 0.275754 0.884222
O O8 0.377266 0.232868 0.947040
O O9 0.750000 0.227601 0.992591
O O10 0.861327 0.250527 0.905142
O O11 0.838049 0.000000 0.975478
O O12 0.343294 0.216211 0.663980
O O13 0.387200 0.000000 0.758926
O O14 0.500000 0.735074 0.500000
O O15 0.432546 0.500000 0.443094
O O16 0.366283 0.710790 0.519556
O O17 0.086875 0.500000 0.146442
O O18 0.750000 0.825924 0.443018
O O19 0.861737 0.000000 0.437247
#
# Coordination Sequence:
#
# PCOD8209833 Si02
#       7
#     8   8   8   8   8   8   8
#     4  10  19  34  59  86 112 145 188 234 280 333
#     4  10  21  36  58  87 117 148 187 232 282 339
#     4  11  24  40  58  82 113 151 195 238 282 336
#     4   9  18  33  54  82 113 146 184 228 278 333
#     4  11  22  35  56  84 115 149 189 236 284 333
#     4  10  21  38  60  87 118 147 184 235 288 340
#     4  10  21  37  56  80 113 152 192 234 283 340
#
# _framework density 19.021497
#
# number of rings (size 3 to 8) (size 9 to 14) (size 15 to 20)
#    0.000    1.857    1.429    2.571    0.000    7.143 
#    0.000    2.143    0.000    4.286    0.000    0.000 
#    0.000    0.000    0.000    0.000    0.000    0.000 
#
# Total GULP energy -694619.296178 kJ/mol
# GULP energy per Si atom -12403.916003 kJ/mol
# Density = 1.897820 g / cm^3
# Si number density = 19.021497 Si / 1000 Ang^3
#
#
#
# Elastic Constant Matrix: (Units=GPa)
#
#
# Indices 1 2 3 4 5 6 
#
# 1 62.5683 35.1821 43.0745 0.0000 0.0000 0.0000
# 2 35.1821 74.7340 44.1766 0.0000 0.0000 0.0000
# 3 43.0745 44.1766 116.9169 0.0000 0.0000 0.0000
# 4 0.0000 0.0000 0.0000 30.4279 0.0000 0.0000
# 5 0.0000 0.0000 0.0000 0.0000 24.2828 0.0000
# 6 0.0000 0.0000 0.0000 0.0000 0.0000 23.1466
#
#
#
# Elastic Compliance Matrix: (Units=1/GPa)
#
#
# Indices 1 2 3 4 5 6 
#
# 1 0.024667 -0.008035 -0.006052 0.000000 0.000000 0.000000
# 2 -0.008035 0.019846 -0.004539 0.000000 0.000000 0.000000
# 3 -0.006052 -0.004539 0.012498 0.000000 0.000000 0.000000
# 4 0.000000 0.000000 0.000000 0.032865 0.000000 0.000000
# 5 0.000000 0.000000 0.000000 0.000000 0.041181 0.000000
# 6 0.000000 0.000000 0.000000 0.000000 0.000000 0.043203
#
#
# Mechanical properties :
#
#
# Convention : Reuss Voigt Hill
#
# Bulk Modulus (GPa) = 50.60728 55.45394 53.03061
# Shear Modulus (GPa) = 22.92563 24.35723 23.64143
#
# Velocity S-wave (km/s) = 3.47543 3.58230 3.52927
# Velocity P-wave (km/s) = 6.53972 6.80640 6.67439
#
# Compressibility (1/GPa) = 0.01976000
#
# Stress axis : x y z
#
# Youngs Moduli (GPa) = 40.54018 50.38758 80.01565
#
# Poissons Ratio (x) = 0.40486 0.48424
# Poissons Ratio (y) = 0.32574 0.36316
# Poissons Ratio (z) = 0.24534 0.22869
#
# Static dielectric constant tensor:
#      x y z
#    x 3.362400 0.000000 0.000000 
#    y 0.000000 3.516950 0.000000 
#    z 0.000000 0.000000 3.537820 
# 
# 
# High freq. dielectric constant tensor:
#      x y z
#    x 1.717660 0.000000 0.000000 
#    y 0.000000 1.745480 0.000000 
#    z 0.000000 0.000000 1.750850 
# 
# From -- ./inp_files/25746.got.cif
#   From: 2010.03.12/outbox.cif.g09.slc.cpg/sg51_13_cif.got.tgz:25746.got - 2010.04.16 13:43:02.
