data_PCOD8209642
_publ_section_title
;
Structure prediction by ZEFSAII (Michael W. Deem and Ramdas Pophale) SiO2 
 PCOD8209642
Probable space group: P M M A
;
_chemical_formula_sum "Si O2"
_cell_formula_units_Z 64
_cell_length_a 23.588260
_cell_length_b 13.004600
_cell_length_c 10.391706
_cell_angle_alpha 90.000000
_cell_angle_beta 90.000000
_cell_angle_gamma 90.000000
_cell_volume 3187.716981
_symmetry_space_group_name_H-M "P M M A"
_symmetry_group_IT_number 51
_symmetry_cell_setting 'orthorhombic'
loop_
_space_group_symop_operation_xyz
x,y,z
1/2-x,-y,z
1/2+x,-y,-z
-x,y,-z
-x,-y,-z
1/2+x,y,-z
1/2-x,y,z
x,-y,z
loop_
_atom_site_type_symbol
_atom_site_label
_atom_site_fract_x
_atom_site_fract_y
_atom_site_fract_z
Si Si1 0.614699 0.116069 0.913924
Si Si2 0.813897 0.681786 0.562103
Si Si3 0.599787 0.121912 0.199635
Si Si4 0.511490 0.235662 0.860199
Si Si5 0.893384 0.381787 0.786618
Si Si6 0.815352 0.729490 0.285398
Si Si7 0.813769 0.886072 0.687468
Si Si8 0.685653 0.621616 0.021008
O O1 0.548554 0.134203 0.888421
O O2 0.652600 0.171303 0.804752
O O3 0.630744 0.000000 0.888668
O O4 0.628698 0.143801 0.060662
O O5 0.750000 0.645908 0.599706
O O6 0.857947 0.624332 0.654295
O O7 0.826237 0.658258 0.411661
O O8 0.819107 0.806300 0.570385
O O9 0.543207 0.192042 0.214547
O O10 0.646059 0.167447 0.297519
O O11 0.587932 0.000000 0.222302
O O12 0.547926 0.317141 0.776140
O O13 0.500000 0.287810 0.000000
O O14 0.909839 0.500000 0.808412
O O15 0.857380 0.338840 0.909693
O O16 0.750000 0.764071 0.280261
O O17 0.833312 0.664862 0.159670
O O18 0.750000 0.896607 0.736572
O O19 0.836569 0.000000 0.645795
O O20 0.750000 0.656486 0.987039
O O21 0.682469 0.500000 0.029192
#
# Coordination Sequence:
#
# PCOD8209642 Si02
#       8
#     8   8   8   8   8   8   8   8
#     4   9  16  29  52  80 110 146 188 235 284 333
#     4  10  21  37  57  84 118 154 191 231 281 344
#     4  10  21  36  56  83 114 151 193 232 277 339
#     4  10  19  34  55  82 116 152 188 236 290 339
#     4  11  22  37  60  88 113 146 194 246 291 336
#     4  10  22  38  58  85 118 155 187 228 288 347
#     4   9  17  29  49  78 110 144 184 231 282 333
#     4   9  18  34  57  86 117 148 187 237 292 347
#
# _framework density 20.077064
#
# number of rings (size 3 to 8) (size 9 to 14) (size 15 to 20)
#    0.000    2.250    1.250    2.250    0.000    4.250 
#    0.000    5.000    0.000    1.500    0.000    0.000 
#    0.000    0.000    0.000    0.000    0.000    0.000 
#
# Total GULP energy -793026.938045 kJ/mol
# GULP energy per Si atom -12391.045907 kJ/mol
# Density = 2.003137 g / cm^3
# Si number density = 20.077064 Si / 1000 Ang^3
#
#
#
# Elastic Constant Matrix: (Units=GPa)
#
#
# Indices 1 2 3 4 5 6 
#
# 1 83.4506 21.5308 43.3882 0.0000 0.0000 0.0000
# 2 21.5308 47.1751 28.3092 0.0000 0.0000 0.0000
# 3 43.3882 28.3092 87.1590 0.0000 0.0000 0.0000
# 4 0.0000 0.0000 0.0000 18.0590 0.0000 0.0000
# 5 0.0000 0.0000 0.0000 0.0000 22.7515 0.0000
# 6 0.0000 0.0000 0.0000 0.0000 0.0000 24.8783
#
#
#
# Elastic Compliance Matrix: (Units=1/GPa)
#
#
# Indices 1 2 3 4 5 6 
#
# 1 0.016558 -0.003243 -0.007189 0.000000 0.000000 0.000000
# 2 -0.003243 0.026964 -0.007144 0.000000 0.000000 0.000000
# 3 -0.007189 -0.007144 0.017372 0.000000 0.000000 0.000000
# 4 0.000000 0.000000 0.000000 0.055374 0.000000 0.000000
# 5 0.000000 0.000000 0.000000 0.000000 0.043953 0.000000
# 6 0.000000 0.000000 0.000000 0.000000 0.000000 0.040196
#
#
# Mechanical properties :
#
#
# Convention : Reuss Voigt Hill
#
# Bulk Modulus (GPa) = 38.84551 44.91566 41.88059
# Shear Modulus (GPa) = 20.47920 21.44152 20.96036
#
# Velocity S-wave (km/s) = 3.19726 3.27151 3.23460
# Velocity P-wave (km/s) = 5.74631 6.05728 5.90384
#
# Compressibility (1/GPa) = 0.02574300
#
# Stress axis : x y z
#
# Youngs Moduli (GPa) = 60.39498 37.08580 57.56252
#
# Poissons Ratio (x) = 0.12026 0.41383
# Poissons Ratio (y) = 0.19585 0.41121
# Poissons Ratio (z) = 0.43419 0.26493
#
# Static dielectric constant tensor:
#      x y z
#    x 3.582650 0.000000 0.000000 
#    y 0.000000 3.592880 0.000000 
#    z 0.000000 0.000000 3.506540 
# 
# 
# High freq. dielectric constant tensor:
#      x y z
#    x 1.772020 0.000000 0.000000 
#    y 0.000000 1.785520 0.000000 
#    z 0.000000 0.000000 1.764570 
# 
# From -- ./inp_files/11862.got.cif
#   From: 2010.03.12/outbox.cif.g09.slc.cpg/sg51_6_cif.got.tgz:11862.got - 2010.04.16 13:43:02.
