data_PCOD8209576
_publ_section_title
;
Structure prediction by ZEFSAII (Michael W. Deem and Ramdas Pophale) SiO2 
 PCOD8209576
Probable space group: P M M A
;
_chemical_formula_sum "Si O2"
_cell_formula_units_Z 44
_cell_length_a 8.698773
_cell_length_b 16.771770
_cell_length_c 15.851711
_cell_angle_alpha 90.000000
_cell_angle_beta 90.000000
_cell_angle_gamma 90.000000
_cell_volume 2312.666672
_symmetry_space_group_name_H-M "P M M A"
_symmetry_group_IT_number 51
_symmetry_cell_setting 'orthorhombic'
loop_
_space_group_symop_operation_xyz
x,y,z
1/2-x,-y,z
1/2+x,-y,-z
-x,y,-z
-x,-y,-z
1/2+x,y,-z
1/2-x,y,z
x,-y,z
loop_
_atom_site_type_symbol
_atom_site_label
_atom_site_fract_x
_atom_site_fract_y
_atom_site_fract_z
Si Si1 0.076168 0.365337 0.695995
Si Si2 0.077479 0.585350 0.882011
Si Si3 0.068701 0.908815 0.412051
Si Si4 0.566244 0.759570 0.085829
Si Si5 0.931509 0.500000 0.590191
Si Si6 0.069104 0.202092 0.259805
O O1 0.250000 0.343081 0.668570
O O2 0.079313 0.414722 0.781702
O O3 0.993909 0.419252 0.628780
O O4 0.974343 0.286879 0.702696
O O5 0.250000 0.584726 0.917695
O O6 0.997666 0.500000 0.909986
O O7 0.998476 0.667915 0.912849
O O8 0.250000 0.900013 0.419115
O O9 0.009445 0.862433 0.328491
O O10 0.000000 0.874247 0.500000
O O11 0.015679 0.000000 0.400507
O O12 0.750000 0.759750 0.087266
O O13 0.510030 0.809103 0.167639
O O14 0.500000 0.799401 0.000000
O O15 0.750000 0.500000 0.593002
O O16 0.000000 0.500000 0.500000
O O17 0.250000 0.194684 0.245846
#
# Coordination Sequence:
#
# PCOD8209576 Si02
#       6
#     8   8   8   8   4   8
#     4  10  19  34  53  72 100 137 178 223 271 323
#     4   8  14  27  48  69  92 127 169 214 266 317
#     4   9  19  36  59  87 117 146 175 216 271 329
#     4  10  20  33  51  75 106 144 186 232 280 332
#     4  12  24  36  50  70  97 134 181 230 280 328
#     4  10  20  35  56  82 112 145 184 226 270 329
#
# _framework density 19.025656000000001
#
# number of rings (size 3 to 8) (size 9 to 14) (size 15 to 20)
#    0.000    2.364    0.909    3.545    0.000    2.545 
#    0.000    1.818    0.000    0.545    0.000    0.000 
#    0.000    0.000    0.000    0.000    0.000    0.000 
#
# Total GULP energy -545140.753788 kJ/mol
# GULP energy per Si atom -12389.562586 kJ/mol
# Density = 1.898235 g / cm^3
# Si number density = 19.025656 Si / 1000 Ang^3
#
#
#
# Elastic Constant Matrix: (Units=GPa)
#
#
# Indices 1 2 3 4 5 6 
#
# 1 55.3000 12.6397 48.7458 0.0000 0.0000 0.0000
# 2 12.6397 64.4935 56.0848 0.0000 0.0000 0.0000
# 3 48.7458 56.0848 167.4062 0.0000 0.0000 0.0000
# 4 0.0000 0.0000 0.0000 -78.5610 0.0000 0.0000
# 5 0.0000 0.0000 0.0000 0.0000 32.0359 0.0000
# 6 0.0000 0.0000 0.0000 0.0000 0.0000 20.1266
#
#
#
# Elastic Compliance Matrix: (Units=1/GPa)
#
#
# Indices 1 2 3 4 5 6 
#
# 1 0.024505 0.001979 -0.007798 0.000000 0.000000 0.000000
# 2 0.001979 0.022040 -0.007960 0.000000 0.000000 0.000000
# 3 -0.007798 -0.007960 0.010911 0.000000 0.000000 0.000000
# 4 0.000000 0.000000 0.000000 -0.012729 0.000000 0.000000
# 5 0.000000 0.000000 0.000000 0.000000 0.031215 0.000000
# 6 0.000000 0.000000 0.000000 0.000000 0.000000 0.049686
#
#
# Mechanical properties :
#
#
# Convention : Reuss Voigt Hill
#
# Bulk Modulus (GPa) = 33.44820 58.01558 45.73189
# Shear Modulus (GPa) = 30.64624 6.03559 18.34091
#
# Velocity S-wave (km/s) = 4.01781 1.78304 3.10822
# Velocity P-wave (km/s) = 6.25640 5.89903 6.08034
#
# Compressibility (1/GPa) = 0.02989697
#
# Stress axis : x y z
#
# Youngs Moduli (GPa) = 40.80794 45.37242 91.64992
#
# Poissons Ratio (x) = -0.08980 0.71473
# Poissons Ratio (y) = -0.08076 0.72954
# Poissons Ratio (z) = 0.31824 0.36117
#
# Static dielectric constant tensor:
#      x y z
#    x 3.382160 0.000000 0.000000 
#    y 0.000000 3.425530 0.000000 
#    z 0.000000 0.000000 3.646900 
# 
# 
# High freq. dielectric constant tensor:
#      x y z
#    x 1.729800 0.000000 0.000000 
#    y 0.000000 1.713660 0.000000 
#    z 0.000000 0.000000 1.748470 
# 
# From -- ./inp_files/20889.got.cif
#   From: 2010.03.12/outbox.cif.g09.slc.cpg/sg51_11_cif.got.tgz:20889.got - 2010.04.16 13:43:02.
