data_PCOD8209243
_publ_section_title
;
Structure prediction by ZEFSAII (Michael W. Deem and Ramdas Pophale) SiO2 
 PCOD8209243
Probable space group: P M M A
;
_chemical_formula_sum "Si O2"
_cell_formula_units_Z 52
_cell_length_a 8.863155
_cell_length_b 15.818281
_cell_length_c 21.003993
_cell_angle_alpha 90.000000
_cell_angle_beta 90.000000
_cell_angle_gamma 90.000000
_cell_volume 2944.757221
_symmetry_space_group_name_H-M "P M M A"
_symmetry_group_IT_number 51
_symmetry_cell_setting 'orthorhombic'
loop_
_space_group_symop_operation_xyz
x,y,z
1/2-x,-y,z
1/2+x,-y,-z
-x,y,-z
-x,-y,-z
1/2+x,y,-z
1/2-x,y,z
x,-y,z
loop_
_atom_site_type_symbol
_atom_site_label
_atom_site_fract_x
_atom_site_fract_y
_atom_site_fract_z
Si Si1 0.927294 0.500000 0.352737
Si Si2 0.415324 0.241893 0.321178
Si Si3 0.918438 0.360070 0.565790
Si Si4 0.924548 0.157167 0.143219
Si Si5 0.420032 0.090367 0.715404
Si Si6 0.931420 0.000000 0.930473
Si Si7 0.070084 0.676785 0.191377
Si Si8 0.569306 0.500000 0.207749
O O1 0.750000 0.500000 0.351172
O O2 0.989365 0.500000 0.280896
O O3 0.983569 0.420829 0.391542
O O4 0.250000 0.216887 0.296672
O O5 0.409347 0.276960 0.392106
O O6 0.508342 0.157258 0.331854
O O7 0.479554 0.302854 0.264965
O O8 0.750000 0.396254 0.552676
O O9 0.000000 0.340413 0.500000
O O10 0.750000 0.166100 0.120582
O O11 0.934077 0.122333 0.213526
O O12 0.004382 0.250238 0.143795
O O13 0.010761 0.087529 0.101004
O O14 0.250000 0.079912 0.693978
O O15 0.503241 0.000000 0.709408
O O16 0.750000 0.000000 0.930649
O O17 0.000000 0.000000 0.000000
O O18 0.250000 0.670662 0.182440
O O19 0.996718 0.585197 0.174655
O O20 0.750000 0.500000 0.201930
#
# Coordination Sequence:
#
# PCOD8209243 Si02
#       8
#     4   8   8   8   8   4   8   4
#     4  11  22  34  49  69  94 127 167 207 256 317
#     4   9  19  32  47  69  95 125 162 208 261 312
#     4  11  22  36  50  66  91 124 164 210 260 316
#     4  10  19  35  54  79 114 148 183 223 264 316
#     4   9  17  30  50  75 102 131 162 202 254 307
#     4  12  24  38  58  86 120 160 195 226 265 310
#     4  10  19  33  52  76 106 141 179 223 273 323
#     4  11  21  32  50  77 106 141 180 221 274 327
#
# _framework density 17.658501000000001
#
# number of rings (size 3 to 8) (size 9 to 14) (size 15 to 20)
#    0.000    1.846    2.308    2.769    0.000    3.385 
#    0.000    0.000    0.000    0.462    0.000    0.538 
#    0.000    0.000    0.000    0.000    0.000    0.000 
#
# Total GULP energy -644329.427162 kJ/mol
# GULP energy per Si atom -12390.950522 kJ/mol
# Density = 1.761831 g / cm^3
# Si number density = 17.658501 Si / 1000 Ang^3
#
#
#
# Elastic Constant Matrix: (Units=GPa)
#
#
# Indices 1 2 3 4 5 6 
#
# 1 98.5465 60.6667 32.7940 0.0000 0.0000 0.0000
# 2 60.6667 152.0747 31.0179 0.0000 0.0000 0.0000
# 3 32.7940 31.0179 49.5574 0.0000 0.0000 0.0000
# 4 0.0000 0.0000 0.0000 37.7488 0.0000 0.0000
# 5 0.0000 0.0000 0.0000 0.0000 22.8217 0.0000
# 6 0.0000 0.0000 0.0000 0.0000 0.0000 35.1923
#
#
#
# Elastic Compliance Matrix: (Units=1/GPa)
#
#
# Indices 1 2 3 4 5 6 
#
# 1 0.015456 -0.004677 -0.007301 0.000000 0.000000 0.000000
# 2 -0.004677 0.008953 -0.002509 0.000000 0.000000 0.000000
# 3 -0.007301 -0.002509 0.026580 0.000000 0.000000 0.000000
# 4 0.000000 0.000000 0.000000 0.026491 0.000000 0.000000
# 5 0.000000 0.000000 0.000000 0.000000 0.043818 0.000000
# 6 0.000000 0.000000 0.000000 0.000000 0.000000 0.028415
#
#
# Mechanical properties :
#
#
# Convention : Reuss Voigt Hill
#
# Bulk Modulus (GPa) = 45.42051 61.01510 53.21780
# Shear Modulus (GPa) = 26.87809 30.86589 28.87199
#
# Velocity S-wave (km/s) = 3.90565 4.18537 4.04792
# Velocity P-wave (km/s) = 6.79089 7.61474 7.21458
#
# Compressibility (1/GPa) = 0.02201649
#
# Stress axis : x y z
#
# Youngs Moduli (GPa) = 64.69944 111.69265 37.62213
#
# Poissons Ratio (x) = 0.52236 0.27467
# Poissons Ratio (y) = 0.30258 0.09439
# Poissons Ratio (z) = 0.47235 0.28023
#
# Static dielectric constant tensor:
#      x y z
#    x 3.532920 0.000000 0.000000 
#    y 0.000000 3.352090 0.000000 
#    z 0.000000 0.000000 3.013880 
# 
# 
# High freq. dielectric constant tensor:
#      x y z
#    x 1.695820 0.000000 0.000000 
#    y 0.000000 1.691420 0.000000 
#    z 0.000000 0.000000 1.638410 
# 
# From -- ./inp_files/31833.got.cif
#   From: 2010.03.12/outbox.cif.g09.slc.cpg/sg51_16_cif.got.tgz:31833.got - 2010.04.16 13:43:02.
