data_PCOD8209188
_publ_section_title
;
Structure prediction by ZEFSAII (Michael W. Deem and Ramdas Pophale) SiO2 
 PCOD8209188
Probable space group: P M M A
;
_chemical_formula_sum "Si O2"
_cell_formula_units_Z 64
_cell_length_a 14.243659
_cell_length_b 17.587312
_cell_length_c 15.713881
_cell_angle_alpha 90.000000
_cell_angle_beta 90.000000
_cell_angle_gamma 90.000000
_cell_volume 3936.447792
_symmetry_space_group_name_H-M "P M M A"
_symmetry_group_IT_number 51
_symmetry_cell_setting 'orthorhombic'
loop_
_space_group_symop_operation_xyz
x,y,z
1/2-x,-y,z
1/2+x,-y,-z
-x,y,-z
-x,-y,-z
1/2+x,y,-z
1/2-x,y,z
x,-y,z
loop_
_atom_site_type_symbol
_atom_site_label
_atom_site_fract_x
_atom_site_fract_y
_atom_site_fract_z
Si Si1 0.356330 0.698109 0.778152
Si Si2 0.354510 0.679651 0.335176
Si Si3 0.640794 0.190889 0.547059
Si Si4 0.986946 0.709523 0.901567
Si Si5 0.988744 0.411041 0.769455
Si Si6 0.959472 0.911093 0.681113
Si Si7 0.856308 0.190609 0.806335
Si Si8 0.644037 0.167455 0.351725
O O1 0.250000 0.682587 0.806289
O O2 0.413386 0.733507 0.858422
O O3 0.405157 0.618319 0.750584
O O4 0.363532 0.754015 0.698630
O O5 0.250000 0.645366 0.342938
O O6 0.384897 0.723362 0.421648
O O7 0.423988 0.610819 0.311669
O O8 0.359669 0.743582 0.263113
O O9 0.750000 0.175181 0.566435
O O10 0.582497 0.127355 0.596858
O O11 0.616140 0.185857 0.448371
O O12 0.950745 0.631882 0.854874
O O13 0.912598 0.778289 0.888722
O O14 0.000000 0.692317 0.000000
O O15 0.987125 0.500000 0.785308
O O16 0.907601 0.882861 0.766784
O O17 0.070829 0.892945 0.686651
O O18 0.943756 0.000000 0.673308
O O19 0.750000 0.169552 0.832711
O O20 0.750000 0.134079 0.345097
#
# Coordination Sequence:
#
# PCOD8209188 Si02
#       8
#     8   8   8   8   8   8   8   8
#     4   9  18  33  51  69  93 130 170 199 233 285
#     4   8  14  28  48  68  93 127 168 204 235 276
#     4   9  18  30  48  72  96 128 170 210 242 277
#     4   9  18  33  53  77  97 120 160 204 246 283
#     4   9  18  30  46  71 103 129 154 190 244 303
#     4  11  20  31  47  72 105 132 157 195 245 298
#     4   9  17  32  51  71  96 127 162 197 237 287
#     4  10  19  33  50  68  94 131 174 210 238 278
#
# _framework density 16.258313000000001
#
# number of rings (size 3 to 8) (size 9 to 14) (size 15 to 20)
#    0.750    2.000    1.250    2.250    0.000    3.500 
#    0.000    1.250    0.000    1.875    0.000    3.500 
#    0.000    0.000    0.000    0.000    0.000    0.000 
#
# Total GULP energy -793099.452441 kJ/mol
# GULP energy per Si atom -12392.178944 kJ/mol
# Density = 1.622131 g / cm^3
# Si number density = 16.258313 Si / 1000 Ang^3
#
#
#
# Elastic Constant Matrix: (Units=GPa)
#
#
# Indices 1 2 3 4 5 6 
#
# 1 118.6573 52.3740 40.5856 0.0000 0.0000 0.0000
# 2 52.3740 82.5598 54.2015 0.0000 0.0000 0.0000
# 3 40.5856 54.2015 42.5309 0.0000 0.0000 0.0000
# 4 0.0000 0.0000 0.0000 11.3622 0.0000 0.0000
# 5 0.0000 0.0000 0.0000 0.0000 14.2664 0.0000
# 6 0.0000 0.0000 0.0000 0.0000 0.0000 12.2766
#
#
#
# Elastic Compliance Matrix: (Units=1/GPa)
#
#
# Indices 1 2 3 4 5 6 
#
# 1 0.012516 -0.000605 -0.011173 0.000000 0.000000 0.000000
# 2 -0.000605 0.074184 -0.093963 0.000000 0.000000 0.000000
# 3 -0.011173 -0.093963 0.153921 0.000000 0.000000 0.000000
# 4 0.000000 0.000000 0.000000 0.088011 0.000000 0.000000
# 5 0.000000 0.000000 0.000000 0.000000 0.070095 0.000000
# 6 0.000000 0.000000 0.000000 0.000000 0.000000 0.081456
#
#
# Mechanical properties :
#
#
# Convention : Reuss Voigt Hill
#
# Bulk Modulus (GPa) = 34.31772 59.78559 47.05166
# Shear Modulus (GPa) = 7.12882 14.02015 10.57448
#
# Velocity S-wave (km/s) = 2.09624 2.93974 2.55307
# Velocity P-wave (km/s) = 5.19737 6.95521 6.13953
#
# Compressibility (1/GPa) = 0.02913946
#
# Stress axis : x y z
#
# Youngs Moduli (GPa) = 79.89653 13.47998 6.49684
#
# Poissons Ratio (x) = 0.00815 0.07259
# Poissons Ratio (y) = 0.04832 0.61046
# Poissons Ratio (z) = 0.89268 1.26662
#
# Static dielectric constant tensor:
#      x y z
#    x 3.402470 0.000000 0.000000 
#    y 0.000000 2.743480 0.000000 
#    z 0.000000 0.000000 2.888470 
# 
# 
# High freq. dielectric constant tensor:
#      x y z
#    x 1.640700 0.000000 0.000000 
#    y 0.000000 1.592010 0.000000 
#    z 0.000000 0.000000 1.600610 
# 
# From -- ./inp_files/24446.got.cif
#   From: 2010.03.12/outbox.cif.g09.slc.cpg/sg51_13_cif.got.tgz:24446.got - 2010.04.16 13:43:02.
