data_PCOD8209758
_publ_section_title
;
Structure prediction by ZEFSAII (Michael W. Deem and Ramdas Pophale) SiO2 
 PCOD8209758
Probable space group: P M M A
;
_chemical_formula_sum "Si O2"
_cell_formula_units_Z 48
_cell_length_a 30.915770
_cell_length_b 8.457652
_cell_length_c 9.583976
_cell_angle_alpha 90.000000
_cell_angle_beta 90.000000
_cell_angle_gamma 90.000000
_cell_volume 2505.968438
_symmetry_space_group_name_H-M "P M M A"
_symmetry_group_IT_number 51
_symmetry_cell_setting 'orthorhombic'
loop_
_space_group_symop_operation_xyz
x,y,z
1/2-x,-y,z
1/2+x,-y,-z
-x,y,-z
-x,-y,-z
1/2+x,y,-z
1/2-x,y,z
x,-y,z
loop_
_atom_site_type_symbol
_atom_site_label
_atom_site_fract_x
_atom_site_fract_y
_atom_site_fract_z
Si Si1 0.391190 0.817491 0.214136
Si Si2 0.484758 0.684734 0.155987
Si Si3 0.702197 0.686976 0.297916
Si Si4 0.872944 0.684712 0.494184
Si Si5 0.431302 0.815074 0.731299
Si Si6 0.361986 0.684781 0.936644
O O1 0.440187 0.772711 0.182326
O O2 0.372261 0.717801 0.342336
O O3 0.387897 0.000000 0.252688
O O4 0.361412 0.780498 0.080600
O O5 0.478158 0.500000 0.183441
O O6 0.519445 0.755129 0.264304
O O7 0.500000 0.721534 0.000000
O O8 0.750000 0.764539 0.308831
O O9 0.706312 0.500000 0.301760
O O10 0.672417 0.744070 0.426902
O O11 0.679883 0.738235 0.152256
O O12 0.879440 0.500000 0.463753
O O13 0.912532 0.777752 0.421919
O O14 0.405057 0.720371 0.848969
O O15 0.428605 0.000000 0.763422
O O16 0.361759 0.500000 0.971751
#
# Coordination Sequence:
#
# PCOD8209758 Si02
#       6
#     8   8   8   8   8   8
#     4  12  24  37  55  81 115 150 189 234 283 331
#     4  11  22  36  57  81 110 148 195 239 278 325
#     4   8  16  34  62  90 110 136 182 233 275 328
#     4  10  21  38  59  82 114 151 188 230 283 338
#     4  11  21  35  56  82 113 148 190 232 276 327
#     4  10  19  34  57  83 112 146 185 227 276 329
#
# _framework density 19.154273
#
# number of rings (size 3 to 8) (size 9 to 14) (size 15 to 20)
#    0.000    1.667    1.667    5.500    0.000    1.333 
#    0.000    4.167    0.000   23.000    0.000    0.000 
#    0.000    0.000    0.000    0.000    0.000    0.000 
#
# Total GULP energy -595345.344371 kJ/mol
# GULP energy per Si atom -12403.028008 kJ/mol
# Density = 1.911068 g / cm^3
# Si number density = 19.154273 Si / 1000 Ang^3
#
#
#
# Elastic Constant Matrix: (Units=GPa)
#
#
# Indices 1 2 3 4 5 6 
#
# 1 111.2049 15.3039 42.1040 0.0000 0.0000 0.0000
# 2 15.3039 57.8223 4.9451 0.0000 0.0000 0.0000
# 3 42.1040 4.9451 109.4293 0.0000 0.0000 0.0000
# 4 0.0000 0.0000 0.0000 27.2453 0.0000 0.0000
# 5 0.0000 0.0000 0.0000 0.0000 19.5293 0.0000
# 6 0.0000 0.0000 0.0000 0.0000 0.0000 3.0580
#
#
#
# Elastic Compliance Matrix: (Units=1/GPa)
#
#
# Indices 1 2 3 4 5 6 
#
# 1 0.010883 -0.002532 -0.004073 0.000000 0.000000 0.000000
# 2 -0.002532 0.017951 0.000163 0.000000 0.000000 0.000000
# 3 -0.004073 0.000163 0.010698 0.000000 0.000000 0.000000
# 4 0.000000 0.000000 0.000000 0.036704 0.000000 0.000000
# 5 0.000000 0.000000 0.000000 0.000000 0.051205 0.000000
# 6 0.000000 0.000000 0.000000 0.000000 0.000000 0.327008
#
#
# Mechanical properties :
#
#
# Convention : Reuss Voigt Hill
#
# Bulk Modulus (GPa) = 37.52664 44.79581 41.16123
# Shear Modulus (GPa) = 10.49946 24.37342 17.43644
#
# Velocity S-wave (km/s) = 2.34381 3.57105 3.02042
# Velocity P-wave (km/s) = 5.19219 6.35931 5.80516
#
# Compressibility (1/GPa) = 0.02664774
#
# Stress axis : x y z
#
# Youngs Moduli (GPa) = 91.88697 55.70852 93.47510
#
# Poissons Ratio (x) = 0.14106 0.38071
# Poissons Ratio (y) = 0.23267 -0.01524
# Poissons Ratio (z) = 0.37425 -0.00908
#
# Static dielectric constant tensor:
#      x y z
#    x 3.698310 0.000000 0.000000 
#    y 0.000000 3.386130 0.000000 
#    z 0.000000 0.000000 3.530340 
# 
# 
# High freq. dielectric constant tensor:
#      x y z
#    x 1.733570 0.000000 0.000000 
#    y 0.000000 1.741790 0.000000 
#    z 0.000000 0.000000 1.743060 
# 
# From -- ./inp_files/12772.got.cif
#   From: 2010.03.12/outbox.cif.g09.slc.cpg/sg51_7_cif.got.tgz:12772.got - 2010.04.16 13:43:02.
