data_PCOD8209223
_publ_section_title
;
Structure prediction by ZEFSAII (Michael W. Deem and Ramdas Pophale) SiO2 
 PCOD8209223
Probable space group: P M M A
;
_chemical_formula_sum "Si O2"
_cell_formula_units_Z 48
_cell_length_a 13.202700
_cell_length_b 15.277594
_cell_length_c 12.168670
_cell_angle_alpha 90.000000
_cell_angle_beta 90.000000
_cell_angle_gamma 90.000000
_cell_volume 2454.487549
_symmetry_space_group_name_H-M "P M M A"
_symmetry_group_IT_number 51
_symmetry_cell_setting 'orthorhombic'
loop_
_space_group_symop_operation_xyz
x,y,z
1/2-x,-y,z
1/2+x,-y,-z
-x,y,-z
-x,-y,-z
1/2+x,y,-z
1/2-x,y,z
x,-y,z
loop_
_atom_site_type_symbol
_atom_site_label
_atom_site_fract_x
_atom_site_fract_y
_atom_site_fract_z
Si Si1 0.970448 0.901189 0.125394
Si Si2 0.359827 0.686288 0.032560
Si Si3 0.873977 0.500000 0.675142
Si Si4 0.366230 0.806267 0.227525
Si Si5 0.530061 0.682143 0.622266
Si Si6 0.369267 0.733209 0.800995
Si Si7 0.406665 0.500000 0.081957
O O1 0.886615 0.837270 0.180117
O O2 0.070155 0.894101 0.203837
O O3 0.928452 0.000000 0.130181
O O4 0.000000 0.875879 0.000000
O O5 0.250000 0.730728 0.014781
O O6 0.408952 0.739024 0.133616
O O7 0.341136 0.586015 0.062991
O O8 0.415207 0.690211 0.914309
O O9 0.750000 0.500000 0.682669
O O10 0.914723 0.412392 0.616088
O O11 0.933691 0.500000 0.790077
O O12 0.250000 0.831127 0.221619
O O13 0.390075 0.757115 0.341318
O O14 0.500000 0.707625 0.500000
O O15 0.430733 0.689201 0.700756
O O16 0.250000 0.714184 0.781062
O O17 0.500000 0.500000 0.000000
#
# Coordination Sequence:
#
# PCOD8209223 Si02
#       7
#     8   8   4   8   8   8   4
#     4  10  20  33  56  90 125 153 183 230 291 361
#     4  10  19  33  51  79 110 146 189 226 280 346
#     4  12  23  39  61  85 117 156 198 247 295 340
#     4  10  20  36  60  83 115 153 189 235 290 354
#     4  11  24  40  59  85 114 152 207 250 289 334
#     4  10  22  39  59  82 119 159 192 239 294 349
#     4  12  22  29  52  83 115 151 187 233 281 338
#
# _framework density 19.556017000000001
#
# number of rings (size 3 to 8) (size 9 to 14) (size 15 to 20)
#    0.000    1.500    3.333    2.500    2.333    2.000 
#    0.000    2.917    0.000    8.000    0.000    9.333 
#    0.000    0.000    0.000    0.000    0.000    0.000 
#
# Total GULP energy -594639.998039 kJ/mol
# GULP energy per Si atom -12388.333292 kJ/mol
# Density = 1.951151 g / cm^3
# Si number density = 19.556017 Si / 1000 Ang^3
#
#
#
# Elastic Constant Matrix: (Units=GPa)
#
#
# Indices 1 2 3 4 5 6 
#
# 1 51.1227 0.2374 13.7524 0.0000 0.0000 0.0000
# 2 0.2374 79.2931 18.5563 0.0000 0.0000 0.0000
# 3 13.7524 18.5563 117.5182 0.0000 0.0000 0.0000
# 4 0.0000 0.0000 0.0000 13.6706 0.0000 0.0000
# 5 0.0000 0.0000 0.0000 0.0000 22.9568 0.0000
# 6 0.0000 0.0000 0.0000 0.0000 0.0000 15.4613
#
#
#
# Elastic Compliance Matrix: (Units=1/GPa)
#
#
# Indices 1 2 3 4 5 6 
#
# 1 0.020217 0.000512 -0.002447 0.000000 0.000000 0.000000
# 2 0.000512 0.013108 -0.002130 0.000000 0.000000 0.000000
# 3 -0.002447 -0.002130 0.009132 0.000000 0.000000 0.000000
# 4 0.000000 0.000000 0.000000 0.073150 0.000000 0.000000
# 5 0.000000 0.000000 0.000000 0.000000 0.043560 0.000000
# 6 0.000000 0.000000 0.000000 0.000000 0.000000 0.064678
#
#
# Mechanical properties :
#
#
# Convention : Reuss Voigt Hill
#
# Bulk Modulus (GPa) = 29.13066 34.78069 31.95568
# Shear Modulus (GPa) = 20.54098 24.77692 22.65895
#
# Velocity S-wave (km/s) = 3.24445 3.56332 3.40762
# Velocity P-wave (km/s) = 5.38179 5.89520 5.64434
#
# Compressibility (1/GPa) = 0.03432809
#
# Stress axis : x y z
#
# Youngs Moduli (GPa) = 49.46432 76.28748 109.50592
#
# Poissons Ratio (x) = -0.03906 0.26792
# Poissons Ratio (y) = -0.02533 0.23322
# Poissons Ratio (z) = 0.12102 0.16247
#
# Static dielectric constant tensor:
#      x y z
#    x 3.471760 0.000000 0.000000 
#    y 0.000000 3.455950 0.000000 
#    z 0.000000 0.000000 3.451240 
# 
# 
# High freq. dielectric constant tensor:
#      x y z
#    x 1.771320 0.000000 0.000000 
#    y 0.000000 1.750080 0.000000 
#    z 0.000000 0.000000 1.740250 
# 
# From -- ./inp_files/16503.got.cif
#   From: 2010.03.12/outbox.cif.g09.slc.cpg/sg51_9_cif.got.tgz:16503.got - 2010.04.16 13:43:02.
