data_PCOD8209376
_publ_section_title
;
Structure prediction by ZEFSAII (Michael W. Deem and Ramdas Pophale) SiO2 
 PCOD8209376
Probable space group: P M M A
;
_chemical_formula_sum "Si O2"
_cell_formula_units_Z 64
_cell_length_a 8.527082
_cell_length_b 22.807224
_cell_length_c 16.398855
_cell_angle_alpha 90.000000
_cell_angle_beta 90.000000
_cell_angle_gamma 90.000000
_cell_volume 3189.234057
_symmetry_space_group_name_H-M "P M M A"
_symmetry_group_IT_number 51
_symmetry_cell_setting 'orthorhombic'
loop_
_space_group_symop_operation_xyz
x,y,z
1/2-x,-y,z
1/2+x,-y,-z
-x,y,-z
-x,-y,-z
1/2+x,y,-z
1/2-x,y,z
x,-y,z
loop_
_atom_site_type_symbol
_atom_site_label
_atom_site_fract_x
_atom_site_fract_y
_atom_site_fract_z
Si Si1 0.931572 0.186873 0.296500
Si Si2 0.434144 0.063352 0.753939
Si Si3 0.932532 0.605738 0.412788
Si Si4 0.062771 0.353405 0.913946
Si Si5 0.564921 0.434052 0.236950
Si Si6 0.429571 0.730872 0.420201
Si Si7 0.926774 0.895931 0.918054
Si Si8 0.071032 0.231175 0.136569
O O1 0.750000 0.192931 0.323572
O O2 0.992002 0.119137 0.298852
O O3 0.053303 0.220784 0.352013
O O4 0.951137 0.216630 0.209024
O O5 0.250000 0.060775 0.745839
O O6 0.473686 0.075182 0.847002
O O7 0.505057 0.000000 0.725175
O O8 0.750000 0.592197 0.416610
O O9 0.003879 0.577995 0.328755
O O10 0.000000 0.581697 0.500000
O O11 0.964488 0.674367 0.403031
O O12 0.250000 0.351791 0.915934
O O13 0.001928 0.391122 0.835182
O O14 0.992239 0.288330 0.909049
O O15 0.000000 0.380601 0.000000
O O16 0.750000 0.425804 0.242296
O O17 0.517712 0.500000 0.211955
O O18 0.500000 0.761671 0.500000
O O19 0.250000 0.711208 0.430102
O O20 0.750000 0.917962 0.907716
O O21 0.933666 0.825129 0.922039
O O22 0.000000 0.921400 0.000000
O O23 0.250000 0.242001 0.167080
#
# Coordination Sequence:
#
# PCOD8209376 Si02
#       8
#     8   8   8   8   8   8   8   8
#     4  10  19  33  54  79 108 139 172 213 263 315
#     4   9  19  35  53  72  96 131 173 213 254 303
#     4  10  19  34  58  86 115 145 177 216 268 327
#     4  11  22  36  56  79 105 140 183 231 282 330
#     4   9  20  38  57  77 105 144 186 224 266 322
#     4  11  21  34  54  81 113 142 172 210 256 312
#     4  10  20  32  48  71  99 132 167 209 259 310
#     4  10  20  34  53  78 106 135 173 217 265 321
#
# _framework density 20.067513999999999
#
# number of rings (size 3 to 8) (size 9 to 14) (size 15 to 20)
#    0.000    2.000    0.000    4.875    0.000    5.000 
#    0.000    1.875    0.000    5.625    0.000    0.000 
#    0.000    0.000    0.000    0.000    0.000    0.000 
#
# Total GULP energy -793051.935612 kJ/mol
# GULP energy per Si atom -12391.436494 kJ/mol
# Density = 2.002184 g / cm^3
# Si number density = 20.067514 Si / 1000 Ang^3
#
#
#
# Elastic Constant Matrix: (Units=GPa)
#
#
# Indices 1 2 3 4 5 6 
#
# 1 39.5756 10.3298 15.2488 0.0000 0.0000 0.0000
# 2 10.3298 77.5535 28.7467 0.0000 0.0000 0.0000
# 3 15.2488 28.7467 88.4254 0.0000 0.0000 0.0000
# 4 0.0000 0.0000 0.0000 22.6790 0.0000 0.0000
# 5 0.0000 0.0000 0.0000 0.0000 30.3749 0.0000
# 6 0.0000 0.0000 0.0000 0.0000 0.0000 11.6234
#
#
#
# Elastic Compliance Matrix: (Units=1/GPa)
#
#
# Indices 1 2 3 4 5 6 
#
# 1 0.027380 -0.002157 -0.004021 0.000000 0.000000 0.000000
# 2 -0.002157 0.014831 -0.004450 0.000000 0.000000 0.000000
# 3 -0.004021 -0.004450 0.013449 0.000000 0.000000 0.000000
# 4 0.000000 0.000000 0.000000 0.044094 0.000000 0.000000
# 5 0.000000 0.000000 0.000000 0.000000 0.032922 0.000000
# 6 0.000000 0.000000 0.000000 0.000000 0.000000 0.086034
#
#
# Mechanical properties :
#
#
# Convention : Reuss Voigt Hill
#
# Bulk Modulus (GPa) = 29.06434 34.91167 31.98800
# Shear Modulus (GPa) = 19.88616 23.01741 21.45179
#
# Velocity S-wave (km/s) = 3.15137 3.39041 3.27307
# Velocity P-wave (km/s) = 5.26842 5.72376 5.50080
#
# Compressibility (1/GPa) = 0.03440642
#
# Stress axis : x y z
#
# Youngs Moduli (GPa) = 36.52284 67.42684 74.35586
#
# Poissons Ratio (x) = 0.14541 0.29895
# Poissons Ratio (y) = 0.07877 0.33085
# Poissons Ratio (z) = 0.14684 0.30002
#
# Static dielectric constant tensor:
#      x y z
#    x 3.494870 0.000000 0.000000 
#    y 0.000000 3.960180 0.000000 
#    z 0.000000 0.000000 3.790800 
# 
# 
# High freq. dielectric constant tensor:
#      x y z
#    x 1.774060 0.000000 0.000000 
#    y 0.000000 1.778870 0.000000 
#    z 0.000000 0.000000 1.775360 
# 
# From -- ./inp_files/22337.got.cif
#   From: 2010.03.12/outbox.cif.g09.slc.cpg/sg51_12_cif.got.tgz:22337.got - 2010.04.16 13:43:02.
