data_PCOD8209085
_publ_section_title
;
Structure prediction by ZEFSAII (Michael W. Deem and Ramdas Pophale) SiO2 
 PCOD8209085
Probable space group: P M M A
;
_chemical_formula_sum "Si O2"
_cell_formula_units_Z 64
_cell_length_a 9.034842
_cell_length_b 20.402287
_cell_length_c 19.501920
_cell_angle_alpha 90.000000
_cell_angle_beta 90.000000
_cell_angle_gamma 90.000000
_cell_volume 3594.816986
_symmetry_space_group_name_H-M "P M M A"
_symmetry_group_IT_number 51
_symmetry_cell_setting 'orthorhombic'
loop_
_space_group_symop_operation_xyz
x,y,z
1/2-x,-y,z
1/2+x,-y,-z
-x,y,-z
-x,-y,-z
1/2+x,y,-z
1/2-x,y,z
x,-y,z
loop_
_atom_site_type_symbol
_atom_site_label
_atom_site_fract_x
_atom_site_fract_y
_atom_site_fract_z
Si Si1 0.924374 0.227435 0.068910
Si Si2 0.422318 0.120583 0.568696
Si Si3 0.579594 0.425190 0.213394
Si Si4 0.424509 0.314472 0.295366
Si Si5 0.418578 0.073559 0.301079
Si Si6 0.423887 0.727455 0.569721
Si Si7 0.423550 0.190486 0.203919
Si Si8 0.421495 0.621845 0.933030
O O1 0.750000 0.217001 0.063744
O O2 0.969608 0.303109 0.079110
O O3 0.986795 0.187873 0.133422
O O4 0.000000 0.199707 0.000000
O O5 0.500000 0.094759 0.500000
O O6 0.250000 0.108331 0.560001
O O7 0.480395 0.079003 0.632208
O O8 0.460843 0.196427 0.581565
O O9 0.750000 0.401885 0.222098
O O10 0.559758 0.500000 0.236848
O O11 0.472423 0.381376 0.259077
O O12 0.532234 0.419045 0.133863
O O13 0.250000 0.314431 0.308321
O O14 0.507301 0.312680 0.367754
O O15 0.473217 0.252796 0.249114
O O16 0.250000 0.089557 0.322589
O O17 0.470144 0.124384 0.243193
O O18 0.433700 0.000000 0.271428
O O19 0.500000 0.702384 0.500000
O O20 0.250000 0.713872 0.565208
O O21 0.250000 0.193442 0.187519
O O22 0.250000 0.616267 0.948275
O O23 0.500000 0.591961 0.000000
#
# Coordination Sequence:
#
# PCOD8209085 Si02
#       8
#     8   8   8   8   8   8   8   8
#     4  10  19  32  53  79 108 138 173 220 269 317
#     4  10  20  33  52  77 108 144 182 222 262 315
#     4  10  21  37  54  75 108 147 184 222 266 318
#     4  11  21  34  56  82 109 140 179 226 269 315
#     4  10  21  37  55  76 107 145 181 221 270 322
#     4  10  20  34  55  82 111 141 177 221 270 318
#     4  10  20  34  54  80 107 138 178 222 268 317
#     4   9  18  31  48  73 104 139 178 215 257 310
#
# _framework density 17.803408999999998
#
# number of rings (size 3 to 8) (size 9 to 14) (size 15 to 20)
#    0.000    2.000    2.500    1.500    0.000    4.000 
#    0.000    0.000    0.000    0.750    0.000    0.000 
#    0.000    0.000    0.000    0.000    0.000    0.000 
#
# Total GULP energy -793866.992943 kJ/mol
# GULP energy per Si atom -12404.171765 kJ/mol
# Density = 1.776289 g / cm^3
# Si number density = 17.803409 Si / 1000 Ang^3
#
#
#
# Elastic Constant Matrix: (Units=GPa)
#
#
# Indices 1 2 3 4 5 6 
#
# 1 72.8072 32.8210 54.0665 0.0000 0.0000 0.0000
# 2 32.8210 79.0936 47.4852 0.0000 0.0000 0.0000
# 3 54.0665 47.4852 126.5012 0.0000 0.0000 0.0000
# 4 0.0000 0.0000 0.0000 22.6042 0.0000 0.0000
# 5 0.0000 0.0000 0.0000 0.0000 38.7209 0.0000
# 6 0.0000 0.0000 0.0000 0.0000 0.0000 21.3489
#
#
#
# Elastic Compliance Matrix: (Units=1/GPa)
#
#
# Indices 1 2 3 4 5 6 
#
# 1 0.021214 -0.004337 -0.007439 0.000000 0.000000 0.000000
# 2 -0.004337 0.017208 -0.004606 0.000000 0.000000 0.000000
# 3 -0.007439 -0.004606 0.012813 0.000000 0.000000 0.000000
# 4 0.000000 0.000000 0.000000 0.044240 0.000000 0.000000
# 5 0.000000 0.000000 0.000000 0.000000 0.025826 0.000000
# 6 0.000000 0.000000 0.000000 0.000000 0.000000 0.046841
#
#
# Mechanical properties :
#
#
# Convention : Reuss Voigt Hill
#
# Bulk Modulus (GPa) = 54.13571 60.79416 57.46494
# Shear Modulus (GPa) = 24.14727 26.13675 25.14201
#
# Velocity S-wave (km/s) = 3.68683 3.83570 3.76200
# Velocity P-wave (km/s) = 6.97117 7.33747 7.15666
#
# Compressibility (1/GPa) = 0.01847209
#
# Stress axis : x y z
#
# Youngs Moduli (GPa) = 47.13843 58.11194 78.04362
#
# Poissons Ratio (x) = 0.25203 0.58056
# Poissons Ratio (y) = 0.20444 0.35946
# Poissons Ratio (z) = 0.35066 0.26765
#
# Static dielectric constant tensor:
#      x y z
#    x 3.267410 0.000000 0.000000 
#    y 0.000000 3.091860 0.000000 
#    z 0.000000 0.000000 3.311270 
# 
# 
# High freq. dielectric constant tensor:
#      x y z
#    x 1.693750 0.000000 0.000000 
#    y 0.000000 1.661940 0.000000 
#    z 0.000000 0.000000 1.691340 
# 
# From -- ./inp_files/28341.got.cif
#   From: 2010.03.12/outbox.cif.g09.slc.cpg/sg51_15_cif.got.tgz:28341.got - 2010.04.16 13:43:02.
