data_PCOD8209175
_publ_section_title
;
Structure prediction by ZEFSAII (Michael W. Deem and Ramdas Pophale) SiO2 
 PCOD8209175
Probable space group: P M M A
;
_chemical_formula_sum "Si O2"
_cell_formula_units_Z 64
_cell_length_a 8.979137
_cell_length_b 24.722031
_cell_length_c 14.853984
_cell_angle_alpha 90.000000
_cell_angle_beta 90.000000
_cell_angle_gamma 90.000000
_cell_volume 3297.324552
_symmetry_space_group_name_H-M "P M M A"
_symmetry_group_IT_number 51
_symmetry_cell_setting 'orthorhombic'
loop_
_space_group_symop_operation_xyz
x,y,z
1/2-x,-y,z
1/2+x,-y,-z
-x,y,-z
-x,-y,-z
1/2+x,y,-z
1/2-x,y,z
x,-y,z
loop_
_atom_site_type_symbol
_atom_site_label
_atom_site_fract_x
_atom_site_fract_y
_atom_site_fract_z
Si Si1 0.421986 0.060707 0.211638
Si Si2 0.921697 0.798330 0.416048
Si Si3 0.425132 0.561033 0.087407
Si Si4 0.927463 0.154225 0.098586
Si Si5 0.074490 0.087345 0.411249
Si Si6 0.080349 0.253228 0.775621
Si Si7 0.574232 0.365009 0.753741
Si Si8 0.574088 0.438778 0.593864
O O1 0.250000 0.078956 0.203185
O O2 0.521094 0.100959 0.152281
O O3 0.469901 0.059238 0.316999
O O4 0.444895 0.000000 0.173714
O O5 0.750000 0.811945 0.437677
O O6 0.936774 0.763917 0.327090
O O7 0.000000 0.766669 0.500000
O O8 0.016303 0.852114 0.402924
O O9 0.250000 0.564317 0.076523
O O10 0.480906 0.500000 0.101149
O O11 0.483351 0.594146 0.171383
O O12 0.500000 0.587208 0.000000
O O13 0.750000 0.151670 0.088963
O O14 0.978209 0.206922 0.155945
O O15 0.000000 0.156758 0.000000
O O16 0.250000 0.085494 0.425985
O O17 0.000000 0.059319 0.500000
O O18 0.250000 0.266423 0.799659
O O19 0.985826 0.307057 0.782659
O O20 0.750000 0.360358 0.750460
O O21 0.514937 0.392205 0.661572
O O22 0.500000 0.424614 0.500000
O O23 0.750000 0.434962 0.583477
O O24 0.530869 0.500000 0.625728
#
# Coordination Sequence:
#
# PCOD8209175 Si02
#       8
#     8   8   8   8   8   8   8   8
#     4  10  22  40  62  90 122 154 191 236 284 338
#     4  10  19  34  55  80 109 144 185 226 271 323
#     4   9  18  34  55  79 107 139 176 221 272 327
#     4  11  24  44  66  87 112 147 191 238 292 349
#     4  10  19  32  55  85 118 154 189 226 270 324
#     4  10  23  40  57  80 114 148 184 233 283 334
#     4  10  21  35  55  81 110 146 187 228 276 336
#     4   9  18  34  55  80 112 151 194 238 283 333
#
# _framework density 19.409676999999999
#
# number of rings (size 3 to 8) (size 9 to 14) (size 15 to 20)
#    0.000    2.125    1.250    2.250    0.000    6.750 
#    0.000    5.000    0.000    3.750    0.000    0.000 
#    0.000    0.000    0.000    0.000    0.000    0.000 
#
# Total GULP energy -793272.810507 kJ/mol
# GULP energy per Si atom -12394.887664 kJ/mol
# Density = 1.936550 g / cm^3
# Si number density = 19.409677 Si / 1000 Ang^3
#
#
#
# Elastic Constant Matrix: (Units=GPa)
#
#
# Indices 1 2 3 4 5 6 
#
# 1 59.0363 40.8779 56.4152 0.0000 0.0000 0.0000
# 2 40.8779 113.6757 69.9853 0.0000 0.0000 0.0000
# 3 56.4152 69.9853 145.0760 0.0000 0.0000 0.0000
# 4 0.0000 0.0000 0.0000 14.4842 0.0000 0.0000
# 5 0.0000 0.0000 0.0000 0.0000 34.8038 0.0000
# 6 0.0000 0.0000 0.0000 0.0000 0.0000 -3.0837
#
#
#
# Elastic Compliance Matrix: (Units=1/GPa)
#
#
# Indices 1 2 3 4 5 6 
#
# 1 0.028767 -0.004918 -0.008814 0.000000 0.000000 0.000000
# 2 -0.004918 0.013354 -0.004530 0.000000 0.000000 0.000000
# 3 -0.008814 -0.004530 0.012505 0.000000 0.000000 0.000000
# 4 0.000000 0.000000 0.000000 0.069041 0.000000 0.000000
# 5 0.000000 0.000000 0.000000 0.000000 0.028733 0.000000
# 6 0.000000 0.000000 0.000000 0.000000 0.000000 -0.324283
#
#
# Mechanical properties :
#
#
# Convention : Reuss Voigt Hill
#
# Bulk Modulus (GPa) = 55.23931 72.48274 63.86103
# Shear Modulus (GPa) = -38.66226 19.27482 -9.69372
#
# Velocity S-wave (km/s) = -4.46792 3.15469 -2.23721
# Velocity P-wave (km/s) = 1.38024 7.11998 5.12831
#
# Compressibility (1/GPa) = 0.01810305
#
# Stress axis : x y z
#
# Youngs Moduli (GPa) = 34.76239 74.88250 79.96528
#
# Poissons Ratio (x) = 0.36829 0.70480
# Poissons Ratio (y) = 0.17097 0.36221
# Poissons Ratio (z) = 0.30639 0.33919
#
# Static dielectric constant tensor:
#      x y z
#    x 3.487930 0.000000 0.000000 
#    y 0.000000 3.581720 0.000000 
#    z 0.000000 0.000000 4.141610 
# 
# 
# High freq. dielectric constant tensor:
#      x y z
#    x 1.750590 0.000000 0.000000 
#    y 0.000000 1.749640 0.000000 
#    z 0.000000 0.000000 1.767690 
# 
# From -- ./inp_files/22334.got.cif
#   From: 2010.03.12/outbox.cif.g09.slc.cpg/sg51_12_cif.got.tgz:22334.got - 2010.04.16 13:43:02.
