data_PCOD8209598
_publ_section_title
;
Structure prediction by ZEFSAII (Michael W. Deem and Ramdas Pophale) SiO2 
 PCOD8209598
Probable space group: P M M A
;
_chemical_formula_sum "Si O2"
_cell_formula_units_Z 64
_cell_length_a 8.987900
_cell_length_b 25.187744
_cell_length_c 14.581118
_cell_angle_alpha 90.000000
_cell_angle_beta 90.000000
_cell_angle_gamma 90.000000
_cell_volume 3300.945295
_symmetry_space_group_name_H-M "P M M A"
_symmetry_group_IT_number 51
_symmetry_cell_setting 'orthorhombic'
loop_
_space_group_symop_operation_xyz
x,y,z
1/2-x,-y,z
1/2+x,-y,-z
-x,y,-z
-x,-y,-z
1/2+x,y,-z
1/2-x,y,z
x,-y,z
loop_
_atom_site_type_symbol
_atom_site_label
_atom_site_fract_x
_atom_site_fract_y
_atom_site_fract_z
Si Si1 0.573162 0.940990 0.719645
Si Si2 0.426173 0.743891 0.287428
Si Si3 0.576365 0.896003 0.909227
Si Si4 0.917921 0.436819 0.909903
Si Si5 0.927149 0.155549 0.598093
Si Si6 0.427098 0.642309 0.402129
Si Si7 0.078007 0.437376 0.725642
Si Si8 0.576645 0.772534 0.909180
O O1 0.750000 0.937991 0.723349
O O2 0.511667 0.926219 0.820423
O O3 0.515419 0.898961 0.644725
O O4 0.517647 0.000000 0.692468
O O5 0.250000 0.747982 0.285222
O O6 0.486595 0.795279 0.341354
O O7 0.479154 0.690628 0.337521
O O8 0.485125 0.743450 0.182404
O O9 0.750000 0.905782 0.919651
O O10 0.538075 0.834257 0.897393
O O11 0.500000 0.919595 0.000000
O O12 0.750000 0.414188 0.906159
O O13 0.915115 0.500000 0.913747
O O14 0.006290 0.417065 0.820625
O O15 0.000000 0.414147 0.000000
O O16 0.750000 0.156606 0.588335
O O17 0.000000 0.160519 0.500000
O O18 0.500000 0.651942 0.500000
O O19 0.250000 0.638414 0.411952
O O20 0.490587 0.588335 0.359058
O O21 0.250000 0.420484 0.724148
O O22 0.059032 0.500000 0.714877
O O23 0.750000 0.762744 0.921166
O O24 0.500000 0.748573 0.000000
#
# Coordination Sequence:
#
# PCOD8209598 Si02
#       8
#     8   8   8   8   8   8   8   8
#     4   9  17  30  49  72 100 138 179 214 257 319
#     4   9  18  35  58  79 104 139 176 214 262 320
#     4   9  16  28  48  72 100 134 172 212 254 307
#     4   9  16  28  50  81 115 150 188 228 269 315
#     4  10  19  34  54  75  99 132 175 221 267 317
#     4  11  23  39  59  82 108 139 178 227 278 328
#     4  10  21  38  59  83 113 149 187 226 270 324
#     4   9  16  30  52  78 105 136 172 210 255 309
#
# _framework density 19.388385
#
# number of rings (size 3 to 8) (size 9 to 14) (size 15 to 20)
#    0.000    2.500    1.250    1.500    0.000    3.000 
#    0.000    3.750    0.000    2.250    0.000    0.000 
#    0.000    0.000    0.000    0.000    0.000    0.000 
#
# Total GULP energy -793555.254738 kJ/mol
# GULP energy per Si atom -12399.300855 kJ/mol
# Density = 1.934426 g / cm^3
# Si number density = 19.388385 Si / 1000 Ang^3
#
#
#
# Elastic Constant Matrix: (Units=GPa)
#
#
# Indices 1 2 3 4 5 6 
#
# 1 65.5198 34.7348 46.4083 0.0000 0.0000 0.0000
# 2 34.7348 68.5523 57.4073 0.0000 0.0000 0.0000
# 3 46.4083 57.4073 175.2200 0.0000 0.0000 0.0000
# 4 0.0000 0.0000 0.0000 27.4014 0.0000 0.0000
# 5 0.0000 0.0000 0.0000 0.0000 38.4305 0.0000
# 6 0.0000 0.0000 0.0000 0.0000 0.0000 11.5794
#
#
#
# Elastic Compliance Matrix: (Units=1/GPa)
#
#
# Indices 1 2 3 4 5 6 
#
# 1 0.021949 -0.008617 -0.002990 0.000000 0.000000 0.000000
# 2 -0.008617 0.023486 -0.005412 0.000000 0.000000 0.000000
# 3 -0.002990 -0.005412 0.008272 0.000000 0.000000 0.000000
# 4 0.000000 0.000000 0.000000 0.036494 0.000000 0.000000
# 5 0.000000 0.000000 0.000000 0.000000 0.026021 0.000000
# 6 0.000000 0.000000 0.000000 0.000000 0.000000 0.086360
#
#
# Mechanical properties :
#
#
# Convention : Reuss Voigt Hill
#
# Bulk Modulus (GPa) = 50.84455 65.15476 57.99966
# Shear Modulus (GPa) = 20.56104 26.86505 23.71305
#
# Velocity S-wave (km/s) = 3.26004 3.72644 3.50101
# Velocity P-wave (km/s) = 6.36016 7.22448 6.80605
#
# Compressibility (1/GPa) = 0.01966779
#
# Stress axis : x y z
#
# Youngs Moduli (GPa) = 45.56053 42.57820 120.88534
#
# Poissons Ratio (x) = 0.36691 0.36145
# Poissons Ratio (y) = 0.39261 0.65428
# Poissons Ratio (z) = 0.13623 0.23045
#
# Static dielectric constant tensor:
#      x y z
#    x 3.254920 0.000000 0.000000 
#    y 0.000000 3.471380 0.000000 
#    z 0.000000 0.000000 3.772520 
# 
# 
# High freq. dielectric constant tensor:
#      x y z
#    x 1.726910 0.000000 0.000000 
#    y 0.000000 1.740230 0.000000 
#    z 0.000000 0.000000 1.769650 
# 
# From -- ./inp_files/22393.got.cif
#   From: 2010.03.12/outbox.cif.g09.slc.cpg/sg51_12_cif.got.tgz:22393.got - 2010.04.16 13:43:02.
