data_PCOD8209953
_publ_section_title
;
Structure prediction by ZEFSAII (Michael W. Deem and Ramdas Pophale) SiO2 
 PCOD8209953
Probable space group: P M M A
;
_chemical_formula_sum "Si O2"
_cell_formula_units_Z 64
_cell_length_a 24.168531
_cell_length_b 9.067354
_cell_length_c 15.124136
_cell_angle_alpha 90.000000
_cell_angle_beta 90.000000
_cell_angle_gamma 90.000000
_cell_volume 3314.373131
_symmetry_space_group_name_H-M "P M M A"
_symmetry_group_IT_number 51
_symmetry_cell_setting 'orthorhombic'
loop_
_space_group_symop_operation_xyz
x,y,z
1/2-x,-y,z
1/2+x,-y,-z
-x,y,-z
-x,-y,-z
1/2+x,y,-z
1/2-x,y,z
x,-y,z
loop_
_atom_site_type_symbol
_atom_site_label
_atom_site_fract_x
_atom_site_fract_y
_atom_site_fract_z
Si Si1 0.410122 0.828339 0.862352
Si Si2 0.611228 0.827804 0.328478
Si Si3 0.813329 0.824457 0.483951
Si Si4 0.122734 0.826287 0.054566
Si Si5 0.483491 0.663549 0.101049
Si Si6 0.312513 0.330877 0.190960
Si Si7 0.505416 0.829035 0.604072
Si Si8 0.881758 0.674488 0.638800
O O1 0.373693 0.794941 0.774572
O O2 0.467497 0.743454 0.846838
O O3 0.425071 0.000000 0.870441
O O4 0.378011 0.776909 0.951057
O O5 0.659813 0.766917 0.391546
O O6 0.550788 0.763664 0.352926
O O7 0.606714 0.000000 0.346525
O O8 0.750000 0.770397 0.485995
O O9 0.847367 0.751686 0.562031
O O10 0.817173 0.000000 0.493629
O O11 0.071865 0.758379 0.109657
O O12 0.177300 0.764495 0.102047
O O13 0.120234 0.000000 0.062788
O O14 0.473567 0.500000 0.140885
O O15 0.500000 0.652192 0.000000
O O16 0.250000 0.302732 0.222748
O O17 0.322409 0.500000 0.165195
O O18 0.352824 0.281376 0.269457
O O19 0.500000 0.807614 0.500000
O O20 0.555814 0.733396 0.642122
O O21 0.515823 0.000000 0.628448
O O22 0.881241 0.500000 0.623071
#
# Coordination Sequence:
#
# PCOD8209953 Si02
#       8
#     8   8   8   8   8   8   8   8
#     4   9  18  33  53  79 112 147 181 222 275 325
#     4   9  18  34  55  82 117 151 182 223 275 328
#     4  10  20  37  61  84 107 143 190 229 266 325
#     4  10  20  34  54  80 109 139 181 232 277 321
#     4   9  17  30  49  74 105 141 180 219 263 321
#     4  10  23  42  59  77 107 147 187 230 285 345
#     4  10  19  35  58  83 116 151 186 225 271 332
#     4  11  23  38  58  84 115 144 180 230 286 340
#
# _framework density 19.309836000000001
#
# number of rings (size 3 to 8) (size 9 to 14) (size 15 to 20)
#    0.000    2.250    1.250    1.500    1.750    4.250 
#    0.000    1.250    0.000    2.250    0.000    0.000 
#    0.000    0.000    0.000    0.000    0.000    0.000 
#
# Total GULP energy -793465.228898 kJ/mol
# GULP energy per Si atom -12397.894202 kJ/mol
# Density = 1.926589 g / cm^3
# Si number density = 19.309836 Si / 1000 Ang^3
#
#
#
# Elastic Constant Matrix: (Units=GPa)
#
#
# Indices 1 2 3 4 5 6 
#
# 1 91.9385 18.8214 36.2644 0.0000 0.0000 0.0000
# 2 18.8214 49.2598 25.9043 0.0000 0.0000 0.0000
# 3 36.2644 25.9043 103.3443 0.0000 0.0000 0.0000
# 4 0.0000 0.0000 0.0000 21.3323 0.0000 0.0000
# 5 0.0000 0.0000 0.0000 0.0000 23.9186 0.0000
# 6 0.0000 0.0000 0.0000 0.0000 0.0000 25.4537
#
#
#
# Elastic Compliance Matrix: (Units=1/GPa)
#
#
# Indices 1 2 3 4 5 6 
#
# 1 0.012987 -0.002955 -0.003817 0.000000 0.000000 0.000000
# 2 -0.002955 0.024055 -0.004993 0.000000 0.000000 0.000000
# 3 -0.003817 -0.004993 0.012267 0.000000 0.000000 0.000000
# 4 0.000000 0.000000 0.000000 0.046877 0.000000 0.000000
# 5 0.000000 0.000000 0.000000 0.000000 0.041808 0.000000
# 6 0.000000 0.000000 0.000000 0.000000 0.000000 0.039287
#
#
# Mechanical properties :
#
#
# Convention : Reuss Voigt Hill
#
# Bulk Modulus (GPa) = 38.78880 45.16921 41.97900
# Shear Modulus (GPa) = 23.87721 25.04442 24.46081
#
# Velocity S-wave (km/s) = 3.52025 3.60526 3.56301
# Velocity P-wave (km/s) = 6.05426 6.38539 6.22203
#
# Compressibility (1/GPa) = 0.02578064
#
# Stress axis : x y z
#
# Youngs Moduli (GPa) = 76.99869 41.57114 81.51866
#
# Poissons Ratio (x) = 0.12285 0.31112
# Poissons Ratio (y) = 0.22755 0.40699
# Poissons Ratio (z) = 0.29387 0.20755
#
# Static dielectric constant tensor:
#      x y z
#    x 3.599540 0.000000 0.000000 
#    y 0.000000 3.436990 0.000000 
#    z 0.000000 0.000000 3.633140 
# 
# 
# High freq. dielectric constant tensor:
#      x y z
#    x 1.740620 0.000000 0.000000 
#    y 0.000000 1.734620 0.000000 
#    z 0.000000 0.000000 1.759010 
# 
# From -- ./inp_files/26312.got.cif
#   From: 2010.03.12/outbox.cif.g09.slc.cpg/sg51_14_cif.got.tgz:26312.got - 2010.04.16 13:43:02.
