data_PCOD8209907
_publ_section_title
;
Structure prediction by ZEFSAII (Michael W. Deem and Ramdas Pophale) SiO2 
 PCOD8209907
Probable space group: P M M A
;
_chemical_formula_sum "Si O2"
_cell_formula_units_Z 52
_cell_length_a 9.457192
_cell_length_b 15.861785
_cell_length_c 18.212759
_cell_angle_alpha 90.000000
_cell_angle_beta 90.000000
_cell_angle_gamma 90.000000
_cell_volume 2732.058572
_symmetry_space_group_name_H-M "P M M A"
_symmetry_group_IT_number 51
_symmetry_cell_setting 'orthorhombic'
loop_
_space_group_symop_operation_xyz
x,y,z
1/2-x,-y,z
1/2+x,-y,-z
-x,y,-z
-x,-y,-z
1/2+x,y,-z
1/2-x,y,z
x,-y,z
loop_
_atom_site_type_symbol
_atom_site_label
_atom_site_fract_x
_atom_site_fract_y
_atom_site_fract_z
Si Si1 0.584897 0.096924 0.811843
Si Si2 0.082496 0.405554 0.164293
Si Si3 0.595252 0.500000 0.569617
Si Si4 0.583005 0.757017 0.925553
Si Si5 0.086860 0.346996 0.323417
Si Si6 0.412217 0.761179 0.572951
Si Si7 0.409943 0.905961 0.672958
O O1 0.750000 0.102424 0.795972
O O2 0.542301 0.163039 0.875051
O O3 0.508852 0.129012 0.738062
O O4 0.541286 0.000000 0.832999
O O5 0.250000 0.410168 0.165076
O O6 0.023190 0.500000 0.144223
O O7 0.031468 0.332817 0.108344
O O8 0.030747 0.378776 0.245039
O O9 0.750000 0.500000 0.535877
O O10 0.500000 0.500000 0.500000
O O11 0.568677 0.579810 0.618778
O O12 0.750000 0.754844 0.940509
O O13 0.500000 0.771127 0.000000
O O14 0.250000 0.315059 0.318645
O O15 0.980821 0.277014 0.353458
O O16 0.500000 0.739672 0.500000
O O17 0.250000 0.730945 0.561169
O O18 0.421629 0.859228 0.594345
O O19 0.250000 0.900571 0.702908
O O20 0.457789 0.000000 0.654459
#
# Coordination Sequence:
#
# PCOD8209907 Si02
#       7
#     8   8   4   8   8   8   8
#     4   9  18  34  56  82 109 138 176 218 261 316
#     4   9  17  33  57  80 102 134 179 223 265 316
#     4  10  20  32  50  76 103 132 166 208 257 310
#     4  10  21  35  53  79 110 143 176 216 263 313
#     4  10  19  35  57  78 101 133 175 219 264 316
#     4  11  23  36  51  75 107 142 179 219 266 318
#     4   9  19  36  56  78 105 137 175 221 269 314
#
# _framework density 19.033268
#
# number of rings (size 3 to 8) (size 9 to 14) (size 15 to 20)
#    0.000    2.308    0.769    1.846    0.000    5.846 
#    0.000    0.769    0.000    0.923    0.000    0.000 
#    0.000    0.000    0.000    0.000    0.000    0.000 
#
# Total GULP energy -644476.861537 kJ/mol
# GULP energy per Si atom -12393.785799 kJ/mol
# Density = 1.898995 g / cm^3
# Si number density = 19.033268 Si / 1000 Ang^3
#
#
#
# Elastic Constant Matrix: (Units=GPa)
#
#
# Indices 1 2 3 4 5 6 
#
# 1 54.0153 24.9089 25.9016 0.0000 0.0000 0.0000
# 2 24.9089 89.2060 30.8255 0.0000 0.0000 0.0000
# 3 25.9016 30.8255 66.9642 0.0000 0.0000 0.0000
# 4 0.0000 0.0000 0.0000 38.8654 0.0000 0.0000
# 5 0.0000 0.0000 0.0000 0.0000 23.0176 0.0000
# 6 0.0000 0.0000 0.0000 0.0000 0.0000 22.6652
#
#
#
# Elastic Compliance Matrix: (Units=1/GPa)
#
#
# Indices 1 2 3 4 5 6 
#
# 1 0.023953 -0.004146 -0.007356 0.000000 0.000000 0.000000
# 2 -0.004146 0.014048 -0.004863 0.000000 0.000000 0.000000
# 3 -0.007356 -0.004863 0.020017 0.000000 0.000000 0.000000
# 4 0.000000 0.000000 0.000000 0.025730 0.000000 0.000000
# 5 0.000000 0.000000 0.000000 0.000000 0.043445 0.000000
# 6 0.000000 0.000000 0.000000 0.000000 0.000000 0.044121
#
#
# Mechanical properties :
#
#
# Convention : Reuss Voigt Hill
#
# Bulk Modulus (GPa) = 39.54566 41.49527 40.52046
# Shear Modulus (GPa) = 23.53230 25.47960 24.50595
#
# Velocity S-wave (km/s) = 3.52003 3.66278 3.59211
# Velocity P-wave (km/s) = 6.11090 6.30370 6.20805
#
# Compressibility (1/GPa) = 0.02528722
#
# Stress axis : x y z
#
# Youngs Moduli (GPa) = 41.74874 71.18338 49.95681
#
# Poissons Ratio (x) = 0.29515 0.36749
# Poissons Ratio (y) = 0.17311 0.24294
# Poissons Ratio (z) = 0.30711 0.34616
#
# Static dielectric constant tensor:
#      x y z
#    x 3.336540 0.000000 0.000000 
#    y 0.000000 3.912410 0.000000 
#    z 0.000000 0.000000 3.279640 
# 
# 
# High freq. dielectric constant tensor:
#      x y z
#    x 1.719210 0.000000 0.000000 
#    y 0.000000 1.757070 0.000000 
#    z 0.000000 0.000000 1.732150 
# 
# From -- ./inp_files/27926.got.cif
#   From: 2010.03.12/outbox.cif.g09.slc.cpg/sg51_14_cif.got.tgz:27926.got - 2010.04.16 13:43:02.
