data_PCOD8209885
_publ_section_title
;
Structure prediction by ZEFSAII (Michael W. Deem and Ramdas Pophale) SiO2 
 PCOD8209885
Probable space group: P M M A
;
_chemical_formula_sum "Si O2"
_cell_formula_units_Z 48
_cell_length_a 17.854107
_cell_length_b 9.159904
_cell_length_c 16.403707
_cell_angle_alpha 90.000000
_cell_angle_beta 90.000000
_cell_angle_gamma 90.000000
_cell_volume 2682.693510
_symmetry_space_group_name_H-M "P M M A"
_symmetry_group_IT_number 51
_symmetry_cell_setting 'orthorhombic'
loop_
_space_group_symop_operation_xyz
x,y,z
1/2-x,-y,z
1/2+x,-y,-z
-x,y,-z
-x,-y,-z
1/2+x,y,-z
1/2-x,y,z
x,-y,z
loop_
_atom_site_type_symbol
_atom_site_label
_atom_site_fract_x
_atom_site_fract_y
_atom_site_fract_z
Si Si1 0.101332 0.334551 0.316417
Si Si2 0.914327 0.331037 0.499216
Si Si3 0.054771 0.329295 0.762224
Si Si4 0.161869 0.831037 0.646383
Si Si5 0.832057 0.828977 0.826592
Si Si6 0.517329 0.172187 0.908316
O O1 0.117944 0.500000 0.290923
O O2 0.119543 0.307964 0.410877
O O3 0.155724 0.235264 0.263223
O O4 0.014330 0.298868 0.298721
O O5 0.909631 0.500000 0.471291
O O6 0.866326 0.233384 0.438838
O O7 0.000000 0.278816 0.500000
O O8 0.070369 0.500000 0.774388
O O9 0.126916 0.253933 0.722888
O O10 0.039664 0.257337 0.850002
O O11 0.250000 0.809104 0.651727
O O12 0.138755 0.000000 0.651135
O O13 0.750000 0.780014 0.859638
O O14 0.897166 0.778293 0.888645
O O15 0.835332 0.000000 0.815531
O O16 0.505818 0.000000 0.895305
O O17 0.500000 0.220050 0.000000
#
# Coordination Sequence:
#
# PCOD8209885 Si02
#       6
#     8   8   8   8   8   8
#     4   9  18  32  52  76 101 133 173 214 257 310
#     4  10  19  35  55  76 104 139 182 223 264 316
#     4  10  19  35  57  78 103 136 176 219 264 318
#     4  11  24  38  52  76 109 143 182 225 269 317
#     4   9  18  32  50  74 105 138 171 211 261 314
#     4   9  18  34  56  81 108 139 177 217 263 322
#
# _framework density 17.892465000000001
#
# number of rings (size 3 to 8) (size 9 to 14) (size 15 to 20)
#    0.000    2.333    1.667    1.000    0.000    4.333 
#    0.000    4.167    0.000    3.000    0.000    0.000 
#    0.000    0.000    0.000    0.000    0.000    0.000 
#
# Total GULP energy -595249.829004 kJ/mol
# GULP energy per Si atom -12401.038104 kJ/mol
# Density = 1.785174 g / cm^3
# Si number density = 17.892465 Si / 1000 Ang^3
#
#
#
# Elastic Constant Matrix: (Units=GPa)
#
#
# Indices 1 2 3 4 5 6 
#
# 1 98.8523 49.8802 61.5787 0.0000 0.0000 0.0000
# 2 49.8802 69.4596 53.1634 0.0000 0.0000 0.0000
# 3 61.5787 53.1634 126.6967 0.0000 0.0000 0.0000
# 4 0.0000 0.0000 0.0000 29.0756 0.0000 0.0000
# 5 0.0000 0.0000 0.0000 0.0000 20.3089 0.0000
# 6 0.0000 0.0000 0.0000 0.0000 0.0000 23.4629
#
#
#
# Elastic Compliance Matrix: (Units=1/GPa)
#
#
# Indices 1 2 3 4 5 6 
#
# 1 0.017647 -0.008998 -0.004802 0.000000 0.000000 0.000000
# 2 -0.008998 0.025796 -0.006451 0.000000 0.000000 0.000000
# 3 -0.004802 -0.006451 0.012934 0.000000 0.000000 0.000000
# 4 0.000000 0.000000 0.000000 0.034393 0.000000 0.000000
# 5 0.000000 0.000000 0.000000 0.000000 0.049239 0.000000
# 6 0.000000 0.000000 0.000000 0.000000 0.000000 0.042620
#
#
# Mechanical properties :
#
#
# Convention : Reuss Voigt Hill
#
# Bulk Modulus (GPa) = 62.98856 69.36146 66.17501
# Shear Modulus (GPa) = 21.88923 23.26192 22.57557
#
# Velocity S-wave (km/s) = 3.50147 3.60960 3.55595
# Velocity P-wave (km/s) = 7.18523 7.49814 7.34335
#
# Compressibility (1/GPa) = 0.01587590
#
# Stress axis : x y z
#
# Youngs Moduli (GPa) = 56.66534 38.76584 77.31840
#
# Poissons Ratio (x) = 0.34881 0.37125
# Poissons Ratio (y) = 0.50987 0.49878
# Poissons Ratio (z) = 0.27209 0.25008
#
# Static dielectric constant tensor:
#      x y z
#    x 3.395340 0.000000 0.000000 
#    y 0.000000 3.316930 0.000000 
#    z 0.000000 0.000000 3.279180 
# 
# 
# High freq. dielectric constant tensor:
#      x y z
#    x 1.685750 0.000000 0.000000 
#    y 0.000000 1.692980 0.000000 
#    z 0.000000 0.000000 1.685890 
# 
# From -- ./inp_files/30078.got.cif
#   From: 2010.03.12/outbox.cif.g09.slc.cpg/sg51_16_cif.got.tgz:30078.got - 2010.04.16 13:43:02.
