data_PCOD8209583
_publ_section_title
;
Structure prediction by ZEFSAII (Michael W. Deem and Ramdas Pophale) SiO2 
 PCOD8209583
Probable space group: P M M A
;
_chemical_formula_sum "Si O2"
_cell_formula_units_Z 48
_cell_length_a 10.215296
_cell_length_b 28.068331
_cell_length_c 8.839944
_cell_angle_alpha 90.000000
_cell_angle_beta 90.000000
_cell_angle_gamma 90.000000
_cell_volume 2534.644518
_symmetry_space_group_name_H-M "P M M A"
_symmetry_group_IT_number 51
_symmetry_cell_setting 'orthorhombic'
loop_
_space_group_symop_operation_xyz
x,y,z
1/2-x,-y,z
1/2+x,-y,-z
-x,y,-z
-x,-y,-z
1/2+x,y,-z
1/2-x,y,z
x,-y,z
loop_
_atom_site_type_symbol
_atom_site_label
_atom_site_fract_x
_atom_site_fract_y
_atom_site_fract_z
Si Si1 0.991650 0.726040 0.679197
Si Si2 0.004943 0.053638 0.680331
Si Si3 0.750000 0.893611 0.677562
Si Si4 0.602280 0.554648 0.625823
Si Si5 0.750000 0.787384 0.673056
Si Si6 0.402940 0.635512 0.140531
Si Si7 0.750000 0.113137 0.316616
Si Si8 0.750000 0.779020 0.314015
O O1 0.879040 0.761760 0.733504
O O2 0.959325 0.674989 0.746885
O O3 0.000000 0.719831 0.500000
O O4 0.125389 0.748882 0.742871
O O5 0.873584 0.077846 0.741469
O O6 0.000000 0.052743 0.500000
O O7 0.123451 0.085250 0.743837
O O8 0.017838 0.000000 0.743425
O O9 0.750000 0.840217 0.742035
O O10 0.750000 0.888703 0.497327
O O11 0.500000 0.572558 0.500000
O O12 0.750000 0.561061 0.561465
O O13 0.573912 0.500000 0.669590
O O14 0.584555 0.584851 0.777512
O O15 0.750000 0.785361 0.492890
O O16 0.250000 0.645305 0.096325
O O17 0.500000 0.634339 0.000000
O O18 0.750000 0.166910 0.249860
#
# Coordination Sequence:
#
# PCOD8209583 Si02
#       8
#     8   8   4   8   4   8   4   4
#     4  10  19  34  53  75 100 133 176 229 273 322
#     4   9  15  21  30  46  74 114 157 199 245 299
#     4   9  15  22  35  51  77 110 157 208 251 298
#     4   9  19  38  63  90 118 148 185 228 270 313
#     4   9  16  29  45  66  92 124 164 224 275 307
#     4  11  24  39  55  80 113 149 184 222 270 324
#     4   9  15  24  33  53  79 110 153 210 251 302
#     4   9  18  27  47  70  90 120 172 220 273 315
#
# _framework density 18.937567999999999
#
# number of rings (size 3 to 8) (size 9 to 14) (size 15 to 20)
#    0.000    2.500    0.833    2.000    1.167    7.000 
#    0.000    0.000    0.000    0.000    0.000    0.000 
#    0.000    0.000    0.000    0.000    0.000   58.333 
#
# Total GULP energy -595053.757715 kJ/mol
# GULP energy per Si atom -12396.953286 kJ/mol
# Density = 1.889447 g / cm^3
# Si number density = 18.937568 Si / 1000 Ang^3
#
#
#
# Elastic Constant Matrix: (Units=GPa)
#
#
# Indices 1 2 3 4 5 6 
#
# 1 184.1177 74.5680 36.2329 0.0000 0.0000 0.0000
# 2 74.5680 130.8764 29.3396 0.0000 0.0000 0.0000
# 3 36.2329 29.3396 35.7629 0.0000 0.0000 0.0000
# 4 0.0000 0.0000 0.0000 1.4541 0.0000 0.0000
# 5 0.0000 0.0000 0.0000 0.0000 16.3851 0.0000
# 6 0.0000 0.0000 0.0000 0.0000 0.0000 36.6957
#
#
#
# Elastic Compliance Matrix: (Units=1/GPa)
#
#
# Indices 1 2 3 4 5 6 
#
# 1 0.007777 -0.003265 -0.005201 0.000000 0.000000 0.000000
# 2 -0.003265 0.010734 -0.005498 0.000000 0.000000 0.000000
# 3 -0.005201 -0.005498 0.037741 0.000000 0.000000 0.000000
# 4 0.000000 0.000000 0.000000 0.687713 0.000000 0.000000
# 5 0.000000 0.000000 0.000000 0.000000 0.061031 0.000000
# 6 0.000000 0.000000 0.000000 0.000000 0.000000 0.027251
#
#
# Mechanical properties :
#
#
# Convention : Reuss Voigt Hill
#
# Bulk Modulus (GPa) = 35.30455 70.11534 52.70995
# Shear Modulus (GPa) = 5.74967 24.94808 15.34887
#
# Velocity S-wave (km/s) = 1.74434 3.63352 2.85001
# Velocity P-wave (km/s) = 4.76865 7.39649 6.22287
#
# Compressibility (1/GPa) = 0.02832496
#
# Stress axis : x y z
#
# Youngs Moduli (GPa) = 128.58125 93.16498 26.49631
#
# Poissons Ratio (x) = 0.30421 0.13780
# Poissons Ratio (y) = 0.41985 0.14567
# Poissons Ratio (z) = 0.66870 0.51219
#
# Static dielectric constant tensor:
#      x y z
#    x 3.806270 0.000000 0.000000 
#    y 0.000000 3.683490 0.000000 
#    z 0.000000 0.000000 2.818610 
# 
# 
# High freq. dielectric constant tensor:
#      x y z
#    x 1.756840 0.000000 0.000000 
#    y 0.000000 1.755030 0.000000 
#    z 0.000000 0.000000 1.663110 
# 
# From -- ./inp_files/6319.got.cif
#   From: 2010.03.12/outbox.cif.g09.slc.cpg/sg51_4_cif.got.tgz:6319.got - 2010.04.16 13:43:02.
