data_PCOD8209273
_publ_section_title
;
Structure prediction by ZEFSAII (Michael W. Deem and Ramdas Pophale) SiO2 
 PCOD8209273
Probable space group: P M M A
;
_chemical_formula_sum "Si O2"
_cell_formula_units_Z 64
_cell_length_a 8.984350
_cell_length_b 20.128309
_cell_length_c 19.676116
_cell_angle_alpha 90.000000
_cell_angle_beta 90.000000
_cell_angle_gamma 90.000000
_cell_volume 3558.224350
_symmetry_space_group_name_H-M "P M M A"
_symmetry_group_IT_number 51
_symmetry_cell_setting 'orthorhombic'
loop_
_space_group_symop_operation_xyz
x,y,z
1/2-x,-y,z
1/2+x,-y,-z
-x,y,-z
-x,-y,-z
1/2+x,y,-z
1/2-x,y,z
x,-y,z
loop_
_atom_site_type_symbol
_atom_site_label
_atom_site_fract_x
_atom_site_fract_y
_atom_site_fract_z
Si Si1 0.576795 0.254062 0.202393
Si Si2 0.424387 0.791425 0.433512
Si Si3 0.573220 0.792419 0.931758
Si Si4 0.424576 0.424106 0.430281
Si Si5 0.924347 0.683988 0.676694
Si Si6 0.580207 0.073700 0.099702
Si Si7 0.083887 0.107881 0.749331
Si Si8 0.425353 0.071668 0.381249
O O1 0.750000 0.267706 0.187693
O O2 0.490590 0.250605 0.130798
O O3 0.511199 0.311727 0.251462
O O4 0.549815 0.185335 0.240933
O O5 0.500000 0.760228 0.500000
O O6 0.250000 0.791304 0.446243
O O7 0.465334 0.748153 0.368152
O O8 0.491266 0.865961 0.422854
O O9 0.750000 0.785353 0.933446
O O10 0.530903 0.870788 0.929037
O O11 0.500000 0.762278 0.000000
O O12 0.500000 0.399377 0.500000
O O13 0.250000 0.414680 0.441231
O O14 0.468833 0.500000 0.414522
O O15 0.477631 0.380644 0.365752
O O16 0.750000 0.680523 0.693094
O O17 0.750000 0.094266 0.080717
O O18 0.564312 0.069366 0.180497
O O19 0.541386 0.000000 0.070765
O O20 0.250000 0.098006 0.720353
O O21 0.969017 0.076384 0.697313
O O22 0.250000 0.076398 0.384220
O O23 0.480261 0.000000 0.410607
#
# Coordination Sequence:
#
# PCOD8209273 Si02
#       8
#     8   8   8   8   8   8   8   8
#     4  10  20  34  53  76 100 127 165 209 255 304
#     4  10  21  34  47  65  90 120 160 205 253 303
#     4  11  22  36  53  72  99 132 167 208 259 315
#     4   9  18  32  51  78 113 150 184 216 254 303
#     4  10  19  33  53  76 102 134 171 212 254 297
#     4   9  18  32  48  68  95 124 160 206 255 313
#     4   9  17  30  47  67  89 115 150 197 250 303
#     4  10  20  32  45  61  84 114 151 200 255 307
#
# _framework density 17.986501000000001
#
# number of rings (size 3 to 8) (size 9 to 14) (size 15 to 20)
#    0.000    2.250    1.250    3.000    0.000    5.000 
#    0.000    0.000    0.000    0.000    0.000    0.000 
#    0.000    0.500    0.000    1.375    0.000    2.000 
#
# Total GULP energy -793370.464735 kJ/mol
# GULP energy per Si atom -12396.413511 kJ/mol
# Density = 1.794556 g / cm^3
# Si number density = 17.986501 Si / 1000 Ang^3
#
#
#
# Elastic Constant Matrix: (Units=GPa)
#
#
# Indices 1 2 3 4 5 6 
#
# 1 67.4761 30.2980 52.0379 0.0000 0.0000 0.0000
# 2 30.2980 75.1454 40.7720 0.0000 0.0000 0.0000
# 3 52.0379 40.7720 112.1933 0.0000 0.0000 0.0000
# 4 0.0000 0.0000 0.0000 44.7957 0.0000 0.0000
# 5 0.0000 0.0000 0.0000 0.0000 32.3397 0.0000
# 6 0.0000 0.0000 0.0000 0.0000 0.0000 14.5351
#
#
#
# Elastic Compliance Matrix: (Units=1/GPa)
#
#
# Indices 1 2 3 4 5 6 
#
# 1 0.024277 -0.004582 -0.009595 0.000000 0.000000 0.000000
# 2 -0.004582 0.017441 -0.004213 0.000000 0.000000 0.000000
# 3 -0.009595 -0.004213 0.014895 0.000000 0.000000 0.000000
# 4 0.000000 0.000000 0.000000 0.022324 0.000000 0.000000
# 5 0.000000 0.000000 0.000000 0.000000 0.030922 0.000000
# 6 0.000000 0.000000 0.000000 0.000000 0.000000 0.068799
#
#
# Mechanical properties :
#
#
# Convention : Reuss Voigt Hill
#
# Bulk Modulus (GPa) = 50.42276 55.67008 53.04642
# Shear Modulus (GPa) = 22.51759 27.11456 24.81607
#
# Velocity S-wave (km/s) = 3.54208 3.88686 3.71847
# Velocity P-wave (km/s) = 6.69500 7.15275 6.92765
#
# Compressibility (1/GPa) = 0.01983231
#
# Stress axis : x y z
#
# Youngs Moduli (GPa) = 41.19046 57.33673 67.13848
#
# Poissons Ratio (x) = 0.26274 0.64421
# Poissons Ratio (y) = 0.18875 0.28284
# Poissons Ratio (z) = 0.39523 0.24154
#
# Static dielectric constant tensor:
#      x y z
#    x 3.218610 0.000000 0.000000 
#    y 0.000000 3.312530 0.000000 
#    z 0.000000 0.000000 3.294600 
# 
# 
# High freq. dielectric constant tensor:
#      x y z
#    x 1.691990 0.000000 0.000000 
#    y 0.000000 1.662270 0.000000 
#    z 0.000000 0.000000 1.693040 
# 
# From -- ./inp_files/32573.got.cif
#   From: 2010.03.12/outbox.cif.g09.slc.cpg/sg51_17_cif.got.tgz:32573.got - 2010.04.16 13:43:02.
