data_PCOD8209718
_publ_section_title
;
Structure prediction by ZEFSAII (Michael W. Deem and Ramdas Pophale) SiO2 
 PCOD8209718
Probable space group: P M M A
;
_chemical_formula_sum "Si O2"
_cell_formula_units_Z 44
_cell_length_a 8.847292
_cell_length_b 17.848014
_cell_length_c 14.260721
_cell_angle_alpha 90.000000
_cell_angle_beta 90.000000
_cell_angle_gamma 90.000000
_cell_volume 2251.861845
_symmetry_space_group_name_H-M "P M M A"
_symmetry_group_IT_number 51
_symmetry_cell_setting 'orthorhombic'
loop_
_space_group_symop_operation_xyz
x,y,z
1/2-x,-y,z
1/2+x,-y,-z
-x,y,-z
-x,-y,-z
1/2+x,y,-z
1/2-x,y,z
x,-y,z
loop_
_atom_site_type_symbol
_atom_site_label
_atom_site_fract_x
_atom_site_fract_y
_atom_site_fract_z
Si Si1 0.929269 0.500000 0.602137
Si Si2 0.571985 0.639645 0.295541
Si Si3 0.925363 0.314836 0.092513
Si Si4 0.572263 0.854553 0.094438
Si Si5 0.422574 0.915885 0.273514
Si Si6 0.428208 0.222431 0.398528
O O1 0.750000 0.500000 0.593324
O O2 0.000000 0.500000 0.500000
O O3 0.982661 0.427125 0.656785
O O4 0.750000 0.633300 0.317435
O O5 0.539668 0.635445 0.184112
O O6 0.509676 0.717907 0.332539
O O7 0.750000 0.311259 0.072136
O O8 0.987267 0.230565 0.108913
O O9 0.000000 0.351597 0.000000
O O10 0.750000 0.858211 0.084414
O O11 0.524914 0.903686 0.182862
O O12 0.500000 0.888678 0.000000
O O13 0.250000 0.903044 0.242567
O O14 0.465099 0.859449 0.357258
O O15 0.449705 0.000000 0.311426
O O16 0.500000 0.228276 0.500000
O O17 0.250000 0.239171 0.403788
#
# Coordination Sequence:
#
# PCOD8209718 Si02
#       6
#     4   8   8   8   8   8
#     4  12  26  44  65  94 125 160 199 244 298 350
#     4  11  22  41  65  92 124 158 196 243 293 349
#     4   9  19  34  58  89 121 154 194 239 287 343
#     4  10  19  34  56  85 116 153 195 242 295 350
#     4  10  22  39  57  81 115 154 198 248 299 352
#     4  11  23  39  61  86 114 152 197 247 298 356
#
# _framework density 19.539387999999999
#
# number of rings (size 3 to 8) (size 9 to 14) (size 15 to 20)
#    0.000    1.636    1.818    3.000    0.000    4.000 
#    0.000    0.455    0.000    0.000    0.000    0.000 
#    0.000    0.000    0.000    0.000    0.000    0.000 
#
# Total GULP energy -545713.883650 kJ/mol
# GULP energy per Si atom -12402.588265 kJ/mol
# Density = 1.949492 g / cm^3
# Si number density = 19.539388 Si / 1000 Ang^3
#
#
#
# Elastic Constant Matrix: (Units=GPa)
#
#
# Indices 1 2 3 4 5 6 
#
# 1 103.3509 44.3153 60.7249 0.0000 0.0000 0.0000
# 2 44.3153 97.7197 45.3468 0.0000 0.0000 0.0000
# 3 60.7249 45.3468 132.4726 0.0000 0.0000 0.0000
# 4 0.0000 0.0000 0.0000 16.8002 0.0000 0.0000
# 5 0.0000 0.0000 0.0000 0.0000 37.1913 0.0000
# 6 0.0000 0.0000 0.0000 0.0000 0.0000 -242.9293
#
#
#
# Elastic Compliance Matrix: (Units=1/GPa)
#
#
# Indices 1 2 3 4 5 6 
#
# 1 0.014539 -0.004162 -0.005240 0.000000 0.000000 0.000000
# 2 -0.004162 0.013357 -0.002665 0.000000 0.000000 0.000000
# 3 -0.005240 -0.002665 0.010863 0.000000 0.000000 0.000000
# 4 0.000000 0.000000 0.000000 0.059523 0.000000 0.000000
# 5 0.000000 0.000000 0.000000 0.000000 0.026888 0.000000
# 6 0.000000 0.000000 0.000000 0.000000 0.000000 -0.004116
#
#
# Mechanical properties :
#
#
# Convention : Reuss Voigt Hill
#
# Bulk Modulus (GPa) = 68.36959 70.47968 69.42464
# Shear Modulus (GPa) = 33.31957 -25.57715 3.87121
#
# Velocity S-wave (km/s) = 4.13395 -3.62194 1.40909
# Velocity P-wave (km/s) = 7.60609 4.31944 6.18507
#
# Compressibility (1/GPa) = 0.01462639
#
# Stress axis : x y z
#
# Youngs Moduli (GPa) = 68.77991 74.86609 92.05671
#
# Poissons Ratio (x) = 0.31157 0.48238
# Poissons Ratio (y) = 0.28625 0.24529
# Poissons Ratio (z) = 0.36041 0.19949
#
# Static dielectric constant tensor:
#      x y z
#    x 3.625570 0.000000 0.000000 
#    y 0.000000 3.562960 0.000000 
#    z 0.000000 0.000000 3.664140 
# 
# 
# High freq. dielectric constant tensor:
#      x y z
#    x 1.768820 0.000000 0.000000 
#    y 0.000000 1.749060 0.000000 
#    z 0.000000 0.000000 1.771090 
# 
# From -- ./inp_files/20951.got.cif
#   From: 2010.03.12/outbox.cif.g09.slc.cpg/sg51_11_cif.got.tgz:20951.got - 2010.04.16 13:43:02.
