data_PCOD8209059
_publ_section_title
;
Structure prediction by ZEFSAII (Michael W. Deem and Ramdas Pophale) SiO2 
 PCOD8209059
Probable space group: P M M A
;
_chemical_formula_sum "Si O2"
_cell_formula_units_Z 40
_cell_length_a 15.876783
_cell_length_b 9.373277
_cell_length_c 13.488346
_cell_angle_alpha 90.000000
_cell_angle_beta 90.000000
_cell_angle_gamma 90.000000
_cell_volume 2007.301728
_symmetry_space_group_name_H-M "P M M A"
_symmetry_group_IT_number 51
_symmetry_cell_setting 'orthorhombic'
loop_
_space_group_symop_operation_xyz
x,y,z
1/2-x,-y,z
1/2+x,-y,-z
-x,y,-z
-x,-y,-z
1/2+x,y,-z
1/2-x,y,z
x,-y,z
loop_
_atom_site_type_symbol
_atom_site_label
_atom_site_fract_x
_atom_site_fract_y
_atom_site_fract_z
Si Si1 0.096126 0.160546 0.963687
Si Si2 0.750000 0.163792 0.497969
Si Si3 0.874483 0.657326 0.860243
Si Si4 0.432884 0.833788 0.586379
Si Si5 0.440393 0.339574 0.785116
Si Si6 0.250000 0.665707 0.303117
O O1 0.114826 0.242873 0.859894
O O2 0.129541 0.000000 0.949385
O O3 0.149464 0.238362 0.049563
O O4 0.000000 0.158957 0.000000
O O5 0.835646 0.201541 0.439531
O O6 0.750000 0.250976 0.596799
O O7 0.750000 0.000000 0.528346
O O8 0.839324 0.500000 0.887108
O O9 0.831535 0.712212 0.759620
O O10 0.972656 0.647824 0.842281
O O11 0.500000 0.793470 0.500000
O O12 0.454101 0.736991 0.680374
O O13 0.443411 0.000000 0.614025
O O14 0.402801 0.500000 0.770147
O O15 0.250000 0.500000 0.330384
#
# Coordination Sequence:
#
# PCOD8209059 Si02
#       6
#     8   4   8   8   8   4
#     4   9  17  30  50  75 102 133 170 212 259 313
#     4  10  22  38  55  78 107 138 175 220 266 312
#     4   9  18  32  50  76 107 136 169 210 257 309
#     4  10  21  37  56  78 106 140 178 221 266 312
#     4  10  19  32  53  78 104 136 174 216 260 309
#     4  10  20  34  53  76 105 138 169 210 262 312
#
# _framework density 19.927247000000001
#
# number of rings (size 3 to 8) (size 9 to 14) (size 15 to 20)
#    0.000    2.400    0.000    2.400    0.000    5.200 
#    0.000    1.000    0.000    0.000    0.000    0.000 
#    0.000    0.000    0.000    0.000    0.000    0.000 
#
# Total GULP energy -495765.905138 kJ/mol
# GULP energy per Si atom -12394.147628 kJ/mol
# Density = 1.988189 g / cm^3
# Si number density = 19.927247 Si / 1000 Ang^3
#
#
#
# Elastic Constant Matrix: (Units=GPa)
#
#
# Indices 1 2 3 4 5 6 
#
# 1 54.5837 16.1375 7.0013 0.0000 0.0000 0.0000
# 2 16.1375 136.5392 88.3562 0.0000 0.0000 0.0000
# 3 7.0013 88.3562 134.2905 0.0000 0.0000 0.0000
# 4 0.0000 0.0000 0.0000 55.3546 0.0000 0.0000
# 5 0.0000 0.0000 0.0000 0.0000 -16.7938 0.0000
# 6 0.0000 0.0000 0.0000 0.0000 0.0000 7.1069
#
#
#
# Elastic Compliance Matrix: (Units=1/GPa)
#
#
# Indices 1 2 3 4 5 6 
#
# 1 0.019039 -0.002800 0.000850 0.000000 0.000000 0.000000
# 2 -0.002800 0.013166 -0.008517 0.000000 0.000000 0.000000
# 3 0.000850 -0.008517 0.013006 0.000000 0.000000 0.000000
# 4 0.000000 0.000000 0.000000 0.018065 0.000000 0.000000
# 5 0.000000 0.000000 0.000000 0.000000 -0.059546 0.000000
# 6 0.000000 0.000000 0.000000 0.000000 0.000000 0.140709
#
#
# Mechanical properties :
#
#
# Convention : Reuss Voigt Hill
#
# Bulk Modulus (GPa) = 41.19108 60.93372 51.06240
# Shear Modulus (GPa) = 28.82410 23.39475 26.10943
#
# Velocity S-wave (km/s) = 3.80737 3.43010 3.62365
# Velocity P-wave (km/s) = 6.32801 6.80675 6.57174
#
# Compressibility (1/GPa) = 0.02427710
#
# Stress axis : x y z
#
# Youngs Moduli (GPa) = 52.52284 75.95299 76.88923
#
# Poissons Ratio (x) = 0.21268 -0.06533
# Poissons Ratio (y) = 0.14707 0.65483
# Poissons Ratio (z) = -0.04463 0.64686
#
# Static dielectric constant tensor:
#      x y z
#    x 3.761900 0.000000 0.000000 
#    y 0.000000 3.888750 0.000000 
#    z 0.000000 0.000000 3.530510 
# 
# 
# High freq. dielectric constant tensor:
#      x y z
#    x 1.754730 0.000000 0.000000 
#    y 0.000000 1.783630 0.000000 
#    z 0.000000 0.000000 1.779510 
# 
# From -- ./inp_files/17972.got.cif
#   From: 2010.03.12/outbox.cif.g09.slc.cpg/sg51_9_cif.got.tgz:17972.got - 2010.04.16 13:43:02.
