data_PCOD8209613
_publ_section_title
;
Structure prediction by ZEFSAII (Michael W. Deem and Ramdas Pophale) SiO2 
 PCOD8209613
Probable space group: P M M A
;
_chemical_formula_sum "Si O2"
_cell_formula_units_Z 64
_cell_length_a 15.111041
_cell_length_b 8.995975
_cell_length_c 24.133209
_cell_angle_alpha 90.000000
_cell_angle_beta 90.000000
_cell_angle_gamma 90.000000
_cell_volume 3280.633367
_symmetry_space_group_name_H-M "P M M A"
_symmetry_group_IT_number 51
_symmetry_cell_setting 'orthorhombic'
loop_
_space_group_symop_operation_xyz
x,y,z
1/2-x,-y,z
1/2+x,-y,-z
-x,y,-z
-x,-y,-z
1/2+x,y,-z
1/2-x,y,z
x,-y,z
loop_
_atom_site_type_symbol
_atom_site_label
_atom_site_fract_x
_atom_site_fract_y
_atom_site_fract_z
Si Si1 0.115848 0.166386 0.614938
Si Si2 0.149542 0.667334 0.502256
Si Si3 0.586947 0.166208 0.601187
Si Si4 0.496781 0.822916 0.791938
Si Si5 0.501329 0.823333 0.916568
Si Si6 0.148600 0.823491 0.999108
Si Si7 0.346979 0.176322 0.284182
Si Si8 0.848746 0.667674 0.275758
O O1 0.140746 0.232203 0.555863
O O2 0.156728 0.268062 0.662379
O O3 0.011762 0.160429 0.623754
O O4 0.155319 0.000000 0.618843
O O5 0.250000 0.670149 0.481200
O O6 0.118035 0.500000 0.515699
O O7 0.090223 0.730362 0.452557
O O8 0.642060 0.234547 0.652638
O O9 0.619925 0.000000 0.585045
O O10 0.502814 0.760000 0.854313
O O11 0.580365 0.757679 0.757792
O O12 0.407012 0.768086 0.764325
O O13 0.496175 0.000000 0.791772
O O14 0.591537 0.769151 0.947384
O O15 0.501384 0.000000 0.917090
O O16 0.410050 0.769216 0.946266
O O17 0.250000 0.757520 0.998667
O O18 0.156110 0.000000 0.999148
O O19 0.250000 0.223739 0.262543
O O20 0.358031 0.000000 0.286177
O O21 0.750000 0.668733 0.251019
O O22 0.886456 0.500000 0.278200
#
# Coordination Sequence:
#
# PCOD8209613 Si02
#       8
#     8   8   8   8   8   8   8   8
#     4  11  22  38  60  83 104 133 177 224 272 327
#     4  11  24  38  52  77 110 140 174 217 268 328
#     4  10  20  36  56  77 102 135 176 220 271 327
#     4  10  19  34  54  80 110 142 186 230 270 318
#     4   8  15  25  41  68 104 142 179 221 264 313
#     4   8  13  23  39  65 105 147 180 216 268 317
#     4   9  17  31  52  77 106 138 174 222 275 322
#     4  11  24  40  57  78 107 144 181 221 275 332
#
# _framework density 19.508427999999999
#
# number of rings (size 3 to 8) (size 9 to 14) (size 15 to 20)
#    0.000    2.250    1.250    3.000    0.000    7.500 
#    0.000    3.750    0.000    0.375    0.000    1.750 
#    0.000    1.000    0.000    0.000    0.000    0.000 
#
# Total GULP energy -793363.905819 kJ/mol
# GULP energy per Si atom -12396.311028 kJ/mol
# Density = 1.946403 g / cm^3
# Si number density = 19.508428 Si / 1000 Ang^3
#
#
#
# Elastic Constant Matrix: (Units=GPa)
#
#
# Indices 1 2 3 4 5 6 
#
# 1 123.7459 13.0870 50.4914 0.0000 0.0000 0.0000
# 2 13.0870 42.6963 18.4289 0.0000 0.0000 0.0000
# 3 50.4914 18.4289 140.5819 0.0000 0.0000 0.0000
# 4 0.0000 0.0000 0.0000 3.2267 0.0000 0.0000
# 5 0.0000 0.0000 0.0000 0.0000 10.3012 0.0000
# 6 0.0000 0.0000 0.0000 0.0000 0.0000 15.0971
#
#
#
# Elastic Compliance Matrix: (Units=1/GPa)
#
#
# Indices 1 2 3 4 5 6 
#
# 1 0.009563 -0.001536 -0.003233 0.000000 0.000000 0.000000
# 2 -0.001536 0.025072 -0.002735 0.000000 0.000000 0.000000
# 3 -0.003233 -0.002735 0.008633 0.000000 0.000000 0.000000
# 4 0.000000 0.000000 0.000000 0.309918 0.000000 0.000000
# 5 0.000000 0.000000 0.000000 0.000000 0.097076 0.000000
# 6 0.000000 0.000000 0.000000 0.000000 0.000000 0.066238
#
#
# Mechanical properties :
#
#
# Convention : Reuss Voigt Hill
#
# Bulk Modulus (GPa) = 35.38542 52.33762 43.86152
# Shear Modulus (GPa) = 9.24338 20.72613 14.98475
#
# Velocity S-wave (km/s) = 2.17909 3.26301 2.77450
# Velocity P-wave (km/s) = 4.95067 6.40959 5.72678
#
# Compressibility (1/GPa) = 0.02826023
#
# Stress axis : x y z
#
# Youngs Moduli (GPa) = 104.57280 39.88438 115.83310
#
# Poissons Ratio (x) = 0.06124 0.37452
# Poissons Ratio (y) = 0.16058 0.31683
# Poissons Ratio (z) = 0.33811 0.10909
#
# Static dielectric constant tensor:
#      x y z
#    x 3.797170 0.000000 0.000000 
#    y 0.000000 3.187780 0.000000 
#    z 0.000000 0.000000 3.664780 
# 
# 
# High freq. dielectric constant tensor:
#      x y z
#    x 1.773130 0.000000 0.000000 
#    y 0.000000 1.712860 0.000000 
#    z 0.000000 0.000000 1.756880 
# 
# From -- ./inp_files/35768.got.cif
#   From: 2010.03.12/outbox.cif.g09.slc.cpg/sg51_18_cif.got.tgz:35768.got - 2010.04.16 13:43:02.
