data_PCOD8209464
_publ_section_title
;
Structure prediction by ZEFSAII (Michael W. Deem and Ramdas Pophale) SiO2 
 PCOD8209464
Probable space group: P M M A
;
_chemical_formula_sum "Si O2"
_cell_formula_units_Z 48
_cell_length_a 17.729752
_cell_length_b 15.048410
_cell_length_c 9.713068
_cell_angle_alpha 90.000000
_cell_angle_beta 90.000000
_cell_angle_gamma 90.000000
_cell_volume 2591.491002
_symmetry_space_group_name_H-M "P M M A"
_symmetry_group_IT_number 51
_symmetry_cell_setting 'orthorhombic'
loop_
_space_group_symop_operation_xyz
x,y,z
1/2-x,-y,z
1/2+x,-y,-z
-x,y,-z
-x,-y,-z
1/2+x,y,-z
1/2-x,y,z
x,-y,z
loop_
_atom_site_type_symbol
_atom_site_label
_atom_site_fract_x
_atom_site_fract_y
_atom_site_fract_z
Si Si1 0.483879 0.102279 0.657699
Si Si2 0.160635 0.500000 0.560991
Si Si3 0.400107 0.686843 0.898666
Si Si4 0.162973 0.322742 0.419565
Si Si5 0.557137 0.257129 0.814308
Si Si6 0.339564 0.500000 0.874275
Si Si7 0.166113 0.802305 0.674020
O O1 0.500000 0.128021 0.500000
O O2 0.537611 0.158894 0.758118
O O3 0.396107 0.121097 0.692382
O O4 0.502039 0.000000 0.687134
O O5 0.250000 0.500000 0.561573
O O6 0.129865 0.412752 0.485234
O O7 0.132555 0.500000 0.717106
O O8 0.481057 0.684027 0.822023
O O9 0.374388 0.588186 0.944042
O O10 0.339231 0.728799 0.794734
O O11 0.405730 0.748971 0.034337
O O12 0.250000 0.333749 0.376966
O O13 0.115986 0.304902 0.283756
O O14 0.152648 0.243483 0.527354
O O15 0.250000 0.500000 0.893001
O O16 0.250000 0.844265 0.680124
#
# Coordination Sequence:
#
# PCOD8209464 Si02
#       7
#     8   4   8   8   8   4   8
#     4  10  20  37  63  87 110 145 188 235 291 350
#     4   9  18  32  51  80 110 143 189 233 272 319
#     4  10  22  36  56  80 116 160 187 231 281 342
#     4  10  19  33  55  80 113 150 189 239 284 330
#     4  10  22  39  54  83 118 145 191 235 287 346
#     4  11  20  35  57  83 114 154 201 235 277 333
#     4  10  19  35  58  85 113 147 189 233 283 338
#
# _framework density 18.522155000000001
#
# number of rings (size 3 to 8) (size 9 to 14) (size 15 to 20)
#    0.000    2.000    3.333    0.500    0.000    4.333 
#    0.000    8.333    0.000    0.500    0.000    0.000 
#    0.000    0.000    0.000    0.000    0.000    0.000 
#
# Total GULP energy -595222.958808 kJ/mol
# GULP energy per Si atom -12400.478309 kJ/mol
# Density = 1.848000 g / cm^3
# Si number density = 18.522155 Si / 1000 Ang^3
#
#
#
# Elastic Constant Matrix: (Units=GPa)
#
#
# Indices 1 2 3 4 5 6 
#
# 1 73.9972 34.6928 42.4418 0.0000 0.0000 0.0000
# 2 34.6928 91.1968 34.3040 0.0000 0.0000 0.0000
# 3 42.4418 34.3040 102.6572 0.0000 0.0000 0.0000
# 4 0.0000 0.0000 0.0000 26.0457 0.0000 0.0000
# 5 0.0000 0.0000 0.0000 0.0000 27.9679 0.0000
# 6 0.0000 0.0000 0.0000 0.0000 0.0000 22.1557
#
#
#
# Elastic Compliance Matrix: (Units=1/GPa)
#
#
# Indices 1 2 3 4 5 6 
#
# 1 0.019541 -0.005027 -0.006399 0.000000 0.000000 0.000000
# 2 -0.005027 0.013835 -0.002545 0.000000 0.000000 0.000000
# 3 -0.006399 -0.002545 0.013237 0.000000 0.000000 0.000000
# 4 0.000000 0.000000 0.000000 0.038394 0.000000 0.000000
# 5 0.000000 0.000000 0.000000 0.000000 0.035755 0.000000
# 6 0.000000 0.000000 0.000000 0.000000 0.000000 0.045135
#
#
# Mechanical properties :
#
#
# Convention : Reuss Voigt Hill
#
# Bulk Modulus (GPa) = 53.55729 54.52537 54.04133
# Shear Modulus (GPa) = 24.99216 25.66136 25.32676
#
# Velocity S-wave (km/s) = 3.67728 3.72619 3.70182
# Velocity P-wave (km/s) = 6.85623 6.92925 6.89284
#
# Compressibility (1/GPa) = 0.01867159
#
# Stress axis : x y z
#
# Youngs Moduli (GPa) = 51.17440 72.28159 75.54483
#
# Poissons Ratio (x) = 0.36333 0.48342
# Poissons Ratio (y) = 0.25724 0.19225
# Poissons Ratio (z) = 0.32747 0.18395
#
# Static dielectric constant tensor:
#      x y z
#    x 3.370960 0.000000 0.000000 
#    y 0.000000 3.256750 0.000000 
#    z 0.000000 0.000000 3.399900 
# 
# 
# High freq. dielectric constant tensor:
#      x y z
#    x 1.717770 0.000000 0.000000 
#    y 0.000000 1.700190 0.000000 
#    z 0.000000 0.000000 1.717880 
# 
# From -- ./inp_files/9704.got.cif
#   From: 2010.03.12/outbox.cif.g09.slc.cpg/sg51_5_cif.got.tgz:9704.got - 2010.04.16 13:43:02.
