data_PCOD8209127
_publ_section_title
;
Structure prediction by ZEFSAII (Michael W. Deem and Ramdas Pophale) SiO2 
 PCOD8209127
Probable space group: P M M A
;
_chemical_formula_sum "Si O2"
_cell_formula_units_Z 48
_cell_length_a 18.055986
_cell_length_b 8.817192
_cell_length_c 16.366286
_cell_angle_alpha 90.000000
_cell_angle_beta 90.000000
_cell_angle_gamma 90.000000
_cell_volume 2605.563390
_symmetry_space_group_name_H-M "P M M A"
_symmetry_group_IT_number 51
_symmetry_cell_setting 'orthorhombic'
loop_
_space_group_symop_operation_xyz
x,y,z
1/2-x,-y,z
1/2+x,-y,-z
-x,y,-z
-x,-y,-z
1/2+x,y,-z
1/2-x,y,z
x,-y,z
loop_
_atom_site_type_symbol
_atom_site_label
_atom_site_fract_x
_atom_site_fract_y
_atom_site_fract_z
Si Si1 0.469349 0.679084 0.914615
Si Si2 0.832936 0.177025 0.164211
Si Si3 0.414154 0.822884 0.671827
Si Si4 0.414229 0.677922 0.507840
Si Si5 0.449435 0.678798 0.247537
Si Si6 0.663530 0.823899 0.645379
O O1 0.462813 0.500000 0.917387
O O2 0.387373 0.742166 0.899357
O O3 0.525419 0.730550 0.842954
O O4 0.500000 0.744339 0.000000
O O5 0.750000 0.238769 0.149775
O O6 0.854863 0.212785 0.257595
O O7 0.837621 0.000000 0.146556
O O8 0.380494 0.766087 0.586151
O O9 0.488529 0.727246 0.687291
O O10 0.434004 0.000000 0.668453
O O11 0.500000 0.723504 0.500000
O O12 0.403546 0.500000 0.520352
O O13 0.368675 0.728926 0.429422
O O14 0.436945 0.500000 0.253459
O O15 0.373816 0.764988 0.270574
O O16 0.750000 0.792311 0.653457
O O17 0.645841 0.000000 0.632020
#
# Coordination Sequence:
#
# PCOD8209127 Si02
#       6
#     8   8   8   8   8   8
#     4   9  19  36  58  84 111 140 178 220 263 320
#     4   9  19  35  54  80 113 144 176 219 270 320
#     4  10  19  32  54  79 106 142 181 221 265 316
#     4  11  22  35  54  80 109 143 184 227 269 317
#     4  10  19  34  56  79 104 137 177 219 266 320
#     4  11  24  39  55  77 106 142 184 227 271 318
#
# _framework density 18.42212
#
# number of rings (size 3 to 8) (size 9 to 14) (size 15 to 20)
#    0.000    2.000    1.667    2.000    0.000    4.667 
#    0.000    2.500    0.000    5.000    0.000    0.000 
#    0.000    0.000    0.000    0.000    0.000    0.000 
#
# Total GULP energy -595331.247559 kJ/mol
# GULP energy per Si atom -12402.734324 kJ/mol
# Density = 1.838019 g / cm^3
# Si number density = 18.422120 Si / 1000 Ang^3
#
#
#
# Elastic Constant Matrix: (Units=GPa)
#
#
# Indices 1 2 3 4 5 6 
#
# 1 122.1270 35.6551 61.8555 0.0000 0.0000 0.0000
# 2 35.6551 45.7550 28.7755 0.0000 0.0000 0.0000
# 3 61.8555 28.7755 122.2582 0.0000 0.0000 0.0000
# 4 0.0000 0.0000 0.0000 27.1188 0.0000 0.0000
# 5 0.0000 0.0000 0.0000 0.0000 23.6942 0.0000
# 6 0.0000 0.0000 0.0000 0.0000 0.0000 22.5404
#
#
#
# Elastic Compliance Matrix: (Units=1/GPa)
#
#
# Indices 1 2 3 4 5 6 
#
# 1 0.012592 -0.006815 -0.004767 0.000000 0.000000 0.000000
# 2 -0.006815 0.029341 -0.003458 0.000000 0.000000 0.000000
# 3 -0.004767 -0.003458 0.011405 0.000000 0.000000 0.000000
# 4 0.000000 0.000000 0.000000 0.036875 0.000000 0.000000
# 5 0.000000 0.000000 0.000000 0.000000 0.042204 0.000000
# 6 0.000000 0.000000 0.000000 0.000000 0.000000 0.044365
#
#
# Mechanical properties :
#
#
# Convention : Reuss Voigt Hill
#
# Bulk Modulus (GPa) = 42.99454 60.30135 51.64794
# Shear Modulus (GPa) = 23.29765 25.59429 24.44597
#
# Velocity S-wave (km/s) = 3.56006 3.73141 3.64674
# Velocity P-wave (km/s) = 6.34727 7.16720 6.76966
#
# Compressibility (1/GPa) = 0.02325877
#
# Stress axis : x y z
#
# Youngs Moduli (GPa) = 79.41479 34.08240 87.67999
#
# Poissons Ratio (x) = 0.23226 0.41797
# Poissons Ratio (y) = 0.54118 0.30320
# Poissons Ratio (z) = 0.37857 0.11786
#
# Static dielectric constant tensor:
#      x y z
#    x 3.415760 0.000000 0.000000 
#    y 0.000000 3.376420 0.000000 
#    z 0.000000 0.000000 3.524040 
# 
# 
# High freq. dielectric constant tensor:
#      x y z
#    x 1.702790 0.000000 0.000000 
#    y 0.000000 1.720670 0.000000 
#    z 0.000000 0.000000 1.711540 
# 
# From -- ./inp_files/24811.got.cif
#   From: 2010.03.12/outbox.cif.g09.slc.cpg/sg51_13_cif.got.tgz:24811.got - 2010.04.16 13:43:02.
