data_PCOD8209891
_publ_section_title
;
Structure prediction by ZEFSAII (Michael W. Deem and Ramdas Pophale) SiO2 
 PCOD8209891
Probable space group: P M M A
;
_chemical_formula_sum "Si O2"
_cell_formula_units_Z 64
_cell_length_a 9.045324
_cell_length_b 20.182315
_cell_length_c 18.127560
_cell_angle_alpha 90.000000
_cell_angle_beta 90.000000
_cell_angle_gamma 90.000000
_cell_volume 3309.287198
_symmetry_space_group_name_H-M "P M M A"
_symmetry_group_IT_number 51
_symmetry_cell_setting 'orthorhombic'
loop_
_space_group_symop_operation_xyz
x,y,z
1/2-x,-y,z
1/2+x,-y,-z
-x,y,-z
-x,-y,-z
1/2+x,y,-z
1/2-x,y,z
x,-y,z
loop_
_atom_site_type_symbol
_atom_site_label
_atom_site_fract_x
_atom_site_fract_y
_atom_site_fract_z
Si Si1 0.410170 0.927339 0.564139
Si Si2 0.076450 0.574872 0.270043
Si Si3 0.925480 0.364848 0.574663
Si Si4 0.082091 0.752657 0.644481
Si Si5 0.077085 0.794416 0.923555
Si Si6 0.075355 0.115890 0.310412
Si Si7 0.583744 0.310860 0.196428
Si Si8 0.079188 0.923765 0.837010
O O1 0.500000 0.887462 0.500000
O O2 0.250000 0.892764 0.580971
O O3 0.513268 0.940427 0.636169
O O4 0.374982 0.000000 0.532964
O O5 0.250000 0.584453 0.264247
O O6 0.026726 0.500000 0.253043
O O7 0.026159 0.591939 0.353827
O O8 0.007824 0.621266 0.205977
O O9 0.750000 0.364117 0.564342
O O10 0.000000 0.394280 0.500000
O O11 0.987438 0.291251 0.587868
O O12 0.250000 0.756774 0.615352
O O13 0.078359 0.725530 0.726533
O O14 0.004685 0.822959 0.649268
O O15 0.250000 0.783997 0.933153
O O16 0.016680 0.740840 0.863621
O O17 0.044290 0.871185 0.901794
O O18 0.000000 0.778234 0.000000
O O19 0.250000 0.124998 0.311009
O O20 0.026154 0.099115 0.228338
O O21 0.750000 0.330340 0.174019
O O22 0.250000 0.917446 0.811943
O O23 0.044406 0.000000 0.861646
#
# Coordination Sequence:
#
# PCOD8209891 Si02
#       8
#     8   8   8   8   8   8   8   8
#     4  10  21  37  54  71  95 129 170 219 276 333
#     4   9  19  35  56  84 117 152 192 237 284 334
#     4  10  20  34  51  77 113 152 194 237 285 334
#     4  10  19  35  56  75 101 140 185 232 281 330
#     4  10  21  38  59  88 118 149 187 229 279 338
#     4  12  23  34  53  80 108 138 181 233 284 337
#     4   9  18  35  58  82 112 145 185 232 274 326
#     4  10  21  39  60  81 112 154 193 232 281 338
#
# _framework density 19.339513
#
# number of rings (size 3 to 8) (size 9 to 14) (size 15 to 20)
#    0.000    2.000    1.250    2.625    0.000    5.750 
#    0.000    2.500    0.000    0.375    0.000    0.000 
#    0.000    0.000    0.000    0.000    0.000    0.000 
#
# Total GULP energy -793042.759760 kJ/mol
# GULP energy per Si atom -12391.293121 kJ/mol
# Density = 1.929550 g / cm^3
# Si number density = 19.339513 Si / 1000 Ang^3
#
#
#
# Elastic Constant Matrix: (Units=GPa)
#
#
# Indices 1 2 3 4 5 6 
#
# 1 93.6301 31.1918 40.8162 0.0000 0.0000 0.0000
# 2 31.1918 111.5172 36.2623 0.0000 0.0000 0.0000
# 3 40.8162 36.2623 88.1471 0.0000 0.0000 0.0000
# 4 0.0000 0.0000 0.0000 18.5071 0.0000 0.0000
# 5 0.0000 0.0000 0.0000 0.0000 33.9461 0.0000
# 6 0.0000 0.0000 0.0000 0.0000 0.0000 20.9700
#
#
#
# Elastic Compliance Matrix: (Units=1/GPa)
#
#
# Indices 1 2 3 4 5 6 
#
# 1 0.013777 -0.002054 -0.005535 0.000000 0.000000 0.000000
# 2 -0.002054 0.010658 -0.003434 0.000000 0.000000 0.000000
# 3 -0.005535 -0.003434 0.015320 0.000000 0.000000 0.000000
# 4 0.000000 0.000000 0.000000 0.054033 0.000000 0.000000
# 5 0.000000 0.000000 0.000000 0.000000 0.029458 0.000000
# 6 0.000000 0.000000 0.000000 0.000000 0.000000 0.047687
#
#
# Mechanical properties :
#
#
# Convention : Reuss Voigt Hill
#
# Bulk Modulus (GPa) = 56.46090 56.64832 56.55461
# Shear Modulus (GPa) = 25.14050 27.01957 26.08003
#
# Velocity S-wave (km/s) = 3.60940 3.74186 3.67623
# Velocity P-wave (km/s) = 6.82849 6.92992 6.87939
#
# Compressibility (1/GPa) = 0.01771137
#
# Stress axis : x y z
#
# Youngs Moduli (GPa) = 72.58355 93.82437 65.27432
#
# Poissons Ratio (x) = 0.19270 0.36127
# Poissons Ratio (y) = 0.14908 0.22413
# Poissons Ratio (z) = 0.40172 0.32215
#
# Static dielectric constant tensor:
#      x y z
#    x 3.692400 0.000000 0.000000 
#    y 0.000000 3.699730 0.000000 
#    z 0.000000 0.000000 3.381710 
# 
# 
# High freq. dielectric constant tensor:
#      x y z
#    x 1.755510 0.000000 0.000000 
#    y 0.000000 1.747130 0.000000 
#    z 0.000000 0.000000 1.733990 
# 
# From -- ./inp_files/28419.got.cif
#   From: 2010.03.12/outbox.cif.g09.slc.cpg/sg51_15_cif.got.tgz:28419.got - 2010.04.16 13:43:02.
