data_PCOD8209032
_publ_section_title
;
Structure prediction by ZEFSAII (Michael W. Deem and Ramdas Pophale) SiO2 
 PCOD8209032
Probable space group: P M M A
;
_chemical_formula_sum "Si O2"
_cell_formula_units_Z 60
_cell_length_a 22.670207
_cell_length_b 24.531989
_cell_length_c 5.402048
_cell_angle_alpha 90.000000
_cell_angle_beta 90.000000
_cell_angle_gamma 90.000000
_cell_volume 3004.323437
_symmetry_space_group_name_H-M "P M M A"
_symmetry_group_IT_number 51
_symmetry_cell_setting 'orthorhombic'
loop_
_space_group_symop_operation_xyz
x,y,z
1/2-x,-y,z
1/2+x,-y,-z
-x,y,-z
-x,-y,-z
1/2+x,y,-z
1/2-x,y,z
x,-y,z
loop_
_atom_site_type_symbol
_atom_site_label
_atom_site_fract_x
_atom_site_fract_y
_atom_site_fract_z
Si Si1 0.817719 0.884352 0.529797
Si Si2 0.066543 0.246652 0.989469
Si Si3 0.366027 0.768741 0.508648
Si Si4 0.500000 0.403555 0.500000
Si Si5 0.820149 0.062558 0.029649
Si Si6 0.886054 0.439271 0.277552
Si Si7 0.318023 0.347056 0.472530
Si Si8 0.078028 0.637165 0.108487
O O1 0.750000 0.901685 0.531176
O O2 0.822424 0.819107 0.531975
O O3 0.846773 0.908756 0.781809
O O4 0.846571 0.909659 0.279556
O O5 0.095331 0.236883 0.259552
O O6 0.069878 0.311342 0.927416
O O7 0.096367 0.217073 0.754977
O O8 0.000000 0.224941 0.000000
O O9 0.328344 0.714334 0.571371
O O10 0.440768 0.439521 0.530373
O O11 0.481745 0.363756 0.274309
O O12 0.750000 0.069068 0.029620
O O13 0.840019 0.000000 0.027083
O O14 0.858733 0.500000 0.260815
O O15 0.835338 0.394695 0.332514
O O16 0.917393 0.421112 0.025055
O O17 0.250000 0.354718 0.398336
O O18 0.359314 0.355486 0.239486
#
# Coordination Sequence:
#
# PCOD8209032 Si02
#       8
#     8   8   8   4   8   8   8   8
#     4  10  19  32  52  81 118 159 197 236 274 334
#     4  11  22  37  59  84 115 146 187 240 302 357
#     4  11  22  38  58  86 115 154 195 236 287 348
#     4  10  21  36  60  84 110 134 172 236 301 364
#     4   9  17  30  50  79 118 160 196 234 284 330
#     4  11  22  38  57  82 108 139 185 238 295 354
#     4  10  23  41  56  77 109 150 190 233 286 345
#     4  10  22  37  58  84 107 142 182 235 296 363
#
# _framework density 19.971219000000001
#
# number of rings (size 3 to 8) (size 9 to 14) (size 15 to 20)
#    0.000    1.733    1.333    3.400    3.733    5.600 
#    0.000    1.333    0.000    0.000    0.000    0.000 
#    0.000   37.333    0.000    0.000    0.000    0.000 
#
# Total GULP energy -743471.857935 kJ/mol
# GULP energy per Si atom -12391.197632 kJ/mol
# Density = 1.992576 g / cm^3
# Si number density = 19.971219 Si / 1000 Ang^3
#
#
#
# Elastic Constant Matrix: (Units=GPa)
#
#
# Indices 1 2 3 4 5 6 
#
# 1 72.2786 11.7041 12.1407 0.0000 0.0000 0.0000
# 2 11.7041 130.0859 38.6445 0.0000 0.0000 0.0000
# 3 12.1407 38.6445 124.6726 0.0000 0.0000 0.0000
# 4 0.0000 0.0000 0.0000 26.8800 0.0000 0.0000
# 5 0.0000 0.0000 0.0000 0.0000 15.5839 0.0000
# 6 0.0000 0.0000 0.0000 0.0000 0.0000 17.4942
#
#
#
# Elastic Compliance Matrix: (Units=1/GPa)
#
#
# Indices 1 2 3 4 5 6 
#
# 1 0.014172 -0.000953 -0.001085 0.000000 0.000000 0.000000
# 2 -0.000953 0.008531 -0.002552 0.000000 0.000000 0.000000
# 3 -0.001085 -0.002552 0.008918 0.000000 0.000000 0.000000
# 4 0.000000 0.000000 0.000000 0.037202 0.000000 0.000000
# 5 0.000000 0.000000 0.000000 0.000000 0.064169 0.000000
# 6 0.000000 0.000000 0.000000 0.000000 0.000000 0.057162
#
#
# Mechanical properties :
#
#
# Convention : Reuss Voigt Hill
#
# Bulk Modulus (GPa) = 44.55898 50.22396 47.39147
# Shear Modulus (GPa) = 24.17655 29.62815 26.90235
#
# Velocity S-wave (km/s) = 3.48310 3.85586 3.67421
# Velocity P-wave (km/s) = 6.20774 6.71016 6.46383
#
# Compressibility (1/GPa) = 0.02244216
#
# Stress axis : x y z
#
# Youngs Moduli (GPa) = 70.56243 117.22044 112.13862
#
# Poissons Ratio (x) = 0.11169 0.12164
# Poissons Ratio (y) = 0.06723 0.28613
# Poissons Ratio (z) = 0.07654 0.29909
#
# Static dielectric constant tensor:
#      x y z
#    x 3.272350 0.000000 0.000000 
#    y 0.000000 3.508960 0.000000 
#    z 0.000000 0.000000 3.873440 
# 
# 
# High freq. dielectric constant tensor:
#      x y z
#    x 1.741280 0.000000 0.000000 
#    y 0.000000 1.767530 0.000000 
#    z 0.000000 0.000000 1.793990 
# 
# From -- ./inp_files/2652.got.cif
#   From: 2010.03.12/outbox.cif.g09.slc.cpg/sg51_2_cif.got.tgz:2652.got - 2010.04.16 13:43:02.
