data_PCOD8209428
_publ_section_title
;
Structure prediction by ZEFSAII (Michael W. Deem and Ramdas Pophale) SiO2 
 PCOD8209428
Probable space group: P M M A
;
_chemical_formula_sum "Si O2"
_cell_formula_units_Z 64
_cell_length_a 17.539001
_cell_length_b 9.153872
_cell_length_c 22.203060
_cell_angle_alpha 90.000000
_cell_angle_beta 90.000000
_cell_angle_gamma 90.000000
_cell_volume 3564.696180
_symmetry_space_group_name_H-M "P M M A"
_symmetry_group_IT_number 51
_symmetry_cell_setting 'orthorhombic'
loop_
_space_group_symop_operation_xyz
x,y,z
1/2-x,-y,z
1/2+x,-y,-z
-x,y,-z
-x,-y,-z
1/2+x,y,-z
1/2-x,y,z
x,-y,z
loop_
_atom_site_type_symbol
_atom_site_label
_atom_site_fract_x
_atom_site_fract_y
_atom_site_fract_z
Si Si1 0.336323 0.830163 0.795612
Si Si2 0.895415 0.169562 0.075251
Si Si3 0.929211 0.335791 0.455675
Si Si4 0.662750 0.833813 0.946847
Si Si5 0.978383 0.329201 0.248632
Si Si6 0.973727 0.172260 0.636280
Si Si7 0.337128 0.169113 0.451228
Si Si8 0.463158 0.330760 0.116839
O O1 0.250000 0.792954 0.776479
O O2 0.345896 0.789400 0.866018
O O3 0.392646 0.734671 0.754397
O O4 0.355007 0.000000 0.784767
O O5 0.974478 0.255895 0.074345
O O6 0.915947 0.000000 0.075220
O O7 0.848651 0.215335 0.016117
O O8 0.906926 0.500000 0.435245
O O9 0.857613 0.262344 0.489446
O O10 0.000000 0.340117 0.500000
O O11 0.953388 0.239009 0.398541
O O12 0.750000 0.815784 0.929576
O O13 0.618811 0.732059 0.900101
O O14 0.634990 0.000000 0.938603
O O15 0.973658 0.500000 0.263743
O O16 0.028501 0.246814 0.298565
O O17 0.021370 0.296857 0.186505
O O18 0.893481 0.209968 0.603777
O O19 0.985863 0.000000 0.642213
O O20 0.250000 0.203631 0.431993
O O21 0.347743 0.000000 0.468386
O O22 0.465379 0.500000 0.102708
#
# Coordination Sequence:
#
# PCOD8209428 Si02
#       8
#     8   8   8   8   8   8   8   8
#     4   9  17  31  52  76 100 126 159 202 252 305
#     4   9  17  31  52  75  98 125 159 201 251 307
#     4   9  17  30  50  76 105 134 162 194 236 287
#     4  10  20  33  50  73  99 127 162 206 255 305
#     4  10  21  36  52  71  99 135 173 211 249 294
#     4  10  19  33  55  78 101 134 174 211 248 292
#     4   9  18  33  53  79 109 136 165 206 252 293
#     4  10  21  35  50  70  98 132 168 206 251 303
#
# _framework density 17.953844
#
# number of rings (size 3 to 8) (size 9 to 14) (size 15 to 20)
#    0.000    2.500    0.000    2.250    0.000    7.750 
#    0.000    1.250    0.000    8.250    0.000    0.000 
#    0.000    0.000    0.000    0.000    0.000    0.000 
#
# Total GULP energy -793690.544652 kJ/mol
# GULP energy per Si atom -12401.414760 kJ/mol
# Density = 1.791298 g / cm^3
# Si number density = 17.953844 Si / 1000 Ang^3
#
#
#
# Elastic Constant Matrix: (Units=GPa)
#
#
# Indices 1 2 3 4 5 6 
#
# 1 97.0181 46.3259 41.7296 0.0000 0.0000 0.0000
# 2 46.3259 88.2780 46.3816 0.0000 0.0000 0.0000
# 3 41.7296 46.3816 67.5512 0.0000 0.0000 0.0000
# 4 0.0000 0.0000 0.0000 30.5939 0.0000 0.0000
# 5 0.0000 0.0000 0.0000 0.0000 21.6103 0.0000
# 6 0.0000 0.0000 0.0000 0.0000 0.0000 18.3701
#
#
#
# Elastic Compliance Matrix: (Units=1/GPa)
#
#
# Indices 1 2 3 4 5 6 
#
# 1 0.015220 -0.004767 -0.006129 0.000000 0.000000 0.000000
# 2 -0.004767 0.019213 -0.010248 0.000000 0.000000 0.000000
# 3 -0.006129 -0.010248 0.025626 0.000000 0.000000 0.000000
# 4 0.000000 0.000000 0.000000 0.032686 0.000000 0.000000
# 5 0.000000 0.000000 0.000000 0.000000 0.046274 0.000000
# 6 0.000000 0.000000 0.000000 0.000000 0.000000 0.054436
#
#
# Mechanical properties :
#
#
# Convention : Reuss Voigt Hill
#
# Bulk Modulus (GPa) = 56.26708 57.96905 57.11806
# Shear Modulus (GPa) = 20.68966 22.00887 21.34926
#
# Velocity S-wave (km/s) = 3.39836 3.50502 3.45210
# Velocity P-wave (km/s) = 6.84151 6.98127 6.91175
#
# Compressibility (1/GPa) = 0.01777238
#
# Stress axis : x y z
#
# Youngs Moduli (GPa) = 65.70453 52.04700 39.02287
#
# Poissons Ratio (x) = 0.24809 0.23917
# Poissons Ratio (y) = 0.31319 0.39989
# Poissons Ratio (z) = 0.40271 0.53336
#
# Static dielectric constant tensor:
#      x y z
#    x 3.296590 0.000000 0.000000 
#    y 0.000000 3.394310 0.000000 
#    z 0.000000 0.000000 3.239400 
# 
# 
# High freq. dielectric constant tensor:
#      x y z
#    x 1.684560 0.000000 0.000000 
#    y 0.000000 1.699240 0.000000 
#    z 0.000000 0.000000 1.683190 
# 
# From -- ./inp_files/33907.got.cif
#   From: 2010.03.12/outbox.cif.g09.slc.cpg/sg51_17_cif.got.tgz:33907.got - 2010.04.16 13:43:02.
