data_PCOD8209511
_publ_section_title
;
Structure prediction by ZEFSAII (Michael W. Deem and Ramdas Pophale) SiO2 
 PCOD8209511
Probable space group: P M M A
;
_chemical_formula_sum "Si O2"
_cell_formula_units_Z 56
_cell_length_a 14.535687
_cell_length_b 21.157521
_cell_length_c 9.317057
_cell_angle_alpha 90.000000
_cell_angle_beta 90.000000
_cell_angle_gamma 90.000000
_cell_volume 2865.359352
_symmetry_space_group_name_H-M "P M M A"
_symmetry_group_IT_number 51
_symmetry_cell_setting 'orthorhombic'
loop_
_space_group_symop_operation_xyz
x,y,z
1/2-x,-y,z
1/2+x,-y,-z
-x,y,-z
-x,-y,-z
1/2+x,y,-z
1/2-x,y,z
x,-y,z
loop_
_atom_site_type_symbol
_atom_site_label
_atom_site_fract_x
_atom_site_fract_y
_atom_site_fract_z
Si Si1 0.644280 0.203156 0.624788
Si Si2 0.150838 0.430938 0.636557
Si Si3 0.353066 0.125420 0.647525
Si Si4 0.590644 0.345281 0.597445
Si Si5 0.526146 0.874738 0.847230
Si Si6 0.610178 0.000000 0.506192
Si Si7 0.988748 0.425918 0.836689
Si Si8 0.642662 0.000000 0.833648
O O1 0.750000 0.184606 0.651145
O O2 0.613761 0.178721 0.466767
O O3 0.631722 0.277671 0.633131
O O4 0.585920 0.172192 0.751597
O O5 0.250000 0.434571 0.710234
O O6 0.118796 0.500000 0.578899
O O7 0.159573 0.384485 0.501759
O O8 0.085298 0.409315 0.763678
O O9 0.250000 0.141573 0.708327
O O10 0.427833 0.115192 0.770968
O O11 0.345523 0.060315 0.564803
O O12 0.500000 0.340091 0.500000
O O13 0.582917 0.382879 0.748449
O O14 0.583875 0.938537 0.881497
O O15 0.500000 0.843436 0.000000
O O16 0.500000 0.000000 0.500000
O O17 0.647635 0.000000 0.664826
O O18 0.961304 0.500000 0.828795
O O19 0.000000 0.403181 0.000000
O O20 0.750000 0.000000 0.892482
#
# Coordination Sequence:
#
# PCOD8209511 Si02
#       8
#     8   8   8   8   8   4   8   4
#     4  11  23  40  61  83 110 148 193 239 285 336
#     4   9  17  31  52  79 110 143 183 233 283 329
#     4  11  22  38  62  87 111 146 192 239 283 336
#     4  10  19  33  56  82 110 143 186 233 281 333
#     4  12  25  41  60  86 120 153 186 231 285 342
#     4  12  18  35  64  88 117 142 190 239 285 331
#     4   9  18  33  54  80 112 150 187 224 275 337
#     4  12  23  39  62  89 118 153 189 229 283 336
#
# _framework density 19.543794999999999
#
# number of rings (size 3 to 8) (size 9 to 14) (size 15 to 20)
#    0.000    1.429    2.857    3.429    0.000    3.429 
#    0.000    1.429    0.000    3.429    0.000    0.000 
#    0.000    0.000    0.000    0.000    0.000    0.000 
#
# Total GULP energy -694013.717677 kJ/mol
# GULP energy per Si atom -12393.102101 kJ/mol
# Density = 1.949931 g / cm^3
# Si number density = 19.543795 Si / 1000 Ang^3
#
#
#
# Elastic Constant Matrix: (Units=GPa)
#
#
# Indices 1 2 3 4 5 6 
#
# 1 101.4655 24.0877 40.1715 0.0000 0.0000 0.0000
# 2 24.0877 97.6128 38.0610 0.0000 0.0000 0.0000
# 3 40.1715 38.0610 114.0964 0.0000 0.0000 0.0000
# 4 0.0000 0.0000 0.0000 13.2338 0.0000 0.0000
# 5 0.0000 0.0000 0.0000 0.0000 10.7417 0.0000
# 6 0.0000 0.0000 0.0000 0.0000 0.0000 34.2046
#
#
#
# Elastic Compliance Matrix: (Units=1/GPa)
#
#
# Indices 1 2 3 4 5 6 
#
# 1 0.011631 -0.001464 -0.003607 0.000000 0.000000 0.000000
# 2 -0.001464 0.011961 -0.003474 0.000000 0.000000 0.000000
# 3 -0.003607 -0.003474 0.011193 0.000000 0.000000 0.000000
# 4 0.000000 0.000000 0.000000 0.075564 0.000000 0.000000
# 5 0.000000 0.000000 0.000000 0.000000 0.093095 0.000000
# 6 0.000000 0.000000 0.000000 0.000000 0.000000 0.029236
#
#
# Mechanical properties :
#
#
# Convention : Reuss Voigt Hill
#
# Bulk Modulus (GPa) = 56.51360 57.53501 57.02431
# Shear Modulus (GPa) = 19.55658 25.69300 22.62479
#
# Velocity S-wave (km/s) = 3.16674 3.62973 3.40611
# Velocity P-wave (km/s) = 6.50770 6.86072 6.68654
#
# Compressibility (1/GPa) = 0.01769485
#
# Stress axis : x y z
#
# Youngs Moduli (GPa) = 85.97680 83.60819 89.33795
#
# Poissons Ratio (x) = 0.12239 0.32222
# Poissons Ratio (y) = 0.12585 0.31040
# Poissons Ratio (z) = 0.31010 0.29050
#
# Static dielectric constant tensor:
#      x y z
#    x 3.793100 0.000000 0.000000 
#    y 0.000000 3.602310 0.000000 
#    z 0.000000 0.000000 3.461360 
# 
# 
# High freq. dielectric constant tensor:
#      x y z
#    x 1.772970 0.000000 0.000000 
#    y 0.000000 1.757190 0.000000 
#    z 0.000000 0.000000 1.745790 
# 
# From -- ./inp_files/8616.got.cif
#   From: 2010.03.12/outbox.cif.g09.slc.cpg/sg51_5_cif.got.tgz:8616.got - 2010.04.16 13:43:02.
