data_PCOD8209399
_publ_section_title
;
Structure prediction by ZEFSAII (Michael W. Deem and Ramdas Pophale) SiO2 
 PCOD8209399
Probable space group: P M M A
;
_chemical_formula_sum "Si O2"
_cell_formula_units_Z 64
_cell_length_a 19.306882
_cell_length_b 18.061311
_cell_length_c 9.676834
_cell_angle_alpha 90.000000
_cell_angle_beta 90.000000
_cell_angle_gamma 90.000000
_cell_volume 3374.385562
_symmetry_space_group_name_H-M "P M M A"
_symmetry_group_IT_number 51
_symmetry_cell_setting 'orthorhombic'
loop_
_space_group_symop_operation_xyz
x,y,z
1/2-x,-y,z
1/2+x,-y,-z
-x,y,-z
-x,-y,-z
1/2+x,y,-z
1/2-x,y,z
x,-y,z
loop_
_atom_site_type_symbol
_atom_site_label
_atom_site_fract_x
_atom_site_fract_y
_atom_site_fract_z
Si Si1 0.327703 0.814813 0.500778
Si Si2 0.326322 0.836877 0.819998
Si Si3 0.331210 0.648944 0.565362
Si Si4 0.330278 0.667715 0.876416
Si Si5 0.069977 0.414047 0.083223
Si Si6 0.944807 0.083995 0.619547
Si Si7 0.944108 0.584587 0.605573
Si Si8 0.535549 0.087188 0.134202
O O1 0.250000 0.821411 0.438045
O O2 0.327121 0.844190 0.655796
O O3 0.351880 0.729596 0.506225
O O4 0.379294 0.863556 0.408546
O O5 0.250000 0.860971 0.873783
O O6 0.343347 0.755265 0.875061
O O7 0.384235 0.891838 0.874232
O O8 0.250000 0.635769 0.551861
O O9 0.353861 0.637445 0.725486
O O10 0.369728 0.590047 0.468676
O O11 0.250000 0.649565 0.900156
O O12 0.371028 0.630823 0.002439
O O13 0.092429 0.500000 0.089026
O O14 0.059468 0.381203 0.239095
O O15 0.000000 0.402784 0.000000
O O16 0.000000 0.082026 0.500000
O O17 0.989090 0.120455 0.743147
O O18 0.917782 0.000000 0.649036
O O19 0.966194 0.500000 0.625499
O O20 0.000000 0.623053 0.500000
O O21 0.531705 0.000000 0.145402
O O22 0.500000 0.119952 0.000000
#
# Coordination Sequence:
#
# PCOD8209399 Si02
#       8
#     8   8   8   8   8   8   8   8
#     4   9  18  34  55  80 110 141 179 228 275 321
#     4   9  18  35  57  80 107 141 183 227 270 324
#     4   9  19  36  55  77 108 144 180 220 269 327
#     4   9  19  36  56  79 109 143 180 224 271 323
#     4  10  21  37  56  79 109 141 177 226 274 320
#     4  10  19  33  54  81 109 138 180 229 273 321
#     4  10  21  37  56  80 110 142 179 224 272 324
#     4  10  21  37  54  77 112 147 180 224 275 327
#
# _framework density 18.966415999999999
#
# number of rings (size 3 to 8) (size 9 to 14) (size 15 to 20)
#    0.000    2.500    1.250    2.250    0.000    4.000 
#    4.500    4.375    0.000    2.250    0.000    0.000 
#    0.000    0.000    0.000    0.000    0.000    0.000 
#
# Total GULP energy -793203.748441 kJ/mol
# GULP energy per Si atom -12393.808569 kJ/mol
# Density = 1.892325 g / cm^3
# Si number density = 18.966416 Si / 1000 Ang^3
#
#
#
# Elastic Constant Matrix: (Units=GPa)
#
#
# Indices 1 2 3 4 5 6 
#
# 1 107.4529 34.3144 64.8876 0.0000 0.0000 0.0000
# 2 34.3144 29.0267 31.9776 0.0000 0.0000 0.0000
# 3 64.8876 31.9776 138.6156 0.0000 0.0000 0.0000
# 4 0.0000 0.0000 0.0000 27.8796 0.0000 0.0000
# 5 0.0000 0.0000 0.0000 0.0000 35.7180 0.0000
# 6 0.0000 0.0000 0.0000 0.0000 0.0000 33.7645
#
#
#
# Elastic Compliance Matrix: (Units=1/GPa)
#
#
# Indices 1 2 3 4 5 6 
#
# 1 0.016725 -0.014944 -0.004381 0.000000 0.000000 0.000000
# 2 -0.014944 0.059544 -0.006741 0.000000 0.000000 0.000000
# 3 -0.004381 -0.006741 0.010820 0.000000 0.000000 0.000000
# 4 0.000000 0.000000 0.000000 0.035869 0.000000 0.000000
# 5 0.000000 0.000000 0.000000 0.000000 0.027997 0.000000
# 6 0.000000 0.000000 0.000000 0.000000 0.000000 0.029617
#
#
# Mechanical properties :
#
#
# Convention : Reuss Voigt Hill
#
# Bulk Modulus (GPa) = 28.60768 59.71714 44.16241
# Shear Modulus (GPa) = 20.46193 29.06678 24.76435
#
# Velocity S-wave (km/s) = 3.28815 3.91901 3.61736
# Velocity P-wave (km/s) = 5.43433 7.21334 6.38609
#
# Compressibility (1/GPa) = 0.03495565
#
# Stress axis : x y z
#
# Youngs Moduli (GPa) = 59.79204 16.79434 92.41971
#
# Poissons Ratio (x) = 0.25098 0.40493
# Poissons Ratio (y) = 0.89356 0.62297
# Poissons Ratio (z) = 0.26197 0.11320
#
# Static dielectric constant tensor:
#      x y z
#    x 3.509850 0.000000 0.000000 
#    y 0.000000 3.284230 0.000000 
#    z 0.000000 0.000000 3.593400 
# 
# 
# High freq. dielectric constant tensor:
#      x y z
#    x 1.743130 0.000000 0.000000 
#    y 0.000000 1.716430 0.000000 
#    z 0.000000 0.000000 1.734120 
# 
# From -- ./inp_files/11217.got.cif
#   From: 2010.03.12/outbox.cif.g09.slc.cpg/sg51_6_cif.got.tgz:11217.got - 2010.04.16 13:43:02.
