data_PCOD8209095
_publ_section_title
;
Structure prediction by ZEFSAII (Michael W. Deem and Ramdas Pophale) SiO2 
 PCOD8209095
Probable space group: P M M A
;
_chemical_formula_sum "Si O2"
_cell_formula_units_Z 48
_cell_length_a 23.324172
_cell_length_b 8.965120
_cell_length_c 12.755216
_cell_angle_alpha 90.000000
_cell_angle_beta 90.000000
_cell_angle_gamma 90.000000
_cell_volume 2667.166698
_symmetry_space_group_name_H-M "P M M A"
_symmetry_group_IT_number 51
_symmetry_cell_setting 'orthorhombic'
loop_
_space_group_symop_operation_xyz
x,y,z
1/2-x,-y,z
1/2+x,-y,-z
-x,y,-z
-x,-y,-z
1/2+x,y,-z
1/2-x,y,z
x,-y,z
loop_
_atom_site_type_symbol
_atom_site_label
_atom_site_fract_x
_atom_site_fract_y
_atom_site_fract_z
Si Si1 0.386455 0.676490 0.693453
Si Si2 0.683246 0.326685 0.880120
Si Si3 0.313727 0.677342 0.884510
Si Si4 0.990599 0.674442 0.620850
Si Si5 0.875435 0.175942 0.691333
Si Si6 0.316172 0.328015 0.496300
O O1 0.378830 0.500000 0.692762
O O2 0.358850 0.743274 0.800007
O O3 0.453021 0.720748 0.686570
O O4 0.352886 0.739335 0.592226
O O5 0.750000 0.297819 0.855815
O O6 0.668474 0.500000 0.863180
O O7 0.643500 0.228530 0.805907
O O8 0.668310 0.274510 0.998424
O O9 0.250000 0.738160 0.857918
O O10 0.312390 0.500000 0.879497
O O11 0.976691 0.500000 0.631716
O O12 0.938949 0.767123 0.668183
O O13 0.000000 0.717046 0.500000
O O14 0.829990 0.237383 0.607959
O O15 0.875212 0.000000 0.686887
O O16 0.250000 0.309972 0.525624
O O17 0.332448 0.500000 0.475043
#
# Coordination Sequence:
#
# PCOD8209095 Si02
#       6
#     8   8   8   8   8   8
#     4   9  16  29  52  81 107 132 166 211 263 313
#     4   9  18  34  56  79 104 135 171 213 261 311
#     4   8  14  27  51  83 110 129 160 212 267 313
#     4  10  19  35  56  76 103 139 178 216 256 309
#     4  12  24  35  50  73 105 141 180 218 256 305
#     4  10  19  32  53  80 108 135 166 210 264 318
#
# _framework density 17.996627
#
# number of rings (size 3 to 8) (size 9 to 14) (size 15 to 20)
#    0.000    2.333    1.667    3.500    0.000    5.000 
#    0.000    0.833    0.000    7.000    0.000    2.333 
#    0.000    0.000    0.000    0.000    0.000    0.000 
#
# Total GULP energy -595179.041321 kJ/mol
# GULP energy per Si atom -12399.563361 kJ/mol
# Density = 1.795567 g / cm^3
# Si number density = 17.996627 Si / 1000 Ang^3
#
#
#
# Elastic Constant Matrix: (Units=GPa)
#
#
# Indices 1 2 3 4 5 6 
#
# 1 97.2315 40.8835 59.2869 0.0000 0.0000 0.0000
# 2 40.8835 60.0595 41.6388 0.0000 0.0000 0.0000
# 3 59.2869 41.6388 128.7251 0.0000 0.0000 0.0000
# 4 0.0000 0.0000 0.0000 -0.9869 0.0000 0.0000
# 5 0.0000 0.0000 0.0000 0.0000 31.2616 0.0000
# 6 0.0000 0.0000 0.0000 0.0000 0.0000 3.6111
#
#
#
# Elastic Compliance Matrix: (Units=1/GPa)
#
#
# Indices 1 2 3 4 5 6 
#
# 1 0.016719 -0.007789 -0.005181 0.000000 0.000000 0.000000
# 2 -0.007789 0.025092 -0.004529 0.000000 0.000000 0.000000
# 3 -0.005181 -0.004529 0.011620 0.000000 0.000000 0.000000
# 4 0.000000 0.000000 0.000000 -1.013237 0.000000 0.000000
# 5 0.000000 0.000000 0.000000 0.000000 0.031988 0.000000
# 6 0.000000 0.000000 0.000000 0.000000 0.000000 0.276924
#
#
# Mechanical properties :
#
#
# Convention : Reuss Voigt Hill
#
# Bulk Modulus (GPa) = 54.25082 63.29271 58.77176
# Shear Modulus (GPa) = -8.20005 16.39095 4.09545
#
# Velocity S-wave (km/s) = -2.13690 3.02119 1.51017
# Velocity P-wave (km/s) = 4.91141 6.88590 5.98070
#
# Compressibility (1/GPa) = 0.01843290
#
# Stress axis : x y z
#
# Youngs Moduli (GPa) = 59.81324 39.85279 86.06137
#
# Poissons Ratio (x) = 0.31041 0.44585
# Poissons Ratio (y) = 0.46589 0.38979
# Poissons Ratio (z) = 0.30987 0.18050
#
# Static dielectric constant tensor:
#      x y z
#    x 3.445420 0.000000 0.000000 
#    y 0.000000 2.892170 0.000000 
#    z 0.000000 0.000000 3.569750 
# 
# 
# High freq. dielectric constant tensor:
#      x y z
#    x 1.701170 0.000000 0.000000 
#    y 0.000000 1.649190 0.000000 
#    z 0.000000 0.000000 1.703560 
# 
# From -- ./inp_files/18628.got.cif
#   From: 2010.03.12/outbox.cif.g09.slc.cpg/sg51_10_cif.got.tgz:18628.got - 2010.04.16 13:43:02.
