data_PCOD8209742
_publ_section_title
;
Structure prediction by ZEFSAII (Michael W. Deem and Ramdas Pophale) SiO2 
 PCOD8209742
Probable space group: P M M A
;
_chemical_formula_sum "Si O2"
_cell_formula_units_Z 48
_cell_length_a 16.716778
_cell_length_b 14.146927
_cell_length_c 10.206318
_cell_angle_alpha 90.000000
_cell_angle_beta 90.000000
_cell_angle_gamma 90.000000
_cell_volume 2413.702738
_symmetry_space_group_name_H-M "P M M A"
_symmetry_group_IT_number 51
_symmetry_cell_setting 'orthorhombic'
loop_
_space_group_symop_operation_xyz
x,y,z
1/2-x,-y,z
1/2+x,-y,-z
-x,y,-z
-x,-y,-z
1/2+x,y,-z
1/2-x,y,z
x,-y,z
loop_
_atom_site_type_symbol
_atom_site_label
_atom_site_fract_x
_atom_site_fract_y
_atom_site_fract_z
Si Si1 0.842168 0.726083 0.809986
Si Si2 0.909598 0.390182 0.036878
Si Si3 0.841971 0.898079 0.212138
Si Si4 0.084946 0.893505 0.059184
Si Si5 0.654438 0.302165 0.295091
Si Si6 0.845031 0.393702 0.566625
O O1 0.750000 0.750786 0.784468
O O2 0.878545 0.666963 0.688439
O O3 0.849763 0.665682 0.942263
O O4 0.891107 0.824120 0.822453
O O5 0.893011 0.500000 0.016704
O O6 0.890912 0.362393 0.185539
O O7 0.000000 0.362714 0.000000
O O8 0.750000 0.906479 0.247058
O O9 0.850579 0.882043 0.056569
O O10 0.876074 0.807233 0.289627
O O11 0.883435 0.000000 0.250417
O O12 0.082219 0.000000 0.115252
O O13 0.000000 0.863074 0.000000
O O14 0.750000 0.309429 0.273932
O O15 0.626679 0.344343 0.433153
O O16 0.750000 0.398038 0.573400
O O17 0.880317 0.500000 0.573936
#
# Coordination Sequence:
#
# PCOD8209742 Si02
#       6
#     8   8   8   8   8   8
#     4  11  21  35  56  82 110 143 182 229 284 331
#     4  11  23  36  53  79 110 142 184 237 282 329
#     4   9  17  30  51  80 108 134 173 225 275 322
#     4  10  20  34  55  82 113 147 181 222 278 336
#     4  10  19  34  57  82 107 147 192 229 278 339
#     4   9  19  35  54  78 111 148 187 232 282 336
#
# _framework density 19.886458999999999
#
# number of rings (size 3 to 8) (size 9 to 14) (size 15 to 20)
#    0.000    2.000    1.667    2.500    0.000    3.667 
#    0.000    1.667    0.000    6.000    0.000    3.500 
#    0.000    0.000    0.000    0.000    0.000    0.000 
#
# Total GULP energy -595106.588931 kJ/mol
# GULP energy per Si atom -12398.053936 kJ/mol
# Density = 1.984120 g / cm^3
# Si number density = 19.886459 Si / 1000 Ang^3
#
#
#
# Elastic Constant Matrix: (Units=GPa)
#
#
# Indices 1 2 3 4 5 6 
#
# 1 42.7640 32.4466 18.7324 0.0000 0.0000 0.0000
# 2 32.4466 164.1184 67.1246 0.0000 0.0000 0.0000
# 3 18.7324 67.1246 123.9953 0.0000 0.0000 0.0000
# 4 0.0000 0.0000 0.0000 47.6506 0.0000 0.0000
# 5 0.0000 0.0000 0.0000 0.0000 17.4746 0.0000
# 6 0.0000 0.0000 0.0000 0.0000 0.0000 23.3457
#
#
#
# Elastic Compliance Matrix: (Units=1/GPa)
#
#
# Indices 1 2 3 4 5 6 
#
# 1 0.027747 -0.004844 -0.001570 0.000000 0.000000 0.000000
# 2 -0.004844 0.008671 -0.003963 0.000000 0.000000 0.000000
# 3 -0.001570 -0.003963 0.010447 0.000000 0.000000 0.000000
# 4 0.000000 0.000000 0.000000 0.020986 0.000000 0.000000
# 5 0.000000 0.000000 0.000000 0.000000 0.057226 0.000000
# 6 0.000000 0.000000 0.000000 0.000000 0.000000 0.042834
#
#
# Mechanical properties :
#
#
# Convention : Reuss Voigt Hill
#
# Bulk Modulus (GPa) = 38.29425 63.05387 50.67406
# Shear Modulus (GPa) = 25.33341 31.86578 28.59960
#
# Velocity S-wave (km/s) = 3.57305 4.00732 3.79640
# Velocity P-wave (km/s) = 6.02665 7.29296 6.68984
#
# Compressibility (1/GPa) = 0.02611358
#
# Stress axis : x y z
#
# Youngs Moduli (GPa) = 36.04022 115.32139 95.72061
#
# Poissons Ratio (x) = 0.55857 0.15026
# Poissons Ratio (y) = 0.17456 0.37929
# Poissons Ratio (z) = 0.05657 0.45696
#
# Static dielectric constant tensor:
#      x y z
#    x 3.349330 0.000000 0.000000 
#    y 0.000000 4.124560 0.000000 
#    z 0.000000 0.000000 3.475160 
# 
# 
# High freq. dielectric constant tensor:
#      x y z
#    x 1.751880 0.000000 0.000000 
#    y 0.000000 1.800310 0.000000 
#    z 0.000000 0.000000 1.748120 
# 
# From -- ./inp_files/9603.got.cif
#   From: 2010.03.12/outbox.cif.g09.slc.cpg/sg51_5_cif.got.tgz:9603.got - 2010.04.16 13:43:02.
