data_PCOD8209901
_publ_section_title
;
Structure prediction by ZEFSAII (Michael W. Deem and Ramdas Pophale) SiO2 
 PCOD8209901
Probable space group: P M M A
;
_chemical_formula_sum "Si O2"
_cell_formula_units_Z 40
_cell_length_a 9.153655
_cell_length_b 14.652795
_cell_length_c 15.072494
_cell_angle_alpha 90.000000
_cell_angle_beta 90.000000
_cell_angle_gamma 90.000000
_cell_volume 2021.622829
_symmetry_space_group_name_H-M "P M M A"
_symmetry_group_IT_number 51
_symmetry_cell_setting 'orthorhombic'
loop_
_space_group_symop_operation_xyz
x,y,z
1/2-x,-y,z
1/2+x,-y,-z
-x,y,-z
-x,-y,-z
1/2+x,y,-z
1/2-x,y,z
x,-y,z
loop_
_atom_site_type_symbol
_atom_site_label
_atom_site_fract_x
_atom_site_fract_y
_atom_site_fract_z
Si Si1 0.088272 0.397277 0.114472
Si Si2 0.419757 0.216257 0.916372
Si Si3 0.411667 0.650510 0.315181
Si Si4 0.579704 0.172260 0.281999
Si Si5 0.580351 0.000000 0.404088
Si Si6 0.579958 0.500000 0.409765
O O1 0.250000 0.378598 0.073444
O O2 0.034373 0.500000 0.089219
O O3 0.103297 0.390674 0.218849
O O4 0.971741 0.322178 0.083350
O O5 0.250000 0.214980 0.936375
O O6 0.454404 0.162837 0.824129
O O7 0.500000 0.166938 0.000000
O O8 0.250000 0.647679 0.360442
O O9 0.471645 0.752500 0.319987
O O10 0.533492 0.591658 0.362098
O O11 0.750000 0.199106 0.293041
O O12 0.539641 0.084451 0.340469
O O13 0.500000 0.000000 0.500000
O O14 0.750000 0.000000 0.428080
O O15 0.750000 0.500000 0.423375
O O16 0.500000 0.500000 0.500000
#
# Coordination Sequence:
#
# PCOD8209901 Si02
#       6
#     8   8   8   8   4   4
#     4   9  17  31  51  74 105 146 191 236 281 330
#     4  10  20  34  53  79 112 151 196 239 287 341
#     4  10  19  35  56  80 111 148 189 236 288 342
#     4   9  20  39  61  86 116 155 193 235 292 354
#     4  10  22  42  67  92 120 146 185 240 295 356
#     4  12  24  36  52  76 109 148 193 240 286 348
#
# _framework density 19.786083999999999
#
# number of rings (size 3 to 8) (size 9 to 14) (size 15 to 20)
#    0.000    2.200    1.000    2.100    0.000    4.000 
#    0.000    2.500    0.000    0.000    0.000    0.000 
#    0.000    0.000    0.000    0.000    0.000    0.000 
#
# Total GULP energy -495600.613303 kJ/mol
# GULP energy per Si atom -12390.015333 kJ/mol
# Density = 1.974105 g / cm^3
# Si number density = 19.786084 Si / 1000 Ang^3
#
#
#
# Elastic Constant Matrix: (Units=GPa)
#
#
# Indices 1 2 3 4 5 6 
#
# 1 135.4062 51.9119 63.4022 0.0000 0.0000 0.0000
# 2 51.9119 94.6974 63.9270 0.0000 0.0000 0.0000
# 3 63.4022 63.9270 122.4853 0.0000 0.0000 0.0000
# 4 0.0000 0.0000 0.0000 14.4207 0.0000 0.0000
# 5 0.0000 0.0000 0.0000 0.0000 35.7583 0.0000
# 6 0.0000 0.0000 0.0000 0.0000 0.0000 25.7015
#
#
#
# Elastic Compliance Matrix: (Units=1/GPa)
#
#
# Indices 1 2 3 4 5 6 
#
# 1 0.010329 -0.003170 -0.003692 0.000000 0.000000 0.000000
# 2 -0.003170 0.017277 -0.007376 0.000000 0.000000 0.000000
# 3 -0.003692 -0.007376 0.013925 0.000000 0.000000 0.000000
# 4 0.000000 0.000000 0.000000 0.069345 0.000000 0.000000
# 5 0.000000 0.000000 0.000000 0.000000 0.027966 0.000000
# 6 0.000000 0.000000 0.000000 0.000000 0.000000 0.038908
#
#
# Mechanical properties :
#
#
# Convention : Reuss Voigt Hill
#
# Bulk Modulus (GPa) = 76.60110 79.00790 77.80450
# Shear Modulus (GPa) = 23.74402 26.73263 25.23832
#
# Velocity S-wave (km/s) = 3.46791 3.67969 3.57537
# Velocity P-wave (km/s) = 7.40499 7.62045 7.51349
#
# Compressibility (1/GPa) = 0.01305464
#
# Stress axis : x y z
#
# Youngs Moduli (GPa) = 96.81162 57.87977 71.81095
#
# Poissons Ratio (x) = 0.18347 0.26516
# Poissons Ratio (y) = 0.30687 0.52971
# Poissons Ratio (z) = 0.35747 0.42695
#
# Static dielectric constant tensor:
#      x y z
#    x 3.438170 0.000000 0.000000 
#    y 0.000000 3.414950 0.000000 
#    z 0.000000 0.000000 3.771390 
# 
# 
# High freq. dielectric constant tensor:
#      x y z
#    x 1.779070 0.000000 0.000000 
#    y 0.000000 1.748230 0.000000 
#    z 0.000000 0.000000 1.779120 
# 
# From -- ./inp_files/20528.got.cif
#   From: 2010.03.12/outbox.cif.g09.slc.cpg/sg51_11_cif.got.tgz:20528.got - 2010.04.16 13:43:02.
