data_PCOD8209076
_publ_section_title
;
Structure prediction by ZEFSAII (Michael W. Deem and Ramdas Pophale) SiO2 
 PCOD8209076
Probable space group: P M M A
;
_chemical_formula_sum "Si O2"
_cell_formula_units_Z 64
_cell_length_a 9.092222
_cell_length_b 24.693203
_cell_length_c 14.936158
_cell_angle_alpha 90.000000
_cell_angle_beta 90.000000
_cell_angle_gamma 90.000000
_cell_volume 3353.407698
_symmetry_space_group_name_H-M "P M M A"
_symmetry_group_IT_number 51
_symmetry_cell_setting 'orthorhombic'
loop_
_space_group_symop_operation_xyz
x,y,z
1/2-x,-y,z
1/2+x,-y,-z
-x,y,-z
-x,-y,-z
1/2+x,y,-z
1/2-x,y,z
x,-y,z
loop_
_atom_site_type_symbol
_atom_site_label
_atom_site_fract_x
_atom_site_fract_y
_atom_site_fract_z
Si Si1 0.922728 0.864640 0.764732
Si Si2 0.920812 0.739354 0.763377
Si Si3 0.585372 0.263170 0.414044
Si Si4 0.584011 0.865539 0.413939
Si Si5 0.084214 0.564364 0.586598
Si Si6 0.422040 0.348815 0.094780
Si Si7 0.921978 0.562001 0.764735
Si Si8 0.080341 0.061316 0.906546
O O1 0.750000 0.876347 0.761829
O O2 0.957064 0.801749 0.783743
O O3 0.993306 0.884489 0.672145
O O4 0.998405 0.898412 0.841452
O O5 0.750000 0.731035 0.741404
O O6 0.968881 0.704499 0.849471
O O7 0.007426 0.717636 0.676899
O O8 0.500000 0.286978 0.500000
O O9 0.750000 0.286691 0.414873
O O10 0.587449 0.198785 0.419349
O O11 0.500000 0.889629 0.500000
O O12 0.750000 0.888724 0.409880
O O13 0.250000 0.586802 0.585890
O O14 0.081825 0.500000 0.582933
O O15 0.000000 0.588115 0.500000
O O16 0.005519 0.584122 0.677215
O O17 0.250000 0.348893 0.075989
O O18 0.469360 0.402147 0.150210
O O19 0.500000 0.348550 0.000000
O O20 0.750000 0.568128 0.744322
O O21 0.964549 0.500000 0.786590
O O22 0.250000 0.078638 0.916916
O O23 0.067748 0.000000 0.870094
O O24 0.000000 0.066861 0.000000
#
# Coordination Sequence:
#
# PCOD8209076 Si02
#       8
#     8   8   8   8   8   8   8   8
#     4  10  19  32  53  79 106 138 175 213 254 304
#     4   9  19  35  52  74 105 138 172 210 253 303
#     4   9  16  27  47  74 103 136 171 209 251 298
#     4   9  16  27  45  72 105 139 176 215 255 300
#     4   9  16  27  47  76 107 136 165 200 245 299
#     4  10  22  39  56  74 100 133 168 212 264 311
#     4   9  18  34  55  77 101 131 169 212 256 303
#     4  10  21  37  56  78 105 136 171 214 262 309
#
# _framework density 19.085063000000002
#
# number of rings (size 3 to 8) (size 9 to 14) (size 15 to 20)
#    0.000    2.625    0.000    1.875    0.000    7.500 
#    0.000    1.875    0.000    0.375    0.000    0.000 
#    0.000    0.000    0.000    0.000    0.000    0.000 
#
# Total GULP energy -793609.454919 kJ/mol
# GULP energy per Si atom -12400.147733 kJ/mol
# Density = 1.904162 g / cm^3
# Si number density = 19.085063 Si / 1000 Ang^3
#
#
#
# Elastic Constant Matrix: (Units=GPa)
#
#
# Indices 1 2 3 4 5 6 
#
# 1 133.9453 44.9591 89.6462 0.0000 0.0000 0.0000
# 2 44.9591 64.7824 58.8016 0.0000 0.0000 0.0000
# 3 89.6462 58.8016 174.8832 0.0000 0.0000 0.0000
# 4 0.0000 0.0000 0.0000 -71.7351 0.0000 0.0000
# 5 0.0000 0.0000 0.0000 0.0000 45.6373 0.0000
# 6 0.0000 0.0000 0.0000 0.0000 0.0000 14.8952
#
#
#
# Elastic Compliance Matrix: (Units=1/GPa)
#
#
# Indices 1 2 3 4 5 6 
#
# 1 0.012032 -0.003961 -0.004836 0.000000 0.000000 0.000000
# 2 -0.003961 0.023520 -0.005878 0.000000 0.000000 0.000000
# 3 -0.004836 -0.005878 0.010173 0.000000 0.000000 0.000000
# 4 0.000000 0.000000 0.000000 -0.013940 0.000000 0.000000
# 5 0.000000 0.000000 0.000000 0.000000 0.021912 0.000000
# 6 0.000000 0.000000 0.000000 0.000000 0.000000 0.067136
#
#
# Mechanical properties :
#
#
# Convention : Reuss Voigt Hill
#
# Bulk Modulus (GPa) = 61.06366 84.49163 72.77764
# Shear Modulus (GPa) = 32.12528 9.77308 20.94918
#
# Velocity S-wave (km/s) = 4.10722 2.26537 3.31671
# Velocity P-wave (km/s) = 7.38629 7.15610 7.27210
#
# Compressibility (1/GPa) = 0.01637635
#
# Stress axis : x y z
#
# Youngs Moduli (GPa) = 83.11466 42.51631 98.29594
#
# Poissons Ratio (x) = 0.16839 0.47534
# Poissons Ratio (y) = 0.32918 0.57779
# Poissons Ratio (z) = 0.40192 0.24992
#
# Static dielectric constant tensor:
#      x y z
#    x 3.587350 0.000000 0.000000 
#    y 0.000000 3.308430 0.000000 
#    z 0.000000 0.000000 3.503550 
# 
# 
# High freq. dielectric constant tensor:
#      x y z
#    x 1.750980 0.000000 0.000000 
#    y 0.000000 1.717620 0.000000 
#    z 0.000000 0.000000 1.745200 
# 
# From -- ./inp_files/22263.got.cif
#   From: 2010.03.12/outbox.cif.g09.slc.cpg/sg51_12_cif.got.tgz:22263.got - 2010.04.16 13:43:02.
