data_PCOD8209849
_publ_section_title
;
Structure prediction by ZEFSAII (Michael W. Deem and Ramdas Pophale) SiO2 
 PCOD8209849
Probable space group: P M M A
;
_chemical_formula_sum "Si O2"
_cell_formula_units_Z 56
_cell_length_a 15.126444
_cell_length_b 8.986185
_cell_length_c 20.947869
_cell_angle_alpha 90.000000
_cell_angle_beta 90.000000
_cell_angle_gamma 90.000000
_cell_volume 2847.423392
_symmetry_space_group_name_H-M "P M M A"
_symmetry_group_IT_number 51
_symmetry_cell_setting 'orthorhombic'
loop_
_space_group_symop_operation_xyz
x,y,z
1/2-x,-y,z
1/2+x,-y,-z
-x,y,-z
-x,-y,-z
1/2+x,y,-z
1/2-x,y,z
x,-y,z
loop_
_atom_site_type_symbol
_atom_site_label
_atom_site_fract_x
_atom_site_fract_y
_atom_site_fract_z
Si Si1 0.506996 0.823246 0.715665
Si Si2 0.149113 0.672265 0.647215
Si Si3 0.851545 0.170721 0.937606
Si Si4 0.010467 0.675289 0.150994
Si Si5 0.847519 0.830203 0.616874
Si Si6 0.899711 0.325106 0.493222
Si Si7 0.149070 0.171380 0.913811
O O1 0.410309 0.769207 0.694515
O O2 0.533522 0.753688 0.782818
O O3 0.579660 0.763739 0.665059
O O4 0.508127 0.000000 0.721796
O O5 0.250000 0.694788 0.668667
O O6 0.120279 0.500000 0.652303
O O7 0.137579 0.729408 0.574710
O O8 0.750000 0.203214 0.919266
O O9 0.914428 0.280485 0.899239
O O10 0.875720 0.000000 0.921537
O O11 0.867565 0.202228 0.011890
O O12 0.010660 0.500000 0.160673
O O13 0.913804 0.724099 0.127445
O O14 0.750000 0.815400 0.648201
O O15 0.844078 0.745815 0.549881
O O16 0.871704 0.000000 0.602351
O O17 0.889667 0.500000 0.499822
O O18 0.000000 0.271259 0.500000
O O19 0.250000 0.209313 0.895667
O O20 0.127792 0.000000 0.897803
#
# Coordination Sequence:
#
# PCOD8209849 Si02
#       7
#     8   8   8   8   8   8   8
#     4  11  24  41  59  79 109 152 199 242 285 337
#     4  10  21  38  59  84 115 149 186 232 288 345
#     4   9  19  38  64  91 119 153 193 237 283 335
#     4  12  25  38  57  86 121 157 194 237 291 346
#     4  10  22  39  59  84 112 144 187 238 288 336
#     4  10  19  34  60  88 116 147 182 226 281 346
#     4   9  19  38  64  91 118 152 195 238 282 338
#
# _framework density 19.666903000000001
#
# number of rings (size 3 to 8) (size 9 to 14) (size 15 to 20)
#    0.000    1.857    1.429    3.429    0.000    6.571 
#    0.000    2.857    0.000    0.000    0.000    0.000 
#    0.000    0.000    0.000    0.000    0.000    0.000 
#
# Total GULP energy -694605.591502 kJ/mol
# GULP energy per Si atom -12403.671277 kJ/mol
# Density = 1.962214 g / cm^3
# Si number density = 19.666903 Si / 1000 Ang^3
#
#
#
# Elastic Constant Matrix: (Units=GPa)
#
#
# Indices 1 2 3 4 5 6 
#
# 1 84.4567 26.9215 17.5605 0.0000 0.0000 0.0000
# 2 26.9215 71.4123 25.9153 0.0000 0.0000 0.0000
# 3 17.5605 25.9153 62.3308 0.0000 0.0000 0.0000
# 4 0.0000 0.0000 0.0000 30.4891 0.0000 0.0000
# 5 0.0000 0.0000 0.0000 0.0000 12.7056 0.0000
# 6 0.0000 0.0000 0.0000 0.0000 0.0000 27.8320
#
#
#
# Elastic Compliance Matrix: (Units=1/GPa)
#
#
# Indices 1 2 3 4 5 6 
#
# 1 0.013669 -0.004423 -0.002012 0.000000 0.000000 0.000000
# 2 -0.004423 0.017922 -0.006206 0.000000 0.000000 0.000000
# 3 -0.002012 -0.006206 0.019190 0.000000 0.000000 0.000000
# 4 0.000000 0.000000 0.000000 0.032799 0.000000 0.000000
# 5 0.000000 0.000000 0.000000 0.000000 0.078705 0.000000
# 6 0.000000 0.000000 0.000000 0.000000 0.000000 0.035930
#
#
# Mechanical properties :
#
#
# Convention : Reuss Voigt Hill
#
# Bulk Modulus (GPa) = 39.21461 39.88829 39.55145
# Shear Modulus (GPa) = 21.55208 24.05886 22.80547
#
# Velocity S-wave (km/s) = 3.31396 3.50139 3.40896
# Velocity P-wave (km/s) = 5.88437 6.05576 5.97068
#
# Compressibility (1/GPa) = 0.02550070
#
# Stress axis : x y z
#
# Youngs Moduli (GPa) = 73.16087 55.79585 52.10943
#
# Poissons Ratio (x) = 0.24677 0.10484
# Poissons Ratio (y) = 0.32357 0.32337
# Poissons Ratio (z) = 0.14720 0.34625
#
# Static dielectric constant tensor:
#      x y z
#    x 3.679400 0.000000 0.000000 
#    y 0.000000 3.413550 0.000000 
#    z 0.000000 0.000000 3.544820 
# 
# 
# High freq. dielectric constant tensor:
#      x y z
#    x 1.780010 0.000000 0.000000 
#    y 0.000000 1.754830 0.000000 
#    z 0.000000 0.000000 1.763640 
# 
# From -- ./inp_files/33370.got.cif
#   From: 2010.03.12/outbox.cif.g09.slc.cpg/sg51_17_cif.got.tgz:33370.got - 2010.04.16 13:43:02.
