data_PCOD8209485
_publ_section_title
;
Structure prediction by ZEFSAII (Michael W. Deem and Ramdas Pophale) SiO2 
 PCOD8209485
Probable space group: P M M A
;
_chemical_formula_sum "Si O2"
_cell_formula_units_Z 56
_cell_length_a 21.510616
_cell_length_b 9.494599
_cell_length_c 14.590207
_cell_angle_alpha 90.000000
_cell_angle_beta 90.000000
_cell_angle_gamma 90.000000
_cell_volume 2979.826158
_symmetry_space_group_name_H-M "P M M A"
_symmetry_group_IT_number 51
_symmetry_cell_setting 'orthorhombic'
loop_
_space_group_symop_operation_xyz
x,y,z
1/2-x,-y,z
1/2+x,-y,-z
-x,y,-z
-x,-y,-z
1/2+x,y,-z
1/2-x,y,z
x,-y,z
loop_
_atom_site_type_symbol
_atom_site_label
_atom_site_fract_x
_atom_site_fract_y
_atom_site_fract_z
Si Si1 0.623698 0.165033 0.558102
Si Si2 0.456056 0.664034 0.307551
Si Si3 0.439361 0.341642 0.959259
Si Si4 0.133599 0.343102 0.141797
Si Si5 0.750000 0.847208 0.840642
Si Si6 0.091940 0.665590 0.761458
Si Si7 0.250000 0.152884 0.370718
Si Si8 0.677874 0.162424 0.364189
O O1 0.566402 0.249120 0.602967
O O2 0.686727 0.231804 0.602029
O O3 0.631723 0.190007 0.450029
O O4 0.615284 0.000000 0.582129
O O5 0.447236 0.500000 0.329283
O O6 0.417923 0.707195 0.215680
O O7 0.528077 0.701041 0.291692
O O8 0.460566 0.500000 0.930443
O O9 0.413530 0.273918 0.865518
O O10 0.500000 0.261310 0.000000
O O11 0.389009 0.344079 0.038042
O O12 0.156287 0.500000 0.169239
O O13 0.189279 0.236547 0.133888
O O14 0.750000 0.874866 0.734637
O O15 0.750000 0.000000 0.890580
O O16 0.106547 0.500000 0.759099
O O17 0.150835 0.743940 0.717644
O O18 0.250000 0.000000 0.423594
O O19 0.750000 0.204382 0.385606
O O20 0.674808 0.000000 0.334765
#
# Coordination Sequence:
#
# PCOD8209485 Si02
#       8
#     8   8   8   8   4   8   4   8
#     4  10  19  35  58  80 106 146 192 224 262 328
#     4  10  20  33  54  87 119 142 172 228 287 327
#     4   9  16  33  61  84 104 141 187 226 270 329
#     4  10  19  33  55  82 112 145 186 229 274 331
#     4  11  21  33  51  78 115 150 182 227 283 333
#     4  10  21  38  60  85 112 142 182 231 279 327
#     4   9  16  29  51  76 101 138 184 225 259 309
#     4  10  22  41  62  80 106 149 194 232 270 318
#
# _framework density 18.793042
#
# number of rings (size 3 to 8) (size 9 to 14) (size 15 to 20)
#    0.000    2.143    3.571    0.214    0.000    2.000 
#    1.286    3.929    0.000    0.857    0.000    0.000 
#    0.000    0.000    0.000    0.000    0.000    0.000 
#
# Total GULP energy -694036.871872 kJ/mol
# GULP energy per Si atom -12393.515569 kJ/mol
# Density = 1.875027 g / cm^3
# Si number density = 18.793042 Si / 1000 Ang^3
#
#
#
# Elastic Constant Matrix: (Units=GPa)
#
#
# Indices 1 2 3 4 5 6 
#
# 1 80.6806 43.8606 34.0358 0.0000 0.0000 0.0000
# 2 43.8606 65.7851 36.6957 0.0000 0.0000 0.0000
# 3 34.0358 36.6957 105.2490 0.0000 0.0000 0.0000
# 4 0.0000 0.0000 0.0000 16.2600 0.0000 0.0000
# 5 0.0000 0.0000 0.0000 0.0000 32.0795 0.0000
# 6 0.0000 0.0000 0.0000 0.0000 0.0000 20.5435
#
#
#
# Elastic Compliance Matrix: (Units=1/GPa)
#
#
# Indices 1 2 3 4 5 6 
#
# 1 0.019858 -0.011989 -0.002242 0.000000 0.000000 0.000000
# 2 -0.011989 0.026110 -0.005226 0.000000 0.000000 0.000000
# 3 -0.002242 -0.005226 0.012048 0.000000 0.000000 0.000000
# 4 0.000000 0.000000 0.000000 0.061500 0.000000 0.000000
# 5 0.000000 0.000000 0.000000 0.000000 0.031173 0.000000
# 6 0.000000 0.000000 0.000000 0.000000 0.000000 0.048677
#
#
# Mechanical properties :
#
#
# Convention : Reuss Voigt Hill
#
# Bulk Modulus (GPa) = 52.35103 53.43320 52.89212
# Shear Modulus (GPa) = 20.43752 22.91813 21.67782
#
# Velocity S-wave (km/s) = 3.30131 3.49592 3.40001
# Velocity P-wave (km/s) = 6.51526 6.69249 6.60447
#
# Compressibility (1/GPa) = 0.01910182
#
# Stress axis : x y z
#
# Youngs Moduli (GPa) = 50.35746 38.29965 82.99929
#
# Poissons Ratio (x) = 0.45919 0.18605
# Poissons Ratio (y) = 0.60376 0.43377
# Poissons Ratio (z) = 0.11288 0.20016
#
# Static dielectric constant tensor:
#      x y z
#    x 3.420090 0.000000 0.000000 
#    y 0.000000 3.364010 0.000000 
#    z 0.000000 0.000000 3.452370 
# 
# 
# High freq. dielectric constant tensor:
#      x y z
#    x 1.729340 0.000000 0.000000 
#    y 0.000000 1.698640 0.000000 
#    z 0.000000 0.000000 1.732040 
# 
# From -- ./inp_files/25918.got.cif
#   From: 2010.03.12/outbox.cif.g09.slc.cpg/sg51_13_cif.got.tgz:25918.got - 2010.04.16 13:43:02.
