data_PCOD8209365
_publ_section_title
;
Structure prediction by ZEFSAII (Michael W. Deem and Ramdas Pophale) SiO2 
 PCOD8209365
Probable space group: P M M A
;
_chemical_formula_sum "Si O2"
_cell_formula_units_Z 44
_cell_length_a 9.566948
_cell_length_b 8.132511
_cell_length_c 29.907552
_cell_angle_alpha 90.000000
_cell_angle_beta 90.000000
_cell_angle_gamma 90.000000
_cell_volume 2326.906535
_symmetry_space_group_name_H-M "P M M A"
_symmetry_group_IT_number 51
_symmetry_cell_setting 'orthorhombic'
loop_
_space_group_symop_operation_xyz
x,y,z
1/2-x,-y,z
1/2+x,-y,-z
-x,y,-z
-x,-y,-z
1/2+x,y,-z
1/2-x,y,z
x,-y,z
loop_
_atom_site_type_symbol
_atom_site_label
_atom_site_fract_x
_atom_site_fract_y
_atom_site_fract_z
Si Si1 0.406573 0.306028 0.460086
Si Si2 0.589542 0.311385 0.727213
Si Si3 0.593170 0.188228 0.194689
Si Si4 0.584255 0.316955 0.101876
Si Si5 0.082536 0.000000 0.954189
Si Si6 0.415272 0.186338 0.366288
O O1 0.500000 0.230693 0.500000
O O2 0.250000 0.231840 0.464281
O O3 0.400499 0.500000 0.464140
O O4 0.476701 0.258951 0.412461
O O5 0.750000 0.251892 0.729448
O O6 0.574029 0.500000 0.740472
O O7 0.502852 0.205224 0.762086
O O8 0.529386 0.284129 0.677139
O O9 0.750000 0.247770 0.206850
O O10 0.531619 0.290940 0.152831
O O11 0.595618 0.000000 0.179172
O O12 0.750000 0.309314 0.102205
O O13 0.533321 0.500000 0.085588
O O14 0.531032 0.166927 0.070914
O O15 0.250000 0.000000 0.961431
O O16 0.000000 0.000000 0.000000
O O17 0.250000 0.206097 0.368815
O O18 0.464346 0.000000 0.361030
#
# Coordination Sequence:
#
# PCOD8209365 Si02
#       6
#     8   8   8   8   4   8
#     4   9  17  30  48  68  89 116 152 194 240 292
#     4  10  20  33  50  74 103 135 171 210 254 307
#     4  10  19  33  54  79 105 135 175 218 258 307
#     4   9  17  32  55  79 105 140 179 217 259 312
#     4  10  20  36  56  80 108 140 180 220 263 312
#     4   9  17  30  48  68  92 125 163 199 241 297
#
# _framework density 18.909223999999998
#
# number of rings (size 3 to 8) (size 9 to 14) (size 15 to 20)
#    0.000    2.545    0.909    1.636    0.000    5.091 
#    0.000    1.818    0.000    4.364    0.000    0.000 
#    0.000    0.000    0.000    0.000    0.000    0.000 
#
# Total GULP energy -545386.537473 kJ/mol
# GULP energy per Si atom -12395.148579 kJ/mol
# Density = 1.886619 g / cm^3
# Si number density = 18.909224 Si / 1000 Ang^3
#
#
#
# Elastic Constant Matrix: (Units=GPa)
#
#
# Indices 1 2 3 4 5 6 
#
# 1 40.4265 19.8597 43.9442 0.0000 0.0000 0.0000
# 2 19.8597 90.0814 50.3164 0.0000 0.0000 0.0000
# 3 43.9442 50.3164 150.4366 0.0000 0.0000 0.0000
# 4 0.0000 0.0000 0.0000 32.4010 0.0000 0.0000
# 5 0.0000 0.0000 0.0000 0.0000 31.8393 0.0000
# 6 0.0000 0.0000 0.0000 0.0000 0.0000 15.0932
#
#
#
# Elastic Compliance Matrix: (Units=1/GPa)
#
#
# Indices 1 2 3 4 5 6 
#
# 1 0.036729 -0.002588 -0.009863 0.000000 0.000000 0.000000
# 2 -0.002588 0.013834 -0.003871 0.000000 0.000000 0.000000
# 3 -0.009863 -0.003871 0.010823 0.000000 0.000000 0.000000
# 4 0.000000 0.000000 0.000000 0.030863 0.000000 0.000000
# 5 0.000000 0.000000 0.000000 0.000000 0.031408 0.000000
# 6 0.000000 0.000000 0.000000 0.000000 0.000000 0.066255
#
#
# Mechanical properties :
#
#
# Convention : Reuss Voigt Hill
#
# Bulk Modulus (GPa) = 34.79300 56.57613 45.68456
# Shear Modulus (GPa) = 21.53891 26.98831 24.26361
#
# Velocity S-wave (km/s) = 3.37867 3.78200 3.58601
# Velocity P-wave (km/s) = 5.80177 7.00401 6.43105
#
# Compressibility (1/GPa) = 0.02874141
#
# Stress axis : x y z
#
# Youngs Moduli (GPa) = 27.22620 72.28644 92.39369
#
# Poissons Ratio (x) = 0.18709 0.91132
# Poissons Ratio (y) = 0.07047 0.35765
# Poissons Ratio (z) = 0.26854 0.27982
#
# Static dielectric constant tensor:
#      x y z
#    x 3.088130 0.000000 0.000000 
#    y 0.000000 3.561210 0.000000 
#    z 0.000000 0.000000 3.574680 
# 
# 
# High freq. dielectric constant tensor:
#      x y z
#    x 1.680270 0.000000 0.000000 
#    y 0.000000 1.742770 0.000000 
#    z 0.000000 0.000000 1.743400 
# 
# From -- ./inp_files/36787.got.cif
#   From: 2010.03.12/outbox.cif.g09.slc.cpg/sg51_19_cif.got.tgz:36787.got - 2010.04.16 13:43:02.
