data_PCOD8209873
_publ_section_title
;
Structure prediction by ZEFSAII (Michael W. Deem and Ramdas Pophale) SiO2 
 PCOD8209873
Probable space group: P M M A
;
_chemical_formula_sum "Si O2"
_cell_formula_units_Z 56
_cell_length_a 17.725565
_cell_length_b 14.167076
_cell_length_c 12.594621
_cell_angle_alpha 90.000000
_cell_angle_beta 90.000000
_cell_angle_gamma 90.000000
_cell_volume 3162.754002
_symmetry_space_group_name_H-M "P M M A"
_symmetry_group_IT_number 51
_symmetry_cell_setting 'orthorhombic'
loop_
_space_group_symop_operation_xyz
x,y,z
1/2-x,-y,z
1/2+x,-y,-z
-x,y,-z
-x,-y,-z
1/2+x,y,-z
1/2-x,y,z
x,-y,z
loop_
_atom_site_type_symbol
_atom_site_label
_atom_site_fract_x
_atom_site_fract_y
_atom_site_fract_z
Si Si1 0.661650 0.392715 0.146539
Si Si2 0.577535 0.291599 0.328040
Si Si3 0.662801 0.893887 0.648962
Si Si4 0.336215 0.609322 0.095838
Si Si5 0.922453 0.105708 0.440403
Si Si6 0.663432 0.609135 0.516615
Si Si7 0.404987 0.290734 0.287511
O O1 0.750000 0.377598 0.163625
O O2 0.639749 0.500000 0.177781
O O3 0.617357 0.319199 0.218864
O O4 0.639002 0.372456 0.025192
O O5 0.590932 0.179824 0.345874
O O6 0.609783 0.350379 0.425995
O O7 0.489606 0.314603 0.320401
O O8 0.750000 0.870405 0.667776
O O9 0.645769 0.884405 0.523651
O O10 0.611084 0.821625 0.715334
O O11 0.642836 0.000000 0.687419
O O12 0.250000 0.641095 0.113089
O O13 0.345434 0.500000 0.125033
O O14 0.390409 0.669786 0.170376
O O15 0.000000 0.131460 0.500000
O O16 0.926097 0.000000 0.392242
O O17 0.750000 0.623251 0.481450
O O18 0.643891 0.500000 0.533338
O O19 0.650931 0.662049 0.627585
#
# Coordination Sequence:
#
# PCOD8209873 Si02
#       7
#     8   8   8   8   8   8   8
#     4   9  20  39  59  77 102 142 188 228 269 321
#     4  12  22  33  52  81 109 141 174 217 273 328
#     4  10  20  34  54  79 105 137 179 220 260 314
#     4   9  19  37  58  77 101 140 186 226 266 316
#     4  10  19  35  54  75 108 146 178 213 262 318
#     4  11  23  36  50  72 106 146 180 215 264 321
#     4  12  22  33  52  81 111 138 173 222 275 320
#
# _framework density 17.706088000000001
#
# number of rings (size 3 to 8) (size 9 to 14) (size 15 to 20)
#    0.000    1.571    2.857    3.857    0.000    6.286 
#    0.000    1.429    0.000    0.857    0.000    4.000 
#    0.000    0.000    0.000    0.000    0.000    0.000 
#
# Total GULP energy -694559.816818 kJ/mol
# GULP energy per Si atom -12402.853872 kJ/mol
# Density = 1.766579 g / cm^3
# Si number density = 17.706088 Si / 1000 Ang^3
#
#
#
# Elastic Constant Matrix: (Units=GPa)
#
#
# Indices 1 2 3 4 5 6 
#
# 1 75.5622 48.4688 38.5385 0.0000 0.0000 0.0000
# 2 48.4688 122.7308 61.6164 0.0000 0.0000 0.0000
# 3 38.5385 61.6164 90.9216 0.0000 0.0000 0.0000
# 4 0.0000 0.0000 0.0000 28.7394 0.0000 0.0000
# 5 0.0000 0.0000 0.0000 0.0000 25.7082 0.0000
# 6 0.0000 0.0000 0.0000 0.0000 0.0000 27.3545
#
#
#
# Elastic Compliance Matrix: (Units=1/GPa)
#
#
# Indices 1 2 3 4 5 6 
#
# 1 0.018848 -0.005203 -0.004463 0.000000 0.000000 0.000000
# 2 -0.005203 0.013786 -0.007137 0.000000 0.000000 0.000000
# 3 -0.004463 -0.007137 0.017727 0.000000 0.000000 0.000000
# 4 0.000000 0.000000 0.000000 0.034795 0.000000 0.000000
# 5 0.000000 0.000000 0.000000 0.000000 0.038898 0.000000
# 6 0.000000 0.000000 0.000000 0.000000 0.000000 0.036557
#
#
# Mechanical properties :
#
#
# Convention : Reuss Voigt Hill
#
# Bulk Modulus (GPa) = 59.68536 65.16246 62.42391
# Shear Modulus (GPa) = 25.02482 25.73315 25.37899
#
# Velocity S-wave (km/s) = 3.76353 3.81642 3.79007
# Velocity P-wave (km/s) = 7.25725 7.50348 7.38139
#
# Compressibility (1/GPa) = 0.01675453
#
# Stress axis : x y z
#
# Youngs Moduli (GPa) = 53.05715 72.53881 56.41103
#
# Poissons Ratio (x) = 0.37739 0.25177
# Poissons Ratio (y) = 0.27604 0.40262
# Poissons Ratio (z) = 0.23680 0.51772
#
# Static dielectric constant tensor:
#      x y z
#    x 3.317420 0.000000 0.000000 
#    y 0.000000 3.436740 0.000000 
#    z 0.000000 0.000000 3.129920 
# 
# 
# High freq. dielectric constant tensor:
#      x y z
#    x 1.691020 0.000000 0.000000 
#    y 0.000000 1.688160 0.000000 
#    z 0.000000 0.000000 1.660030 
# 
# From -- ./inp_files/16634.got.cif
#   From: 2010.03.12/outbox.cif.g09.slc.cpg/sg51_9_cif.got.tgz:16634.got - 2010.04.16 13:43:02.
