data_PCOD8209172
_publ_section_title
;
Structure prediction by ZEFSAII (Michael W. Deem and Ramdas Pophale) SiO2 
 PCOD8209172
Probable space group: P M M A
;
_chemical_formula_sum "Si O2"
_cell_formula_units_Z 64
_cell_length_a 23.964924
_cell_length_b 14.605046
_cell_length_c 9.169565
_cell_angle_alpha 90.000000
_cell_angle_beta 90.000000
_cell_angle_gamma 90.000000
_cell_volume 3209.428602
_symmetry_space_group_name_H-M "P M M A"
_symmetry_group_IT_number 51
_symmetry_cell_setting 'orthorhombic'
loop_
_space_group_symop_operation_xyz
x,y,z
1/2-x,-y,z
1/2+x,-y,-z
-x,y,-z
-x,-y,-z
1/2+x,y,-z
1/2-x,y,z
x,-y,z
loop_
_atom_site_type_symbol
_atom_site_label
_atom_site_fract_x
_atom_site_fract_y
_atom_site_fract_z
Si Si1 0.416390 0.676240 0.810654
Si Si2 0.815166 0.394335 0.671653
Si Si3 0.137996 0.099195 0.536570
Si Si4 0.025490 0.841380 0.651619
Si Si5 0.185911 0.287647 0.619645
Si Si6 0.587068 0.100375 0.772566
Si Si7 0.598715 0.702409 0.858484
Si Si8 0.511355 0.399319 0.664078
O O1 0.453769 0.761120 0.756804
O O2 0.353046 0.679829 0.752420
O O3 0.451638 0.591499 0.746631
O O4 0.415972 0.664335 0.983524
O O5 0.750000 0.385444 0.698838
O O6 0.834195 0.500000 0.664648
O O7 0.832695 0.345425 0.521265
O O8 0.843386 0.341916 0.806624
O O9 0.078889 0.095944 0.619530
O O10 0.178373 0.179495 0.591543
O O11 0.126810 0.113410 0.366173
O O12 0.166773 0.000000 0.563904
O O13 0.000000 0.801899 0.500000
O O14 0.978415 0.900226 0.732793
O O15 0.250000 0.307136 0.662159
O O16 0.602034 0.186832 0.874936
O O17 0.599202 0.000000 0.845371
O O18 0.552030 0.674505 0.740053
O O19 0.500000 0.366451 0.500000
O O20 0.539604 0.500000 0.667065
#
# Coordination Sequence:
#
# PCOD8209172 Si02
#       8
#     8   8   8   8   8   8   8   8
#     4  11  23  36  57  85 125 159 191 240 296 350
#     4  10  22  42  66  87 110 148 197 246 296 352
#     4   9  17  31  55  87 116 147 195 249 293 331
#     4   9  17  32  53  80 117 161 200 235 276 340
#     4  10  21  39  62  87 113 150 198 245 291 349
#     4  10  19  32  55  84 119 159 196 237 286 343
#     4  12  23  38  59  89 125 155 195 240 294 356
#     4  11  24  40  62  88 117 157 198 241 297 354
#
# _framework density 19.941244000000001
#
# number of rings (size 3 to 8) (size 9 to 14) (size 15 to 20)
#    0.000    1.750    2.500    2.250    1.750    5.250 
#    0.000    3.750    0.000    1.875    0.000    0.000 
#    0.000    0.000    0.000    0.000    0.000    0.000 
#
# Total GULP energy -793264.193881 kJ/mol
# GULP energy per Si atom -12394.753029 kJ/mol
# Density = 1.989586 g / cm^3
# Si number density = 19.941244 Si / 1000 Ang^3
#
#
#
# Elastic Constant Matrix: (Units=GPa)
#
#
# Indices 1 2 3 4 5 6 
#
# 1 76.0643 23.7250 34.0860 0.0000 0.0000 0.0000
# 2 23.7250 116.0982 29.0064 0.0000 0.0000 0.0000
# 3 34.0860 29.0064 112.8678 0.0000 0.0000 0.0000
# 4 0.0000 0.0000 0.0000 -13.9441 0.0000 0.0000
# 5 0.0000 0.0000 0.0000 0.0000 24.0017 0.0000
# 6 0.0000 0.0000 0.0000 0.0000 0.0000 22.2555
#
#
#
# Elastic Compliance Matrix: (Units=1/GPa)
#
#
# Indices 1 2 3 4 5 6 
#
# 1 0.015696 -0.002162 -0.004185 0.000000 0.000000 0.000000
# 2 -0.002162 0.009502 -0.001789 0.000000 0.000000 0.000000
# 3 -0.004185 -0.001789 0.010583 0.000000 0.000000 0.000000
# 4 0.000000 0.000000 0.000000 -0.071715 0.000000 0.000000
# 5 0.000000 0.000000 0.000000 0.000000 0.041664 0.000000
# 6 0.000000 0.000000 0.000000 0.000000 0.000000 0.044933
#
#
# Mechanical properties :
#
#
# Convention : Reuss Voigt Hill
#
# Bulk Modulus (GPa) = 51.25461 53.18500 52.21980
# Shear Modulus (GPa) = 68.08426 21.01016 44.54721
#
# Velocity S-wave (km/s) = 5.84949 3.24945 4.73157
# Velocity P-wave (km/s) = 8.44871 6.38806 7.48959
#
# Compressibility (1/GPa) = 0.01951044
#
# Stress axis : x y z
#
# Youngs Moduli (GPa) = 63.70900 105.23858 94.48710
#
# Poissons Ratio (x) = 0.22754 0.39539
# Poissons Ratio (y) = 0.13775 0.16904
# Poissons Ratio (z) = 0.26660 0.18828
#
# Static dielectric constant tensor:
#      x y z
#    x 3.573310 0.000000 0.000000 
#    y 0.000000 3.850680 0.000000 
#    z 0.000000 0.000000 3.305980 
# 
# 
# High freq. dielectric constant tensor:
#      x y z
#    x 1.767470 0.000000 0.000000 
#    y 0.000000 1.790540 0.000000 
#    z 0.000000 0.000000 1.748660 
# 
# From -- ./inp_files/11916.got.cif
#   From: 2010.03.12/outbox.cif.g09.slc.cpg/sg51_6_cif.got.tgz:11916.got - 2010.04.16 13:43:02.
