data_PCOD8209238
_publ_section_title
;
Structure prediction by ZEFSAII (Michael W. Deem and Ramdas Pophale) SiO2 
 PCOD8209238
Probable space group: P M M A
;
_chemical_formula_sum "Si O2"
_cell_formula_units_Z 48
_cell_length_a 14.660710
_cell_length_b 11.775496
_cell_length_c 14.608686
_cell_angle_alpha 90.000000
_cell_angle_beta 90.000000
_cell_angle_gamma 90.000000
_cell_volume 2522.001653
_symmetry_space_group_name_H-M "P M M A"
_symmetry_group_IT_number 51
_symmetry_cell_setting 'orthorhombic'
loop_
_space_group_symop_operation_xyz
x,y,z
1/2-x,-y,z
1/2+x,-y,-z
-x,y,-z
-x,-y,-z
1/2+x,y,-z
1/2-x,y,z
x,-y,z
loop_
_atom_site_type_symbol
_atom_site_label
_atom_site_fract_x
_atom_site_fract_y
_atom_site_fract_z
Si Si1 0.894061 0.000000 0.987988
Si Si2 0.852846 0.000000 0.199059
Si Si3 0.645339 0.630481 0.743214
Si Si4 0.012968 0.369165 0.605055
Si Si5 0.858603 0.373204 0.090602
Si Si6 0.145372 0.241392 0.081273
Si Si7 0.858907 0.239142 0.267741
O O1 0.863853 0.893424 0.927243
O O2 0.000000 0.000000 0.000000
O O3 0.850428 0.000000 0.088559
O O4 0.897202 0.113559 0.241693
O O5 0.750000 0.000000 0.232551
O O6 0.750000 0.662017 0.717838
O O7 0.639110 0.500000 0.775964
O O8 0.583504 0.652776 0.654607
O O9 0.604061 0.709770 0.824353
O O10 0.044382 0.500000 0.616652
O O11 0.092075 0.286168 0.642052
O O12 0.000000 0.336859 0.500000
O O13 0.750000 0.370358 0.086639
O O14 0.897368 0.500000 0.084289
O O15 0.891214 0.320040 0.185540
O O16 0.901065 0.300539 0.007024
O O17 0.250000 0.278403 0.083240
O O18 0.750000 0.240823 0.282054
#
# Coordination Sequence:
#
# PCOD8209238 Si02
#       7
#     4   4   8   8   8   8   8
#     4  12  24  32  48  78 113 154 192 227 266 316
#     4  10  20  38  57  76 110 154 191 229 279 328
#     4   9  19  36  57  80 109 148 188 226 274 332
#     4  10  22  39  59  84 113 143 180 233 291 344
#     4   9  16  27  48  78 108 139 175 217 266 321
#     4  10  19  33  52  74 108 147 184 223 265 320
#     4  10  20  35  58  83 111 146 186 231 279 335
#
# _framework density 19.032502000000001
#
# number of rings (size 3 to 8) (size 9 to 14) (size 15 to 20)
#    0.000    2.167    1.667    1.750    2.333    3.667 
#    0.000    2.083    0.000    4.000    0.000    2.333 
#    0.000    0.000    0.000    0.000    0.000    0.000 
#
# Total GULP energy -595150.968266 kJ/mol
# GULP energy per Si atom -12398.978506 kJ/mol
# Density = 1.898918 g / cm^3
# Si number density = 19.032502 Si / 1000 Ang^3
#
#
#
# Elastic Constant Matrix: (Units=GPa)
#
#
# Indices 1 2 3 4 5 6 
#
# 1 50.2405 25.8186 36.9940 0.0000 0.0000 0.0000
# 2 25.8186 147.8719 75.7777 0.0000 0.0000 0.0000
# 3 36.9940 75.7777 150.7573 0.0000 0.0000 0.0000
# 4 0.0000 0.0000 0.0000 22.8636 0.0000 0.0000
# 5 0.0000 0.0000 0.0000 0.0000 25.6498 0.0000
# 6 0.0000 0.0000 0.0000 0.0000 0.0000 19.1288
#
#
#
# Elastic Compliance Matrix: (Units=1/GPa)
#
#
# Indices 1 2 3 4 5 6 
#
# 1 0.024578 -0.001617 -0.005218 0.000000 0.000000 0.000000
# 2 -0.001617 0.009215 -0.004235 0.000000 0.000000 0.000000
# 3 -0.005218 -0.004235 0.010042 0.000000 0.000000 0.000000
# 4 0.000000 0.000000 0.000000 0.043738 0.000000 0.000000
# 5 0.000000 0.000000 0.000000 0.000000 0.038987 0.000000
# 6 0.000000 0.000000 0.000000 0.000000 0.000000 0.052277
#
#
# Mechanical properties :
#
#
# Convention : Reuss Voigt Hill
#
# Bulk Modulus (GPa) = 46.09512 69.56116 57.82814
# Shear Modulus (GPa) = 24.01428 27.54708 25.78068
#
# Velocity S-wave (km/s) = 3.55597 3.80856 3.68443
# Velocity P-wave (km/s) = 6.41339 7.48118 6.96777
#
# Compressibility (1/GPa) = 0.02169427
#
# Stress axis : x y z
#
# Youngs Moduli (GPa) = 40.68736 108.51473 99.57711
#
# Poissons Ratio (x) = 0.17549 0.51961
# Poissons Ratio (y) = 0.06580 0.42173
# Poissons Ratio (z) = 0.21231 0.45958
#
# Static dielectric constant tensor:
#      x y z
#    x 3.286640 0.000000 0.000000 
#    y 0.000000 3.615440 0.000000 
#    z 0.000000 0.000000 3.317200 
# 
# 
# High freq. dielectric constant tensor:
#      x y z
#    x 1.731360 0.000000 0.000000 
#    y 0.000000 1.742160 0.000000 
#    z 0.000000 0.000000 1.720180 
# 
# From -- ./inp_files/24076.got.cif
#   From: 2010.03.12/outbox.cif.g09.slc.cpg/sg51_13_cif.got.tgz:24076.got - 2010.04.16 13:43:02.
