data_PCOD8209417
_publ_section_title
;
Structure prediction by ZEFSAII (Michael W. Deem and Ramdas Pophale) SiO2 
 PCOD8209417
Probable space group: P M M A
;
_chemical_formula_sum "Si O2"
_cell_formula_units_Z 48
_cell_length_a 8.502067
_cell_length_b 31.172173
_cell_length_c 9.170316
_cell_angle_alpha 90.000000
_cell_angle_beta 90.000000
_cell_angle_gamma 90.000000
_cell_volume 2430.389623
_symmetry_space_group_name_H-M "P M M A"
_symmetry_group_IT_number 51
_symmetry_cell_setting 'orthorhombic'
loop_
_space_group_symop_operation_xyz
x,y,z
1/2-x,-y,z
1/2+x,-y,-z
-x,y,-z
-x,-y,-z
1/2+x,y,-z
1/2-x,y,z
x,-y,z
loop_
_atom_site_type_symbol
_atom_site_label
_atom_site_fract_x
_atom_site_fract_y
_atom_site_fract_z
Si Si1 0.564792 0.783425 0.161702
Si Si2 0.935221 0.626635 0.159585
Si Si3 0.934714 0.954789 0.660417
Si Si4 0.562740 0.861547 0.663827
Si Si5 0.065209 0.704843 0.339482
Si Si6 0.563858 0.452118 0.344110
O O1 0.750000 0.774322 0.163091
O O2 0.527909 0.828908 0.233484
O O3 0.475005 0.746742 0.248369
O O4 0.500000 0.783578 0.000000
O O5 0.750000 0.626921 0.150187
O O6 0.997165 0.580899 0.221187
O O7 0.988182 0.663423 0.268268
O O8 0.000000 0.635268 0.000000
O O9 0.750000 0.954826 0.647413
O O10 0.983446 0.908941 0.730198
O O11 0.000000 0.955666 0.500000
O O12 0.989241 0.000000 0.740479
O O13 0.500000 0.856150 0.500000
O O14 0.750000 0.853263 0.666784
O O15 0.250000 0.698015 0.344985
O O16 0.000000 0.711460 0.500000
O O17 0.500000 0.436922 0.500000
O O18 0.750000 0.451475 0.352978
O O19 0.501858 0.500000 0.305330
#
# Coordination Sequence:
#
# PCOD8209417 Si02
#       6
#     8   8   8   8   8   8
#     4  12  25  42  61  83 112 146 185 229 281 336
#     4  11  23  39  59  86 120 156 194 236 285 338
#     4   8  14  25  44  72 106 142 180 224 272 321
#     4  10  19  33  54  82 114 148 187 230 277 329
#     4  12  25  43  65  89 116 147 186 230 279 333
#     4   9  19  36  58  84 115 152 195 241 287 336
#
# _framework density 19.749921000000001
#
# number of rings (size 3 to 8) (size 9 to 14) (size 15 to 20)
#    0.000    1.667    0.000    5.500    0.000    3.667 
#    0.000    0.000    0.000    0.500    0.000    0.000 
#    0.000    0.000    0.000    0.000    0.000    0.000 
#
# Total GULP energy -594895.741955 kJ/mol
# GULP energy per Si atom -12393.661291 kJ/mol
# Density = 1.970497 g / cm^3
# Si number density = 19.749921 Si / 1000 Ang^3
#
#
#
# Elastic Constant Matrix: (Units=GPa)
#
#
# Indices 1 2 3 4 5 6 
#
# 1 18.4838 6.6954 5.3472 0.0000 0.0000 0.0000
# 2 6.6954 136.5455 45.0912 0.0000 0.0000 0.0000
# 3 5.3472 45.0912 95.6521 0.0000 0.0000 0.0000
# 4 0.0000 0.0000 0.0000 1573.4195 0.0000 0.0000
# 5 0.0000 0.0000 0.0000 0.0000 30.3481 0.0000
# 6 0.0000 0.0000 0.0000 0.0000 0.0000 24.4417
#
#
#
# Elastic Compliance Matrix: (Units=1/GPa)
#
#
# Indices 1 2 3 4 5 6 
#
# 1 0.055452 -0.002008 -0.002153 0.000000 0.000000 0.000000
# 2 -0.002008 0.008747 -0.004011 0.000000 0.000000 0.000000
# 3 -0.002153 -0.004011 0.012466 0.000000 0.000000 0.000000
# 4 0.000000 0.000000 0.000000 0.000636 0.000000 0.000000
# 5 0.000000 0.000000 0.000000 0.000000 0.032951 0.000000
# 6 0.000000 0.000000 0.000000 0.000000 0.000000 0.040914
#
#
# Mechanical properties :
#
#
# Convention : Reuss Voigt Hill
#
# Bulk Modulus (GPa) = 16.57836 40.54990 28.56413
# Shear Modulus (GPa) = 26.65026 338.54501 182.59764
#
# Velocity S-wave (km/s) = 3.67738 13.10679 9.62578
# Velocity P-wave (km/s) = 5.14230 15.79959 11.74883
#
# Compressibility (1/GPa) = 0.06031959
#
# Stress axis : x y z
#
# Youngs Moduli (GPa) = 18.03368 114.33067 80.21991
#
# Poissons Ratio (x) = 0.22957 0.17274
# Poissons Ratio (y) = 0.03621 0.32176
# Poissons Ratio (z) = 0.03883 0.45858
#
# Static dielectric constant tensor:
#      x y z
#    x 2.855410 0.000000 0.000000 
#    y 0.000000 4.446090 0.000000 
#    z 0.000000 0.000000 3.401190 
# 
# 
# High freq. dielectric constant tensor:
#      x y z
#    x 1.777750 0.000000 0.000000 
#    y 0.000000 1.801910 0.000000 
#    z 0.000000 0.000000 1.746150 
# 
# From -- ./inp_files/6078.got.cif
#   From: 2010.03.12/outbox.cif.g09.slc.cpg/sg51_4_cif.got.tgz:6078.got - 2010.04.16 13:43:02.
