data_PCOD8209146
_publ_section_title
;
Structure prediction by ZEFSAII (Michael W. Deem and Ramdas Pophale) SiO2 
 PCOD8209146
Probable space group: P M M A
;
_chemical_formula_sum "Si O2"
_cell_formula_units_Z 44
_cell_length_a 9.277336
_cell_length_b 7.823529
_cell_length_c 30.027588
_cell_angle_alpha 90.000000
_cell_angle_beta 90.000000
_cell_angle_gamma 90.000000
_cell_volume 2179.447596
_symmetry_space_group_name_H-M "P M M A"
_symmetry_group_IT_number 51
_symmetry_cell_setting 'orthorhombic'
loop_
_space_group_symop_operation_xyz
x,y,z
1/2-x,-y,z
1/2+x,-y,-z
-x,y,-z
-x,-y,-z
1/2+x,y,-z
1/2-x,y,z
x,-y,z
loop_
_atom_site_type_symbol
_atom_site_label
_atom_site_fract_x
_atom_site_fract_y
_atom_site_fract_z
Si Si1 0.918780 0.000000 0.453880
Si Si2 0.912248 0.796431 0.219621
Si Si3 0.085121 0.691935 0.609171
Si Si4 0.088459 0.200875 0.136443
Si Si5 0.582657 0.799190 0.693815
Si Si6 0.410609 0.298293 0.040957
O O1 0.965987 0.829848 0.427229
O O2 0.000000 0.000000 0.500000
O O3 0.750000 0.000000 0.463728
O O4 0.750000 0.723600 0.222386
O O5 0.988044 0.721489 0.175222
O O6 0.002336 0.732469 0.262096
O O7 0.909997 0.000000 0.218183
O O8 0.250000 0.731618 0.623353
O O9 0.071425 0.500000 0.589197
O O10 0.984287 0.702257 0.652053
O O11 0.250000 0.279672 0.140111
O O12 0.019544 0.247176 0.088429
O O13 0.096863 0.000000 0.142652
O O14 0.750000 0.751892 0.698168
O O15 0.558977 0.000000 0.687061
O O16 0.250000 0.220442 0.038521
O O17 0.406834 0.500000 0.036216
O O18 0.500000 0.217653 0.000000
#
# Coordination Sequence:
#
# PCOD8209146 Si02
#       6
#     4   8   8   8   8   8
#     4  10  22  40  62  88 120 156 196 240 287 340
#     4   9  17  29  48  74 103 137 175 214 260 316
#     4  10  21  38  60  86 117 154 195 239 287 337
#     4   9  17  30  47  68  95 125 161 206 255 307
#     4  10  19  32  54  82 111 146 187 228 274 329
#     4   9  18  32  48  65  87 118 155 196 247 306
#
# _framework density 20.188600000000001
#
# number of rings (size 3 to 8) (size 9 to 14) (size 15 to 20)
#    0.000    2.545    0.909    1.091    0.000    5.455 
#    0.000    0.909    0.000    3.273    0.000    0.000 
#    0.000    0.000    0.000    0.000    0.000    0.000 
#
# Total GULP energy -545572.540890 kJ/mol
# GULP energy per Si atom -12399.375929 kJ/mol
# Density = 2.014265 g / cm^3
# Si number density = 20.188600 Si / 1000 Ang^3
#
#
#
# Elastic Constant Matrix: (Units=GPa)
#
#
# Indices 1 2 3 4 5 6 
#
# 1 114.7804 28.1360 85.2674 0.0000 0.0000 0.0000
# 2 28.1360 59.2342 41.1739 0.0000 0.0000 0.0000
# 3 85.2674 41.1739 187.5959 0.0000 0.0000 0.0000
# 4 0.0000 0.0000 0.0000 2.1587 0.0000 0.0000
# 5 0.0000 0.0000 0.0000 0.0000 42.0689 0.0000
# 6 0.0000 0.0000 0.0000 0.0000 0.0000 12.5132
#
#
#
# Elastic Compliance Matrix: (Units=1/GPa)
#
#
# Indices 1 2 3 4 5 6 
#
# 1 0.013467 -0.002528 -0.005566 0.000000 0.000000 0.000000
# 2 -0.002528 0.020396 -0.003328 0.000000 0.000000 0.000000
# 3 -0.005566 -0.003328 0.008591 0.000000 0.000000 0.000000
# 4 0.000000 0.000000 0.000000 0.463234 0.000000 0.000000
# 5 0.000000 0.000000 0.000000 0.000000 0.023771 0.000000
# 6 0.000000 0.000000 0.000000 0.000000 0.000000 0.079915
#
#
# Mechanical properties :
#
#
# Convention : Reuss Voigt Hill
#
# Bulk Modulus (GPa) = 50.99274 74.52946 62.76110
# Shear Modulus (GPa) = 7.82774 25.15038 16.48906
#
# Velocity S-wave (km/s) = 1.97122 3.53338 2.86099
# Velocity P-wave (km/s) = 5.52214 7.32414 6.48603
#
# Compressibility (1/GPa) = 0.01961063
#
# Stress axis : x y z
#
# Youngs Moduli (GPa) = 74.25578 49.02969 116.40056
#
# Poissons Ratio (x) = 0.12393 0.64793
# Poissons Ratio (y) = 0.18769 0.38734
# Poissons Ratio (z) = 0.41333 0.16315
#
# Static dielectric constant tensor:
#      x y z
#    x 3.814880 0.000000 0.000000 
#    y 0.000000 3.408330 0.000000 
#    z 0.000000 0.000000 3.695990 
# 
# 
# High freq. dielectric constant tensor:
#      x y z
#    x 1.782820 0.000000 0.000000 
#    y 0.000000 1.767910 0.000000 
#    z 0.000000 0.000000 1.789860 
# 
# From -- ./inp_files/36744.got.cif
#   From: 2010.03.12/outbox.cif.g09.slc.cpg/sg51_19_cif.got.tgz:36744.got - 2010.04.16 13:43:02.
