data_PCOD8209280
_publ_section_title
;
Structure prediction by ZEFSAII (Michael W. Deem and Ramdas Pophale) SiO2 
 PCOD8209280
Probable space group: P M M A
;
_chemical_formula_sum "Si O2"
_cell_formula_units_Z 52
_cell_length_a 9.059038
_cell_length_b 13.445192
_cell_length_c 24.421723
_cell_angle_alpha 90.000000
_cell_angle_beta 90.000000
_cell_angle_gamma 90.000000
_cell_volume 2974.578200
_symmetry_space_group_name_H-M "P M M A"
_symmetry_group_IT_number 51
_symmetry_cell_setting 'orthorhombic'
loop_
_space_group_symop_operation_xyz
x,y,z
1/2-x,-y,z
1/2+x,-y,-z
-x,y,-z
-x,-y,-z
1/2+x,y,-z
1/2-x,y,z
x,-y,z
loop_
_atom_site_type_symbol
_atom_site_label
_atom_site_fract_x
_atom_site_fract_y
_atom_site_fract_z
Si Si1 0.419162 0.609800 0.663066
Si Si2 0.575328 0.786305 0.166081
Si Si3 0.417073 0.886150 0.261454
Si Si4 0.579769 0.819362 0.366124
Si Si5 0.077023 0.886774 0.945430
Si Si6 0.924406 0.000000 0.441881
Si Si7 0.579151 0.612300 0.776856
O O1 0.250000 0.611813 0.683373
O O2 0.455428 0.500000 0.637107
O O3 0.441527 0.700908 0.618861
O O4 0.520038 0.628743 0.715699
O O5 0.750000 0.784270 0.173481
O O6 0.508800 0.868624 0.206559
O O7 0.529036 0.817034 0.104874
O O8 0.507953 0.678982 0.179571
O O9 0.250000 0.848506 0.252922
O O10 0.489365 0.826931 0.310711
O O11 0.422375 0.000000 0.277753
O O12 0.750000 0.844917 0.354426
O O13 0.522287 0.898521 0.411198
O O14 0.250000 0.882056 0.955134
O O15 0.026121 0.000000 0.933300
O O16 0.000000 0.845186 0.000000
O O17 0.000000 0.000000 0.500000
O O18 0.750000 0.000000 0.450185
O O19 0.750000 0.642374 0.776818
O O20 0.554839 0.500000 0.796340
#
# Coordination Sequence:
#
# PCOD8209280 Si02
#       7
#     8   8   8   8   8   4   8
#     4   9  17  30  50  76 104 137 174 210 258 318
#     4  11  21  33  51  74 102 137 174 211 256 315
#     4  11  22  32  46  74 108 139 169 206 260 315
#     4  10  19  33  53  76 104 138 173 216 262 310
#     4   9  19  35  53  73  97 129 169 212 258 307
#     4  10  22  38  56  78 104 142 187 222 267 314
#     4  10  20  32  47  72 106 138 170 212 260 309
#
# _framework density 17.481470999999999
#
# number of rings (size 3 to 8) (size 9 to 14) (size 15 to 20)
#    0.000    2.000    2.308    1.846    0.000    4.308 
#    0.000    1.538    0.000    0.923    0.000    0.000 
#    0.000    0.000    0.000    0.000    0.000    0.000 
#
# Total GULP energy -644481.417436 kJ/mol
# GULP energy per Si atom -12393.873412 kJ/mol
# Density = 1.744168 g / cm^3
# Si number density = 17.481471 Si / 1000 Ang^3
#
#
#
# Elastic Constant Matrix: (Units=GPa)
#
#
# Indices 1 2 3 4 5 6 
#
# 1 65.9302 31.7887 33.6824 0.0000 0.0000 0.0000
# 2 31.7887 140.6291 56.6775 0.0000 0.0000 0.0000
# 3 33.6824 56.6775 85.0200 0.0000 0.0000 0.0000
# 4 0.0000 0.0000 0.0000 19.3066 0.0000 0.0000
# 5 0.0000 0.0000 0.0000 0.0000 26.8348 0.0000
# 6 0.0000 0.0000 0.0000 0.0000 0.0000 18.3887
#
#
#
# Elastic Compliance Matrix: (Units=1/GPa)
#
#
# Indices 1 2 3 4 5 6 
#
# 1 0.019328 -0.001754 -0.006488 0.000000 0.000000 0.000000
# 2 -0.001754 0.009883 -0.005893 0.000000 0.000000 0.000000
# 3 -0.006488 -0.005893 0.018261 0.000000 0.000000 0.000000
# 4 0.000000 0.000000 0.000000 0.051796 0.000000 0.000000
# 5 0.000000 0.000000 0.000000 0.000000 0.037265 0.000000
# 6 0.000000 0.000000 0.000000 0.000000 0.000000 0.054381
#
#
# Mechanical properties :
#
#
# Convention : Reuss Voigt Hill
#
# Bulk Modulus (GPa) = 52.08049 59.54185 55.81117
# Shear Modulus (GPa) = 22.16475 24.20140 23.18307
#
# Velocity S-wave (km/s) = 3.56462 3.72479 3.64559
# Velocity P-wave (km/s) = 6.84094 7.25484 7.05093
#
# Compressibility (1/GPa) = 0.01920105
#
# Stress axis : x y z
#
# Youngs Moduli (GPa) = 51.73893 101.18873 54.76244
#
# Poissons Ratio (x) = 0.17751 0.35528
# Poissons Ratio (y) = 0.09076 0.32272
# Poissons Ratio (z) = 0.33566 0.59631
#
# Static dielectric constant tensor:
#      x y z
#    x 3.317360 0.000000 0.000000 
#    y 0.000000 3.647310 0.000000 
#    z 0.000000 0.000000 2.961960 
# 
# 
# High freq. dielectric constant tensor:
#      x y z
#    x 1.682320 0.000000 0.000000 
#    y 0.000000 1.692320 0.000000 
#    z 0.000000 0.000000 1.634710 
# 
# From -- ./inp_files/34736.got.cif
#   From: 2010.03.12/outbox.cif.g09.slc.cpg/sg51_18_cif.got.tgz:34736.got - 2010.04.16 13:43:02.
