data_PCOD8209800
_publ_section_title
;
Structure prediction by ZEFSAII (Michael W. Deem and Ramdas Pophale) SiO2 
 PCOD8209800
Probable space group: P M M A
;
_chemical_formula_sum "Si O2"
_cell_formula_units_Z 64
_cell_length_a 17.868409
_cell_length_b 19.737015
_cell_length_c 9.675273
_cell_angle_alpha 90.000000
_cell_angle_beta 90.000000
_cell_angle_gamma 90.000000
_cell_volume 3412.169400
_symmetry_space_group_name_H-M "P M M A"
_symmetry_group_IT_number 51
_symmetry_cell_setting 'orthorhombic'
loop_
_space_group_symop_operation_xyz
x,y,z
1/2-x,-y,z
1/2+x,-y,-z
-x,y,-z
-x,-y,-z
1/2+x,y,-z
1/2-x,y,z
x,-y,z
loop_
_atom_site_type_symbol
_atom_site_label
_atom_site_fract_x
_atom_site_fract_y
_atom_site_fract_z
Si Si1 0.546445 0.425709 0.877332
Si Si2 0.409208 0.813124 0.132142
Si Si3 0.943510 0.424066 0.382327
Si Si4 0.662678 0.318282 0.240321
Si Si5 0.837056 0.924354 0.678283
Si Si6 0.335259 0.920380 0.636815
Si Si7 0.578884 0.816529 0.187277
Si Si8 0.165436 0.674611 0.084457
O O1 0.573022 0.500000 0.928040
O O2 0.493210 0.432407 0.750164
O O3 0.618773 0.382687 0.837091
O O4 0.500000 0.388795 0.000000
O O5 0.375995 0.874685 0.216249
O O6 0.491164 0.799286 0.195010
O O7 0.360610 0.745714 0.147007
O O8 0.404286 0.832552 0.971831
O O9 0.912614 0.500000 0.422568
O O10 0.875933 0.372453 0.344716
O O11 0.000000 0.395572 0.500000
O O12 0.750000 0.313788 0.281611
O O13 0.624322 0.245135 0.256652
O O14 0.653836 0.337069 0.079223
O O15 0.750000 0.924541 0.711266
O O16 0.851433 0.900498 0.521622
O O17 0.869648 0.000000 0.700247
O O18 0.250000 0.899467 0.677194
O O19 0.396874 0.883234 0.729966
O O20 0.345827 0.000000 0.659155
O O21 0.250000 0.664556 0.128805
#
# Coordination Sequence:
#
# PCOD8209800 Si02
#       8
#     8   8   8   8   8   8   8   8
#     4  10  19  34  58  83 111 146 184 228 277 329
#     4  10  21  35  55  81 111 148 186 228 282 335
#     4  10  21  38  58  82 113 149 186 226 277 334
#     4  10  20  36  58  83 112 146 187 233 278 329
#     4   9  19  37  58  80 110 145 183 230 283 339
#     4   9  19  37  58  79 108 145 184 230 283 335
#     4  10  21  36  55  80 112 147 185 234 277 332
#     4  10  20  34  57  85 113 145 186 235 279 326
#
# _framework density 18.756397
#
# number of rings (size 3 to 8) (size 9 to 14) (size 15 to 20)
#    0.000    2.250    1.250    2.250    1.750    3.500 
#    4.500    5.625    0.000    2.250    0.000    0.000 
#    0.000    0.000    0.000    0.000    0.000    0.000 
#
# Total GULP energy -793293.106639 kJ/mol
# GULP energy per Si atom -12395.204791 kJ/mol
# Density = 1.871371 g / cm^3
# Si number density = 18.756397 Si / 1000 Ang^3
#
#
#
# Elastic Constant Matrix: (Units=GPa)
#
#
# Indices 1 2 3 4 5 6 
#
# 1 113.1033 60.1907 39.0993 0.0000 0.0000 0.0000
# 2 60.1907 92.0518 35.8768 0.0000 0.0000 0.0000
# 3 39.0993 35.8768 55.1376 0.0000 0.0000 0.0000
# 4 0.0000 0.0000 0.0000 28.4468 0.0000 0.0000
# 5 0.0000 0.0000 0.0000 0.0000 32.0620 0.0000
# 6 0.0000 0.0000 0.0000 0.0000 0.0000 -15.6374
#
#
#
# Elastic Compliance Matrix: (Units=1/GPa)
#
#
# Indices 1 2 3 4 5 6 
#
# 1 0.014749 -0.007459 -0.005605 0.000000 0.000000 0.000000
# 2 -0.007459 0.018327 -0.006635 0.000000 0.000000 0.000000
# 3 -0.005605 -0.006635 0.026429 0.000000 0.000000 0.000000
# 4 0.000000 0.000000 0.000000 0.035153 0.000000 0.000000
# 5 0.000000 0.000000 0.000000 0.000000 0.031190 0.000000
# 6 0.000000 0.000000 0.000000 0.000000 0.000000 -0.063949
#
#
# Mechanical properties :
#
#
# Convention : Reuss Voigt Hill
#
# Bulk Modulus (GPa) = 49.73929 58.95849 54.34889
# Shear Modulus (GPa) = 46.29653 17.31602 31.80628
#
# Velocity S-wave (km/s) = 4.97359 3.04173 4.12242
# Velocity P-wave (km/s) = 7.71740 6.62104 7.19015
#
# Compressibility (1/GPa) = 0.02010483
#
# Stress axis : x y z
#
# Youngs Moduli (GPa) = 67.80206 54.56392 37.83770
#
# Poissons Ratio (x) = 0.40701 0.21208
# Poissons Ratio (y) = 0.50576 0.25107
# Poissons Ratio (z) = 0.38003 0.36206
#
# Static dielectric constant tensor:
#      x y z
#    x 3.438360 0.000000 0.000000 
#    y 0.000000 3.784480 0.000000 
#    z 0.000000 0.000000 3.238990 
# 
# 
# High freq. dielectric constant tensor:
#      x y z
#    x 1.727660 0.000000 0.000000 
#    y 0.000000 1.732310 0.000000 
#    z 0.000000 0.000000 1.715200 
# 
# From -- ./inp_files/10055.got.cif
#   From: 2010.03.12/outbox.cif.g09.slc.cpg/sg51_6_cif.got.tgz:10055.got - 2010.04.16 13:43:02.
