data_PCOD8209985
_publ_section_title
;
Structure prediction by ZEFSAII (Michael W. Deem and Ramdas Pophale) SiO2 
 PCOD8209985
Probable space group: P M M A
;
_chemical_formula_sum "Si O2"
_cell_formula_units_Z 64
_cell_length_a 33.021195
_cell_length_b 8.771042
_cell_length_c 10.365898
_cell_angle_alpha 90.000000
_cell_angle_beta 90.000000
_cell_angle_gamma 90.000000
_cell_volume 3002.278026
_symmetry_space_group_name_H-M "P M M A"
_symmetry_group_IT_number 51
_symmetry_cell_setting 'orthorhombic'
loop_
_space_group_symop_operation_xyz
x,y,z
1/2-x,-y,z
1/2+x,-y,-z
-x,y,-z
-x,-y,-z
1/2+x,y,-z
1/2-x,y,z
x,-y,z
loop_
_atom_site_type_symbol
_atom_site_label
_atom_site_fract_x
_atom_site_fract_y
_atom_site_fract_z
Si Si1 0.993985 0.177905 0.743636
Si Si2 0.204852 0.181216 0.990111
Si Si3 0.343292 0.177557 0.749193
Si Si4 0.362226 0.819575 0.192960
Si Si5 0.941530 0.670406 0.920744
Si Si6 0.871818 0.179281 0.514588
Si Si7 0.044967 0.319751 0.469406
Si Si8 0.926053 0.330835 0.215144
O O1 0.979975 0.220259 0.887851
O O2 0.953302 0.248356 0.674696
O O3 0.035990 0.264795 0.699318
O O4 0.000393 0.000000 0.722359
O O5 0.250000 0.247566 0.009553
O O6 0.187578 0.251464 0.853604
O O7 0.206058 0.000000 0.980963
O O8 0.177993 0.229720 0.113653
O O9 0.338136 0.222533 0.596313
O O10 0.388550 0.218726 0.789165
O O11 0.337900 0.000000 0.765161
O O12 0.398686 0.736037 0.124270
O O13 0.357180 0.767277 0.343690
O O14 0.369449 0.000000 0.185456
O O15 0.947282 0.500000 0.862787
O O16 0.943227 0.660037 0.073238
O O17 0.913474 0.260952 0.464147
O O18 0.880370 0.000000 0.513204
O O19 0.043588 0.500000 0.474618
O O20 0.000000 0.246908 0.500000
O O21 0.915237 0.500000 0.268412
#
# Coordination Sequence:
#
# PCOD8209985 Si02
#       8
#     8   8   8   8   8   8   8   8
#     4  12  24  36  53  78 111 153 201 248 295 344
#     4   9  18  35  62  92 120 152 191 237 290 355
#     4  10  20  36  58  85 117 152 195 239 292 351
#     4  10  19  35  59  85 115 152 196 239 292 352
#     4  11  22  36  55  80 112 148 194 248 298 345
#     4  10  21  35  54  83 115 152 197 248 294 342
#     4  11  23  37  53  75 108 154 205 251 297 346
#     4  11  23  37  54  80 115 152 197 248 297 346
#
# _framework density 21.317148
#
# number of rings (size 3 to 8) (size 9 to 14) (size 15 to 20)
#    0.000    1.500    2.500    3.375    0.000    6.500 
#    0.000    0.625    0.000    5.250    0.000    0.000 
#    0.000    3.000    0.000    0.000    0.000    0.000 
#
# Total GULP energy -792912.514218 kJ/mol
# GULP energy per Si atom -12389.258035 kJ/mol
# Density = 2.126863 g / cm^3
# Si number density = 21.317148 Si / 1000 Ang^3
#
#
#
# Elastic Constant Matrix: (Units=GPa)
#
#
# Indices 1 2 3 4 5 6 
#
# 1 115.7751 5.7251 49.2232 0.0000 0.0000 0.0000
# 2 5.7251 19.7027 11.0394 0.0000 0.0000 0.0000
# 3 49.2232 11.0394 92.4207 0.0000 0.0000 0.0000
# 4 0.0000 0.0000 0.0000 20.0478 0.0000 0.0000
# 5 0.0000 0.0000 0.0000 0.0000 32.7013 0.0000
# 6 0.0000 0.0000 0.0000 0.0000 0.0000 10.5767
#
#
#
# Elastic Compliance Matrix: (Units=1/GPa)
#
#
# Indices 1 2 3 4 5 6 
#
# 1 0.011166 0.000094 -0.005958 0.000000 0.000000 0.000000
# 2 0.000094 0.054396 -0.006547 0.000000 0.000000 0.000000
# 3 -0.005958 -0.006547 0.014775 0.000000 0.000000 0.000000
# 4 0.000000 0.000000 0.000000 0.049881 0.000000 0.000000
# 5 0.000000 0.000000 0.000000 0.000000 0.030580 0.000000
# 6 0.000000 0.000000 0.000000 0.000000 0.000000 0.094547
#
#
# Mechanical properties :
#
#
# Convention : Reuss Voigt Hill
#
# Bulk Modulus (GPa) = 18.01356 39.98596 28.99976
# Shear Modulus (GPa) = 16.74071 23.45922 20.09996
#
# Velocity S-wave (km/s) = 2.80539 3.32096 3.07400
# Velocity P-wave (km/s) = 4.35456 5.78821 5.12180
#
# Compressibility (1/GPa) = 0.05551374
#
# Stress axis : x y z
#
# Youngs Moduli (GPa) = 89.55759 18.38378 67.67965
#
# Poissons Ratio (x) = -0.00173 0.40325
# Poissons Ratio (y) = -0.00840 0.44313
# Poissons Ratio (z) = 0.53360 0.12037
#
# Static dielectric constant tensor:
#      x y z
#    x 3.773330 0.000000 0.000000 
#    y 0.000000 3.646350 0.000000 
#    z 0.000000 0.000000 4.733860 
# 
# 
# High freq. dielectric constant tensor:
#      x y z
#    x 1.804300 0.000000 0.000000 
#    y 0.000000 1.808710 0.000000 
#    z 0.000000 0.000000 1.878620 
# 
# From -- ./inp_files/19589.got.cif
#   From: 2010.03.12/outbox.cif.g09.slc.cpg/sg51_10_cif.got.tgz:19589.got - 2010.04.16 13:43:02.
