data_PCOD8209924
_publ_section_title
;
Structure prediction by ZEFSAII (Michael W. Deem and Ramdas Pophale) SiO2 
 PCOD8209924
Probable space group: P M M A
;
_chemical_formula_sum "Si O2"
_cell_formula_units_Z 48
_cell_length_a 17.149064
_cell_length_b 15.597974
_cell_length_c 9.007044
_cell_angle_alpha 90.000000
_cell_angle_beta 90.000000
_cell_angle_gamma 90.000000
_cell_volume 2409.300094
_symmetry_space_group_name_H-M "P M M A"
_symmetry_group_IT_number 51
_symmetry_cell_setting 'orthorhombic'
loop_
_space_group_symop_operation_xyz
x,y,z
1/2-x,-y,z
1/2+x,-y,-z
-x,y,-z
-x,-y,-z
1/2+x,y,-z
1/2-x,y,z
x,-y,z
loop_
_atom_site_type_symbol
_atom_site_label
_atom_site_fract_x
_atom_site_fract_y
_atom_site_fract_z
Si Si1 0.157552 0.332637 0.986347
Si Si2 0.342842 0.671651 0.648877
Si Si3 0.842670 0.833959 0.836871
Si Si4 0.656749 0.500000 0.847486
Si Si5 0.157991 0.000000 0.652802
Si Si6 0.657534 0.500000 0.512628
Si Si7 0.342470 0.000000 0.985478
Si Si8 0.591301 0.163415 0.510519
O O1 0.250000 0.336714 0.985833
O O2 0.128551 0.248841 0.072649
O O3 0.123846 0.416449 0.068388
O O4 0.127350 0.329860 0.817977
O O5 0.250000 0.682754 0.637482
O O6 0.372121 0.584213 0.572526
O O7 0.383700 0.749436 0.567174
O O8 0.750000 0.834005 0.812970
O O9 0.884355 0.833589 0.680427
O O10 0.871894 0.916304 0.928015
O O11 0.750000 0.500000 0.847112
O O12 0.624287 0.500000 0.679735
O O13 0.132429 0.084268 0.567635
O O14 0.250000 0.000000 0.661825
O O15 0.122427 0.000000 0.819277
O O16 0.750000 0.500000 0.515303
O O17 0.250000 0.000000 0.977244
O O18 0.500000 0.150141 0.500000
#
# Coordination Sequence:
#
# PCOD8209924 Si02
#       8
#     8   8   8   4   4   4   4   8
#     4   9  17  29  51  80 110 141 183 233 280 326
#     4  10  19  35  57  83 112 148 190 235 282 332
#     4  10  19  35  57  81 107 142 184 228 274 327
#     4   9  15  25  43  77 114 139 171 230 289 327
#     4  11  22  41  65  86 109 143 184 231 280 332
#     4   9  17  29  54  87 116 145 186 234 282 331
#     4   9  19  35  60  88 108 131 176 229 278 326
#     4  12  25  39  55  83 118 152 187 228 276 334
#
# _framework density 19.922799000000001
#
# number of rings (size 3 to 8) (size 9 to 14) (size 15 to 20)
#    0.000    2.000    0.000    4.750    0.000    8.000 
#    0.000    4.583    0.000    0.000    0.000    3.500 
#    0.000    0.000    0.000    0.000    0.000    0.000 
#
# Total GULP energy -595314.687787 kJ/mol
# GULP energy per Si atom -12402.389329 kJ/mol
# Density = 1.987745 g / cm^3
# Si number density = 19.922799 Si / 1000 Ang^3
#
#
#
# Elastic Constant Matrix: (Units=GPa)
#
#
# Indices 1 2 3 4 5 6 
#
# 1 36.1949 19.2007 22.9469 0.0000 0.0000 0.0000
# 2 19.2007 196.6806 98.3937 0.0000 0.0000 0.0000
# 3 22.9469 98.3937 199.7301 0.0000 0.0000 0.0000
# 4 0.0000 0.0000 0.0000 49.8325 0.0000 0.0000
# 5 0.0000 0.0000 0.0000 0.0000 -68.3187 0.0000
# 6 0.0000 0.0000 0.0000 0.0000 0.0000 3.5725
#
#
#
# Elastic Compliance Matrix: (Units=1/GPa)
#
#
# Indices 1 2 3 4 5 6 
#
# 1 0.030177 -0.001608 -0.002675 0.000000 0.000000 0.000000
# 2 -0.001608 0.006833 -0.003181 0.000000 0.000000 0.000000
# 3 -0.002675 -0.003181 0.006881 0.000000 0.000000 0.000000
# 4 0.000000 0.000000 0.000000 0.020067 0.000000 0.000000
# 5 0.000000 0.000000 0.000000 0.000000 -0.014637 0.000000
# 6 0.000000 0.000000 0.000000 0.000000 0.000000 0.279917
#
#
# Mechanical properties :
#
#
# Convention : Reuss Voigt Hill
#
# Bulk Modulus (GPa) = 34.52692 79.29869 56.91281
# Shear Modulus (GPa) = 14.13145 16.48821 15.30983
#
# Velocity S-wave (km/s) = 2.66618 2.87993 2.77511
# Velocity P-wave (km/s) = 5.18131 7.13779 6.23675
#
# Compressibility (1/GPa) = 0.02896290
#
# Stress axis : x y z
#
# Youngs Moduli (GPa) = 33.13788 146.35057 145.32033
#
# Poissons Ratio (x) = 0.23530 0.38873
# Poissons Ratio (y) = 0.05328 0.46232
# Poissons Ratio (z) = 0.08864 0.46560
#
# Static dielectric constant tensor:
#      x y z
#    x 3.075670 0.000000 0.000000 
#    y 0.000000 3.868230 0.000000 
#    z 0.000000 0.000000 3.959700 
# 
# 
# High freq. dielectric constant tensor:
#      x y z
#    x 1.722110 0.000000 0.000000 
#    y 0.000000 1.800340 0.000000 
#    z 0.000000 0.000000 1.800730 
# 
# From -- ./inp_files/9772.got.cif
#   From: 2010.03.12/outbox.cif.g09.slc.cpg/sg51_5_cif.got.tgz:9772.got - 2010.04.16 13:43:02.
