data_PCOD8209591
_publ_section_title
;
Structure prediction by ZEFSAII (Michael W. Deem and Ramdas Pophale) SiO2 
 PCOD8209591
Probable space group: P M M A
;
_chemical_formula_sum "Si O2"
_cell_formula_units_Z 52
_cell_length_a 15.579848
_cell_length_b 14.269577
_cell_length_c 13.908936
_cell_angle_alpha 90.000000
_cell_angle_beta 90.000000
_cell_angle_gamma 90.000000
_cell_volume 3092.204618
_symmetry_space_group_name_H-M "P M M A"
_symmetry_group_IT_number 51
_symmetry_cell_setting 'orthorhombic'
loop_
_space_group_symop_operation_xyz
x,y,z
1/2-x,-y,z
1/2+x,-y,-z
-x,y,-z
-x,-y,-z
1/2+x,y,-z
1/2-x,y,z
x,-y,z
loop_
_atom_site_type_symbol
_atom_site_label
_atom_site_fract_x
_atom_site_fract_y
_atom_site_fract_z
Si Si1 0.750000 0.605398 0.861519
Si Si2 0.419059 0.889437 0.556767
Si Si3 0.750000 0.798192 0.764665
Si Si4 0.154156 0.206509 0.937326
Si Si5 0.750000 0.110092 0.561052
Si Si6 0.898353 0.602365 0.015590
Si Si7 0.097197 0.890349 0.122106
Si Si8 0.079767 0.891602 0.770634
O O1 0.750000 0.500000 0.816616
O O2 0.750000 0.685285 0.779179
O O3 0.838708 0.618516 0.921436
O O4 0.500000 0.845758 0.500000
O O5 0.332278 0.863798 0.502138
O O6 0.418548 0.846402 0.664322
O O7 0.431587 0.000000 0.565069
O O8 0.750000 0.822436 0.652388
O O9 0.832563 0.844598 0.810901
O O10 0.250000 0.204320 0.980094
O O11 0.124993 0.312880 0.913562
O O12 0.153408 0.153961 0.835783
O O13 0.093694 0.157732 0.017168
O O14 0.750000 0.000000 0.591221
O O15 0.875045 0.500000 0.059634
O O16 0.000000 0.606536 0.000000
O O17 0.009091 0.871370 0.176375
O O18 0.115740 0.000000 0.107489
O O19 0.101191 0.000000 0.762741
#
# Coordination Sequence:
#
# PCOD8209591 Si02
#       8
#     4   8   4   8   4   8   8   8
#     4  10  20  36  53  77 104 130 171 214 256 306
#     4   9  18  35  52  70  95 130 173 218 261 294
#     4  12  20  32  51  78  99 135 167 213 260 305
#     4  12  22  33  48  74 107 143 173 210 249 307
#     4  10  20  32  52  75 101 129 168 219 260 307
#     4  10  19  34  54  72  98 135 171 213 259 300
#     4  11  20  32  47  71 106 142 175 206 242 299
#     4  10  22  34  50  71 103 143 179 213 251 303
#
# _framework density 16.816482000000001
#
# number of rings (size 3 to 8) (size 9 to 14) (size 15 to 20)
#    0.000    1.538    3.077    3.462    1.077    4.615 
#    0.000    0.000    0.000    0.000    0.000    1.077 
#    0.000    2.462    0.000    0.000    0.000    0.000 
#
# Total GULP energy -644579.218650 kJ/mol
# GULP energy per Si atom -12395.754205 kJ/mol
# Density = 1.677821 g / cm^3
# Si number density = 16.816482 Si / 1000 Ang^3
#
#
#
# Elastic Constant Matrix: (Units=GPa)
#
#
# Indices 1 2 3 4 5 6 
#
# 1 89.9245 45.9018 39.7679 0.0000 0.0000 0.0000
# 2 45.9018 77.1180 44.9125 0.0000 0.0000 0.0000
# 3 39.7679 44.9125 125.2259 0.0000 0.0000 0.0000
# 4 0.0000 0.0000 0.0000 14.1457 0.0000 0.0000
# 5 0.0000 0.0000 0.0000 0.0000 33.6256 0.0000
# 6 0.0000 0.0000 0.0000 0.0000 0.0000 18.2039
#
#
#
# Elastic Compliance Matrix: (Units=1/GPa)
#
#
# Indices 1 2 3 4 5 6 
#
# 1 0.016424 -0.008517 -0.002161 0.000000 0.000000 0.000000
# 2 -0.008517 0.020808 -0.004758 0.000000 0.000000 0.000000
# 3 -0.002161 -0.004758 0.010378 0.000000 0.000000 0.000000
# 4 0.000000 0.000000 0.000000 0.070693 0.000000 0.000000
# 5 0.000000 0.000000 0.000000 0.000000 0.029739 0.000000
# 6 0.000000 0.000000 0.000000 0.000000 0.000000 0.054933
#
#
# Mechanical properties :
#
#
# Convention : Reuss Voigt Hill
#
# Bulk Modulus (GPa) = 59.74592 61.49253 60.61923
# Shear Modulus (GPa) = 20.88327 23.97411 22.42869
#
# Velocity S-wave (km/s) = 3.52779 3.77985 3.65599
# Velocity P-wave (km/s) = 7.22489 7.46297 7.34489
#
# Compressibility (1/GPa) = 0.01673754
#
# Stress axis : x y z
#
# Youngs Moduli (GPa) = 60.88793 48.05945 96.35519
#
# Poissons Ratio (x) = 0.40932 0.20822
# Poissons Ratio (y) = 0.51859 0.45845
# Poissons Ratio (z) = 0.13158 0.22866
#
# Static dielectric constant tensor:
#      x y z
#    x 3.289380 0.000000 0.000000 
#    y 0.000000 3.237050 0.000000 
#    z 0.000000 0.000000 3.135710 
# 
# 
# High freq. dielectric constant tensor:
#      x y z
#    x 1.670180 0.000000 0.000000 
#    y 0.000000 1.625630 0.000000 
#    z 0.000000 0.000000 1.625070 
# 
# From -- ./inp_files/17431.got.cif
#   From: 2010.03.12/outbox.cif.g09.slc.cpg/sg51_9_cif.got.tgz:17431.got - 2010.04.16 13:43:02.
