data_PCOD8209577
_publ_section_title
;
Structure prediction by ZEFSAII (Michael W. Deem and Ramdas Pophale) SiO2 
 PCOD8209577
Probable space group: P M M A
;
_chemical_formula_sum "Si O2"
_cell_formula_units_Z 48
_cell_length_a 10.297002
_cell_length_b 9.188276
_cell_length_c 27.988170
_cell_angle_alpha 90.000000
_cell_angle_beta 90.000000
_cell_angle_gamma 90.000000
_cell_volume 2648.008241
_symmetry_space_group_name_H-M "P M M A"
_symmetry_group_IT_number 51
_symmetry_cell_setting 'orthorhombic'
loop_
_space_group_symop_operation_xyz
x,y,z
1/2-x,-y,z
1/2+x,-y,-z
-x,y,-z
-x,-y,-z
1/2+x,y,-z
1/2-x,y,z
x,-y,z
loop_
_atom_site_type_symbol
_atom_site_label
_atom_site_fract_x
_atom_site_fract_y
_atom_site_fract_z
Si Si1 0.497590 0.172461 0.232275
Si Si2 0.750000 0.171932 0.708772
Si Si3 0.605452 0.326837 0.963283
Si Si4 0.750000 0.173512 0.396082
Si Si5 0.250000 0.667261 0.389981
Si Si6 0.487381 0.668677 0.555138
Si Si7 0.750000 0.172699 0.287308
Si Si8 0.900134 0.669225 0.855757
O O1 0.375795 0.227612 0.263042
O O2 0.624368 0.231492 0.259400
O O3 0.492006 0.240797 0.179608
O O4 0.498809 0.000000 0.226574
O O5 0.750000 0.234639 0.656287
O O6 0.750000 0.000000 0.704019
O O7 0.750000 0.268134 0.976095
O O8 0.607217 0.500000 0.966327
O O9 0.566963 0.279875 0.909630
O O10 0.500000 0.260339 0.000000
O O11 0.878005 0.232259 0.421458
O O12 0.750000 0.230657 0.341474
O O13 0.750000 0.000000 0.398716
O O14 0.250000 0.500000 0.374059
O O15 0.375659 0.705381 0.420959
O O16 0.500000 0.710536 0.500000
O O17 0.448475 0.500000 0.561388
O O18 0.750000 0.000000 0.288014
O O19 0.750000 0.702937 0.844422
O O20 0.930574 0.500000 0.849037
#
# Coordination Sequence:
#
# PCOD8209577 Si02
#       8
#     8   4   8   4   4   8   4   8
#     4  10  19  34  53  72  96 134 176 206 248 311
#     4  10  20  33  53  76 100 132 171 214 255 304
#     4   8  14  26  44  66  94 129 163 197 246 305
#     4  11  22  38  60  83 109 142 180 225 271 311
#     4  10  21  35  55  83 107 136 178 219 260 306
#     4  10  21  39  60  81 110 146 179 212 259 323
#     4   9  20  36  52  72 104 140 169 208 262 309
#     4   9  17  30  49  74 103 130 162 212 262 295
#
# _framework density 18.126833000000001
#
# number of rings (size 3 to 8) (size 9 to 14) (size 15 to 20)
#    0.000    2.500    0.833    2.750    0.000    4.333 
#    1.500    2.917    0.000    0.500    0.000    0.000 
#    0.000    0.000    0.000    0.000    0.000    0.000 
#
# Total GULP energy -595222.372792 kJ/mol
# GULP energy per Si atom -12400.466100 kJ/mol
# Density = 1.808558 g / cm^3
# Si number density = 18.126833 Si / 1000 Ang^3
#
#
#
# Elastic Constant Matrix: (Units=GPa)
#
#
# Indices 1 2 3 4 5 6 
#
# 1 152.2718 36.7021 90.2523 0.0000 0.0000 0.0000
# 2 36.7021 32.5589 38.8777 0.0000 0.0000 0.0000
# 3 90.2523 38.8777 166.8150 0.0000 0.0000 0.0000
# 4 0.0000 0.0000 0.0000 9.4259 0.0000 0.0000
# 5 0.0000 0.0000 0.0000 0.0000 35.8696 0.0000
# 6 0.0000 0.0000 0.0000 0.0000 0.0000 17.3795
#
#
#
# Elastic Compliance Matrix: (Units=1/GPa)
#
#
# Indices 1 2 3 4 5 6 
#
# 1 0.010753 -0.007170 -0.004147 0.000000 0.000000 0.000000
# 2 -0.007170 0.047337 -0.007153 0.000000 0.000000 0.000000
# 3 -0.004147 -0.007153 0.009905 0.000000 0.000000 0.000000
# 4 0.000000 0.000000 0.000000 0.106091 0.000000 0.000000
# 5 0.000000 0.000000 0.000000 0.000000 0.027879 0.000000
# 6 0.000000 0.000000 0.000000 0.000000 0.000000 0.057539
#
#
# Mechanical properties :
#
#
# Convention : Reuss Voigt Hill
#
# Bulk Modulus (GPa) = 32.19996 75.92332 54.06164
# Shear Modulus (GPa) = 16.29744 24.92257 20.61001
#
# Velocity S-wave (km/s) = 3.00172 3.71199 3.37558
# Velocity P-wave (km/s) = 5.46040 7.76835 6.71428
#
# Compressibility (1/GPa) = 0.03105594
#
# Stress axis : x y z
#
# Youngs Moduli (GPa) = 92.99532 21.12493 100.95565
#
# Poissons Ratio (x) = 0.15147 0.41864
# Poissons Ratio (y) = 0.66678 0.72216
# Poissons Ratio (z) = 0.38563 0.15111
#
# Static dielectric constant tensor:
#      x y z
#    x 3.930900 0.000000 0.000000 
#    y 0.000000 3.002280 0.000000 
#    z 0.000000 0.000000 3.494470 
# 
# 
# High freq. dielectric constant tensor:
#      x y z
#    x 1.707260 0.000000 0.000000 
#    y 0.000000 1.668780 0.000000 
#    z 0.000000 0.000000 1.715500 
# 
# From -- ./inp_files/37242.got.cif
#   From: 2010.03.12/outbox.cif.g09.slc.cpg/sg51_19_cif.got.tgz:37242.got - 2010.04.16 13:43:02.
