data_PCOD8209685
_publ_section_title
;
Structure prediction by ZEFSAII (Michael W. Deem and Ramdas Pophale) SiO2 
 PCOD8209685
Probable space group: P M M A
;
_chemical_formula_sum "Si O2"
_cell_formula_units_Z 56
_cell_length_a 24.116832
_cell_length_b 8.631776
_cell_length_c 14.712552
_cell_angle_alpha 90.000000
_cell_angle_beta 90.000000
_cell_angle_gamma 90.000000
_cell_volume 3062.728011
_symmetry_space_group_name_H-M "P M M A"
_symmetry_group_IT_number 51
_symmetry_cell_setting 'orthorhombic'
loop_
_space_group_symop_operation_xyz
x,y,z
1/2-x,-y,z
1/2+x,-y,-z
-x,y,-z
-x,-y,-z
1/2+x,y,-z
1/2-x,y,z
x,-y,z
loop_
_atom_site_type_symbol
_atom_site_label
_atom_site_fract_x
_atom_site_fract_y
_atom_site_fract_z
Si Si1 0.250000 0.819191 0.998832
Si Si2 0.543061 0.679116 0.171263
Si Si3 0.536479 0.317493 0.377325
Si Si4 0.365762 0.680326 0.973665
Si Si5 0.750000 0.819640 0.787632
Si Si6 0.859822 0.318237 0.704164
Si Si7 0.577034 0.182668 0.550658
Si Si8 0.429706 0.180793 0.141131
O O1 0.250000 0.787370 0.105805
O O2 0.250000 0.000000 0.975680
O O3 0.303860 0.739932 0.954716
O O4 0.525483 0.500000 0.164830
O O5 0.553254 0.730095 0.275223
O O6 0.599685 0.711455 0.117739
O O7 0.494000 0.777854 0.124463
O O8 0.536608 0.500000 0.391207
O O9 0.580846 0.242342 0.446789
O O10 0.475942 0.254009 0.399226
O O11 0.365275 0.500000 0.000519
O O12 0.392748 0.776290 0.055022
O O13 0.696865 0.741209 0.745150
O O14 0.750000 0.000000 0.764972
O O15 0.857518 0.500000 0.690188
O O16 0.869051 0.238413 0.606111
O O17 0.910202 0.275169 0.770806
O O18 0.572120 0.000000 0.551291
O O19 0.422054 0.000000 0.160623
#
# Coordination Sequence:
#
# PCOD8209685 Si02
#       8
#     4   8   8   8   4   8   8   8
#     4  11  23  39  59  82 110 145 190 240 285 331
#     4  10  22  38  57  83 115 152 192 234 281 338
#     4  10  19  34  56  81 112 149 187 228 276 335
#     4  11  23  39  59  81 111 151 193 235 282 337
#     4  11  23  39  59  84 114 145 186 236 285 335
#     4  12  23  37  58  83 113 152 191 229 279 341
#     4  11  21  34  54  83 115 146 182 229 282 333
#     4  12  23  35  54  83 117 152 187 231 283 337
#
# _framework density 18.284352999999999
#
# number of rings (size 3 to 8) (size 9 to 14) (size 15 to 20)
#    0.000    1.000    2.857    6.429    0.000    4.000 
#    0.000    0.000    0.000    0.857    0.000    4.000 
#    0.000    0.000    0.000    0.000    0.000    0.000 
#
# Total GULP energy -694684.383927 kJ/mol
# GULP energy per Si atom -12405.078284 kJ/mol
# Density = 1.824274 g / cm^3
# Si number density = 18.284353 Si / 1000 Ang^3
#
#
#
# Elastic Constant Matrix: (Units=GPa)
#
#
# Indices 1 2 3 4 5 6 
#
# 1 104.2240 43.3927 41.6630 0.0000 0.0000 0.0000
# 2 43.3927 123.0643 35.3630 0.0000 0.0000 0.0000
# 3 41.6630 35.3630 86.0176 0.0000 0.0000 0.0000
# 4 0.0000 0.0000 0.0000 15.6656 0.0000 0.0000
# 5 0.0000 0.0000 0.0000 0.0000 101.5393 0.0000
# 6 0.0000 0.0000 0.0000 0.0000 0.0000 -5.8968
#
#
#
# Elastic Compliance Matrix: (Units=1/GPa)
#
#
# Indices 1 2 3 4 5 6 
#
# 1 0.012872 -0.003115 -0.004954 0.000000 0.000000 0.000000
# 2 -0.003115 0.009968 -0.002589 0.000000 0.000000 0.000000
# 3 -0.004954 -0.002589 0.015089 0.000000 0.000000 0.000000
# 4 0.000000 0.000000 0.000000 0.063834 0.000000 0.000000
# 5 0.000000 0.000000 0.000000 0.000000 0.009848 0.000000
# 6 0.000000 0.000000 0.000000 0.000000 0.000000 -0.169583
#
#
# Mechanical properties :
#
#
# Convention : Reuss Voigt Hill
#
# Bulk Modulus (GPa) = 60.19363 61.57149 60.88256
# Shear Modulus (GPa) = -160.68763 35.12075 -62.78344
#
# Velocity S-wave (km/s) = -9.38474 4.38746 -5.86616
# Velocity P-wave (km/s) = 9.18906 7.70804 3.53730
#
# Compressibility (1/GPa) = 0.01661305
#
# Stress axis : x y z
#
# Youngs Moduli (GPa) = 77.68801 100.31822 66.27145
#
# Poissons Ratio (x) = 0.31251 0.32830
# Poissons Ratio (y) = 0.24201 0.17159
# Poissons Ratio (z) = 0.38486 0.25975
#
# Static dielectric constant tensor:
#      x y z
#    x 3.349510 0.000000 0.000000 
#    y 0.000000 3.481440 0.000000 
#    z 0.000000 0.000000 3.639610 
# 
# 
# High freq. dielectric constant tensor:
#      x y z
#    x 1.692040 0.000000 0.000000 
#    y 0.000000 1.726120 0.000000 
#    z 0.000000 0.000000 1.706430 
# 
# From -- ./inp_files/25818.got.cif
#   From: 2010.03.12/outbox.cif.g09.slc.cpg/sg51_13_cif.got.tgz:25818.got - 2010.04.16 13:43:02.
