data_PCOD8209982
_publ_section_title
;
Structure prediction by ZEFSAII (Michael W. Deem and Ramdas Pophale) SiO2 
 PCOD8209982
Probable space group: P M M A
;
_chemical_formula_sum "Si O2"
_cell_formula_units_Z 52
_cell_length_a 8.961816
_cell_length_b 14.815686
_cell_length_c 20.577347
_cell_angle_alpha 90.000000
_cell_angle_beta 90.000000
_cell_angle_gamma 90.000000
_cell_volume 2732.166546
_symmetry_space_group_name_H-M "P M M A"
_symmetry_group_IT_number 51
_symmetry_cell_setting 'orthorhombic'
loop_
_space_group_symop_operation_xyz
x,y,z
1/2-x,-y,z
1/2+x,-y,-z
-x,y,-z
-x,-y,-z
1/2+x,y,-z
1/2-x,y,z
x,-y,z
loop_
_atom_site_type_symbol
_atom_site_label
_atom_site_fract_x
_atom_site_fract_y
_atom_site_fract_z
Si Si1 0.082146 0.352203 0.636719
Si Si2 0.572366 0.231338 0.183826
Si Si3 0.418202 0.500000 0.434220
Si Si4 0.926780 0.393543 0.765810
Si Si5 0.074791 0.897802 0.933509
Si Si6 0.573546 0.900354 0.296969
Si Si7 0.417714 0.162576 0.568261
O O1 0.250000 0.392811 0.636465
O O2 0.079740 0.264654 0.592641
O O3 0.956274 0.414237 0.607293
O O4 0.026179 0.344593 0.710269
O O5 0.750000 0.248449 0.186152
O O6 0.482523 0.327402 0.176021
O O7 0.525371 0.170728 0.122642
O O8 0.514486 0.175261 0.247317
O O9 0.250000 0.500000 0.453825
O O10 0.500000 0.500000 0.500000
O O11 0.750000 0.384844 0.753605
O O12 0.968118 0.500000 0.776158
O O13 0.250000 0.894679 0.943599
O O14 0.023916 0.000000 0.915462
O O15 0.000000 0.865006 0.000000
O O16 0.750000 0.885696 0.302782
O O17 0.508575 0.891437 0.370835
O O18 0.534069 0.000000 0.270160
O O19 0.500000 0.148383 0.500000
O O20 0.250000 0.129471 0.555042
#
# Coordination Sequence:
#
# PCOD8209982 Si02
#       7
#     8   8   4   8   8   8   8
#     4  11  21  36  55  74  98 134 181 230 282 342
#     4  10  19  35  59  85 112 148 191 229 270 326
#     4  12  24  36  50  74 102 134 175 224 289 354
#     4  11  23  37  55  81 111 143 180 229 288 341
#     4   9  18  33  57  91 127 160 191 225 269 325
#     4   9  17  32  54  78 104 137 181 229 273 324
#     4  10  21  35  51  73  98 134 179 225 278 331
#
# _framework density 19.032515
#
# number of rings (size 3 to 8) (size 9 to 14) (size 15 to 20)
#    0.000    1.846    2.308    2.538    0.000    6.154 
#    0.000    0.000    0.000    2.769    0.000    0.000 
#    0.000    0.000    0.000    0.000    0.000    0.000 
#
# Total GULP energy -644198.753718 kJ/mol
# GULP energy per Si atom -12388.437571 kJ/mol
# Density = 1.898920 g / cm^3
# Si number density = 19.032515 Si / 1000 Ang^3
#
#
#
# Elastic Constant Matrix: (Units=GPa)
#
#
# Indices 1 2 3 4 5 6 
#
# 1 69.6839 29.0284 33.5777 0.0000 0.0000 0.0000
# 2 29.0284 105.1509 53.6433 0.0000 0.0000 0.0000
# 3 33.5777 53.6433 116.4870 0.0000 0.0000 0.0000
# 4 0.0000 0.0000 0.0000 24.3694 0.0000 0.0000
# 5 0.0000 0.0000 0.0000 0.0000 29.3973 0.0000
# 6 0.0000 0.0000 0.0000 0.0000 0.0000 25.3992
#
#
#
# Elastic Compliance Matrix: (Units=1/GPa)
#
#
# Indices 1 2 3 4 5 6 
#
# 1 0.017326 -0.002922 -0.003649 0.000000 0.000000 0.000000
# 2 -0.002922 0.012923 -0.005109 0.000000 0.000000 0.000000
# 3 -0.003649 -0.005109 0.011989 0.000000 0.000000 0.000000
# 4 0.000000 0.000000 0.000000 0.041035 0.000000 0.000000
# 5 0.000000 0.000000 0.000000 0.000000 0.034017 0.000000
# 6 0.000000 0.000000 0.000000 0.000000 0.000000 0.039371
#
#
# Mechanical properties :
#
#
# Convention : Reuss Voigt Hill
#
# Bulk Modulus (GPa) = 52.96832 58.20231 55.58532
# Shear Modulus (GPa) = 26.83655 27.50467 27.17061
#
# Velocity S-wave (km/s) = 3.75912 3.80563 3.78244
# Velocity P-wave (km/s) = 6.83609 7.06804 6.95303
#
# Compressibility (1/GPa) = 0.01887921
#
# Stress axis : x y z
#
# Youngs Moduli (GPa) = 57.71756 77.38082 83.40852
#
# Poissons Ratio (x) = 0.22607 0.30434
# Poissons Ratio (y) = 0.16863 0.42614
# Poissons Ratio (z) = 0.21060 0.39534
#
# Static dielectric constant tensor:
#      x y z
#    x 3.290380 0.000000 0.000000 
#    y 0.000000 3.763020 0.000000 
#    z 0.000000 0.000000 3.305920 
# 
# 
# High freq. dielectric constant tensor:
#      x y z
#    x 1.718580 0.000000 0.000000 
#    y 0.000000 1.747590 0.000000 
#    z 0.000000 0.000000 1.727610 
# 
# From -- ./inp_files/31798.got.cif
#   From: 2010.03.12/outbox.cif.g09.slc.cpg/sg51_16_cif.got.tgz:31798.got - 2010.04.16 13:43:02.
