data_PCOD8209255
_publ_section_title
;
Structure prediction by ZEFSAII (Michael W. Deem and Ramdas Pophale) SiO2 
 PCOD8209255
Probable space group: P M M A
;
_chemical_formula_sum "Si O2"
_cell_formula_units_Z 64
_cell_length_a 18.428629
_cell_length_b 19.923498
_cell_length_c 10.276256
_cell_angle_alpha 90.000000
_cell_angle_beta 90.000000
_cell_angle_gamma 90.000000
_cell_volume 3773.058444
_symmetry_space_group_name_H-M "P M M A"
_symmetry_group_IT_number 51
_symmetry_cell_setting 'orthorhombic'
loop_
_space_group_symop_operation_xyz
x,y,z
1/2-x,-y,z
1/2+x,-y,-z
-x,y,-z
-x,-y,-z
1/2+x,y,-z
1/2-x,y,z
x,-y,z
loop_
_atom_site_type_symbol
_atom_site_label
_atom_site_fract_x
_atom_site_fract_y
_atom_site_fract_z
Si Si1 0.663478 0.177982 0.511439
Si Si2 0.663671 0.075141 0.722581
Si Si3 0.449897 0.422502 0.378044
Si Si4 0.336257 0.821251 0.776808
Si Si5 0.666769 0.669205 0.218288
Si Si6 0.663634 0.075236 0.013177
Si Si7 0.457035 0.578123 0.870558
Si Si8 0.666994 0.328621 0.521368
O O1 0.750000 0.176183 0.511804
O O2 0.630214 0.126704 0.617397
O O3 0.635377 0.158033 0.367048
O O4 0.637776 0.253186 0.545527
O O5 0.750000 0.078076 0.717529
O O6 0.637259 0.000000 0.687707
O O7 0.637095 0.094826 0.867819
O O8 0.500000 0.405754 0.500000
O O9 0.426688 0.500000 0.374769
O O10 0.492190 0.401173 0.249101
O O11 0.377340 0.378906 0.387528
O O12 0.250000 0.825247 0.777545
O O13 0.359543 0.745239 0.809599
O O14 0.369899 0.872266 0.883225
O O15 0.750000 0.659315 0.174087
O O16 0.617643 0.619419 0.133654
O O17 0.658613 0.651822 0.370354
O O18 0.750000 0.077548 0.017975
O O19 0.636982 0.000000 0.048370
O O20 0.436203 0.500000 0.865520
O O21 0.500000 0.597100 0.000000
O O22 0.750000 0.334806 0.565559
#
# Coordination Sequence:
#
# PCOD8209255 Si02
#       8
#     8   8   8   8   8   8   8   8
#     4   8  14  24  37  56  86 119 148 186 235 277
#     4   8  13  21  33  51  80 118 153 183 222 275
#     4  10  19  33  53  74  95 124 161 197 239 287
#     4   8  14  24  38  58  85 115 149 191 232 271
#     4   9  17  31  51  73  97 127 163 200 240 289
#     4   8  13  21  33  51  79 115 152 188 226 271
#     4  10  21  37  53  71  99 130 159 198 244 287
#     4   9  17  30  49  74 101 126 159 204 244 282
#
# _framework density 16.962368000000001
#
# number of rings (size 3 to 8) (size 9 to 14) (size 15 to 20)
#    0.000    3.250    1.250    2.250    0.000    1.000 
#    2.250    4.375    0.000    2.250    0.000    0.000 
#    0.000    2.000    0.000    0.125    0.000    0.500 
#
# Total GULP energy -793308.455892 kJ/mol
# GULP energy per Si atom -12395.444623 kJ/mol
# Density = 1.692376 g / cm^3
# Si number density = 16.962368 Si / 1000 Ang^3
#
#
#
# Elastic Constant Matrix: (Units=GPa)
#
#
# Indices 1 2 3 4 5 6 
#
# 1 43.4738 43.3410 38.4031 0.0000 0.0000 0.0000
# 2 43.3410 105.4410 72.7129 0.0000 0.0000 0.0000
# 3 38.4031 72.7129 119.1216 0.0000 0.0000 0.0000
# 4 0.0000 0.0000 0.0000 18.5808 0.0000 0.0000
# 5 0.0000 0.0000 0.0000 0.0000 13.5389 0.0000
# 6 0.0000 0.0000 0.0000 0.0000 0.0000 1.9574
#
#
#
# Elastic Compliance Matrix: (Units=1/GPa)
#
#
# Indices 1 2 3 4 5 6 
#
# 1 0.040638 -0.013245 -0.005016 0.000000 0.000000 0.000000
# 2 -0.013245 0.020695 -0.008363 0.000000 0.000000 0.000000
# 3 -0.005016 -0.008363 0.015117 0.000000 0.000000 0.000000
# 4 0.000000 0.000000 0.000000 0.053819 0.000000 0.000000
# 5 0.000000 0.000000 0.000000 0.000000 0.073861 0.000000
# 6 0.000000 0.000000 0.000000 0.000000 0.000000 0.510881
#
#
# Mechanical properties :
#
#
# Convention : Reuss Voigt Hill
#
# Bulk Modulus (GPa) = 43.09925 64.10562 53.60243
# Shear Modulus (GPa) = 6.44337 14.38738 10.41537
#
# Velocity S-wave (km/s) = 1.95112 2.91554 2.48065
# Velocity P-wave (km/s) = 5.52628 7.01489 6.31460
#
# Compressibility (1/GPa) = 0.02320226
#
# Stress axis : x y z
#
# Youngs Moduli (GPa) = 24.60756 48.32087 66.15260
#
# Poissons Ratio (x) = 0.63999 0.33185
# Poissons Ratio (y) = 0.32592 0.55320
# Poissons Ratio (z) = 0.12344 0.40408
#
# Static dielectric constant tensor:
#      x y z
#    x 2.641870 0.000000 0.000000 
#    y 0.000000 3.321900 0.000000 
#    z 0.000000 0.000000 3.402430 
# 
# 
# High freq. dielectric constant tensor:
#      x y z
#    x 1.598770 0.000000 0.000000 
#    y 0.000000 1.658550 0.000000 
#    z 0.000000 0.000000 1.651530 
# 
# From -- ./inp_files/11244.got.cif
#   From: 2010.03.12/outbox.cif.g09.slc.cpg/sg51_6_cif.got.tgz:11244.got - 2010.04.16 13:43:02.
