data_PCOD8209269
_publ_section_title
;
Structure prediction by ZEFSAII (Michael W. Deem and Ramdas Pophale) SiO2 
 PCOD8209269
Probable space group: P M M A
;
_chemical_formula_sum "Si O2"
_cell_formula_units_Z 52
_cell_length_a 9.168284
_cell_length_b 10.305511
_cell_length_c 30.551825
_cell_angle_alpha 90.000000
_cell_angle_beta 90.000000
_cell_angle_gamma 90.000000
_cell_volume 2886.654100
_symmetry_space_group_name_H-M "P M M A"
_symmetry_group_IT_number 51
_symmetry_cell_setting 'orthorhombic'
loop_
_space_group_symop_operation_xyz
x,y,z
1/2-x,-y,z
1/2+x,-y,-z
-x,y,-z
-x,-y,-z
1/2+x,y,-z
1/2-x,y,z
x,-y,z
loop_
_atom_site_type_symbol
_atom_site_label
_atom_site_fract_x
_atom_site_fract_y
_atom_site_fract_z
Si Si1 0.086277 0.653652 0.626535
Si Si2 0.915002 0.654778 0.542582
Si Si3 0.087611 0.500000 0.043169
Si Si4 0.920138 0.150720 0.789200
Si Si5 0.920522 0.649197 0.713915
Si Si6 0.920735 0.780192 0.953269
Si Si7 0.909013 0.145334 0.127605
O O1 0.250000 0.711251 0.626211
O O2 0.092077 0.500000 0.622538
O O3 0.996580 0.710388 0.585435
O O4 0.006768 0.694257 0.671054
O O5 0.750000 0.708459 0.541801
O O6 0.913690 0.500000 0.543201
O O7 0.000000 0.706507 0.500000
O O8 0.250000 0.500000 0.025367
O O9 0.057863 0.635021 0.068001
O O10 0.000000 0.500000 0.000000
O O11 0.750000 0.163736 0.799026
O O12 0.968605 0.248471 0.750903
O O13 0.000271 0.207004 0.832477
O O14 0.958445 0.000000 0.777599
O O15 0.750000 0.660480 0.703504
O O16 0.959297 0.500000 0.727430
O O17 0.750000 0.817423 0.958462
O O18 0.999914 0.866207 0.917392
O O19 0.000000 0.796987 0.000000
O O20 0.750000 0.214543 0.121114
O O21 0.879799 0.000000 0.142484
#
# Coordination Sequence:
#
# PCOD8209269 Si02
#       7
#     8   8   4   8   8   8   8
#     4   9  16  25  38  58  86 120 155 193 238 285
#     4   9  15  22  33  51  79 117 159 198 236 283
#     4   8  16  30  48  70  94 122 152 184 222 264
#     4   9  18  34  54  72  93 125 161 196 238 288
#     4   9  17  30  48  70  95 122 154 195 241 286
#     4  10  19  33  53  75  99 126 156 190 228 273
#     4  10  21  36  52  71  96 125 157 192 231 276
#
# _framework density 18.013935
#
# number of rings (size 3 to 8) (size 9 to 14) (size 15 to 20)
#    0.000    2.769    0.000    1.846    0.000    6.154 
#    1.385    0.000    0.000    0.000    0.000    0.000 
#    0.000    0.615    0.000    1.692    0.000    3.077 
#
# Total GULP energy -644257.114416 kJ/mol
# GULP energy per Si atom -12389.559893 kJ/mol
# Density = 1.797293 g / cm^3
# Si number density = 18.013935 Si / 1000 Ang^3
#
#
#
# Elastic Constant Matrix: (Units=GPa)
#
#
# Indices 1 2 3 4 5 6 
#
# 1 128.4062 22.2556 85.1284 0.0000 0.0000 0.0000
# 2 22.2556 41.3950 34.6373 0.0000 0.0000 0.0000
# 3 85.1284 34.6373 161.2635 0.0000 0.0000 0.0000
# 4 0.0000 0.0000 0.0000 9.9466 0.0000 0.0000
# 5 0.0000 0.0000 0.0000 0.0000 36.7417 0.0000
# 6 0.0000 0.0000 0.0000 0.0000 0.0000 12.3009
#
#
#
# Elastic Compliance Matrix: (Units=1/GPa)
#
#
# Indices 1 2 3 4 5 6 
#
# 1 0.012048 -0.001409 -0.006057 0.000000 0.000000 0.000000
# 2 -0.001409 0.029615 -0.005617 0.000000 0.000000 0.000000
# 3 -0.006057 -0.005617 0.010605 0.000000 0.000000 0.000000
# 4 0.000000 0.000000 0.000000 0.100536 0.000000 0.000000
# 5 0.000000 0.000000 0.000000 0.000000 0.027217 0.000000
# 6 0.000000 0.000000 0.000000 0.000000 0.000000 0.081295
#
#
# Mechanical properties :
#
#
# Convention : Reuss Voigt Hill
#
# Bulk Modulus (GPa) = 38.31235 68.34527 53.32881
# Shear Modulus (GPa) = 16.88143 24.40073 20.64108
#
# Velocity S-wave (km/s) = 3.06458 3.68441 3.38870
# Velocity P-wave (km/s) = 5.81692 7.49149 6.70668
#
# Compressibility (1/GPa) = 0.02610124
#
# Stress axis : x y z
#
# Youngs Moduli (GPa) = 83.00386 33.76644 94.29535
#
# Poissons Ratio (x) = 0.04758 0.57116
# Poissons Ratio (y) = 0.11695 0.52967
# Poissons Ratio (z) = 0.50276 0.18967
#
# Static dielectric constant tensor:
#      x y z
#    x 3.625750 0.000000 0.000000 
#    y 0.000000 3.094380 0.000000 
#    z 0.000000 0.000000 3.257140 
# 
# 
# High freq. dielectric constant tensor:
#      x y z
#    x 1.712940 0.000000 0.000000 
#    y 0.000000 1.647790 0.000000 
#    z 0.000000 0.000000 1.694210 
# 
# From -- ./inp_files/36195.got.cif
#   From: 2010.03.12/outbox.cif.g09.slc.cpg/sg51_19_cif.got.tgz:36195.got - 2010.04.16 13:43:02.
