data_PCOD8209122
_publ_section_title
;
Structure prediction by ZEFSAII (Michael W. Deem and Ramdas Pophale) SiO2 
 PCOD8209122
Probable space group: P M M A
;
_chemical_formula_sum "Si O2"
_cell_formula_units_Z 48
_cell_length_a 30.678110
_cell_length_b 9.309439
_cell_length_c 9.418476
_cell_angle_alpha 90.000000
_cell_angle_beta 90.000000
_cell_angle_gamma 90.000000
_cell_volume 2689.879012
_symmetry_space_group_name_H-M "P M M A"
_symmetry_group_IT_number 51
_symmetry_cell_setting 'orthorhombic'
loop_
_space_group_symop_operation_xyz
x,y,z
1/2-x,-y,z
1/2+x,-y,-z
-x,y,-z
-x,-y,-z
1/2+x,y,-z
1/2-x,y,z
x,-y,z
loop_
_atom_site_type_symbol
_atom_site_label
_atom_site_fract_x
_atom_site_fract_y
_atom_site_fract_z
Si Si1 0.362494 0.166092 0.097871
Si Si2 0.867845 0.664348 0.474630
Si Si3 0.299724 0.667360 0.286211
Si Si4 0.481166 0.664928 0.847829
Si Si5 0.394187 0.834201 0.789526
Si Si6 0.570808 0.336402 0.723219
O O1 0.319241 0.244912 0.153982
O O2 0.405994 0.232460 0.165194
O O3 0.360188 0.000000 0.140964
O O4 0.364970 0.187030 0.929161
O O5 0.865589 0.500000 0.423445
O O6 0.826266 0.704263 0.571171
O O7 0.866951 0.765362 0.338364
O O8 0.912170 0.692980 0.564050
O O9 0.250000 0.714045 0.310171
O O10 0.304076 0.500000 0.249268
O O11 0.465426 0.500000 0.852784
O O12 0.441087 0.761963 0.803884
O O13 0.518964 0.687684 0.730143
O O14 0.500000 0.712323 0.000000
O O15 0.402387 0.000000 0.756289
O O16 0.582776 0.500000 0.767330
#
# Coordination Sequence:
#
# PCOD8209122 Si02
#       6
#     8   8   8   8   8   8
#     4  10  20  33  52  78 108 140 172 211 259 311
#     4   9  19  35  55  77 106 140 173 216 266 315
#     4   9  19  38  63  86 104 128 169 218 265 318
#     4  10  19  32  54  78 102 139 186 230 269 308
#     4  11  23  35  49  75 112 147 179 216 260 312
#     4   9  18  34  54  77 102 136 183 228 264 305
#
# _framework density 17.844669
#
# number of rings (size 3 to 8) (size 9 to 14) (size 15 to 20)
#    0.000    2.333    1.667    2.000    0.000    6.667 
#    0.000    4.167    0.000    3.000    0.000    0.000 
#    0.000    0.000    0.000    0.000    0.000    0.000 
#
# Total GULP energy -595275.535451 kJ/mol
# GULP energy per Si atom -12401.573655 kJ/mol
# Density = 1.780405 g / cm^3
# Si number density = 17.844669 Si / 1000 Ang^3
#
#
#
# Elastic Constant Matrix: (Units=GPa)
#
#
# Indices 1 2 3 4 5 6 
#
# 1 115.7724 56.7241 53.5238 0.0000 0.0000 0.0000
# 2 56.7241 103.4978 69.1725 0.0000 0.0000 0.0000
# 3 53.5238 69.1725 104.7295 0.0000 0.0000 0.0000
# 4 0.0000 0.0000 0.0000 30.9742 0.0000 0.0000
# 5 0.0000 0.0000 0.0000 0.0000 18.5349 0.0000
# 6 0.0000 0.0000 0.0000 0.0000 0.0000 14.3005
#
#
#
# Elastic Compliance Matrix: (Units=1/GPa)
#
#
# Indices 1 2 3 4 5 6 
#
# 1 0.012420 -0.004592 -0.003315 0.000000 0.000000 0.000000
# 2 -0.004592 0.018995 -0.010200 0.000000 0.000000 0.000000
# 3 -0.003315 -0.010200 0.017979 0.000000 0.000000 0.000000
# 4 0.000000 0.000000 0.000000 0.032285 0.000000 0.000000
# 5 0.000000 0.000000 0.000000 0.000000 0.053952 0.000000
# 6 0.000000 0.000000 0.000000 0.000000 0.000000 0.069928
#
#
# Mechanical properties :
#
#
# Convention : Reuss Voigt Hill
#
# Bulk Modulus (GPa) = 75.85747 75.87117 75.86432
# Shear Modulus (GPa) = 20.31155 22.40054 21.35604
#
# Velocity S-wave (km/s) = 3.37744 3.54687 3.46320
# Velocity P-wave (km/s) = 7.60340 7.70608 7.65491
#
# Compressibility (1/GPa) = 0.01318262
#
# Stress axis : x y z
#
# Youngs Moduli (GPa) = 80.51689 52.64416 55.61989
#
# Poissons Ratio (x) = 0.24172 0.18436
# Poissons Ratio (y) = 0.36970 0.56730
# Poissons Ratio (z) = 0.26689 0.53695
#
# Static dielectric constant tensor:
#      x y z
#    x 3.299630 0.000000 0.000000 
#    y 0.000000 3.312600 0.000000 
#    z 0.000000 0.000000 3.261190 
# 
# 
# High freq. dielectric constant tensor:
#      x y z
#    x 1.679500 0.000000 0.000000 
#    y 0.000000 1.691010 0.000000 
#    z 0.000000 0.000000 1.684950 
# 
# From -- ./inp_files/12766.got.cif
#   From: 2010.03.12/outbox.cif.g09.slc.cpg/sg51_7_cif.got.tgz:12766.got - 2010.04.16 13:43:02.
