data_PCOD8209880
_publ_section_title
;
Structure prediction by ZEFSAII (Michael W. Deem and Ramdas Pophale) SiO2 
 PCOD8209880
Probable space group: P M M A
;
_chemical_formula_sum "Si O2"
_cell_formula_units_Z 48
_cell_length_a 15.610165
_cell_length_b 17.205355
_cell_length_c 8.774388
_cell_angle_alpha 90.000000
_cell_angle_beta 90.000000
_cell_angle_gamma 90.000000
_cell_volume 2356.611357
_symmetry_space_group_name_H-M "P M M A"
_symmetry_group_IT_number 51
_symmetry_cell_setting 'orthorhombic'
loop_
_space_group_symop_operation_xyz
x,y,z
1/2-x,-y,z
1/2+x,-y,-z
-x,y,-z
-x,-y,-z
1/2+x,y,-z
1/2-x,y,z
x,-y,z
loop_
_atom_site_type_symbol
_atom_site_label
_atom_site_fract_x
_atom_site_fract_y
_atom_site_fract_z
Si Si1 0.844769 0.140655 0.256794
Si Si2 0.590457 0.000000 0.075279
Si Si3 0.345923 0.315621 0.714231
Si Si4 0.494376 0.587886 0.318107
Si Si5 0.153039 0.000000 0.244714
Si Si6 0.592522 0.857886 0.576990
Si Si7 0.154177 0.696368 0.353538
O O1 0.750000 0.126064 0.193300
O O2 0.872674 0.229984 0.224154
O O3 0.842054 0.127239 0.438704
O O4 0.905059 0.077816 0.176926
O O5 0.659146 0.000000 0.938684
O O6 0.500000 0.000000 0.000000
O O7 0.250000 0.338603 0.775022
O O8 0.420531 0.375853 0.762401
O O9 0.342299 0.316764 0.532975
O O10 0.500000 0.591151 0.500000
O O11 0.485676 0.500000 0.258821
O O12 0.408796 0.634988 0.270223
O O13 0.098479 0.927095 0.303328
O O14 0.250000 0.000000 0.308096
O O15 0.500000 0.848402 0.500000
O O16 0.616492 0.782014 0.675237
O O17 0.250000 0.688089 0.283735
#
# Coordination Sequence:
#
# PCOD8209880 Si02
#       7
#     8   4   8   8   4   8   8
#     4  10  19  35  55  72  97 140 183 213 254 318
#     4  12  25  38  51  74 104 136 172 218 273 322
#     4   8  15  27  45  67  90 124 172 215 248 297
#     4   9  16  25  39  63  97 131 159 198 256 311
#     4  12  24  36  50  76 108 132 166 222 280 322
#     4  11  20  34  55  77 101 135 179 225 263 309
#     4   9  16  27  43  65  94 130 171 210 248 298
#
# _framework density 20.368228999999999
#
# number of rings (size 3 to 8) (size 9 to 14) (size 15 to 20)
#    0.000    2.167    0.000    7.500    0.000    0.667 
#    0.000    3.333    0.000    0.000    0.000    0.000 
#    0.000    6.000    0.000    9.333    0.000   16.833 
#
# Total GULP energy -594921.667113 kJ/mol
# GULP energy per Si atom -12394.201398 kJ/mol
# Density = 2.032187 g / cm^3
# Si number density = 20.368229 Si / 1000 Ang^3
#
#
#
# Elastic Constant Matrix: (Units=GPa)
#
#
# Indices 1 2 3 4 5 6 
#
# 1 155.4317 88.7990 7.6950 0.0000 0.0000 0.0000
# 2 88.7990 184.9013 30.7435 0.0000 0.0000 0.0000
# 3 7.6950 30.7435 29.2853 0.0000 0.0000 0.0000
# 4 0.0000 0.0000 0.0000 0.4687 0.0000 0.0000
# 5 0.0000 0.0000 0.0000 0.0000 16.9766 0.0000
# 6 0.0000 0.0000 0.0000 0.0000 0.0000 30.4870
#
#
#
# Elastic Compliance Matrix: (Units=1/GPa)
#
#
# Indices 1 2 3 4 5 6 
#
# 1 0.009032 -0.004777 0.002641 0.000000 0.000000 0.000000
# 2 -0.004777 0.009078 -0.008275 0.000000 0.000000 0.000000
# 3 0.002641 -0.008275 0.042140 0.000000 0.000000 0.000000
# 4 0.000000 0.000000 0.000000 2.133610 0.000000 0.000000
# 5 0.000000 0.000000 0.000000 0.000000 0.058905 0.000000
# 6 0.000000 0.000000 0.000000 0.000000 0.000000 0.032801
#
#
# Mechanical properties :
#
#
# Convention : Reuss Voigt Hill
#
# Bulk Modulus (GPa) = 25.36197 69.34369 47.35283
# Shear Modulus (GPa) = 2.15561 25.74519 13.95040
#
# Velocity S-wave (km/s) = 1.02986 3.55912 2.61992
# Velocity P-wave (km/s) = 3.72732 7.14204 5.69656
#
# Compressibility (1/GPa) = 0.03942911
#
# Stress axis : x y z
#
# Youngs Moduli (GPa) = 110.71842 110.15350 23.73045
#
# Poissons Ratio (x) = 0.52618 -0.06268
# Poissons Ratio (y) = 0.52888 0.19637
# Poissons Ratio (z) = -0.29245 0.91153
#
# Static dielectric constant tensor:
#      x y z
#    x 4.056650 0.000000 0.000000 
#    y 0.000000 3.810600 0.000000 
#    z 0.000000 0.000000 3.207140 
# 
# 
# High freq. dielectric constant tensor:
#      x y z
#    x 1.815450 0.000000 0.000000 
#    y 0.000000 1.796160 0.000000 
#    z 0.000000 0.000000 1.724680 
# 
# From -- ./inp_files/8362.got.cif
#   From: 2010.03.12/outbox.cif.g09.slc.cpg/sg51_5_cif.got.tgz:8362.got - 2010.04.16 13:43:02.
