data_PCOD8209673
_publ_section_title
;
Structure prediction by ZEFSAII (Michael W. Deem and Ramdas Pophale) SiO2 
 PCOD8209673
Probable space group: P M M A
;
_chemical_formula_sum "Si O2"
_cell_formula_units_Z 64
_cell_length_a 18.890151
_cell_length_b 9.337804
_cell_length_c 18.759743
_cell_angle_alpha 90.000000
_cell_angle_beta 90.000000
_cell_angle_gamma 90.000000
_cell_volume 3309.078484
_symmetry_space_group_name_H-M "P M M A"
_symmetry_group_IT_number 51
_symmetry_cell_setting 'orthorhombic'
loop_
_space_group_symop_operation_xyz
x,y,z
1/2-x,-y,z
1/2+x,-y,-z
-x,y,-z
-x,-y,-z
1/2+x,y,-z
1/2-x,y,z
x,-y,z
loop_
_atom_site_type_symbol
_atom_site_label
_atom_site_fract_x
_atom_site_fract_y
_atom_site_fract_z
Si Si1 0.416111 0.662944 0.345267
Si Si2 0.894698 0.167089 0.986477
Si Si3 0.669941 0.343987 0.884344
Si Si4 0.331648 0.832970 0.621492
Si Si5 0.042475 0.831229 0.721418
Si Si6 0.920782 0.662326 0.493417
Si Si7 0.980662 0.167104 0.118128
Si Si8 0.666988 0.841669 0.758389
O O1 0.422615 0.500000 0.316890
O O2 0.490041 0.744728 0.330676
O O3 0.391511 0.663252 0.426768
O O4 0.351909 0.747141 0.309288
O O5 0.829414 0.266114 0.961929
O O6 0.954292 0.224264 0.929689
O O7 0.878720 0.000000 0.975439
O O8 0.911969 0.199605 0.068765
O O9 0.750000 0.366316 0.859829
O O10 0.632425 0.500000 0.886231
O O11 0.632797 0.238407 0.826721
O O12 0.250000 0.781122 0.632613
O O13 0.377257 0.802863 0.693582
O O14 0.368083 0.753007 0.555382
O O15 0.332856 0.000000 0.602680
O O16 0.031722 0.769981 0.802315
O O17 0.025214 0.000000 0.717172
O O18 0.925086 0.500000 0.462531
O O19 0.000000 0.727763 0.500000
O O20 0.990683 0.000000 0.126082
O O21 0.750000 0.858417 0.764938
O O22 0.632004 0.000000 0.754122
#
# Coordination Sequence:
#
# PCOD8209673 Si02
#       8
#     8   8   8   8   8   8   8   8
#     4  11  22  35  56  83 111 140 177 225 271 323
#     4   9  16  30  51  74 102 135 177 222 265 316
#     4  10  20  33  49  71 103 140 176 217 264 314
#     4  10  22  38  57  83 113 145 185 233 279 325
#     4  10  19  34  56  80 109 146 186 225 275 329
#     4  10  21  39  59  81 110 143 182 224 270 328
#     4   8  16  30  50  76 104 135 171 219 269 315
#     4  10  21  36  53  76 108 145 183 221 267 328
#
# _framework density 19.340731999999999
#
# number of rings (size 3 to 8) (size 9 to 14) (size 15 to 20)
#    0.000    2.250    1.250    2.625    0.000    4.500 
#    0.000    5.000    0.000    2.250    0.000    0.000 
#    0.000    0.000    0.000    0.000    0.000    0.000 
#
# Total GULP energy -792930.866109 kJ/mol
# GULP energy per Si atom -12389.544783 kJ/mol
# Density = 1.929671 g / cm^3
# Si number density = 19.340732 Si / 1000 Ang^3
#
#
#
# Elastic Constant Matrix: (Units=GPa)
#
#
# Indices 1 2 3 4 5 6 
#
# 1 62.4164 23.2854 29.4753 0.0000 0.0000 0.0000
# 2 23.2854 96.9880 37.1622 0.0000 0.0000 0.0000
# 3 29.4753 37.1622 99.2072 0.0000 0.0000 0.0000
# 4 0.0000 0.0000 0.0000 13.7790 0.0000 0.0000
# 5 0.0000 0.0000 0.0000 0.0000 32.2074 0.0000
# 6 0.0000 0.0000 0.0000 0.0000 0.0000 23.1958
#
#
#
# Elastic Compliance Matrix: (Units=1/GPa)
#
#
# Indices 1 2 3 4 5 6 
#
# 1 0.019285 -0.002843 -0.004665 0.000000 0.000000 0.000000
# 2 -0.002843 0.012457 -0.003822 0.000000 0.000000 0.000000
# 3 -0.004665 -0.003822 0.012898 0.000000 0.000000 0.000000
# 4 0.000000 0.000000 0.000000 0.072574 0.000000 0.000000
# 5 0.000000 0.000000 0.000000 0.000000 0.031049 0.000000
# 6 0.000000 0.000000 0.000000 0.000000 0.000000 0.043111
#
#
# Mechanical properties :
#
#
# Convention : Reuss Voigt Hill
#
# Bulk Modulus (GPa) = 45.49369 48.71750 47.10560
# Shear Modulus (GPa) = 22.58767 25.08235 23.83501
#
# Velocity S-wave (km/s) = 3.42113 3.60511 3.51433
# Velocity P-wave (km/s) = 6.25930 6.52479 6.39342
#
# Compressibility (1/GPa) = 0.02198107
#
# Stress axis : x y z
#
# Youngs Moduli (GPa) = 51.85420 80.27342 77.53418
#
# Poissons Ratio (x) = 0.22818 0.36169
# Poissons Ratio (y) = 0.14740 0.29633
# Poissons Ratio (z) = 0.24189 0.30680
#
# Static dielectric constant tensor:
#      x y z
#    x 3.492810 0.000000 0.000000 
#    y 0.000000 3.617690 0.000000 
#    z 0.000000 0.000000 3.714160 
# 
# 
# High freq. dielectric constant tensor:
#      x y z
#    x 1.736720 0.000000 0.000000 
#    y 0.000000 1.744550 0.000000 
#    z 0.000000 0.000000 1.753120 
# 
# From -- ./inp_files/30676.got.cif
#   From: 2010.03.12/outbox.cif.g09.slc.cpg/sg51_16_cif.got.tgz:30676.got - 2010.04.16 13:43:02.
