data_PCOD8209713
_publ_section_title
;
Structure prediction by ZEFSAII (Michael W. Deem and Ramdas Pophale) SiO2 
 PCOD8209713
Probable space group: P M M A
;
_chemical_formula_sum "Si O2"
_cell_formula_units_Z 48
_cell_length_a 15.353089
_cell_length_b 15.666364
_cell_length_c 8.863776
_cell_angle_alpha 90.000000
_cell_angle_beta 90.000000
_cell_angle_gamma 90.000000
_cell_volume 2131.978166
_symmetry_space_group_name_H-M "P M M A"
_symmetry_group_IT_number 51
_symmetry_cell_setting 'orthorhombic'
loop_
_space_group_symop_operation_xyz
x,y,z
1/2-x,-y,z
1/2+x,-y,-z
-x,y,-z
-x,-y,-z
1/2+x,y,-z
1/2-x,y,z
x,-y,z
loop_
_atom_site_type_symbol
_atom_site_label
_atom_site_fract_x
_atom_site_fract_y
_atom_site_fract_z
Si Si1 0.645515 0.500000 0.584811
Si Si2 0.404415 0.000000 0.573045
Si Si3 0.096616 0.169848 0.437735
Si Si4 0.151218 0.662884 0.586253
Si Si5 0.648283 0.000000 0.092814
Si Si6 0.146151 0.328541 0.919419
Si Si7 0.353765 0.500000 0.076356
Si Si8 0.852826 0.835252 0.897944
O O1 0.750000 0.500000 0.590148
O O2 0.607113 0.416446 0.500780
O O3 0.609171 0.500000 0.754507
O O4 0.500000 0.000000 0.500000
O O5 0.357776 0.913726 0.513213
O O6 0.407437 0.000000 0.753909
O O7 0.150338 0.253246 0.483110
O O8 0.095597 0.158681 0.258432
O O9 0.000000 0.182266 0.500000
O O10 0.250000 0.635976 0.616341
O O11 0.107326 0.678381 0.749678
O O12 0.750000 0.000000 0.136483
O O13 0.622867 0.917147 0.997273
O O14 0.250000 0.325556 0.918004
O O15 0.110745 0.415915 0.992231
O O16 0.112280 0.248146 0.015113
O O17 0.250000 0.500000 0.074981
O O18 0.750000 0.831159 0.864520
#
# Coordination Sequence:
#
# PCOD8209713 Si02
#       8
#     4   4   8   8   4   8   4   8
#     4   9  17  29  52  83 112 145 184 230 292 353
#     4  10  23  42  58  81 117 155 194 232 287 356
#     4  11  23  39  56  81 114 153 197 237 287 351
#     4  10  19  34  56  83 113 147 189 240 294 351
#     4  10  21  38  64  93 117 145 192 250 300 342
#     4   9  17  29  49  77 108 139 176 223 278 335
#     4   9  15  25  43  73 108 139 175 222 273 335
#     4  10  20  36  58  85 113 144 185 240 299 349
#
# _framework density 22.514302000000001
#
# number of rings (size 3 to 8) (size 9 to 14) (size 15 to 20)
#    0.000    2.167    0.000    3.500    0.000    7.333 
#    0.000   11.250    0.000    0.000    0.000    3.500 
#    0.000    0.000    0.000    0.000    0.000    0.000 
#
# Total GULP energy -595219.613324 kJ/mol
# GULP energy per Si atom -12400.408611 kJ/mol
# Density = 2.246306 g / cm^3
# Si number density = 22.514302 Si / 1000 Ang^3
#
#
#
# Elastic Constant Matrix: (Units=GPa)
#
#
# Indices 1 2 3 4 5 6 
#
# 1 24.6123 2.1723 22.1974 0.0000 0.0000 0.0000
# 2 2.1723 226.6400 100.5938 0.0000 0.0000 0.0000
# 3 22.1974 100.5938 225.9177 0.0000 0.0000 0.0000
# 4 0.0000 0.0000 0.0000 49.0704 0.0000 0.0000
# 5 0.0000 0.0000 0.0000 0.0000 25.8687 0.0000
# 6 0.0000 0.0000 0.0000 0.0000 0.0000 6.4549
#
#
#
# Elastic Compliance Matrix: (Units=1/GPa)
#
#
# Indices 1 2 3 4 5 6 
#
# 1 0.045240 0.001918 -0.005299 0.000000 0.000000 0.000000
# 2 0.001918 0.005580 -0.002673 0.000000 0.000000 0.000000
# 3 -0.005299 -0.002673 0.006137 0.000000 0.000000 0.000000
# 4 0.000000 0.000000 0.000000 0.020379 0.000000 0.000000
# 5 0.000000 0.000000 0.000000 0.000000 0.038657 0.000000
# 6 0.000000 0.000000 0.000000 0.000000 0.000000 0.154920
#
#
# Mechanical properties :
#
#
# Convention : Reuss Voigt Hill
#
# Bulk Modulus (GPa) = 22.29668 80.78855 51.54262
# Shear Modulus (GPa) = 16.78011 39.75923 28.26967
#
# Velocity S-wave (km/s) = 2.73300 4.20688 3.54733
# Velocity P-wave (km/s) = 4.45913 7.71740 6.30247
#
# Compressibility (1/GPa) = 0.04484972
#
# Stress axis : x y z
#
# Youngs Moduli (GPa) = 22.10429 179.19785 162.93582
#
# Poissons Ratio (x) = -0.34378 0.86344
# Poissons Ratio (y) = -0.04241 0.43557
# Poissons Ratio (z) = 0.11714 0.47905
#
# Static dielectric constant tensor:
#      x y z
#    x 3.342580 0.000000 0.000000 
#    y 0.000000 4.534120 0.000000 
#    z 0.000000 0.000000 4.182960 
# 
# 
# High freq. dielectric constant tensor:
#      x y z
#    x 1.835300 0.000000 0.000000 
#    y 0.000000 1.909020 0.000000 
#    z 0.000000 0.000000 1.902730 
# 
# From -- ./inp_files/9751.got.cif
#   From: 2010.03.12/outbox.cif.g09.slc.cpg/sg51_5_cif.got.tgz:9751.got - 2010.04.16 13:43:02.
