data_PCOD8209782
_publ_section_title
;
Structure prediction by ZEFSAII (Michael W. Deem and Ramdas Pophale) SiO2 
 PCOD8209782
Probable space group: P M M A
;
_chemical_formula_sum "Si O2"
_cell_formula_units_Z 64
_cell_length_a 23.874438
_cell_length_b 8.852175
_cell_length_c 15.390516
_cell_angle_alpha 90.000000
_cell_angle_beta 90.000000
_cell_angle_gamma 90.000000
_cell_volume 3252.642474
_symmetry_space_group_name_H-M "P M M A"
_symmetry_group_IT_number 51
_symmetry_cell_setting 'orthorhombic'
loop_
_space_group_symop_operation_xyz
x,y,z
1/2-x,-y,z
1/2+x,-y,-z
-x,y,-z
-x,-y,-z
1/2+x,y,-z
1/2-x,y,z
x,-y,z
loop_
_atom_site_type_symbol
_atom_site_label
_atom_site_fract_x
_atom_site_fract_y
_atom_site_fract_z
Si Si1 0.187465 0.179294 0.494688
Si Si2 0.498622 0.825798 0.101841
Si Si3 0.887148 0.678295 0.842643
Si Si4 0.378626 0.173158 0.846954
Si Si5 0.388912 0.825218 0.651589
Si Si6 0.501541 0.322901 0.600494
Si Si7 0.813004 0.321276 0.002465
Si Si8 0.386670 0.820929 0.335019
O O1 0.250000 0.248421 0.493710
O O2 0.156281 0.233585 0.581934
O O3 0.153684 0.239979 0.411305
O O4 0.190452 0.000000 0.492563
O O5 0.451679 0.722357 0.144983
O O6 0.557548 0.772291 0.141162
O O7 0.485650 0.000000 0.124537
O O8 0.500000 0.797140 0.000000
O O9 0.881750 0.500000 0.834045
O O10 0.863521 0.753681 0.755070
O O11 0.850716 0.741569 0.923338
O O12 0.361530 0.194753 0.746567
O O13 0.336818 0.269278 0.905260
O O14 0.373669 0.000000 0.877017
O O15 0.443883 0.723672 0.645408
O O16 0.405261 0.000000 0.634576
O O17 0.500000 0.274859 0.500000
O O18 0.511944 0.500000 0.612073
O O19 0.550532 0.233847 0.648416
O O20 0.750000 0.258918 0.991379
O O21 0.813648 0.500000 0.001380
O O22 0.386249 0.000000 0.329967
#
# Coordination Sequence:
#
# PCOD8209782 Si02
#       8
#     8   8   8   8   8   8   8   8
#     4   9  19  36  57  82 112 148 193 240 285 339
#     4  10  19  34  57  85 119 151 185 232 284 342
#     4  11  23  38  59  86 116 150 192 239 291 347
#     4  10  21  36  58  88 116 147 189 238 288 338
#     4  10  20  36  60  88 118 153 190 233 288 346
#     4  11  22  36  58  88 122 154 190 236 285 342
#     4  10  23  42  60  80 113 157 197 235 285 345
#     4  11  22  37  60  85 114 153 195 238 290 345
#
# _framework density 19.676310000000001
#
# number of rings (size 3 to 8) (size 9 to 14) (size 15 to 20)
#    0.000    1.750    2.500    1.875    0.000    4.500 
#    0.000    1.250    0.000    3.000    0.000    0.000 
#    0.000    0.000    0.000    0.000    0.000    0.000 
#
# Total GULP energy -793888.704235 kJ/mol
# GULP energy per Si atom -12404.511004 kJ/mol
# Density = 1.963153 g / cm^3
# Si number density = 19.676310 Si / 1000 Ang^3
#
#
#
# Elastic Constant Matrix: (Units=GPa)
#
#
# Indices 1 2 3 4 5 6 
#
# 1 132.2172 23.0544 62.6764 0.0000 0.0000 0.0000
# 2 23.0544 45.6170 32.9651 0.0000 0.0000 0.0000
# 3 62.6764 32.9651 142.7763 0.0000 0.0000 0.0000
# 4 0.0000 0.0000 0.0000 29.1846 0.0000 0.0000
# 5 0.0000 0.0000 0.0000 0.0000 13.0261 0.0000
# 6 0.0000 0.0000 0.0000 0.0000 0.0000 11.2179
#
#
#
# Elastic Compliance Matrix: (Units=1/GPa)
#
#
# Indices 1 2 3 4 5 6 
#
# 1 0.009731 -0.002198 -0.003764 0.000000 0.000000 0.000000
# 2 -0.002198 0.026808 -0.005225 0.000000 0.000000 0.000000
# 3 -0.003764 -0.005225 0.009863 0.000000 0.000000 0.000000
# 4 0.000000 0.000000 0.000000 0.034265 0.000000 0.000000
# 5 0.000000 0.000000 0.000000 0.000000 0.076769 0.000000
# 6 0.000000 0.000000 0.000000 0.000000 0.000000 0.089143
#
#
# Mechanical properties :
#
#
# Convention : Reuss Voigt Hill
#
# Bulk Modulus (GPa) = 41.61791 62.00024 51.80908
# Shear Modulus (GPa) = 18.05303 24.14669 21.09986
#
# Velocity S-wave (km/s) = 3.03231 3.50694 3.27823
# Velocity P-wave (km/s) = 5.78421 6.92652 6.38098
#
# Compressibility (1/GPa) = 0.02402811
#
# Stress axis : x y z
#
# Youngs Moduli (GPa) = 102.76482 37.30223 101.39112
#
# Poissons Ratio (x) = 0.08198 0.38167
# Poissons Ratio (y) = 0.22584 0.52976
# Poissons Ratio (z) = 0.38684 0.19490
#
# Static dielectric constant tensor:
#      x y z
#    x 3.601370 0.000000 0.000000 
#    y 0.000000 3.338940 0.000000 
#    z 0.000000 0.000000 3.819250 
# 
# 
# High freq. dielectric constant tensor:
#      x y z
#    x 1.761680 0.000000 0.000000 
#    y 0.000000 1.746360 0.000000 
#    z 0.000000 0.000000 1.784940 
# 
# From -- ./inp_files/26243.got.cif
#   From: 2010.03.12/outbox.cif.g09.slc.cpg/sg51_14_cif.got.tgz:26243.got - 2010.04.16 13:43:02.
