data_PCOD8209754
_publ_section_title
;
Structure prediction by ZEFSAII (Michael W. Deem and Ramdas Pophale) SiO2 
 PCOD8209754
Probable space group: P M M A
;
_chemical_formula_sum "Si O2"
_cell_formula_units_Z 48
_cell_length_a 8.728721
_cell_length_b 10.150752
_cell_length_c 27.835794
_cell_angle_alpha 90.000000
_cell_angle_beta 90.000000
_cell_angle_gamma 90.000000
_cell_volume 2466.337142
_symmetry_space_group_name_H-M "P M M A"
_symmetry_group_IT_number 51
_symmetry_cell_setting 'orthorhombic'
loop_
_space_group_symop_operation_xyz
x,y,z
1/2-x,-y,z
1/2+x,-y,-z
-x,y,-z
-x,-y,-z
1/2+x,y,-z
1/2-x,y,z
x,-y,z
loop_
_atom_site_type_symbol
_atom_site_label
_atom_site_fract_x
_atom_site_fract_y
_atom_site_fract_z
Si Si1 0.931286 0.149455 0.550676
Si Si2 0.067908 0.647886 0.370236
Si Si3 0.068209 0.000000 0.224770
Si Si4 0.569041 0.500000 0.091084
Si Si5 0.067983 0.275215 0.265257
Si Si6 0.569810 0.500000 0.202033
Si Si7 0.931661 0.000000 0.882643
Si Si8 0.432133 0.764355 0.050712
O O1 0.750000 0.160150 0.547277
O O2 0.997655 0.248514 0.590960
O O3 0.000000 0.193866 0.500000
O O4 0.981540 0.000000 0.563630
O O5 0.250000 0.655469 0.369727
O O6 0.012696 0.500000 0.383333
O O7 0.004751 0.686290 0.317766
O O8 0.011491 0.872195 0.253739
O O9 0.998190 0.000000 0.171049
O O10 0.250000 0.000000 0.221467
O O11 0.750000 0.500000 0.084133
O O12 0.521144 0.500000 0.146640
O O13 0.498620 0.624546 0.064925
O O14 0.250000 0.288493 0.263208
O O15 0.999095 0.370034 0.225473
O O16 0.750000 0.500000 0.209171
O O17 0.988947 0.869913 0.909995
O O18 0.750000 0.000000 0.880237
O O19 0.250000 0.757466 0.047395
O O20 0.500000 0.809941 0.000000
#
# Coordination Sequence:
#
# PCOD8209754 Si02
#       8
#     8   8   4   4   8   4   4   8
#     4   9  18  32  51  74 104 139 178 223 271 322
#     4   9  17  30  50  78 106 135 177 224 267 317
#     4   9  18  31  54  86 111 133 179 233 270 315
#     4  11  24  40  57  81 112 147 187 226 269 323
#     4  10  19  34  57  83 110 143 182 227 276 327
#     4  11  23  38  56  79 112 149 184 224 270 325
#     4   9  19  35  54  82 114 143 177 221 270 325
#     4  11  22  38  60  84 113 145 181 225 275 326
#
# _framework density 19.462060000000001
#
# number of rings (size 3 to 8) (size 9 to 14) (size 15 to 20)
#    0.000    2.167    0.833    2.500    1.167    3.000 
#    0.000    2.500    0.000    4.000    0.000    0.000 
#    0.000    0.000    0.000    0.000    0.000    0.000 
#
# Total GULP energy -595274.621879 kJ/mol
# GULP energy per Si atom -12401.554622 kJ/mol
# Density = 1.941776 g / cm^3
# Si number density = 19.462060 Si / 1000 Ang^3
#
#
#
# Elastic Constant Matrix: (Units=GPa)
#
#
# Indices 1 2 3 4 5 6 
#
# 1 30.3481 14.5376 18.8779 0.0000 0.0000 0.0000
# 2 14.5376 144.1611 59.3352 0.0000 0.0000 0.0000
# 3 18.8779 59.3352 129.2627 0.0000 0.0000 0.0000
# 4 0.0000 0.0000 0.0000 46.6901 0.0000 0.0000
# 5 0.0000 0.0000 0.0000 0.0000 26.8821 0.0000
# 6 0.0000 0.0000 0.0000 0.0000 0.0000 6.6942
#
#
#
# Elastic Compliance Matrix: (Units=1/GPa)
#
#
# Indices 1 2 3 4 5 6 
#
# 1 0.036635 -0.001840 -0.004506 0.000000 0.000000 0.000000
# 2 -0.001840 0.008645 -0.003700 0.000000 0.000000 0.000000
# 3 -0.004506 -0.003700 0.010092 0.000000 0.000000 0.000000
# 4 0.000000 0.000000 0.000000 0.021418 0.000000 0.000000
# 5 0.000000 0.000000 0.000000 0.000000 0.037199 0.000000
# 6 0.000000 0.000000 0.000000 0.000000 0.000000 0.149384
#
#
# Mechanical properties :
#
#
# Convention : Reuss Voigt Hill
#
# Bulk Modulus (GPa) = 28.34294 54.36370 41.35332
# Shear Modulus (GPa) = 16.93627 30.12136 23.52881
#
# Velocity S-wave (km/s) = 2.95315 3.93835 3.48078
# Velocity P-wave (km/s) = 5.12083 6.97672 6.11954
#
# Compressibility (1/GPa) = 0.03528215
#
# Stress axis : x y z
#
# Youngs Moduli (GPa) = 27.29617 115.67482 99.08429
#
# Poissons Ratio (x) = 0.21283 0.44645
# Poissons Ratio (y) = 0.05022 0.36657
# Poissons Ratio (z) = 0.12299 0.42795
#
# Static dielectric constant tensor:
#      x y z
#    x 3.180910 0.000000 0.000000 
#    y 0.000000 3.809810 0.000000 
#    z 0.000000 0.000000 3.838790 
# 
# 
# High freq. dielectric constant tensor:
#      x y z
#    x 1.719040 0.000000 0.000000 
#    y 0.000000 1.774610 0.000000 
#    z 0.000000 0.000000 1.770760 
# 
# From -- ./inp_files/37267.got.cif
#   From: 2010.03.12/outbox.cif.g09.slc.cpg/sg51_19_cif.got.tgz:37267.got - 2010.04.16 13:43:02.
