data_PCOD8209900
_publ_section_title
;
Structure prediction by ZEFSAII (Michael W. Deem and Ramdas Pophale) SiO2 
 PCOD8209900
Probable space group: P M M A
;
_chemical_formula_sum "Si O2"
_cell_formula_units_Z 56
_cell_length_a 22.290257
_cell_length_b 9.015607
_cell_length_c 14.777963
_cell_angle_alpha 90.000000
_cell_angle_beta 90.000000
_cell_angle_gamma 90.000000
_cell_volume 2969.782356
_symmetry_space_group_name_H-M "P M M A"
_symmetry_group_IT_number 51
_symmetry_cell_setting 'orthorhombic'
loop_
_space_group_symop_operation_xyz
x,y,z
1/2-x,-y,z
1/2+x,-y,-z
-x,y,-z
-x,-y,-z
1/2+x,y,-z
1/2-x,y,z
x,-y,z
loop_
_atom_site_type_symbol
_atom_site_label
_atom_site_fract_x
_atom_site_fract_y
_atom_site_fract_z
Si Si1 0.947415 0.827073 0.381776
Si Si2 0.682436 0.671439 0.700687
Si Si3 0.024189 0.331044 0.096945
Si Si4 0.592576 0.331364 0.211599
Si Si5 0.818036 0.330039 0.061123
Si Si6 0.145445 0.824505 0.120411
Si Si7 0.581170 0.825910 0.584554
O O1 0.905610 0.752652 0.306521
O O2 0.917605 0.790310 0.478021
O O3 0.016621 0.771565 0.377189
O O4 0.947431 0.000000 0.363870
O O5 0.750000 0.688841 0.661466
O O6 0.666295 0.500000 0.717148
O O7 0.680949 0.755562 0.795958
O O8 0.635032 0.737584 0.630381
O O9 0.048093 0.500000 0.089894
O O10 0.076273 0.221651 0.127940
O O11 0.973383 0.315945 0.171373
O O12 0.000000 0.278248 0.000000
O O13 0.610266 0.500000 0.231148
O O14 0.640478 0.263480 0.140880
O O15 0.750000 0.321024 0.094922
O O16 0.837287 0.500000 0.039871
O O17 0.825694 0.233534 0.971797
O O18 0.151328 0.000000 0.124273
O O19 0.590128 0.000000 0.603070
#
# Coordination Sequence:
#
# PCOD8209900 Si02
#       7
#     8   8   8   8   8   8   8
#     4   9  19  36  59  86 115 145 177 222 282 340
#     4  11  24  40  58  82 113 150 191 234 281 334
#     4  10  19  35  56  79 112 148 185 228 275 326
#     4  10  20  34  55  83 110 143 185 228 272 322
#     4  10  21  39  58  74 102 147 193 232 271 320
#     4  12  24  36  55  83 114 146 186 230 279 337
#     4   9  19  38  61  85 113 145 181 224 279 338
#
# _framework density 18.856601999999999
#
# number of rings (size 3 to 8) (size 9 to 14) (size 15 to 20)
#    0.000    1.857    1.429    3.857    0.000    8.000 
#    0.000    2.143    0.000    2.571    0.000    0.000 
#    0.000    0.000    0.000    0.000    0.000    0.000 
#
# Total GULP energy -694508.988010 kJ/mol
# GULP energy per Si atom -12401.946214 kJ/mol
# Density = 1.881368 g / cm^3
# Si number density = 18.856602 Si / 1000 Ang^3
#
#
#
# Elastic Constant Matrix: (Units=GPa)
#
#
# Indices 1 2 3 4 5 6 
#
# 1 104.7733 47.7531 51.6018 0.0000 0.0000 0.0000
# 2 47.7531 95.0590 56.6693 0.0000 0.0000 0.0000
# 3 51.6018 56.6693 122.4638 0.0000 0.0000 0.0000
# 4 0.0000 0.0000 0.0000 37.7834 0.0000 0.0000
# 5 0.0000 0.0000 0.0000 0.0000 22.9881 0.0000
# 6 0.0000 0.0000 0.0000 0.0000 0.0000 19.8010
#
#
#
# Elastic Compliance Matrix: (Units=1/GPa)
#
#
# Indices 1 2 3 4 5 6 
#
# 1 0.013378 -0.004640 -0.003490 0.000000 0.000000 0.000000
# 2 -0.004640 0.016137 -0.005512 0.000000 0.000000 0.000000
# 3 -0.003490 -0.005512 0.012187 0.000000 0.000000 0.000000
# 4 0.000000 0.000000 0.000000 0.026467 0.000000 0.000000
# 5 0.000000 0.000000 0.000000 0.000000 0.043501 0.000000
# 6 0.000000 0.000000 0.000000 0.000000 0.000000 0.050503
#
#
# Mechanical properties :
#
#
# Convention : Reuss Voigt Hill
#
# Bulk Modulus (GPa) = 69.35896 70.48272 69.92084
# Shear Modulus (GPa) = 25.73856 27.19930 26.46893
#
# Velocity S-wave (km/s) = 3.69855 3.80205 3.75066
# Velocity P-wave (km/s) = 7.42302 7.53217 7.47779
#
# Compressibility (1/GPa) = 0.01441775
#
# Stress axis : x y z
#
# Youngs Moduli (GPa) = 74.74960 61.97072 82.05573
#
# Poissons Ratio (x) = 0.28754 0.28637
# Poissons Ratio (y) = 0.34684 0.45229
# Poissons Ratio (z) = 0.26087 0.34158
#
# Static dielectric constant tensor:
#      x y z
#    x 3.529160 0.000000 0.000000 
#    y 0.000000 3.349300 0.000000 
#    z 0.000000 0.000000 3.494150 
# 
# 
# High freq. dielectric constant tensor:
#      x y z
#    x 1.732480 0.000000 0.000000 
#    y 0.000000 1.723350 0.000000 
#    z 0.000000 0.000000 1.733960 
# 
# From -- ./inp_files/25679.got.cif
#   From: 2010.03.12/outbox.cif.g09.slc.cpg/sg51_13_cif.got.tgz:25679.got - 2010.04.16 13:43:02.
