data_PCOD8209416
_publ_section_title
;
Structure prediction by ZEFSAII (Michael W. Deem and Ramdas Pophale) SiO2 
 PCOD8209416
Probable space group: P M M A
;
_chemical_formula_sum "Si O2"
_cell_formula_units_Z 40
_cell_length_a 8.583991
_cell_length_b 25.794813
_cell_length_c 9.252235
_cell_angle_alpha 90.000000
_cell_angle_beta 90.000000
_cell_angle_gamma 90.000000
_cell_volume 2048.652474
_symmetry_space_group_name_H-M "P M M A"
_symmetry_group_IT_number 51
_symmetry_cell_setting 'orthorhombic'
loop_
_space_group_symop_operation_xyz
x,y,z
1/2-x,-y,z
1/2+x,-y,-z
-x,y,-z
-x,-y,-z
1/2+x,y,-z
1/2-x,y,z
x,-y,z
loop_
_atom_site_type_symbol
_atom_site_label
_atom_site_fract_x
_atom_site_fract_y
_atom_site_fract_z
Si Si1 0.435238 0.332809 0.161354
Si Si2 0.067327 0.445341 0.158041
Si Si3 0.066250 0.239770 0.659039
Si Si4 0.933654 0.853550 0.842236
Si Si5 0.567333 0.940095 0.347207
O O1 0.250000 0.322617 0.161653
O O2 0.479424 0.390010 0.228877
O O3 0.522783 0.292345 0.260659
O O4 0.500000 0.327102 0.000000
O O5 0.250000 0.445345 0.141117
O O6 0.014996 0.500000 0.238198
O O7 0.000000 0.446283 0.000000
O O8 0.250000 0.232382 0.655376
O O9 0.000000 0.243085 0.500000
O O10 0.991223 0.190990 0.736912
O O11 0.750000 0.852719 0.851205
O O12 0.989617 0.908997 0.783364
O O13 0.000000 0.843248 0.000000
O O14 0.500000 0.920521 0.500000
O O15 0.750000 0.929857 0.347421
O O16 0.525231 0.000000 0.322102
#
# Coordination Sequence:
#
# PCOD8209416 Si02
#       5
#     8   8   8   8   8
#     4  10  19  33  54  82 114 147 185 229 278 330
#     4   8  14  25  44  72 106 142 179 221 269 322
#     4  12  25  42  61  82 110 145 187 232 283 340
#     4  12  25  42  63  88 118 151 190 235 284 334
#     4  10  21  39  63  91 123 159 197 235 278 330
#
# _framework density 19.525029
#
# number of rings (size 3 to 8) (size 9 to 14) (size 15 to 20)
#    0.000    1.600    0.000    6.000    0.000    2.400 
#    0.000    0.000    0.000    0.600    0.000    0.000 
#    0.000    0.000    0.000    0.000    0.000    0.000 
#
# Total GULP energy -495740.587531 kJ/mol
# GULP energy per Si atom -12393.514688 kJ/mol
# Density = 1.948059 g / cm^3
# Si number density = 19.525029 Si / 1000 Ang^3
#
#
#
# Elastic Constant Matrix: (Units=GPa)
#
#
# Indices 1 2 3 4 5 6 
#
# 1 90.5941 34.6376 16.0816 0.0000 0.0000 0.0000
# 2 34.6376 127.1705 42.6166 0.0000 0.0000 0.0000
# 3 16.0816 42.6166 81.7898 0.0000 0.0000 0.0000
# 4 0.0000 0.0000 0.0000 1.8172 0.0000 0.0000
# 5 0.0000 0.0000 0.0000 0.0000 33.2603 0.0000
# 6 0.0000 0.0000 0.0000 0.0000 0.0000 -36.3041
#
#
#
# Elastic Compliance Matrix: (Units=1/GPa)
#
#
# Indices 1 2 3 4 5 6 
#
# 1 0.012367 -0.003094 -0.000820 0.000000 0.000000 0.000000
# 2 -0.003094 0.010301 -0.004759 0.000000 0.000000 0.000000
# 3 -0.000820 -0.004759 0.014867 0.000000 0.000000 0.000000
# 4 0.000000 0.000000 0.000000 0.550296 0.000000 0.000000
# 5 0.000000 0.000000 0.000000 0.000000 0.030066 0.000000
# 6 0.000000 0.000000 0.000000 0.000000 0.000000 -0.027545
#
#
# Mechanical properties :
#
#
# Convention : Reuss Voigt Hill
#
# Bulk Modulus (GPa) = 49.52881 54.02511 51.77696
# Shear Modulus (GPa) = 8.13768 13.50259 10.82014
#
# Velocity S-wave (km/s) = 2.04374 2.63259 2.35663
# Velocity P-wave (km/s) = 5.56696 6.08033 5.82930
#
# Compressibility (1/GPa) = 0.02019027
#
# Stress axis : x y z
#
# Youngs Moduli (GPa) = 80.86330 97.07912 67.26178
#
# Poissons Ratio (x) = 0.30033 0.05513
# Poissons Ratio (y) = 0.25016 0.32010
# Poissons Ratio (z) = 0.06627 0.46200
#
# Static dielectric constant tensor:
#      x y z
#    x 3.760380 0.000000 0.000000 
#    y 0.000000 4.329810 0.000000 
#    z 0.000000 0.000000 3.247180 
# 
# 
# High freq. dielectric constant tensor:
#      x y z
#    x 1.776620 0.000000 0.000000 
#    y 0.000000 1.792490 0.000000 
#    z 0.000000 0.000000 1.730230 
# 
# From -- ./inp_files/5223.got.cif
#   From: 2010.03.12/outbox.cif.g09.slc.cpg/sg51_3_cif.got.tgz:5223.got - 2010.04.16 13:43:02.
