data_PCOD8209818
_publ_section_title
;
Structure prediction by ZEFSAII (Michael W. Deem and Ramdas Pophale) SiO2 
 PCOD8209818
Probable space group: P M M A
;
_chemical_formula_sum "Si O2"
_cell_formula_units_Z 64
_cell_length_a 15.096697
_cell_length_b 8.933170
_cell_length_c 24.061710
_cell_angle_alpha 90.000000
_cell_angle_beta 90.000000
_cell_angle_gamma 90.000000
_cell_volume 3244.994952
_symmetry_space_group_name_H-M "P M M A"
_symmetry_group_IT_number 51
_symmetry_cell_setting 'orthorhombic'
loop_
_space_group_symop_operation_xyz
x,y,z
1/2-x,-y,z
1/2+x,-y,-z
-x,y,-z
-x,-y,-z
1/2+x,y,-z
1/2-x,y,z
x,-y,z
loop_
_atom_site_type_symbol
_atom_site_label
_atom_site_fract_x
_atom_site_fract_y
_atom_site_fract_z
Si Si1 0.847793 0.672100 0.893361
Si Si2 0.854749 0.668121 0.493410
Si Si3 0.397868 0.174757 0.996625
Si Si4 0.006586 0.322398 0.314805
Si Si5 0.647042 0.176721 0.380538
Si Si6 0.649472 0.828120 0.124369
Si Si7 0.997539 0.323596 0.812157
Si Si8 0.646352 0.823989 0.605748
O O1 0.750000 0.691560 0.867023
O O2 0.871268 0.500000 0.903278
O O3 0.918918 0.743580 0.850762
O O4 0.847026 0.749654 0.952991
O O5 0.750000 0.660984 0.494310
O O6 0.894707 0.500000 0.492340
O O7 0.886228 0.758766 0.439443
O O8 0.888305 0.755076 0.547784
O O9 0.361103 0.236426 0.938036
O O10 0.379701 0.000000 0.001673
O O11 0.500000 0.217264 0.000000
O O12 0.004454 0.500000 0.323929
O O13 0.090602 0.252692 0.345823
O O14 0.912976 0.253062 0.333727
O O15 0.019861 0.276067 0.250949
O O16 0.750000 0.216298 0.368981
O O17 0.631662 0.000000 0.380688
O O18 0.750000 0.810373 0.144260
O O19 0.591322 0.738701 0.168179
O O20 0.618254 0.000000 0.124738
O O21 0.000459 0.500000 0.817364
O O22 0.750000 0.789191 0.615751
O O23 0.627788 0.000000 0.604655
#
# Coordination Sequence:
#
# PCOD8209818 Si02
#       8
#     8   8   8   8   8   8   8   8
#     4  10  21  37  58  84 113 147 186 229 280 336
#     4   9  17  32  57  88 120 152 187 230 282 342
#     4  10  19  34  58  86 116 149 182 224 278 334
#     4  11  24  40  59  83 111 150 197 242 287 338
#     4  10  21  38  60  86 117 152 189 235 291 345
#     4  10  21  37  58  84 114 148 186 229 279 336
#     4  10  23  41  58  79 110 147 190 239 284 330
#     4  10  21  38  60  87 119 152 188 234 286 341
#
# _framework density 19.722681000000001
#
# number of rings (size 3 to 8) (size 9 to 14) (size 15 to 20)
#    0.000    2.000    1.250    1.875    0.000    7.250 
#    0.000    6.250    0.000    0.000    0.000    0.000 
#    0.000    0.000    0.000    0.000    0.000    0.000 
#
# Total GULP energy -793727.785089 kJ/mol
# GULP energy per Si atom -12401.996642 kJ/mol
# Density = 1.967779 g / cm^3
# Si number density = 19.722681 Si / 1000 Ang^3
#
#
#
# Elastic Constant Matrix: (Units=GPa)
#
#
# Indices 1 2 3 4 5 6 
#
# 1 82.9215 38.9839 40.2242 0.0000 0.0000 0.0000
# 2 38.9839 67.6676 55.0784 0.0000 0.0000 0.0000
# 3 40.2242 55.0784 110.5504 0.0000 0.0000 0.0000
# 4 0.0000 0.0000 0.0000 22.5855 0.0000 0.0000
# 5 0.0000 0.0000 0.0000 0.0000 25.2963 0.0000
# 6 0.0000 0.0000 0.0000 0.0000 0.0000 30.1249
#
#
#
# Elastic Compliance Matrix: (Units=1/GPa)
#
#
# Indices 1 2 3 4 5 6 
#
# 1 0.016845 -0.007933 -0.002177 0.000000 0.000000 0.000000
# 2 -0.007933 0.028595 -0.011360 0.000000 0.000000 0.000000
# 3 -0.002177 -0.011360 0.015498 0.000000 0.000000 0.000000
# 4 0.000000 0.000000 0.000000 0.044276 0.000000 0.000000
# 5 0.000000 0.000000 0.000000 0.000000 0.039531 0.000000
# 6 0.000000 0.000000 0.000000 0.000000 0.000000 0.033195
#
#
# Mechanical properties :
#
#
# Convention : Reuss Voigt Hill
#
# Bulk Modulus (GPa) = 55.56188 58.85693 57.20941
# Shear Modulus (GPa) = 22.03818 24.05822 23.04820
#
# Velocity S-wave (km/s) = 3.34638 3.49639 3.42221
# Velocity P-wave (km/s) = 6.56991 6.79755 6.68470
#
# Compressibility (1/GPa) = 0.01799795
#
# Stress axis : x y z
#
# Youngs Moduli (GPa) = 59.36492 34.97125 64.52601
#
# Poissons Ratio (x) = 0.27741 0.14047
# Poissons Ratio (y) = 0.47092 0.73303
# Poissons Ratio (z) = 0.12923 0.39728
#
# Static dielectric constant tensor:
#      x y z
#    x 3.606440 0.000000 0.000000 
#    y 0.000000 3.586710 0.000000 
#    z 0.000000 0.000000 3.664750 
# 
# 
# High freq. dielectric constant tensor:
#      x y z
#    x 1.775150 0.000000 0.000000 
#    y 0.000000 1.766950 0.000000 
#    z 0.000000 0.000000 1.767020 
# 
# From -- ./inp_files/35864.got.cif
#   From: 2010.03.12/outbox.cif.g09.slc.cpg/sg51_18_cif.got.tgz:35864.got - 2010.04.16 13:43:02.
