data_PCOD8209639
_publ_section_title
;
Structure prediction by ZEFSAII (Michael W. Deem and Ramdas Pophale) SiO2 
 PCOD8209639
Probable space group: P M M A
;
_chemical_formula_sum "Si O2"
_cell_formula_units_Z 36
_cell_length_a 8.606491
_cell_length_b 22.614352
_cell_length_c 9.981775
_cell_angle_alpha 90.000000
_cell_angle_beta 90.000000
_cell_angle_gamma 90.000000
_cell_volume 1942.755034
_symmetry_space_group_name_H-M "P M M A"
_symmetry_group_IT_number 51
_symmetry_cell_setting 'orthorhombic'
loop_
_space_group_symop_operation_xyz
x,y,z
1/2-x,-y,z
1/2+x,-y,-z
-x,y,-z
-x,-y,-z
1/2+x,y,-z
1/2-x,y,z
x,-y,z
loop_
_atom_site_type_symbol
_atom_site_label
_atom_site_fract_x
_atom_site_fract_y
_atom_site_fract_z
Si Si1 0.065946 0.128201 0.850407
Si Si2 0.570501 0.430805 0.858135
Si Si3 0.432745 0.346692 0.642152
Si Si4 0.933320 0.779362 0.643940
Si Si5 0.430085 0.000000 0.856098
O O1 0.250000 0.139436 0.852728
O O2 0.983569 0.174707 0.755869
O O3 0.023967 0.062709 0.787454
O O4 0.000000 0.135127 0.000000
O O5 0.750000 0.411909 0.852878
O O6 0.549069 0.500000 0.831692
O O7 0.473094 0.397317 0.746614
O O8 0.500000 0.412224 0.000000
O O9 0.500000 0.366951 0.500000
O O10 0.250000 0.338590 0.629839
O O11 0.505675 0.284713 0.688465
O O12 0.750000 0.777324 0.632759
O O13 0.000000 0.798433 0.500000
O O14 0.250000 0.000000 0.880204
O O15 0.500000 0.000000 0.000000
#
# Coordination Sequence:
#
# PCOD8209639 Si02
#       5
#     8   8   8   8   4
#     4  10  19  34  55  82 110 141 180 222 268 319
#     4  10  21  38  59  84 114 146 180 221 269 319
#     4  11  22  38  59  82 109 143 182 224 269 320
#     4  11  22  38  57  79 108 143 180 223 273 323
#     4   8  16  30  51  76 107 140 174 218 266 316
#
# _framework density 18.530386
#
# number of rings (size 3 to 8) (size 9 to 14) (size 15 to 20)
#    0.000    1.778    0.000    6.667    0.000    3.556 
#    0.000    5.000    0.000    0.000    0.000    0.000 
#    0.000    0.000    0.000    0.000    0.000    0.000 
#
# Total GULP energy -446292.603452 kJ/mol
# GULP energy per Si atom -12397.016763 kJ/mol
# Density = 1.848821 g / cm^3
# Si number density = 18.530386 Si / 1000 Ang^3
#
#
#
# Elastic Constant Matrix: (Units=GPa)
#
#
# Indices 1 2 3 4 5 6 
#
# 1 145.3627 51.8408 54.1334 0.0000 0.0000 0.0000
# 2 51.8408 94.8930 73.5062 0.0000 0.0000 0.0000
# 3 54.1334 73.5062 103.4378 0.0000 0.0000 0.0000
# 4 0.0000 0.0000 0.0000 62.4532 0.0000 0.0000
# 5 0.0000 0.0000 0.0000 0.0000 34.5832 0.0000
# 6 0.0000 0.0000 0.0000 0.0000 0.0000 60.1335
#
#
#
# Elastic Compliance Matrix: (Units=1/GPa)
#
#
# Indices 1 2 3 4 5 6 
#
# 1 0.008862 -0.002778 -0.002664 0.000000 0.000000 0.000000
# 2 -0.002778 0.024314 -0.015824 0.000000 0.000000 0.000000
# 3 -0.002664 -0.015824 0.022307 0.000000 0.000000 0.000000
# 4 0.000000 0.000000 0.000000 0.016012 0.000000 0.000000
# 5 0.000000 0.000000 0.000000 0.000000 0.028916 0.000000
# 6 0.000000 0.000000 0.000000 0.000000 0.000000 0.016630
#
#
# Mechanical properties :
#
#
# Convention : Reuss Voigt Hill
#
# Bulk Modulus (GPa) = 77.21618 78.07270 77.64444
# Shear Modulus (GPa) = 30.50857 42.38152 36.44504
#
# Velocity S-wave (km/s) = 4.06200 4.78759 4.43964
# Velocity P-wave (km/s) = 7.98500 8.53142 8.26273
#
# Compressibility (1/GPa) = 0.01295065
#
# Stress axis : x y z
#
# Youngs Moduli (GPa) = 112.84062 41.12940 44.82942
#
# Poissons Ratio (x) = 0.11426 0.11941
# Poissons Ratio (y) = 0.31347 0.70938
# Poissons Ratio (z) = 0.30058 0.65083
#
# Static dielectric constant tensor:
#      x y z
#    x 3.623140 0.000000 0.000000 
#    y 0.000000 3.623590 0.000000 
#    z 0.000000 0.000000 10.121510 
# 
# 
# High freq. dielectric constant tensor:
#      x y z
#    x 1.741370 0.000000 0.000000 
#    y 0.000000 1.731120 0.000000 
#    z 0.000000 0.000000 1.705720 
# 
# From -- ./inp_files/5041.got.cif
#   From: 2010.03.12/outbox.cif.g09.slc.cpg/sg51_3_cif.got.tgz:5041.got - 2010.04.16 13:43:02.
