data_PCOD8209282
_publ_section_title
;
Structure prediction by ZEFSAII (Michael W. Deem and Ramdas Pophale) SiO2 
 PCOD8209282
Probable space group: P M M A
;
_chemical_formula_sum "Si O2"
_cell_formula_units_Z 64
_cell_length_a 17.065319
_cell_length_b 20.361992
_cell_length_c 9.305379
_cell_angle_alpha 90.000000
_cell_angle_beta 90.000000
_cell_angle_gamma 90.000000
_cell_volume 3233.469283
_symmetry_space_group_name_H-M "P M M A"
_symmetry_group_IT_number 51
_symmetry_cell_setting 'orthorhombic'
loop_
_space_group_symop_operation_xyz
x,y,z
1/2-x,-y,z
1/2+x,-y,-z
-x,y,-z
-x,-y,-z
1/2+x,y,-z
1/2-x,y,z
x,-y,z
loop_
_atom_site_type_symbol
_atom_site_label
_atom_site_fract_x
_atom_site_fract_y
_atom_site_fract_z
Si Si1 0.656735 0.072609 0.720294
Si Si2 0.843050 0.927611 0.042680
Si Si3 0.158220 0.681800 0.279969
Si Si4 0.591238 0.425001 0.524812
Si Si5 0.343398 0.197273 0.784110
Si Si6 0.408896 0.314942 0.968667
Si Si7 0.343130 0.193721 0.457801
Si Si8 0.840995 0.423706 0.222771
O O1 0.750000 0.075777 0.719890
O O2 0.621840 0.127367 0.613251
O O3 0.629051 0.000000 0.670144
O O4 0.626246 0.087049 0.881689
O O5 0.750000 0.927283 0.042920
O O6 0.874101 0.871282 0.148869
O O7 0.872758 0.000000 0.093185
O O8 0.250000 0.673399 0.302843
O O9 0.115983 0.616796 0.337425
O O10 0.125671 0.744177 0.368189
O O11 0.140425 0.691814 0.113502
O O12 0.500000 0.416017 0.500000
O O13 0.613150 0.500000 0.559716
O O14 0.637393 0.400456 0.383522
O O15 0.250000 0.204678 0.796886
O O16 0.384107 0.257033 0.863494
O O17 0.372880 0.198809 0.620461
O O18 0.391024 0.384376 0.893853
O O19 0.500000 0.310309 0.000000
O O20 0.250000 0.191165 0.452965
O O21 0.750000 0.409241 0.196631
O O22 0.862268 0.500000 0.203051
#
# Coordination Sequence:
#
# PCOD8209282 Si02
#       8
#     8   8   8   8   8   8   8   8
#     4   8  13  23  40  66 103 139 169 209 265 322
#     4   8  14  25  45  75 109 144 180 221 271 326
#     4  11  22  36  56  81 110 144 186 233 277 327
#     4  10  21  38  60  87 119 151 182 220 268 322
#     4  10  19  33  53  76 107 143 182 228 276 334
#     4  12  25  39  56  79 109 144 185 233 287 342
#     4   9  18  30  48  76 105 137 176 220 269 319
#     4  10  21  39  62  85 111 145 183 223 272 331
#
# _framework density 19.792981000000001
#
# number of rings (size 3 to 8) (size 9 to 14) (size 15 to 20)
#    0.000    2.250    0.000    4.500    0.000    5.000 
#    0.000    2.500    0.000    0.375    0.000    0.000 
#    0.000    4.500    0.000    0.000    0.000    0.000 
#
# Total GULP energy -793658.821987 kJ/mol
# GULP energy per Si atom -12400.919094 kJ/mol
# Density = 1.974793 g / cm^3
# Si number density = 19.792981 Si / 1000 Ang^3
#
#
#
# Elastic Constant Matrix: (Units=GPa)
#
#
# Indices 1 2 3 4 5 6 
#
# 1 25.9957 19.2157 2.1182 0.0000 0.0000 0.0000
# 2 19.2157 131.3753 72.0402 0.0000 0.0000 0.0000
# 3 2.1182 72.0402 119.1550 0.0000 0.0000 0.0000
# 4 0.0000 0.0000 0.0000 36.9886 0.0000 0.0000
# 5 0.0000 0.0000 0.0000 0.0000 10.0969 0.0000
# 6 0.0000 0.0000 0.0000 0.0000 0.0000 -31.8903
#
#
#
# Elastic Compliance Matrix: (Units=1/GPa)
#
#
# Indices 1 2 3 4 5 6 
#
# 1 0.044853 -0.009160 0.004741 0.000000 0.000000 0.000000
# 2 -0.009160 0.013258 -0.007853 0.000000 0.000000 0.000000
# 3 0.004741 -0.007853 0.013056 0.000000 0.000000 0.000000
# 4 0.000000 0.000000 0.000000 0.027035 0.000000 0.000000
# 5 0.000000 0.000000 0.000000 0.000000 0.099040 0.000000
# 6 0.000000 0.000000 0.000000 0.000000 0.000000 -0.031358
#
#
# Mechanical properties :
#
#
# Convention : Reuss Voigt Hill
#
# Bulk Modulus (GPa) = 21.44902 51.47491 36.46197
# Shear Modulus (GPa) = 24.27555 15.24916 19.76235
#
# Velocity S-wave (km/s) = 3.50590 2.77868 3.16326
# Velocity P-wave (km/s) = 5.22003 6.02975 5.63944
#
# Compressibility (1/GPa) = 0.04662218
#
# Stress axis : x y z
#
# Youngs Moduli (GPa) = 22.29527 75.42860 76.59454
#
# Poissons Ratio (x) = 0.69092 -0.36311
# Poissons Ratio (y) = 0.20422 0.60146
# Poissons Ratio (z) = -0.10570 0.59231
#
# Static dielectric constant tensor:
#      x y z
#    x 3.177600 0.000000 0.000000 
#    y 0.000000 3.930930 0.000000 
#    z 0.000000 0.000000 3.797650 
# 
# 
# High freq. dielectric constant tensor:
#      x y z
#    x 1.731500 0.000000 0.000000 
#    y 0.000000 1.788160 0.000000 
#    z 0.000000 0.000000 1.776560 
# 
# From -- ./inp_files/10048.got.cif
#   From: 2010.03.12/outbox.cif.g09.slc.cpg/sg51_6_cif.got.tgz:10048.got - 2010.04.16 13:43:02.
