data_PCOD8209449
_publ_section_title
;
Structure prediction by ZEFSAII (Michael W. Deem and Ramdas Pophale) SiO2 
 PCOD8209449
Probable space group: P M M A
;
_chemical_formula_sum "Si O2"
_cell_formula_units_Z 64
_cell_length_a 30.837299
_cell_length_b 9.339954
_cell_length_c 11.921539
_cell_angle_alpha 90.000000
_cell_angle_beta 90.000000
_cell_angle_gamma 90.000000
_cell_volume 3433.629195
_symmetry_space_group_name_H-M "P M M A"
_symmetry_group_IT_number 51
_symmetry_cell_setting 'orthorhombic'
loop_
_space_group_symop_operation_xyz
x,y,z
1/2-x,-y,z
1/2+x,-y,-z
-x,y,-z
-x,-y,-z
1/2+x,y,-z
1/2-x,y,z
x,-y,z
loop_
_atom_site_type_symbol
_atom_site_label
_atom_site_fract_x
_atom_site_fract_y
_atom_site_fract_z
Si Si1 0.102914 0.162742 0.860131
Si Si2 0.519062 0.337560 0.114923
Si Si3 0.299907 0.332781 0.488958
Si Si4 0.374517 0.166081 0.614552
Si Si5 0.132713 0.831697 0.100892
Si Si6 0.565811 0.660271 0.756054
Si Si7 0.449859 0.333025 0.497424
Si Si8 0.699858 0.660428 0.768247
O O1 0.060059 0.253129 0.842580
O O2 0.131838 0.180686 0.748776
O O3 0.088038 0.000000 0.877091
O O4 0.129078 0.213494 0.970376
O O5 0.533447 0.500000 0.090838
O O6 0.484670 0.326572 0.214700
O O7 0.500000 0.270695 0.000000
O O8 0.250000 0.296197 0.519958
O O9 0.309070 0.500000 0.510546
O O10 0.332209 0.239027 0.562569
O O11 0.308970 0.293844 0.359680
O O12 0.419758 0.241329 0.580376
O O13 0.376525 0.000000 0.577937
O O14 0.092464 0.772166 0.171244
O O15 0.177082 0.767933 0.147110
O O16 0.133811 0.000000 0.117357
O O17 0.582522 0.500000 0.783700
O O18 0.570732 0.692355 0.624971
O O19 0.500000 0.280684 0.500000
O O20 0.447616 0.500000 0.532304
O O21 0.750000 0.667346 0.796828
O O22 0.682035 0.500000 0.786975
#
# Coordination Sequence:
#
# PCOD8209449 Si02
#       8
#     8   8   8   8   8   8   8   8
#     4  10  23  39  52  73 110 152 185 220 269 321
#     4  10  19  33  55  80 103 136 186 232 267 312
#     4   9  19  38  63  88 112 140 177 223 278 337
#     4  11  23  38  56  80 112 149 190 232 276 327
#     4  11  22  35  53  78 107 140 178 215 259 316
#     4  10  20  34  53  79 108 136 173 224 274 317
#     4  10  21  37  56  78 109 148 185 225 279 334
#     4   9  19  37  60  84 110 137 166 210 269 325
#
# _framework density 18.639171000000001
#
# number of rings (size 3 to 8) (size 9 to 14) (size 15 to 20)
#    0.000    2.000    1.250    3.000    0.000    8.000 
#    0.000    1.875    0.000    3.750    0.000    0.000 
#    0.000    0.000    0.000    0.000    0.000    0.000 
#
# Total GULP energy -793659.859648 kJ/mol
# GULP energy per Si atom -12400.935307 kJ/mol
# Density = 1.859675 g / cm^3
# Si number density = 18.639171 Si / 1000 Ang^3
#
#
#
# Elastic Constant Matrix: (Units=GPa)
#
#
# Indices 1 2 3 4 5 6 
#
# 1 107.9401 56.2915 50.6453 0.0000 0.0000 0.0000
# 2 56.2915 83.2816 51.5954 0.0000 0.0000 0.0000
# 3 50.6453 51.5954 101.9638 0.0000 0.0000 0.0000
# 4 0.0000 0.0000 0.0000 27.6737 0.0000 0.0000
# 5 0.0000 0.0000 0.0000 0.0000 29.3399 0.0000
# 6 0.0000 0.0000 0.0000 0.0000 0.0000 59.7757
#
#
#
# Elastic Compliance Matrix: (Units=1/GPa)
#
#
# Indices 1 2 3 4 5 6 
#
# 1 0.015074 -0.008085 -0.003396 0.000000 0.000000 0.000000
# 2 -0.008085 0.021827 -0.007029 0.000000 0.000000 0.000000
# 3 -0.003396 -0.007029 0.015051 0.000000 0.000000 0.000000
# 4 0.000000 0.000000 0.000000 0.036135 0.000000 0.000000
# 5 0.000000 0.000000 0.000000 0.000000 0.034083 0.000000
# 6 0.000000 0.000000 0.000000 0.000000 0.000000 0.016729
#
#
# Mechanical properties :
#
#
# Convention : Reuss Voigt Hill
#
# Bulk Modulus (GPa) = 66.97066 67.80554 67.38810
# Shear Modulus (GPa) = 27.63995 32.33476 29.98736
#
# Velocity S-wave (km/s) = 3.85502 4.16958 4.01538
# Velocity P-wave (km/s) = 7.47147 7.72253 7.59804
#
# Compressibility (1/GPa) = 0.01493191
#
# Stress axis : x y z
#
# Youngs Moduli (GPa) = 66.33843 45.81524 66.44020
#
# Poissons Ratio (x) = 0.37041 0.22565
# Poissons Ratio (y) = 0.53633 0.46701
# Poissons Ratio (z) = 0.22530 0.32204
#
# Static dielectric constant tensor:
#      x y z
#    x 3.293680 0.000000 0.000000 
#    y 0.000000 3.390190 0.000000 
#    z 0.000000 0.000000 3.529370 
# 
# 
# High freq. dielectric constant tensor:
#      x y z
#    x 1.718620 0.000000 0.000000 
#    y 0.000000 1.719260 0.000000 
#    z 0.000000 0.000000 1.729400 
# 
# From -- ./inp_files/19636.got.cif
#   From: 2010.03.12/outbox.cif.g09.slc.cpg/sg51_10_cif.got.tgz:19636.got - 2010.04.16 13:43:02.
