data_PCOD8209023
_publ_section_title
;
Structure prediction by ZEFSAII (Michael W. Deem and Ramdas Pophale) SiO2 
 PCOD8209023
Probable space group: P M M A
;
_chemical_formula_sum "Si O2"
_cell_formula_units_Z 56
_cell_length_a 8.881150
_cell_length_b 20.140840
_cell_length_c 15.266755
_cell_angle_alpha 90.000000
_cell_angle_beta 90.000000
_cell_angle_gamma 90.000000
_cell_volume 2730.822804
_symmetry_space_group_name_H-M "P M M A"
_symmetry_group_IT_number 51
_symmetry_cell_setting 'orthorhombic'
loop_
_space_group_symop_operation_xyz
x,y,z
1/2-x,-y,z
1/2+x,-y,-z
-x,y,-z
-x,-y,-z
1/2+x,y,-z
1/2-x,y,z
x,-y,z
loop_
_atom_site_type_symbol
_atom_site_label
_atom_site_fract_x
_atom_site_fract_y
_atom_site_fract_z
Si Si1 0.922394 0.248960 0.852886
Si Si2 0.073375 0.622499 0.915140
Si Si3 0.923971 0.927581 0.264115
Si Si4 0.576997 0.424725 0.275868
Si Si5 0.927126 0.671250 0.588751
Si Si6 0.919823 0.896298 0.913095
Si Si7 0.073301 0.211923 0.675952
O O1 0.750000 0.262874 0.822830
O O2 0.930995 0.183084 0.910700
O O3 0.987469 0.307547 0.911217
O O4 0.029889 0.242952 0.769015
O O5 0.250000 0.633268 0.929986
O O6 0.041288 0.580719 0.827389
O O7 0.000000 0.585591 0.000000
O O8 0.750000 0.915815 0.242096
O O9 0.976667 0.866292 0.326365
O O10 0.008799 0.928456 0.172559
O O11 0.950538 0.000000 0.309740
O O12 0.750000 0.405266 0.294260
O O13 0.543789 0.500000 0.305264
O O14 0.472140 0.375332 0.330139
O O15 0.750000 0.671274 0.578429
O O16 0.000000 0.642524 0.500000
O O17 0.984666 0.746924 0.602138
O O18 0.750000 0.921297 0.916756
O O19 0.000000 0.923200 0.000000
O O20 0.250000 0.221001 0.659606
#
# Coordination Sequence:
#
# PCOD8209023 Si02
#       7
#     8   8   8   8   8   8   8
#     4  10  19  32  52  79 111 149 197 249 302 357
#     4  11  22  35  56  84 119 162 208 255 302 353
#     4   9  19  35  55  79 109 150 195 238 293 358
#     4  10  23  44  66  90 125 166 206 251 304 360
#     4  12  25  42  68  98 127 158 199 246 300 364
#     4  10  20  31  45  69 103 145 194 247 301 353
#     4  10  19  35  60  88 120 154 192 242 298 354
#
# _framework density 20.506640000000001
#
# number of rings (size 3 to 8) (size 9 to 14) (size 15 to 20)
#    0.000    1.714    1.429    3.429    0.000    5.429 
#    0.000    0.000    0.000    0.429    0.000    0.000 
#    0.000    0.000    0.000    0.000    0.000    0.000 
#
# Total GULP energy -694363.637100 kJ/mol
# GULP energy per Si atom -12399.350662 kJ/mol
# Density = 2.045997 g / cm^3
# Si number density = 20.506640 Si / 1000 Ang^3
#
#
#
# Elastic Constant Matrix: (Units=GPa)
#
#
# Indices 1 2 3 4 5 6 
#
# 1 115.8224 44.1264 41.3954 0.0000 0.0000 0.0000
# 2 44.1264 102.4952 29.7347 0.0000 0.0000 0.0000
# 3 41.3954 29.7347 79.0704 0.0000 0.0000 0.0000
# 4 0.0000 0.0000 0.0000 7.8240 0.0000 0.0000
# 5 0.0000 0.0000 0.0000 0.0000 34.1841 0.0000
# 6 0.0000 0.0000 0.0000 0.0000 0.0000 16.6886
#
#
#
# Elastic Compliance Matrix: (Units=1/GPa)
#
#
# Indices 1 2 3 4 5 6 
#
# 1 0.011735 -0.003670 -0.004763 0.000000 0.000000 0.000000
# 2 -0.003670 0.012099 -0.002629 0.000000 0.000000 0.000000
# 3 -0.004763 -0.002629 0.016129 0.000000 0.000000 0.000000
# 4 0.000000 0.000000 0.000000 0.127812 0.000000 0.000000
# 5 0.000000 0.000000 0.000000 0.000000 0.029253 0.000000
# 6 0.000000 0.000000 0.000000 0.000000 0.000000 0.059921
#
#
# Mechanical properties :
#
#
# Convention : Reuss Voigt Hill
#
# Bulk Modulus (GPa) = 56.05658 58.65568 57.35613
# Shear Modulus (GPa) = 17.54268 23.88144 20.71206
#
# Velocity S-wave (km/s) = 2.92800 3.41628 3.18152
# Velocity P-wave (km/s) = 6.23106 6.65031 6.44410
#
# Compressibility (1/GPa) = 0.01783912
#
# Stress axis : x y z
#
# Youngs Moduli (GPa) = 85.21854 82.65020 61.99990
#
# Poissons Ratio (x) = 0.30334 0.29532
# Poissons Ratio (y) = 0.31276 0.16297
# Poissons Ratio (z) = 0.40591 0.21725
#
# Static dielectric constant tensor:
#      x y z
#    x 3.769880 0.000000 0.000000 
#    y 0.000000 3.851030 0.000000 
#    z 0.000000 0.000000 3.496770 
# 
# 
# High freq. dielectric constant tensor:
#      x y z
#    x 1.807260 0.000000 0.000000 
#    y 0.000000 1.804350 0.000000 
#    z 0.000000 0.000000 1.777650 
# 
# From -- ./inp_files/21738.got.cif
#   From: 2010.03.12/outbox.cif.g09.slc.cpg/sg51_11_cif.got.tgz:21738.got - 2010.04.16 13:43:02.
