data_PCOD8209320
_publ_section_title
;
Structure prediction by ZEFSAII (Michael W. Deem and Ramdas Pophale) SiO2 
 PCOD8209320
Probable space group: P M M A
;
_chemical_formula_sum "Si O2"
_cell_formula_units_Z 64
_cell_length_a 8.835393
_cell_length_b 24.463232
_cell_length_c 15.385146
_cell_angle_alpha 90.000000
_cell_angle_beta 90.000000
_cell_angle_gamma 90.000000
_cell_volume 3325.380362
_symmetry_space_group_name_H-M "P M M A"
_symmetry_group_IT_number 51
_symmetry_cell_setting 'orthorhombic'
loop_
_space_group_symop_operation_xyz
x,y,z
1/2-x,-y,z
1/2+x,-y,-z
-x,y,-z
-x,-y,-z
1/2+x,y,-z
1/2-x,y,z
x,-y,z
loop_
_atom_site_type_symbol
_atom_site_label
_atom_site_fract_x
_atom_site_fract_y
_atom_site_fract_z
Si Si1 0.427539 0.732097 0.693063
Si Si2 0.927396 0.831652 0.911951
Si Si3 0.076863 0.437793 0.258708
Si Si4 0.927290 0.291057 0.869485
Si Si5 0.929521 0.643717 0.589065
Si Si6 0.926379 0.145104 0.265032
Si Si7 0.571646 0.937717 0.410291
Si Si8 0.072483 0.399484 0.915085
O O1 0.250000 0.720323 0.706155
O O2 0.524147 0.704682 0.769548
O O3 0.491786 0.702729 0.607120
O O4 0.460326 0.796735 0.689779
O O5 0.750000 0.840901 0.915483
O O6 0.972309 0.767963 0.906816
O O7 0.989981 0.862365 0.826965
O O8 0.000000 0.856179 0.000000
O O9 0.250000 0.424466 0.234825
O O10 0.056507 0.500000 0.290036
O O11 0.021663 0.399271 0.336838
O O12 0.979506 0.428403 0.172748
O O13 0.750000 0.303232 0.877493
O O14 0.021806 0.336225 0.920416
O O15 0.750000 0.650306 0.581104
O O16 0.000000 0.621115 0.500000
O O17 0.750000 0.137734 0.245942
O O18 0.988379 0.099019 0.330670
O O19 0.500000 0.916497 0.500000
O O20 0.750000 0.931682 0.419645
O O21 0.522231 0.000000 0.391533
O O22 0.250000 0.404077 0.922160
O O23 0.000000 0.428852 0.000000
#
# Coordination Sequence:
#
# PCOD8209320 Si02
#       8
#     8   8   8   8   8   8   8   8
#     4  10  19  33  54  81 114 148 182 221 272 328
#     4  10  20  32  50  77 111 150 189 229 274 324
#     4  10  23  44  65  83 108 142 181 230 281 331
#     4  10  19  33  53  79 111 146 183 222 269 324
#     4  11  23  39  61  85 113 145 182 226 275 332
#     4   9  19  34  53  80 114 150 187 229 277 330
#     4   9  18  34  56  81 110 146 188 235 283 330
#     4  12  24  37  58  85 113 146 183 225 273 329
#
# _framework density 19.245919000000001
#
# number of rings (size 3 to 8) (size 9 to 14) (size 15 to 20)
#    0.000    1.875    1.250    3.000    0.000    5.250 
#    0.000    1.250    0.000    0.375    0.000    0.000 
#    0.000    0.000    0.000    0.000    0.000    0.000 
#
# Total GULP energy -793726.757213 kJ/mol
# GULP energy per Si atom -12401.980581 kJ/mol
# Density = 1.920211 g / cm^3
# Si number density = 19.245919 Si / 1000 Ang^3
#
#
#
# Elastic Constant Matrix: (Units=GPa)
#
#
# Indices 1 2 3 4 5 6 
#
# 1 87.4776 30.0419 57.6809 0.0000 0.0000 0.0000
# 2 30.0419 73.6595 60.0944 0.0000 0.0000 0.0000
# 3 57.6809 60.0944 157.5898 0.0000 0.0000 0.0000
# 4 0.0000 0.0000 0.0000 15.0957 0.0000 0.0000
# 5 0.0000 0.0000 0.0000 0.0000 37.1933 0.0000
# 6 0.0000 0.0000 0.0000 0.0000 0.0000 20.5965
#
#
#
# Elastic Compliance Matrix: (Units=1/GPa)
#
#
# Indices 1 2 3 4 5 6 
#
# 1 0.015363 -0.002436 -0.004694 0.000000 0.000000 0.000000
# 2 -0.002436 0.020093 -0.006771 0.000000 0.000000 0.000000
# 3 -0.004694 -0.006771 0.010646 0.000000 0.000000 0.000000
# 4 0.000000 0.000000 0.000000 0.066244 0.000000 0.000000
# 5 0.000000 0.000000 0.000000 0.000000 0.026887 0.000000
# 6 0.000000 0.000000 0.000000 0.000000 0.000000 0.048552
#
#
# Mechanical properties :
#
#
# Convention : Reuss Voigt Hill
#
# Bulk Modulus (GPa) = 54.64395 68.26237 61.45316
# Shear Modulus (GPa) = 22.55429 25.97107 24.26268
#
# Velocity S-wave (km/s) = 3.42702 3.67745 3.55444
# Velocity P-wave (km/s) = 6.64179 7.31963 6.98893
#
# Compressibility (1/GPa) = 0.01830029
#
# Stress axis : x y z
#
# Youngs Moduli (GPa) = 65.08940 49.76791 93.93497
#
# Poissons Ratio (x) = 0.12124 0.44096
# Poissons Ratio (y) = 0.15857 0.63599
# Poissons Ratio (z) = 0.30555 0.33696
#
# Static dielectric constant tensor:
#      x y z
#    x 3.447750 0.000000 0.000000 
#    y 0.000000 3.451890 0.000000 
#    z 0.000000 0.000000 3.624510 
# 
# 
# High freq. dielectric constant tensor:
#      x y z
#    x 1.751830 0.000000 0.000000 
#    y 0.000000 1.726030 0.000000 
#    z 0.000000 0.000000 1.756460 
# 
# From -- ./inp_files/22232.got.cif
#   From: 2010.03.12/outbox.cif.g09.slc.cpg/sg51_12_cif.got.tgz:22232.got - 2010.04.16 13:43:02.
