data_PCOD8209072
_publ_section_title
;
Structure prediction by ZEFSAII (Michael W. Deem and Ramdas Pophale) SiO2 
 PCOD8209072
Probable space group: P M M A
;
_chemical_formula_sum "Si O2"
_cell_formula_units_Z 56
_cell_length_a 13.857954
_cell_length_b 13.852622
_cell_length_c 15.755501
_cell_angle_alpha 90.000000
_cell_angle_beta 90.000000
_cell_angle_gamma 90.000000
_cell_volume 3024.567747
_symmetry_space_group_name_H-M "P M M A"
_symmetry_group_IT_number 51
_symmetry_cell_setting 'orthorhombic'
loop_
_space_group_symop_operation_xyz
x,y,z
1/2-x,-y,z
1/2+x,-y,-z
-x,y,-z
-x,-y,-z
1/2+x,y,-z
1/2-x,y,z
x,-y,z
loop_
_atom_site_type_symbol
_atom_site_label
_atom_site_fract_x
_atom_site_fract_y
_atom_site_fract_z
Si Si1 0.859639 0.688388 0.828401
Si Si2 0.642172 0.111546 0.218334
Si Si3 0.042984 0.887294 0.611647
Si Si4 0.136652 0.606699 0.352201
Si Si5 0.641731 0.391995 0.010076
Si Si6 0.471901 0.779973 0.912715
Si Si7 0.636315 0.204476 0.547061
O O1 0.750000 0.728836 0.816121
O O2 0.897594 0.639065 0.741717
O O3 0.934416 0.774255 0.851447
O O4 0.863584 0.615516 0.907700
O O5 0.750000 0.140772 0.244176
O O6 0.572975 0.142626 0.294579
O O7 0.613633 0.164396 0.132537
O O8 0.632871 0.000000 0.198569
O O9 0.103966 0.816864 0.549422
O O10 0.928155 0.868301 0.604159
O O11 0.065974 0.000000 0.591856
O O12 0.250000 0.595950 0.349214
O O13 0.092047 0.500000 0.373583
O O14 0.109350 0.685754 0.424496
O O15 0.750000 0.366032 0.039777
O O16 0.614028 0.500000 0.036113
O O17 0.567093 0.325261 0.060154
O O18 0.500000 0.835530 0.000000
O O19 0.750000 0.182942 0.560110
#
# Coordination Sequence:
#
# PCOD8209072 Si02
#       7
#     8   8   8   8   8   8   8
#     4   9  17  29  46  69 100 136 168 202 248 301
#     4  10  21  38  58  76  98 133 173 209 251 308
#     4  10  21  36  54  78 104 131 171 216 259 312
#     4   9  17  29  46  69  99 135 171 205 243 293
#     4   9  17  29  46  70 100 132 167 208 253 300
#     4  10  20  32  51  76 101 128 166 213 257 300
#     4  10  19  32  53  79 106 135 168 212 263 305
#
# _framework density 18.515042999999999
#
# number of rings (size 3 to 8) (size 9 to 14) (size 15 to 20)
#    0.000    2.429    0.000    3.000    0.000    7.429 
#    0.000    1.429    0.000    2.143    0.000    2.000 
#    0.000    0.000    0.000    0.000    0.000    0.000 
#
# Total GULP energy -693897.490168 kJ/mol
# GULP energy per Si atom -12391.026610 kJ/mol
# Density = 1.847290 g / cm^3
# Si number density = 18.515043 Si / 1000 Ang^3
#
#
#
# Elastic Constant Matrix: (Units=GPa)
#
#
# Indices 1 2 3 4 5 6 
#
# 1 89.8666 38.3900 38.2051 0.0000 0.0000 0.0000
# 2 38.3900 67.7280 59.2124 0.0000 0.0000 0.0000
# 3 38.2051 59.2124 100.9672 0.0000 0.0000 0.0000
# 4 0.0000 0.0000 0.0000 32.1862 0.0000 0.0000
# 5 0.0000 0.0000 0.0000 0.0000 26.7248 0.0000
# 6 0.0000 0.0000 0.0000 0.0000 0.0000 22.9896
#
#
#
# Elastic Compliance Matrix: (Units=1/GPa)
#
#
# Indices 1 2 3 4 5 6 
#
# 1 0.014778 -0.007158 -0.001394 0.000000 0.000000 0.000000
# 2 -0.007158 0.033767 -0.017094 0.000000 0.000000 0.000000
# 3 -0.001394 -0.017094 0.020457 0.000000 0.000000 0.000000
# 4 0.000000 0.000000 0.000000 0.031069 0.000000 0.000000
# 5 0.000000 0.000000 0.000000 0.000000 0.037418 0.000000
# 6 0.000000 0.000000 0.000000 0.000000 0.000000 0.043498
#
#
# Mechanical properties :
#
#
# Convention : Reuss Voigt Hill
#
# Bulk Modulus (GPa) = 56.46719 58.90852 57.68786
# Shear Modulus (GPa) = 20.99223 24.56375 22.77799
#
# Velocity S-wave (km/s) = 3.37084 3.64633 3.51129
# Velocity P-wave (km/s) = 6.76123 7.04367 6.90390
#
# Compressibility (1/GPa) = 0.01770940
#
# Stress axis : x y z
#
# Youngs Moduli (GPa) = 67.66815 29.61454 48.88336
#
# Poissons Ratio (x) = 0.21197 0.06816
# Poissons Ratio (y) = 0.48434 0.83563
# Poissons Ratio (z) = 0.09435 0.50624
#
# Static dielectric constant tensor:
#      x y z
#    x 3.536660 0.000000 0.000000 
#    y 0.000000 3.349770 0.000000 
#    z 0.000000 0.000000 3.411380 
# 
# 
# High freq. dielectric constant tensor:
#      x y z
#    x 1.722430 0.000000 0.000000 
#    y 0.000000 1.694320 0.000000 
#    z 0.000000 0.000000 1.714100 
# 
# From -- ./inp_files/24300.got.cif
#   From: 2010.03.12/outbox.cif.g09.slc.cpg/sg51_13_cif.got.tgz:24300.got - 2010.04.16 13:43:02.
