data_PCOD8209224
_publ_section_title
;
Structure prediction by ZEFSAII (Michael W. Deem and Ramdas Pophale) SiO2 
 PCOD8209224
Probable space group: P M M A
;
_chemical_formula_sum "Si O2"
_cell_formula_units_Z 48
_cell_length_a 8.773002
_cell_length_b 19.543314
_cell_length_c 15.464355
_cell_angle_alpha 90.000000
_cell_angle_beta 90.000000
_cell_angle_gamma 90.000000
_cell_volume 2651.418297
_symmetry_space_group_name_H-M "P M M A"
_symmetry_group_IT_number 51
_symmetry_cell_setting 'orthorhombic'
loop_
_space_group_symop_operation_xyz
x,y,z
1/2-x,-y,z
1/2+x,-y,-z
-x,y,-z
-x,-y,-z
1/2+x,y,-z
1/2-x,y,z
x,-y,z
loop_
_atom_site_type_symbol
_atom_site_label
_atom_site_fract_x
_atom_site_fract_y
_atom_site_fract_z
Si Si1 0.416798 0.418898 0.917306
Si Si2 0.921976 0.081445 0.913219
Si Si3 0.075535 0.919005 0.737333
Si Si4 0.431892 0.686617 0.591769
Si Si5 0.430654 0.168610 0.408279
Si Si6 0.068064 0.423824 0.729448
O O1 0.250000 0.385807 0.917942
O O2 0.406668 0.500000 0.928001
O O3 0.496401 0.402566 0.824620
O O4 0.500000 0.385785 0.000000
O O5 0.750000 0.109604 0.907468
O O6 0.015730 0.107411 0.830055
O O7 0.922295 0.000000 0.916235
O O8 0.000000 0.110870 0.000000
O O9 0.250000 0.895363 0.726358
O O10 0.971848 0.887830 0.662308
O O11 0.059465 0.000000 0.730494
O O12 0.500000 0.664683 0.500000
O O13 0.250000 0.690515 0.586458
O O14 0.497785 0.759412 0.621295
O O15 0.490747 0.630203 0.659503
O O16 0.500000 0.145463 0.500000
O O17 0.250000 0.175672 0.417554
O O18 0.250000 0.424484 0.734759
O O19 0.009993 0.500000 0.703955
#
# Coordination Sequence:
#
# PCOD8209224 Si02
#       6
#     8   8   8   8   8   8
#     4   8  13  23  40  63  91 122 155 189 228 276
#     4   9  16  27  45  71 103 137 170 203 242 289
#     4  10  20  34  53  78 105 131 163 205 251 296
#     4  10  19  33  52  71  94 126 164 201 241 291
#     4  11  22  37  55  73  97 129 166 204 246 299
#     4   8  15  28  47  71  98 128 160 195 239 290
#
# _framework density 18.103518999999999
#
# number of rings (size 3 to 8) (size 9 to 14) (size 15 to 20)
#    0.000    2.667    0.000    5.000    0.000    3.667 
#    0.000    1.667    0.000    4.500    0.000    4.667 
#    0.000    0.000    0.000    0.000    0.000    0.000 
#
# Total GULP energy -594995.841484 kJ/mol
# GULP energy per Si atom -12395.746698 kJ/mol
# Density = 1.806231 g / cm^3
# Si number density = 18.103519 Si / 1000 Ang^3
#
#
#
# Elastic Constant Matrix: (Units=GPa)
#
#
# Indices 1 2 3 4 5 6 
#
# 1 98.0670 26.3236 48.3437 0.0000 0.0000 0.0000
# 2 26.3236 41.7479 52.4358 0.0000 0.0000 0.0000
# 3 48.3437 52.4358 142.5336 0.0000 0.0000 0.0000
# 4 0.0000 0.0000 0.0000 3.0897 0.0000 0.0000
# 5 0.0000 0.0000 0.0000 0.0000 33.4303 0.0000
# 6 0.0000 0.0000 0.0000 0.0000 0.0000 17.6512
#
#
#
# Elastic Compliance Matrix: (Units=1/GPa)
#
#
# Indices 1 2 3 4 5 6 
#
# 1 0.012751 -0.004848 -0.002541 0.000000 0.000000 0.000000
# 2 -0.004848 0.046372 -0.015415 0.000000 0.000000 0.000000
# 3 -0.002541 -0.015415 0.013549 0.000000 0.000000 0.000000
# 4 0.000000 0.000000 0.000000 0.323658 0.000000 0.000000
# 5 0.000000 0.000000 0.000000 0.000000 0.029913 0.000000
# 6 0.000000 0.000000 0.000000 0.000000 0.000000 0.056653
#
#
# Mechanical properties :
#
#
# Convention : Reuss Voigt Hill
#
# Bulk Modulus (GPa) = 36.95132 59.61720 48.28426
# Shear Modulus (GPa) = 9.30187 21.18392 15.24289
#
# Velocity S-wave (km/s) = 2.26921 3.42446 2.90485
# Velocity P-wave (km/s) = 5.22697 6.97415 6.16279
#
# Compressibility (1/GPa) = 0.02706263
#
# Stress axis : x y z
#
# Youngs Moduli (GPa) = 78.42342 21.56486 73.80738
#
# Poissons Ratio (x) = 0.10455 0.18757
# Poissons Ratio (y) = 0.38022 1.13774
# Poissons Ratio (z) = 0.19930 0.33242
#
# Static dielectric constant tensor:
#      x y z
#    x 3.398870 0.000000 0.000000 
#    y 0.000000 3.008490 0.000000 
#    z 0.000000 0.000000 3.630220 
# 
# 
# High freq. dielectric constant tensor:
#      x y z
#    x 1.697210 0.000000 0.000000 
#    y 0.000000 1.655630 0.000000 
#    z 0.000000 0.000000 1.718260 
# 
# From -- ./inp_files/21406.got.cif
#   From: 2010.03.12/outbox.cif.g09.slc.cpg/sg51_11_cif.got.tgz:21406.got - 2010.04.16 13:43:02.
