data_PCOD8209862
_publ_section_title
;
Structure prediction by ZEFSAII (Michael W. Deem and Ramdas Pophale) SiO2 
 PCOD8209862
Probable space group: P M M A
;
_chemical_formula_sum "Si O2"
_cell_formula_units_Z 48
_cell_length_a 8.894015
_cell_length_b 16.425669
_cell_length_c 18.603462
_cell_angle_alpha 90.000000
_cell_angle_beta 90.000000
_cell_angle_gamma 90.000000
_cell_volume 2717.782488
_symmetry_space_group_name_H-M "P M M A"
_symmetry_group_IT_number 51
_symmetry_cell_setting 'orthorhombic'
loop_
_space_group_symop_operation_xyz
x,y,z
1/2-x,-y,z
1/2+x,-y,-z
-x,y,-z
-x,-y,-z
1/2+x,y,-z
1/2-x,y,z
x,-y,z
loop_
_atom_site_type_symbol
_atom_site_label
_atom_site_fract_x
_atom_site_fract_y
_atom_site_fract_z
Si Si1 0.428307 0.804556 0.926176
Si Si2 0.924268 0.772056 0.707810
Si Si3 0.426386 0.663558 0.155213
Si Si4 0.572973 0.091174 0.210246
Si Si5 0.572809 0.332784 0.575445
Si Si6 0.928850 0.500000 0.196626
Si Si7 0.572210 0.500000 0.647567
O O1 0.250000 0.795866 0.933098
O O2 0.500787 0.717488 0.907622
O O3 0.475536 0.869693 0.865567
O O4 0.500000 0.836765 0.000000
O O5 0.750000 0.793514 0.705239
O O6 0.957996 0.704591 0.767935
O O7 0.981174 0.735151 0.632456
O O8 0.010340 0.855818 0.723727
O O9 0.250000 0.652560 0.140572
O O10 0.508628 0.577395 0.153868
O O11 0.750000 0.089646 0.217609
O O12 0.506338 0.000000 0.214439
O O13 0.500000 0.310786 0.500000
O O14 0.750000 0.330875 0.566847
O O15 0.521627 0.421776 0.601903
O O16 0.750000 0.500000 0.195742
O O17 0.986066 0.500000 0.277842
O O18 0.750000 0.500000 0.664613
#
# Coordination Sequence:
#
# PCOD8209862 Si02
#       7
#     8   8   8   8   8   4   4
#     4  10  20  35  54  79 109 139 172 208 254 310
#     4   9  18  33  53  75 101 135 174 214 257 310
#     4  10  19  35  55  73 100 139 178 217 263 306
#     4   9  19  35  55  80 108 135 167 211 258 306
#     4  10  20  33  50  74 106 141 177 216 262 310
#     4  12  22  31  50  79 105 133 178 225 261 303
#     4  10  19  35  51  69 105 145 176 217 261 307
#
# _framework density 17.661458
#
# number of rings (size 3 to 8) (size 9 to 14) (size 15 to 20)
#    0.000    2.167    1.667    2.000    0.000    3.333 
#    0.000    0.417    0.000    0.500    0.000    0.000 
#    0.000    0.000    0.000    0.000    0.000    0.000 
#
# Total GULP energy -595320.318946 kJ/mol
# GULP energy per Si atom -12402.506645 kJ/mol
# Density = 1.762126 g / cm^3
# Si number density = 17.661458 Si / 1000 Ang^3
#
#
#
# Elastic Constant Matrix: (Units=GPa)
#
#
# Indices 1 2 3 4 5 6 
#
# 1 58.7106 43.9222 29.6901 0.0000 0.0000 0.0000
# 2 43.9222 149.8427 61.8953 0.0000 0.0000 0.0000
# 3 29.6901 61.8953 101.7560 0.0000 0.0000 0.0000
# 4 0.0000 0.0000 0.0000 17.1568 0.0000 0.0000
# 5 0.0000 0.0000 0.0000 0.0000 32.5960 0.0000
# 6 0.0000 0.0000 0.0000 0.0000 0.0000 27.7372
#
#
#
# Elastic Compliance Matrix: (Units=1/GPa)
#
#
# Indices 1 2 3 4 5 6 
#
# 1 0.022683 -0.005229 -0.003438 0.000000 0.000000 0.000000
# 2 -0.005229 0.010119 -0.004629 0.000000 0.000000 0.000000
# 3 -0.003438 -0.004629 0.013646 0.000000 0.000000 0.000000
# 4 0.000000 0.000000 0.000000 0.058286 0.000000 0.000000
# 5 0.000000 0.000000 0.000000 0.000000 0.030679 0.000000
# 6 0.000000 0.000000 0.000000 0.000000 0.000000 0.036053
#
#
# Mechanical properties :
#
#
# Convention : Reuss Voigt Hill
#
# Bulk Modulus (GPa) = 50.36220 64.59161 57.47691
# Shear Modulus (GPa) = 24.42895 27.15146 25.79020
#
# Velocity S-wave (km/s) = 3.72315 3.92513 3.82547
# Velocity P-wave (km/s) = 6.86000 7.56265 7.21988
#
# Compressibility (1/GPa) = 0.01985616
#
# Stress axis : x y z
#
# Youngs Moduli (GPa) = 44.08595 98.82887 73.27988
#
# Poissons Ratio (x) = 0.51676 0.25193
# Poissons Ratio (y) = 0.23052 0.33922
# Poissons Ratio (z) = 0.15156 0.45749
#
# Static dielectric constant tensor:
#      x y z
#    x 3.219780 0.000000 0.000000 
#    y 0.000000 3.442160 0.000000 
#    z 0.000000 0.000000 3.257880 
# 
# 
# High freq. dielectric constant tensor:
#      x y z
#    x 1.683360 0.000000 0.000000 
#    y 0.000000 1.679200 0.000000 
#    z 0.000000 0.000000 1.671860 
# 
# From -- ./inp_files/27632.got.cif
#   From: 2010.03.12/outbox.cif.g09.slc.cpg/sg51_14_cif.got.tgz:27632.got - 2010.04.16 13:43:02.
