data_PCOD8209544
_publ_section_title
;
Structure prediction by ZEFSAII (Michael W. Deem and Ramdas Pophale) SiO2 
 PCOD8209544
Probable space group: P M M A
;
_chemical_formula_sum "Si O2"
_cell_formula_units_Z 32
_cell_length_a 13.167850
_cell_length_b 9.050718
_cell_length_c 13.554868
_cell_angle_alpha 90.000000
_cell_angle_beta 90.000000
_cell_angle_gamma 90.000000
_cell_volume 1615.448795
_symmetry_space_group_name_H-M "P M M A"
_symmetry_group_IT_number 51
_symmetry_cell_setting 'orthorhombic'
loop_
_space_group_symop_operation_xyz
x,y,z
1/2-x,-y,z
1/2+x,-y,-z
-x,y,-z
-x,-y,-z
1/2+x,y,-z
1/2-x,y,z
x,-y,z
loop_
_atom_site_type_symbol
_atom_site_label
_atom_site_fract_x
_atom_site_fract_y
_atom_site_fract_z
Si Si1 0.750000 0.673112 0.891753
Si Si2 0.750000 0.323544 0.667378
Si Si3 0.611660 0.160693 0.032003
Si Si4 0.137188 0.175407 0.747701
Si Si5 0.957250 0.171784 0.608614
O O1 0.750000 0.500000 0.891163
O O2 0.750000 0.732035 0.780259
O O3 0.847307 0.730227 0.949469
O O4 0.750000 0.500000 0.657187
O O5 0.851947 0.260479 0.617289
O O6 0.622970 0.232943 0.140293
O O7 0.667123 0.000000 0.031750
O O8 0.500000 0.131903 0.000000
O O9 0.250000 0.225851 0.709901
O O10 0.044858 0.238172 0.681192
O O11 0.129702 0.000000 0.743944
O O12 0.000000 0.193658 0.500000
O O13 0.935052 0.000000 0.631481
#
# Coordination Sequence:
#
# PCOD8209544 Si02
#       5
#     4   4   8   8   8
#     4  11  23  37  54  81 118 158 195 235 282 339
#     4  11  25  43  60  83 124 166 197 237 296 363
#     4  10  19  33  57  84 112 151 194 237 290 351
#     4   9  17  32  56  88 122 149 185 246 308 357
#     4  10  22  39  66  95 116 149 201 257 303 346
#
# _framework density 19.808736
#
# number of rings (size 3 to 8) (size 9 to 14) (size 15 to 20)
#    0.000    2.000    1.250    2.250    1.750    5.000 
#    0.000    1.250    0.000    0.000    0.000    0.000 
#    0.000    0.000    0.000    0.000    0.000    0.000 
#
# Total GULP energy -396549.296243 kJ/mol
# GULP energy per Si atom -12392.165508 kJ/mol
# Density = 1.976365 g / cm^3
# Si number density = 19.808736 Si / 1000 Ang^3
#
#
#
# Elastic Constant Matrix: (Units=GPa)
#
#
# Indices 1 2 3 4 5 6 
#
# 1 176.2061 36.2719 56.7805 0.0000 0.0000 0.0000
# 2 36.2719 47.0899 36.8902 0.0000 0.0000 0.0000
# 3 56.7805 36.8902 109.4940 0.0000 0.0000 0.0000
# 4 0.0000 0.0000 0.0000 27.9840 0.0000 0.0000
# 5 0.0000 0.0000 0.0000 0.0000 33.4742 0.0000
# 6 0.0000 0.0000 0.0000 0.0000 0.0000 35.4519
#
#
#
# Elastic Compliance Matrix: (Units=1/GPa)
#
#
# Indices 1 2 3 4 5 6 
#
# 1 0.007232 -0.003576 -0.002545 0.000000 0.000000 0.000000
# 2 -0.003576 0.030620 -0.008462 0.000000 0.000000 0.000000
# 3 -0.002545 -0.008462 0.013304 0.000000 0.000000 0.000000
# 4 0.000000 0.000000 0.000000 0.035735 0.000000 0.000000
# 5 0.000000 0.000000 0.000000 0.000000 0.029874 0.000000
# 6 0.000000 0.000000 0.000000 0.000000 0.000000 0.028207
#
#
# Mechanical properties :
#
#
# Convention : Reuss Voigt Hill
#
# Bulk Modulus (GPa) = 45.47834 65.85280 55.66557
# Shear Modulus (GPa) = 27.55340 32.90520 30.22930
#
# Velocity S-wave (km/s) = 3.73362 4.08014 3.91072
# Velocity P-wave (km/s) = 6.44943 7.45072 6.96808
#
# Compressibility (1/GPa) = 0.02198849
#
# Stress axis : x y z
#
# Youngs Moduli (GPa) = 138.28389 32.65892 75.16778
#
# Poissons Ratio (x) = 0.11680 0.19131
# Poissons Ratio (y) = 0.49455 0.63604
# Poissons Ratio (z) = 0.35195 0.27635
#
# Static dielectric constant tensor:
#      x y z
#    x 3.801030 0.000000 0.000000 
#    y 0.000000 3.216320 0.000000 
#    z 0.000000 0.000000 3.786620 
# 
# 
# High freq. dielectric constant tensor:
#      x y z
#    x 1.796450 0.000000 0.000000 
#    y 0.000000 1.727910 0.000000 
#    z 0.000000 0.000000 1.779300 
# 
# From -- ./inp_files/15947.got.cif
#   From: 2010.03.12/outbox.cif.g09.slc.cpg/sg51_8_cif.got.tgz:15947.got - 2010.04.16 13:43:02.
