data_PCOD8209686
_publ_section_title
;
Structure prediction by ZEFSAII (Michael W. Deem and Ramdas Pophale) SiO2 
 PCOD8209686
Probable space group: P M M A
;
_chemical_formula_sum "Si O2"
_cell_formula_units_Z 56
_cell_length_a 21.097955
_cell_length_b 8.955993
_cell_length_c 16.926347
_cell_angle_alpha 90.000000
_cell_angle_beta 90.000000
_cell_angle_gamma 90.000000
_cell_volume 3198.286369
_symmetry_space_group_name_H-M "P M M A"
_symmetry_group_IT_number 51
_symmetry_cell_setting 'orthorhombic'
loop_
_space_group_symop_operation_xyz
x,y,z
1/2-x,-y,z
1/2+x,-y,-z
-x,y,-z
-x,-y,-z
1/2+x,y,-z
1/2-x,y,z
x,-y,z
loop_
_atom_site_type_symbol
_atom_site_label
_atom_site_fract_x
_atom_site_fract_y
_atom_site_fract_z
Si Si1 0.435294 0.323504 0.457495
Si Si2 0.675700 0.168155 0.148187
Si Si3 0.471807 0.323371 0.120748
Si Si4 0.597897 0.323840 0.029620
Si Si5 0.871900 0.324061 0.300457
Si Si6 0.321833 0.825658 0.549444
Si Si7 0.514872 0.676181 0.706476
O O1 0.500000 0.268959 0.500000
O O2 0.428149 0.500000 0.469378
O O3 0.372432 0.248007 0.490950
O O4 0.438884 0.276562 0.364976
O O5 0.750000 0.170349 0.157115
O O6 0.658002 0.232552 0.061718
O O7 0.645921 0.277720 0.212493
O O8 0.649639 0.000000 0.158570
O O9 0.469432 0.500000 0.124635
O O10 0.539572 0.276687 0.085925
O O11 0.462866 0.254020 0.209023
O O12 0.416586 0.270700 0.060458
O O13 0.611081 0.500000 0.033086
O O14 0.862433 0.500000 0.310356
O O15 0.827519 0.240870 0.362905
O O16 0.944042 0.273633 0.316447
O O17 0.250000 0.794780 0.519247
O O18 0.336015 0.000000 0.553687
O O19 0.514395 0.500000 0.716124
#
# Coordination Sequence:
#
# PCOD8209686 Si02
#       7
#     8   8   8   8   8   8   8
#     4  10  19  34  56  82 107 136 178 224 267 317
#     4  11  23  35  46  68 107 145 173 208 255 305
#     4   8  14  27  50  78 102 125 158 208 261 299
#     4   9  16  29  52  75  96 129 172 207 245 302
#     4  11  20  34  56  79 104 137 176 214 257 315
#     4  11  24  39  53  74 109 147 180 219 267 319
#     4   9  16  29  52  80 109 132 160 214 271 310
#
# _framework density 17.509376
#
# number of rings (size 3 to 8) (size 9 to 14) (size 15 to 20)
#    0.000    2.143    2.857    2.571    0.000    4.286 
#    0.000    1.429    0.000    0.857    0.000    6.000 
#    0.000    0.000    0.000    0.000    0.000    0.000 
#
# Total GULP energy -694139.124724 kJ/mol
# GULP energy per Si atom -12395.341513 kJ/mol
# Density = 1.746952 g / cm^3
# Si number density = 17.509376 Si / 1000 Ang^3
#
#
#
# Elastic Constant Matrix: (Units=GPa)
#
#
# Indices 1 2 3 4 5 6 
#
# 1 78.3074 41.4181 46.4301 0.0000 0.0000 0.0000
# 2 41.4181 55.4627 35.4375 0.0000 0.0000 0.0000
# 3 46.4301 35.4375 123.3417 0.0000 0.0000 0.0000
# 4 0.0000 0.0000 0.0000 -0.9475 0.0000 0.0000
# 5 0.0000 0.0000 0.0000 0.0000 26.8134 0.0000
# 6 0.0000 0.0000 0.0000 0.0000 0.0000 17.9954
#
#
#
# Elastic Compliance Matrix: (Units=1/GPa)
#
#
# Indices 1 2 3 4 5 6 
#
# 1 0.023032 -0.014282 -0.004567 0.000000 0.000000 0.000000
# 2 -0.014282 0.030940 -0.003513 0.000000 0.000000 0.000000
# 3 -0.004567 -0.003513 0.010836 0.000000 0.000000 0.000000
# 4 0.000000 0.000000 0.000000 -1.055433 0.000000 0.000000
# 5 0.000000 0.000000 0.000000 0.000000 0.037295 0.000000
# 6 0.000000 0.000000 0.000000 0.000000 0.000000 0.055570
#
#
# Mechanical properties :
#
#
# Convention : Reuss Voigt Hill
#
# Bulk Modulus (GPa) = 49.78946 55.96478 52.87712
# Shear Modulus (GPa) = -5.90777 17.69402 5.89312
#
# Velocity S-wave (km/s) = -1.83885 3.18236 1.83657
# Velocity P-wave (km/s) = 4.89787 6.74799 5.89595
#
# Compressibility (1/GPa) = 0.02008457
#
# Stress axis : x y z
#
# Youngs Moduli (GPa) = 43.41867 32.32055 92.28482
#
# Poissons Ratio (x) = 0.46159 0.42143
# Poissons Ratio (y) = 0.62009 0.32423
# Poissons Ratio (z) = 0.19828 0.11355
#
# Static dielectric constant tensor:
#      x y z
#    x 3.159210 0.000000 0.000000 
#    y 0.000000 3.093440 0.000000 
#    z 0.000000 0.000000 3.783790 
# 
# 
# High freq. dielectric constant tensor:
#      x y z
#    x 1.654950 0.000000 0.000000 
#    y 0.000000 1.653460 0.000000 
#    z 0.000000 0.000000 1.684160 
# 
# From -- ./inp_files/30379.got.cif
#   From: 2010.03.12/outbox.cif.g09.slc.cpg/sg51_16_cif.got.tgz:30379.got - 2010.04.16 13:43:02.
