data_PCOD8209574
_publ_section_title
;
Structure prediction by ZEFSAII (Michael W. Deem and Ramdas Pophale) SiO2 
 PCOD8209574
Probable space group: P M M A
;
_chemical_formula_sum "Si O2"
_cell_formula_units_Z 64
_cell_length_a 23.940651
_cell_length_b 14.021920
_cell_length_c 9.565768
_cell_angle_alpha 90.000000
_cell_angle_beta 90.000000
_cell_angle_gamma 90.000000
_cell_volume 3211.169900
_symmetry_space_group_name_H-M "P M M A"
_symmetry_group_IT_number 51
_symmetry_cell_setting 'orthorhombic'
loop_
_space_group_symop_operation_xyz
x,y,z
1/2-x,-y,z
1/2+x,-y,-z
-x,y,-z
-x,-y,-z
1/2+x,y,-z
1/2-x,y,z
x,-y,z
loop_
_atom_site_type_symbol
_atom_site_label
_atom_site_fract_x
_atom_site_fract_y
_atom_site_fract_z
Si Si1 0.009082 0.389485 0.338484
Si Si2 0.457465 0.105666 0.893081
Si Si3 0.386083 0.388127 0.757373
Si Si4 0.317072 0.270701 0.548238
Si Si5 0.112579 0.744057 0.278835
Si Si6 0.142655 0.765996 0.961306
Si Si7 0.469208 0.105119 0.371796
Si Si8 0.187881 0.106077 0.751945
O O1 0.023284 0.500000 0.316597
O O2 0.062156 0.332686 0.276173
O O3 0.000000 0.365071 0.500000
O O4 0.951697 0.360927 0.260190
O O5 0.405055 0.172579 0.885646
O O6 0.483402 0.099593 0.742506
O O7 0.441771 0.000000 0.950327
O O8 0.500000 0.155522 0.000000
O O9 0.379273 0.500000 0.776255
O O10 0.348664 0.357348 0.625279
O O11 0.361301 0.339885 0.897494
O O12 0.250000 0.284870 0.552408
O O13 0.338043 0.277051 0.388054
O O14 0.336553 0.172465 0.625637
O O15 0.086319 0.844708 0.319068
O O16 0.141583 0.756449 0.127650
O O17 0.192512 0.830707 0.897104
O O18 0.500000 0.159395 0.500000
O O19 0.449909 0.000000 0.419084
O O20 0.250000 0.081896 0.707996
O O21 0.157388 0.000000 0.764833
#
# Coordination Sequence:
#
# PCOD8209574 Si02
#       8
#     8   8   8   8   8   8   8   8
#     4  10  20  36  60  88 118 151 194 239 292 352
#     4  10  19  34  52  76 117 159 195 231 277 341
#     4  10  22  41  64  88 115 153 196 242 289 349
#     4  10  23  41  63  89 113 149 197 246 297 348
#     4  12  23  36  58  86 125 157 186 241 297 351
#     4  11  23  35  57  88 120 157 194 233 290 359
#     4  10  22  34  50  81 118 157 199 240 283 337
#     4   9  20  41  64  84 110 150 202 250 289 337
#
# _framework density 19.930432
#
# number of rings (size 3 to 8) (size 9 to 14) (size 15 to 20)
#    0.000    1.750    2.500    1.500    3.500    2.250 
#    0.000    1.250    0.000    1.500    0.000    1.750 
#    0.000    0.000    0.000    0.000    0.000    0.000 
#
# Total GULP energy -792964.116739 kJ/mol
# GULP energy per Si atom -12390.064324 kJ/mol
# Density = 1.988507 g / cm^3
# Si number density = 19.930432 Si / 1000 Ang^3
#
#
#
# Elastic Constant Matrix: (Units=GPa)
#
#
# Indices 1 2 3 4 5 6 
#
# 1 73.7577 31.8971 23.7579 0.0000 0.0000 0.0000
# 2 31.8971 110.0561 36.2327 0.0000 0.0000 0.0000
# 3 23.7579 36.2327 131.2869 0.0000 0.0000 0.0000
# 4 0.0000 0.0000 0.0000 22.5962 0.0000 0.0000
# 5 0.0000 0.0000 0.0000 0.0000 21.1276 0.0000
# 6 0.0000 0.0000 0.0000 0.0000 0.0000 24.7468
#
#
#
# Elastic Compliance Matrix: (Units=1/GPa)
#
#
# Indices 1 2 3 4 5 6 
#
# 1 0.015863 -0.004017 -0.001762 0.000000 0.000000 0.000000
# 2 -0.004017 0.011012 -0.002312 0.000000 0.000000 0.000000
# 3 -0.001762 -0.002312 0.008574 0.000000 0.000000 0.000000
# 4 0.000000 0.000000 0.000000 0.044255 0.000000 0.000000
# 5 0.000000 0.000000 0.000000 0.000000 0.047331 0.000000
# 6 0.000000 0.000000 0.000000 0.000000 0.000000 0.040409
#
#
# Mechanical properties :
#
#
# Convention : Reuss Voigt Hill
#
# Bulk Modulus (GPa) = 51.90542 55.43067 53.66805
# Shear Modulus (GPa) = 26.30905 28.57500 27.44202
#
# Velocity S-wave (km/s) = 3.63718 3.79058 3.71467
# Velocity P-wave (km/s) = 6.61352 6.85787 6.73680
#
# Compressibility (1/GPa) = 0.01926581
#
# Stress axis : x y z
#
# Youngs Moduli (GPa) = 63.04069 90.81165 116.63428
#
# Poissons Ratio (x) = 0.36483 0.20549
# Poissons Ratio (y) = 0.25326 0.26966
# Poissons Ratio (z) = 0.11107 0.20996
#
# Static dielectric constant tensor:
#      x y z
#    x 3.711350 0.000000 0.000000 
#    y 0.000000 3.906020 0.000000 
#    z 0.000000 0.000000 3.565700 
# 
# 
# High freq. dielectric constant tensor:
#      x y z
#    x 1.764870 0.000000 0.000000 
#    y 0.000000 1.784970 0.000000 
#    z 0.000000 0.000000 1.772770 
# 
# From -- ./inp_files/11873.got.cif
#   From: 2010.03.12/outbox.cif.g09.slc.cpg/sg51_6_cif.got.tgz:11873.got - 2010.04.16 13:43:02.
