data_PCOD8209288
_publ_section_title
;
Structure prediction by ZEFSAII (Michael W. Deem and Ramdas Pophale) SiO2 
 PCOD8209288
Probable space group: P M M A
;
_chemical_formula_sum "Si O2"
_cell_formula_units_Z 48
_cell_length_a 9.089014
_cell_length_b 30.829696
_cell_length_c 9.238866
_cell_angle_alpha 90.000000
_cell_angle_beta 90.000000
_cell_angle_gamma 90.000000
_cell_volume 2588.836856
_symmetry_space_group_name_H-M "P M M A"
_symmetry_group_IT_number 51
_symmetry_cell_setting 'orthorhombic'
loop_
_space_group_symop_operation_xyz
x,y,z
1/2-x,-y,z
1/2+x,-y,-z
-x,y,-z
-x,-y,-z
1/2+x,y,-z
1/2-x,y,z
x,-y,z
loop_
_atom_site_type_symbol
_atom_site_label
_atom_site_fract_x
_atom_site_fract_y
_atom_site_fract_z
Si Si1 0.923024 0.418392 0.345701
Si Si2 0.076967 0.906804 0.153520
Si Si3 0.923323 0.500000 0.154790
Si Si4 0.917350 0.000000 0.851727
Si Si5 0.922676 0.161798 0.351036
Si Si6 0.579362 0.260650 0.352403
Si Si7 0.922800 0.662524 0.152417
O O1 0.750000 0.419657 0.373810
O O2 0.974021 0.458233 0.245736
O O3 0.971850 0.374801 0.263501
O O4 0.000000 0.421087 0.500000
O O5 0.250000 0.895830 0.140486
O O6 0.051355 0.954276 0.232367
O O7 0.994759 0.868714 0.233977
O O8 0.000000 0.909480 0.000000
O O9 0.750000 0.500000 0.127278
O O10 0.000000 0.500000 0.000000
O O11 0.750000 0.000000 0.900722
O O12 0.000000 0.000000 0.000000
O O13 0.750000 0.152616 0.364497
O O14 0.955725 0.211389 0.306088
O O15 0.000000 0.150234 0.500000
O O16 0.500000 0.273856 0.500000
O O17 0.750000 0.267549 0.384242
O O18 0.527308 0.291646 0.222003
O O19 0.750000 0.660826 0.123682
O O20 0.000000 0.655701 0.000000
#
# Coordination Sequence:
#
# PCOD8209288 Si02
#       7
#     8   8   4   4   8   8   8
#     4  10  21  36  55  79 107 138 177 217 257 308
#     4  10  19  33  53  77 103 133 169 210 254 303
#     4  10  21  36  54  80 110 140 175 218 262 308
#     4   8  16  30  49  72  99 130 166 206 250 300
#     4  10  20  35  53  75 103 135 170 211 257 307
#     4   9  19  35  54  75 100 131 170 210 252 304
#     4  10  21  36  53  77 106 136 171 213 257 305
#
# _framework density 18.541145
#
# number of rings (size 3 to 8) (size 9 to 14) (size 15 to 20)
#    0.000    2.333    0.000    2.250    0.000    4.000 
#    0.000    2.083    0.000    0.000    0.000    0.000 
#    0.000    0.000    0.000    0.000    0.000    0.000 
#
# Total GULP energy -594997.630620 kJ/mol
# GULP energy per Si atom -12395.783971 kJ/mol
# Density = 1.849894 g / cm^3
# Si number density = 18.541145 Si / 1000 Ang^3
#
#
#
# Elastic Constant Matrix: (Units=GPa)
#
#
# Indices 1 2 3 4 5 6 
#
# 1 68.2027 48.7131 52.8785 0.0000 0.0000 0.0000
# 2 48.7131 133.0140 78.1067 0.0000 0.0000 0.0000
# 3 52.8785 78.1067 131.7354 0.0000 0.0000 0.0000
# 4 0.0000 0.0000 0.0000 9.6365 0.0000 0.0000
# 5 0.0000 0.0000 0.0000 0.0000 38.9235 0.0000
# 6 0.0000 0.0000 0.0000 0.0000 0.0000 23.9712
#
#
#
# Elastic Compliance Matrix: (Units=1/GPa)
#
#
# Indices 1 2 3 4 5 6 
#
# 1 0.022988 -0.004603 -0.006498 0.000000 0.000000 0.000000
# 2 -0.004603 0.012455 -0.005537 0.000000 0.000000 0.000000
# 3 -0.006498 -0.005537 0.013482 0.000000 0.000000 0.000000
# 4 0.000000 0.000000 0.000000 0.103772 0.000000 0.000000
# 5 0.000000 0.000000 0.000000 0.000000 0.025691 0.000000
# 6 0.000000 0.000000 0.000000 0.000000 0.000000 0.041717
#
#
# Mechanical properties :
#
#
# Convention : Reuss Voigt Hill
#
# Bulk Modulus (GPa) = 63.90244 76.92764 70.41504
# Shear Modulus (GPa) = 19.33499 24.72317 22.02908
#
# Velocity S-wave (km/s) = 3.23277 3.65557 3.45065
# Velocity P-wave (km/s) = 6.96236 7.70700 7.34412
#
# Compressibility (1/GPa) = 0.01564886
#
# Stress axis : x y z
#
# Youngs Moduli (GPa) = 43.50103 80.28801 74.17115
#
# Poissons Ratio (x) = 0.36956 0.48198
# Poissons Ratio (y) = 0.20023 0.41069
# Poissons Ratio (z) = 0.28268 0.44456
#
# Static dielectric constant tensor:
#      x y z
#    x 3.441860 0.000000 0.000000 
#    y 0.000000 3.946340 0.000000 
#    z 0.000000 0.000000 3.103940 
# 
# 
# High freq. dielectric constant tensor:
#      x y z
#    x 1.721160 0.000000 0.000000 
#    y 0.000000 1.743150 0.000000 
#    z 0.000000 0.000000 1.703550 
# 
# From -- ./inp_files/6186.got.cif
#   From: 2010.03.12/outbox.cif.g09.slc.cpg/sg51_4_cif.got.tgz:6186.got - 2010.04.16 13:43:02.
