data_PCOD8209830
_publ_section_title
;
Structure prediction by ZEFSAII (Michael W. Deem and Ramdas Pophale) SiO2 
 PCOD8209830
Probable space group: P M M A
;
_chemical_formula_sum "Si O2"
_cell_formula_units_Z 64
_cell_length_a 25.350994
_cell_length_b 9.074502
_cell_length_c 14.359376
_cell_angle_alpha 90.000000
_cell_angle_beta 90.000000
_cell_angle_gamma 90.000000
_cell_volume 3303.340643
_symmetry_space_group_name_H-M "P M M A"
_symmetry_group_IT_number 51
_symmetry_cell_setting 'orthorhombic'
loop_
_space_group_symop_operation_xyz
x,y,z
1/2-x,-y,z
1/2+x,-y,-z
-x,y,-z
-x,-y,-z
1/2+x,y,-z
1/2-x,y,z
x,-y,z
loop_
_atom_site_type_symbol
_atom_site_label
_atom_site_fract_x
_atom_site_fract_y
_atom_site_fract_z
Si Si1 0.310679 0.171233 0.286322
Si Si2 0.352533 0.173735 0.087503
Si Si3 0.970988 0.826684 0.910611
Si Si4 0.098747 0.829471 0.588821
Si Si5 0.901065 0.325378 0.604733
Si Si6 0.810351 0.829005 0.272865
Si Si7 0.687942 0.663394 0.091432
Si Si8 0.503849 0.829066 0.707048
O O1 0.250000 0.202004 0.311258
O O2 0.321185 0.220124 0.180200
O O3 0.345927 0.265030 0.356486
O O4 0.325324 0.000000 0.299254
O O5 0.411810 0.235291 0.096779
O O6 0.350510 0.000000 0.072431
O O7 0.325363 0.246485 0.999869
O O8 0.002339 0.788141 0.816105
O O9 0.967783 0.000000 0.925615
O O10 0.000000 0.754044 0.000000
O O11 0.091556 0.726135 0.500708
O O12 0.154085 0.790541 0.637881
O O13 0.051473 0.793397 0.659381
O O14 0.097057 0.000000 0.557503
O O15 0.900315 0.500000 0.608452
O O16 0.949830 0.267787 0.664487
O O17 0.750000 0.785380 0.296867
O O18 0.833689 0.742730 0.184060
O O19 0.815054 0.000000 0.247406
O O20 0.750000 0.655165 0.100612
O O21 0.663254 0.500000 0.085466
O O22 0.519916 0.000000 0.695134
#
# Coordination Sequence:
#
# PCOD8209830 Si02
#       8
#     8   8   8   8   8   8   8   8
#     4  10  21  39  63  88 115 153 202 251 297 347
#     4  10  19  34  59  85 113 147 192 242 286 338
#     4   9  18  32  57  90 119 147 183 236 293 339
#     4  10  22  38  63  90 113 149 200 250 296 346
#     4  12  25  40  59  85 121 156 191 239 301 362
#     4   9  19  37  60  87 116 146 188 241 290 340
#     4  10  21  35  52  78 115 155 188 223 275 340
#     4  10  20  39  63  86 115 152 198 245 289 344
#
# _framework density 19.374326
#
# number of rings (size 3 to 8) (size 9 to 14) (size 15 to 20)
#    0.000    2.000    1.250    2.250    1.750    5.000 
#    0.000    1.250    0.000    0.750    0.000    0.000 
#    0.000    0.000    0.000    0.000    0.000    0.000 
#
# Total GULP energy -793721.566038 kJ/mol
# GULP energy per Si atom -12401.899469 kJ/mol
# Density = 1.933023 g / cm^3
# Si number density = 19.374326 Si / 1000 Ang^3
#
#
#
# Elastic Constant Matrix: (Units=GPa)
#
#
# Indices 1 2 3 4 5 6 
#
# 1 95.1700 40.8351 49.3964 0.0000 0.0000 0.0000
# 2 40.8351 69.5143 49.5293 0.0000 0.0000 0.0000
# 3 49.3964 49.5293 133.5527 0.0000 0.0000 0.0000
# 4 0.0000 0.0000 0.0000 1.6739 0.0000 0.0000
# 5 0.0000 0.0000 0.0000 0.0000 31.1725 0.0000
# 6 0.0000 0.0000 0.0000 0.0000 0.0000 14.1278
#
#
#
# Elastic Compliance Matrix: (Units=1/GPa)
#
#
# Indices 1 2 3 4 5 6 
#
# 1 0.014928 -0.006572 -0.003084 0.000000 0.000000 0.000000
# 2 -0.006572 0.022445 -0.005893 0.000000 0.000000 0.000000
# 3 -0.003084 -0.005893 0.010814 0.000000 0.000000 0.000000
# 4 0.000000 0.000000 0.000000 0.597424 0.000000 0.000000
# 5 0.000000 0.000000 0.000000 0.000000 0.032080 0.000000
# 6 0.000000 0.000000 0.000000 0.000000 0.000000 0.070783
#
#
# Mechanical properties :
#
#
# Convention : Reuss Voigt Hill
#
# Bulk Modulus (GPa) = 58.51847 64.19540 61.35694
# Shear Modulus (GPa) = 6.36725 19.95991 13.16358
#
# Velocity S-wave (km/s) = 1.81482 3.21319 2.60942
# Velocity P-wave (km/s) = 5.88737 6.85364 6.38880
#
# Compressibility (1/GPa) = 0.01708862
#
# Stress axis : x y z
#
# Youngs Moduli (GPa) = 66.98778 44.55334 92.47295
#
# Poissons Ratio (x) = 0.29280 0.28520
# Poissons Ratio (y) = 0.44023 0.54497
# Poissons Ratio (z) = 0.20660 0.26256
#
# Static dielectric constant tensor:
#      x y z
#    x 3.682540 0.000000 0.000000 
#    y 0.000000 3.429940 0.000000 
#    z 0.000000 0.000000 3.619930 
# 
# 
# High freq. dielectric constant tensor:
#      x y z
#    x 1.759660 0.000000 0.000000 
#    y 0.000000 1.727830 0.000000 
#    z 0.000000 0.000000 1.764990 
# 
# From -- ./inp_files/26290.got.cif
#   From: 2010.03.12/outbox.cif.g09.slc.cpg/sg51_14_cif.got.tgz:26290.got - 2010.04.16 13:43:02.
