data_PCOD8209062
_publ_section_title
;
Structure prediction by ZEFSAII (Michael W. Deem and Ramdas Pophale) SiO2 
 PCOD8209062
Probable space group: P M M A
;
_chemical_formula_sum "Si O2"
_cell_formula_units_Z 64
_cell_length_a 24.018730
_cell_length_b 8.986105
_cell_length_c 16.231762
_cell_angle_alpha 90.000000
_cell_angle_beta 90.000000
_cell_angle_gamma 90.000000
_cell_volume 3503.379588
_symmetry_space_group_name_H-M "P M M A"
_symmetry_group_IT_number 51
_symmetry_cell_setting 'orthorhombic'
loop_
_space_group_symop_operation_xyz
x,y,z
1/2-x,-y,z
1/2+x,-y,-z
-x,y,-z
-x,-y,-z
1/2+x,y,-z
1/2-x,y,z
x,-y,z
loop_
_atom_site_type_symbol
_atom_site_label
_atom_site_fract_x
_atom_site_fract_y
_atom_site_fract_z
Si Si1 0.611986 0.829249 0.115045
Si Si2 0.687551 0.829800 0.812974
Si Si3 0.060679 0.175427 0.472788
Si Si4 0.919696 0.173989 0.711876
Si Si5 0.474405 0.676565 0.774362
Si Si6 0.313272 0.324869 0.017077
Si Si7 0.313108 0.167542 0.728719
Si Si8 0.895858 0.327090 0.374534
O O1 0.556104 0.745816 0.145658
O O2 0.638595 0.754975 0.034750
O O3 0.658499 0.813997 0.183845
O O4 0.596678 0.000000 0.095672
O O5 0.750000 0.804949 0.777156
O O6 0.642977 0.792843 0.741798
O O7 0.680418 0.000000 0.843305
O O8 0.676590 0.720812 0.888809
O O9 0.075253 0.233621 0.381616
O O10 0.102523 0.245551 0.538183
O O11 0.000000 0.231159 0.500000
O O12 0.066332 0.000000 0.477570
O O13 0.962958 0.261423 0.770117
O O14 0.934686 0.000000 0.716273
O O15 0.474458 0.500000 0.784366
O O16 0.443418 0.726904 0.689899
O O17 0.250000 0.278347 0.990732
O O18 0.321290 0.500000 0.007726
O O19 0.250000 0.210118 0.743317
O O20 0.336547 0.284884 0.663523
O O21 0.321222 0.000000 0.694693
O O22 0.900349 0.500000 0.390698
#
# Coordination Sequence:
#
# PCOD8209062 Si02
#       8
#     8   8   8   8   8   8   8   8
#     4  10  19  32  53  79 108 140 179 221 261 308
#     4   9  19  37  59  80 103 133 173 220 266 313
#     4  10  19  32  53  78 105 135 174 220 263 311
#     4  10  20  35  56  80 104 136 177 220 267 318
#     4  10  20  33  50  76 110 143 174 213 265 318
#     4  10  20  34  54  80 109 140 176 218 264 314
#     4   9  18  32  50  72 101 139 178 213 254 307
#     4  10  20  32  48  73 105 138 173 215 261 310
#
# _framework density 18.268075
#
# number of rings (size 3 to 8) (size 9 to 14) (size 15 to 20)
#    0.000    2.250    1.250    1.875    0.000    4.250 
#    0.000    1.250    0.000    6.000    0.000    0.000 
#    0.000    0.000    0.000    0.000    0.000    0.000 
#
# Total GULP energy -793621.515821 kJ/mol
# GULP energy per Si atom -12400.336185 kJ/mol
# Density = 1.822650 g / cm^3
# Si number density = 18.268075 Si / 1000 Ang^3
#
#
#
# Elastic Constant Matrix: (Units=GPa)
#
#
# Indices 1 2 3 4 5 6 
#
# 1 107.5718 35.7544 51.4098 0.0000 0.0000 0.0000
# 2 35.7544 58.4934 34.9152 0.0000 0.0000 0.0000
# 3 51.4098 34.9152 90.3780 0.0000 0.0000 0.0000
# 4 0.0000 0.0000 0.0000 21.2837 0.0000 0.0000
# 5 0.0000 0.0000 0.0000 0.0000 28.1640 0.0000
# 6 0.0000 0.0000 0.0000 0.0000 0.0000 21.2704
#
#
#
# Elastic Compliance Matrix: (Units=1/GPa)
#
#
# Indices 1 2 3 4 5 6 
#
# 1 0.013752 -0.004857 -0.005946 0.000000 0.000000 0.000000
# 2 -0.004857 0.023935 -0.006484 0.000000 0.000000 0.000000
# 3 -0.005946 -0.006484 0.016952 0.000000 0.000000 0.000000
# 4 0.000000 0.000000 0.000000 0.046984 0.000000 0.000000
# 5 0.000000 0.000000 0.000000 0.000000 0.035506 0.000000
# 6 0.000000 0.000000 0.000000 0.000000 0.000000 0.047014
#
#
# Mechanical properties :
#
#
# Convention : Reuss Voigt Hill
#
# Bulk Modulus (GPa) = 49.83795 55.62245 52.73020
# Shear Modulus (GPa) = 22.18216 23.10120 22.64168
#
# Velocity S-wave (km/s) = 3.48840 3.55993 3.52435
# Velocity P-wave (km/s) = 6.60045 6.88560 6.74453
#
# Compressibility (1/GPa) = 0.02006503
#
# Stress axis : x y z
#
# Youngs Moduli (GPa) = 72.71546 41.77980 58.98971
#
# Poissons Ratio (x) = 0.20291 0.35078
# Poissons Ratio (y) = 0.35315 0.38249
# Poissons Ratio (z) = 0.43240 0.27090
#
# Static dielectric constant tensor:
#      x y z
#    x 3.366360 0.000000 0.000000 
#    y 0.000000 3.326520 0.000000 
#    z 0.000000 0.000000 3.257310 
# 
# 
# High freq. dielectric constant tensor:
#      x y z
#    x 1.701290 0.000000 0.000000 
#    y 0.000000 1.708950 0.000000 
#    z 0.000000 0.000000 1.694310 
# 
# From -- ./inp_files/26229.got.cif
#   From: 2010.03.12/outbox.cif.g09.slc.cpg/sg51_14_cif.got.tgz:26229.got - 2010.04.16 13:43:02.
