data_PCOD8209029
_publ_section_title
;
Structure prediction by ZEFSAII (Michael W. Deem and Ramdas Pophale) SiO2 
 PCOD8209029
Probable space group: P M M A
;
_chemical_formula_sum "Si O2"
_cell_formula_units_Z 64
_cell_length_a 17.535758
_cell_length_b 15.595968
_cell_length_c 12.144220
_cell_angle_alpha 90.000000
_cell_angle_beta 90.000000
_cell_angle_gamma 90.000000
_cell_volume 3321.287760
_symmetry_space_group_name_H-M "P M M A"
_symmetry_group_IT_number 51
_symmetry_cell_setting 'orthorhombic'
loop_
_space_group_symop_operation_xyz
x,y,z
1/2-x,-y,z
1/2+x,-y,-z
-x,y,-z
-x,-y,-z
1/2+x,y,-z
1/2-x,y,z
x,-y,z
loop_
_atom_site_type_symbol
_atom_site_label
_atom_site_fract_x
_atom_site_fract_y
_atom_site_fract_z
Si Si1 0.834369 0.670937 0.782972
Si Si2 0.066711 0.594389 0.573763
Si Si3 0.336868 0.180271 0.383209
Si Si4 0.064500 0.230718 0.831831
Si Si5 0.164295 0.815346 0.038568
Si Si6 0.837755 0.252295 0.385604
Si Si7 0.431687 0.903695 0.207959
Si Si8 0.007853 0.593034 0.191128
O O1 0.750000 0.627606 0.775470
O O2 0.849809 0.727770 0.674516
O O3 0.901033 0.601120 0.791724
O O4 0.837749 0.728620 0.891739
O O5 0.089093 0.500000 0.528333
O O6 0.141785 0.652862 0.570611
O O7 0.000000 0.636364 0.500000
O O8 0.034655 0.587259 0.694764
O O9 0.250000 0.150184 0.362840
O O10 0.353515 0.186452 0.513901
O O11 0.393466 0.111730 0.327719
O O12 0.117804 0.197316 0.927494
O O13 0.110505 0.229834 0.718096
O O14 0.996742 0.164713 0.815374
O O15 0.029526 0.323733 0.868245
O O16 0.250000 0.840267 0.005402
O O17 0.130541 0.892837 0.111287
O O18 0.750000 0.250938 0.349406
O O19 0.464530 0.000000 0.205244
O O20 0.994331 0.500000 0.130372
#
# Coordination Sequence:
#
# PCOD8209029 Si02
#       8
#     8   8   8   8   8   8   8   8
#     4   9  17  32  53  78 109 148 191 241 288 331
#     4   9  18  30  49  79 115 151 197 249 289 331
#     4   9  18  35  57  83 115 147 188 235 285 344
#     4  11  22  38  58  84 122 151 191 243 283 338
#     4  10  21  38  61  84 114 149 186 235 291 343
#     4  10  21  35  57  82 113 163 199 227 287 346
#     4  11  23  39  64  92 112 143 188 237 296 349
#     4  10  19  32  52  80 113 157 198 233 285 338
#
# _framework density 19.269634
#
# number of rings (size 3 to 8) (size 9 to 14) (size 15 to 20)
#    0.000    2.125    2.500    2.625    1.750    2.500 
#    0.000    2.500    0.000    8.250    0.000    0.000 
#    0.000    0.000    0.000    0.000    0.000    0.000 
#
# Total GULP energy -793206.557716 kJ/mol
# GULP energy per Si atom -12393.852464 kJ/mol
# Density = 1.922578 g / cm^3
# Si number density = 19.269634 Si / 1000 Ang^3
#
#
#
# Elastic Constant Matrix: (Units=GPa)
#
#
# Indices 1 2 3 4 5 6 
#
# 1 110.1305 43.1099 33.3396 0.0000 0.0000 0.0000
# 2 43.1099 98.4836 21.1960 0.0000 0.0000 0.0000
# 3 33.3396 21.1960 70.8766 0.0000 0.0000 0.0000
# 4 0.0000 0.0000 0.0000 21.7378 0.0000 0.0000
# 5 0.0000 0.0000 0.0000 0.0000 31.0938 0.0000
# 6 0.0000 0.0000 0.0000 0.0000 0.0000 6.4296
#
#
#
# Elastic Compliance Matrix: (Units=1/GPa)
#
#
# Indices 1 2 3 4 5 6 
#
# 1 0.012117 -0.004358 -0.004396 0.000000 0.000000 0.000000
# 2 -0.004358 0.012420 -0.001664 0.000000 0.000000 0.000000
# 3 -0.004396 -0.001664 0.016675 0.000000 0.000000 0.000000
# 4 0.000000 0.000000 0.000000 0.046003 0.000000 0.000000
# 5 0.000000 0.000000 0.000000 0.000000 0.032161 0.000000
# 6 0.000000 0.000000 0.000000 0.000000 0.000000 0.155532
#
#
# Mechanical properties :
#
#
# Convention : Reuss Voigt Hill
#
# Bulk Modulus (GPa) = 49.08140 52.75352 50.91746
# Shear Modulus (GPa) = 16.52699 23.97523 20.25111
#
# Velocity S-wave (km/s) = 2.93178 3.53114 3.24533
# Velocity P-wave (km/s) = 6.08166 6.63786 6.36584
#
# Compressibility (1/GPa) = 0.02037432
#
# Stress axis : x y z
#
# Youngs Moduli (GPa) = 82.52936 80.51692 59.97073
#
# Poissons Ratio (x) = 0.35088 0.26366
# Poissons Ratio (y) = 0.35965 0.09981
# Poissons Ratio (z) = 0.36284 0.13401
#
# Static dielectric constant tensor:
#      x y z
#    x 3.677470 0.000000 0.000000 
#    y 0.000000 3.641950 0.000000 
#    z 0.000000 0.000000 4.011200 
# 
# 
# High freq. dielectric constant tensor:
#      x y z
#    x 1.756580 0.000000 0.000000 
#    y 0.000000 1.721660 0.000000 
#    z 0.000000 0.000000 1.746860 
# 
# From -- ./inp_files/17569.got.cif
#   From: 2010.03.12/outbox.cif.g09.slc.cpg/sg51_9_cif.got.tgz:17569.got - 2010.04.16 13:43:02.
