data_PCOD8209595
_publ_section_title
;
Structure prediction by ZEFSAII (Michael W. Deem and Ramdas Pophale) SiO2 
 PCOD8209595
Probable space group: P M M A
;
_chemical_formula_sum "Si O2"
_cell_formula_units_Z 40
_cell_length_a 26.102381
_cell_length_b 8.360182
_cell_length_c 9.008765
_cell_angle_alpha 90.000000
_cell_angle_beta 90.000000
_cell_angle_gamma 90.000000
_cell_volume 1965.898606
_symmetry_space_group_name_H-M "P M M A"
_symmetry_group_IT_number 51
_symmetry_cell_setting 'orthorhombic'
loop_
_space_group_symop_operation_xyz
x,y,z
1/2-x,-y,z
1/2+x,-y,-z
-x,y,-z
-x,-y,-z
1/2+x,y,-z
1/2-x,y,z
x,-y,z
loop_
_atom_site_type_symbol
_atom_site_label
_atom_site_fract_x
_atom_site_fract_y
_atom_site_fract_z
Si Si1 0.550362 0.309109 0.582255
Si Si2 0.250000 0.815569 0.094526
Si Si3 0.250000 0.312955 0.419188
Si Si4 0.949907 0.309756 0.917224
Si Si5 0.849513 0.309646 0.417237
Si Si6 0.346796 0.689725 0.922026
O O1 0.500000 0.243464 0.500000
O O2 0.550551 0.500000 0.582445
O O3 0.551134 0.242899 0.749906
O O4 0.599725 0.241134 0.495974
O O5 0.250000 0.714359 0.244490
O O6 0.250000 0.000000 0.138166
O O7 0.299845 0.775248 0.000325
O O8 0.250000 0.500000 0.450590
O O9 0.199548 0.238248 0.496032
O O10 0.952190 0.500000 0.916509
O O11 0.899164 0.251588 0.001817
O O12 0.000000 0.240473 0.000000
O O13 0.850258 0.500000 0.425335
O O14 0.848078 0.252466 0.247698
O O15 0.339577 0.500000 0.935445
#
# Coordination Sequence:
#
# PCOD8209595 Si02
#       6
#     8   4   4   8   8   8
#     4   9  15  23  37  64 105 141 165 198 247 298
#     4  12  25  38  52  74 104 136 175 218 262 310
#     4  10  19  34  54  74  98 128 167 212 260 310
#     4   9  16  26  45  76 109 138 169 208 253 301
#     4   9  17  29  49  76 101 130 169 211 253 302
#     4  10  19  34  56  79 105 137 174 214 259 309
#
# _framework density 20.34693
#
# number of rings (size 3 to 8) (size 9 to 14) (size 15 to 20)
#    0.000    2.400    0.000    3.900    0.000    9.600 
#    0.000    2.000    0.000    0.600    0.000    0.000 
#    0.000    7.200    0.000    0.000    0.000    0.000 
#
# Total GULP energy -496038.001484 kJ/mol
# GULP energy per Si atom -12400.950037 kJ/mol
# Density = 2.030062 g / cm^3
# Si number density = 20.346930 Si / 1000 Ang^3
#
#
#
# Elastic Constant Matrix: (Units=GPa)
#
#
# Indices 1 2 3 4 5 6 
#
# 1 220.0523 8.4113 107.2048 0.0000 0.0000 0.0000
# 2 8.4113 11.8610 -0.8253 0.0000 0.0000 0.0000
# 3 107.2048 -0.8253 195.0731 0.0000 0.0000 0.0000
# 4 0.0000 0.0000 0.0000 0.8725 0.0000 0.0000
# 5 0.0000 0.0000 0.0000 0.0000 50.8316 0.0000
# 6 0.0000 0.0000 0.0000 0.0000 0.0000 -1.0788
#
#
#
# Elastic Compliance Matrix: (Units=1/GPa)
#
#
# Indices 1 2 3 4 5 6 
#
# 1 0.006472 -0.004839 -0.003577 0.000000 0.000000 0.000000
# 2 -0.004839 0.087952 0.003031 0.000000 0.000000 0.000000
# 3 -0.003577 0.003031 0.007105 0.000000 0.000000 0.000000
# 4 0.000000 0.000000 0.000000 1.146121 0.000000 0.000000
# 5 0.000000 0.000000 0.000000 0.000000 0.019673 0.000000
# 6 0.000000 0.000000 0.000000 0.000000 0.000000 -0.926956
#
#
# Mechanical properties :
#
#
# Convention : Reuss Voigt Hill
#
# Bulk Modulus (GPa) = 11.01810 72.95201 41.98505
# Shear Modulus (GPa) = 13.10994 30.93810 22.02402
#
# Velocity S-wave (km/s) = 2.54110 3.90363 3.29359
# Velocity P-wave (km/s) = 3.74653 7.49998 5.92816
#
# Compressibility (1/GPa) = 0.09075978
#
# Stress axis : x y z
#
# Youngs Moduli (GPa) = 154.50908 11.36983 140.74489
#
# Poissons Ratio (x) = 0.05501 0.50349
# Poissons Ratio (y) = 0.74761 -0.42663
# Poissons Ratio (z) = 0.55273 -0.03446
#
# Static dielectric constant tensor:
#      x y z
#    x 4.235920 0.000000 0.000000 
#    y 0.000000 2.866430 0.000000 
#    z 0.000000 0.000000 3.885370 
# 
# 
# High freq. dielectric constant tensor:
#      x y z
#    x 1.817790 0.000000 0.000000 
#    y 0.000000 1.717940 0.000000 
#    z 0.000000 0.000000 1.814360 
# 
# From -- ./inp_files/12166.got.cif
#   From: 2010.03.12/outbox.cif.g09.slc.cpg/sg51_7_cif.got.tgz:12166.got - 2010.04.16 13:43:02.
