data_PCOD8209949
_publ_section_title
;
Structure prediction by ZEFSAII (Michael W. Deem and Ramdas Pophale) SiO2 
 PCOD8209949
Probable space group: P M M A
;
_chemical_formula_sum "Si O2"
_cell_formula_units_Z 48
_cell_length_a 28.029095
_cell_length_b 9.180037
_cell_length_c 10.180895
_cell_angle_alpha 90.000000
_cell_angle_beta 90.000000
_cell_angle_gamma 90.000000
_cell_volume 2619.627046
_symmetry_space_group_name_H-M "P M M A"
_symmetry_group_IT_number 51
_symmetry_cell_setting 'orthorhombic'
loop_
_space_group_symop_operation_xyz
x,y,z
1/2-x,-y,z
1/2+x,-y,-z
-x,y,-z
-x,-y,-z
1/2+x,y,-z
1/2-x,y,z
x,-y,z
loop_
_atom_site_type_symbol
_atom_site_label
_atom_site_fract_x
_atom_site_fract_y
_atom_site_fract_z
Si Si1 0.142525 0.327795 0.737292
Si Si2 0.446938 0.827434 0.655279
Si Si3 0.804744 0.666399 0.525808
Si Si4 0.850764 0.172143 0.760063
Si Si5 0.447742 0.828016 0.357654
Si Si6 0.805703 0.168837 0.032131
O O1 0.138843 0.500000 0.753719
O O2 0.090127 0.256165 0.749085
O O3 0.164301 0.280834 0.597642
O O4 0.177015 0.266588 0.848475
O O5 0.439319 0.771901 0.505859
O O6 0.500603 0.779692 0.698412
O O7 0.438998 0.000000 0.670341
O O8 0.750000 0.687000 0.485898
O O9 0.816508 0.500000 0.561027
O O10 0.815667 0.762449 0.652240
O O11 0.905097 0.228339 0.735902
O O12 0.847252 0.000000 0.745597
O O13 0.834187 0.222231 0.903450
O O14 0.447997 0.000000 0.366343
O O15 0.750000 0.195795 0.007660
O O16 0.816276 0.000000 0.062898
#
# Coordination Sequence:
#
# PCOD8209949 Si02
#       6
#     8   8   8   8   8   8
#     4  11  22  36  54  78 108 145 184 222 266 316
#     4   9  16  31  55  82 110 141 176 218 267 322
#     4  10  21  35  51  75 106 137 174 220 268 320
#     4  10  19  35  58  83 107 135 176 224 271 319
#     4   8  15  29  54  84 111 138 171 216 272 324
#     4  10  22  38  55  77 106 141 181 223 268 321
#
# _framework density 18.323219000000002
#
# number of rings (size 3 to 8) (size 9 to 14) (size 15 to 20)
#    0.000    2.333    1.667    2.500    0.000    3.333 
#    0.000    3.333    0.000    5.000    0.000    0.000 
#    0.000    0.000    0.000    0.000    0.000    0.000 
#
# Total GULP energy -595167.203483 kJ/mol
# GULP energy per Si atom -12399.316739 kJ/mol
# Density = 1.828151 g / cm^3
# Si number density = 18.323219 Si / 1000 Ang^3
#
#
#
# Elastic Constant Matrix: (Units=GPa)
#
#
# Indices 1 2 3 4 5 6 
#
# 1 112.0766 33.3026 32.7445 0.0000 0.0000 0.0000
# 2 33.3026 49.3475 36.4145 0.0000 0.0000 0.0000
# 3 32.7445 36.4145 74.1468 0.0000 0.0000 0.0000
# 4 0.0000 0.0000 0.0000 23.3087 0.0000 0.0000
# 5 0.0000 0.0000 0.0000 0.0000 35.7228 0.0000
# 6 0.0000 0.0000 0.0000 0.0000 0.0000 9.3570
#
#
#
# Elastic Compliance Matrix: (Units=1/GPa)
#
#
# Indices 1 2 3 4 5 6 
#
# 1 0.011339 -0.006206 -0.001960 0.000000 0.000000 0.000000
# 2 -0.006206 0.035179 -0.014536 0.000000 0.000000 0.000000
# 3 -0.001960 -0.014536 0.021491 0.000000 0.000000 0.000000
# 4 0.000000 0.000000 0.000000 0.042902 0.000000 0.000000
# 5 0.000000 0.000000 0.000000 0.000000 0.027993 0.000000
# 6 0.000000 0.000000 0.000000 0.000000 0.000000 0.106872
#
#
# Mechanical properties :
#
#
# Convention : Reuss Voigt Hill
#
# Bulk Modulus (GPa) = 44.23730 48.94380 46.59055
# Shear Modulus (GPa) = 16.73827 22.55165 19.64496
#
# Velocity S-wave (km/s) = 3.02570 3.51204 3.27790
# Velocity P-wave (km/s) = 6.03338 6.57383 6.30939
#
# Compressibility (1/GPa) = 0.02260536
#
# Stress axis : x y z
#
# Youngs Moduli (GPa) = 88.19018 28.42570 46.53087
#
# Poissons Ratio (x) = 0.17642 0.09118
# Poissons Ratio (y) = 0.54733 0.67639
# Poissons Ratio (z) = 0.17281 0.41320
#
# Static dielectric constant tensor:
#      x y z
#    x 3.757740 0.000000 0.000000 
#    y 0.000000 3.126280 0.000000 
#    z 0.000000 0.000000 3.242740 
# 
# 
# High freq. dielectric constant tensor:
#      x y z
#    x 1.729460 0.000000 0.000000 
#    y 0.000000 1.687500 0.000000 
#    z 0.000000 0.000000 1.691450 
# 
# From -- ./inp_files/12767.got.cif
#   From: 2010.03.12/outbox.cif.g09.slc.cpg/sg51_7_cif.got.tgz:12767.got - 2010.04.16 13:43:02.
