data_PCOD8209519
_publ_section_title
;
Structure prediction by ZEFSAII (Michael W. Deem and Ramdas Pophale) SiO2 
 PCOD8209519
Probable space group: P M M A
;
_chemical_formula_sum "Si O2"
_cell_formula_units_Z 48
_cell_length_a 18.345696
_cell_length_b 9.179615
_cell_length_c 13.833201
_cell_angle_alpha 90.000000
_cell_angle_beta 90.000000
_cell_angle_gamma 90.000000
_cell_volume 2329.599943
_symmetry_space_group_name_H-M "P M M A"
_symmetry_group_IT_number 51
_symmetry_cell_setting 'orthorhombic'
loop_
_space_group_symop_operation_xyz
x,y,z
1/2-x,-y,z
1/2+x,-y,-z
-x,y,-z
-x,-y,-z
1/2+x,y,-z
1/2-x,y,z
x,-y,z
loop_
_atom_site_type_symbol
_atom_site_label
_atom_site_fract_x
_atom_site_fract_y
_atom_site_fract_z
Si Si1 0.664045 0.167115 0.484139
Si Si2 0.608134 0.832744 0.121219
Si Si3 0.835110 0.338955 0.298919
Si Si4 0.550303 0.670702 0.591221
Si Si5 0.540836 0.167434 0.782059
Si Si6 0.832236 0.173032 0.917050
O O1 0.750000 0.181747 0.496461
O O2 0.633831 0.241620 0.386182
O O3 0.627685 0.249275 0.574711
O O4 0.639210 0.000000 0.481734
O O5 0.650962 0.736498 0.197675
O O6 0.521379 0.817671 0.136031
O O7 0.633061 0.000000 0.134235
O O8 0.631641 0.771820 0.016760
O O9 0.750000 0.356235 0.313650
O O10 0.871921 0.500000 0.303534
O O11 0.500000 0.709665 0.500000
O O12 0.562909 0.500000 0.602215
O O13 0.517427 0.733892 0.690863
O O14 0.616652 0.225235 0.828472
O O15 0.548096 0.000000 0.748222
O O16 0.750000 0.235456 0.904739
O O17 0.830886 0.000000 0.918229
#
# Coordination Sequence:
#
# PCOD8209519 Si02
#       6
#     8   8   8   8   8   8
#     4  10  21  37  58  83 110 144 189 238 287 341
#     4  10  19  33  56  83 111 145 186 232 280 331
#     4  10  20  33  51  79 115 150 184 228 282 337
#     4  11  24  40  58  82 114 152 192 234 284 341
#     4  10  21  36  56  83 113 145 186 236 284 330
#     4   9  18  34  57  84 113 146 186 231 278 330
#
# _framework density 20.604395
#
# number of rings (size 3 to 8) (size 9 to 14) (size 15 to 20)
#    0.000    2.000    0.000    3.500    0.000   10.000 
#    0.000    2.500    0.000    3.000    0.000    0.000 
#    0.000    0.000    0.000    0.000    0.000    0.000 
#
# Total GULP energy -595263.043860 kJ/mol
# GULP energy per Si atom -12401.313414 kJ/mol
# Density = 2.055750 g / cm^3
# Si number density = 20.604395 Si / 1000 Ang^3
#
#
#
# Elastic Constant Matrix: (Units=GPa)
#
#
# Indices 1 2 3 4 5 6 
#
# 1 78.4800 34.5210 40.6022 0.0000 0.0000 0.0000
# 2 34.5210 99.1042 38.6255 0.0000 0.0000 0.0000
# 3 40.6022 38.6255 96.7555 0.0000 0.0000 0.0000
# 4 0.0000 0.0000 0.0000 10.1636 0.0000 0.0000
# 5 0.0000 0.0000 0.0000 0.0000 39.5664 0.0000
# 6 0.0000 0.0000 0.0000 0.0000 0.0000 20.8327
#
#
#
# Elastic Compliance Matrix: (Units=1/GPa)
#
#
# Indices 1 2 3 4 5 6 
#
# 1 0.017411 -0.003810 -0.005785 0.000000 0.000000 0.000000
# 2 -0.003810 0.012783 -0.003504 0.000000 0.000000 0.000000
# 3 -0.005785 -0.003504 0.014162 0.000000 0.000000 0.000000
# 4 0.000000 0.000000 0.000000 0.098390 0.000000 0.000000
# 5 0.000000 0.000000 0.000000 0.000000 0.025274 0.000000
# 6 0.000000 0.000000 0.000000 0.000000 0.000000 0.048002
#
#
# Mechanical properties :
#
#
# Convention : Reuss Voigt Hill
#
# Bulk Modulus (GPa) = 55.07512 55.75966 55.41739
# Shear Modulus (GPa) = 20.13902 24.81859 22.47880
#
# Velocity S-wave (km/s) = 3.12975 3.47440 3.30657
# Velocity P-wave (km/s) = 6.31255 6.57389 6.44454
#
# Compressibility (1/GPa) = 0.01815702
#
# Stress axis : x y z
#
# Youngs Moduli (GPa) = 57.43463 78.22676 70.61123
#
# Poissons Ratio (x) = 0.29804 0.40851
# Poissons Ratio (y) = 0.21883 0.24745
# Poissons Ratio (z) = 0.33228 0.27414
#
# Static dielectric constant tensor:
#      x y z
#    x 3.855230 0.000000 0.000000 
#    y 0.000000 3.626040 0.000000 
#    z 0.000000 0.000000 3.706700 
# 
# 
# High freq. dielectric constant tensor:
#      x y z
#    x 1.813760 0.000000 0.000000 
#    y 0.000000 1.784730 0.000000 
#    z 0.000000 0.000000 1.803020 
# 
# From -- ./inp_files/24805.got.cif
#   From: 2010.03.12/outbox.cif.g09.slc.cpg/sg51_13_cif.got.tgz:24805.got - 2010.04.16 13:43:02.
