data_PCOD8209640
_publ_section_title
;
Structure prediction by ZEFSAII (Michael W. Deem and Ramdas Pophale) SiO2 
 PCOD8209640
Probable space group: P M M A
;
_chemical_formula_sum "Si O2"
_cell_formula_units_Z 56
_cell_length_a 14.665688
_cell_length_b 8.764589
_cell_length_c 22.476395
_cell_angle_alpha 90.000000
_cell_angle_beta 90.000000
_cell_angle_gamma 90.000000
_cell_volume 2889.087217
_symmetry_space_group_name_H-M "P M M A"
_symmetry_group_IT_number 51
_symmetry_cell_setting 'orthorhombic'
loop_
_space_group_symop_operation_xyz
x,y,z
1/2-x,-y,z
1/2+x,-y,-z
-x,y,-z
-x,-y,-z
1/2+x,y,-z
1/2-x,y,z
x,-y,z
loop_
_atom_site_type_symbol
_atom_site_label
_atom_site_fract_x
_atom_site_fract_y
_atom_site_fract_z
Si Si1 0.250000 0.318506 0.456927
Si Si2 0.919256 0.319452 0.332571
Si Si3 0.654698 0.174363 0.756143
Si Si4 0.465842 0.319408 0.910883
Si Si5 0.898236 0.825142 0.624434
Si Si6 0.038206 0.181699 0.788400
Si Si7 0.646421 0.680538 0.974650
Si Si8 0.750000 0.680655 0.408275
O O1 0.250000 0.500000 0.451945
O O2 0.341306 0.254042 0.427404
O O3 0.250000 0.258156 0.524522
O O4 0.920724 0.500000 0.325399
O O5 0.905018 0.247905 0.266776
O O6 0.837472 0.258659 0.373067
O O7 0.008340 0.264537 0.366838
O O8 0.750000 0.250768 0.779331
O O9 0.658094 0.184468 0.685084
O O10 0.564605 0.252110 0.782669
O O11 0.653101 0.000000 0.776806
O O12 0.464083 0.500000 0.902564
O O13 0.426400 0.238718 0.851915
O O14 0.570594 0.265626 0.925839
O O15 0.394635 0.268387 0.961778
O O16 0.918546 0.000000 0.607125
O O17 0.040761 0.000000 0.783854
O O18 0.750000 0.748198 0.964624
O O19 0.652819 0.500000 0.972772
O O20 0.750000 0.500000 0.409542
#
# Coordination Sequence:
#
# PCOD8209640 Si02
#       8
#     4   8   8   8   8   8   8   4
#     4  11  21  35  57  85 111 143 186 225 268 333
#     4  10  20  39  61  79 104 143 189 234 278 328
#     4   8  14  27  47  68  96 136 171 204 256 319
#     4   9  17  31  52  76 102 135 176 218 260 311
#     4  10  19  34  55  82 113 143 174 221 281 336
#     4  10  20  33  51  77 109 142 176 220 275 326
#     4   8  15  30  52  76 103 135 173 219 263 304
#     4   9  22  41  59  79 107 143 186 237 284 319
#
# _framework density 19.383284
#
# number of rings (size 3 to 8) (size 9 to 14) (size 15 to 20)
#    0.000    2.714    0.714    3.214    0.000    1.143 
#    1.286    8.571    0.000    0.857    0.000    0.000 
#    0.000    0.000    0.000    0.000    0.000    0.000 
#
# Total GULP energy -693889.914528 kJ/mol
# GULP energy per Si atom -12390.891331 kJ/mol
# Density = 1.933917 g / cm^3
# Si number density = 19.383284 Si / 1000 Ang^3
#
#
#
# Elastic Constant Matrix: (Units=GPa)
#
#
# Indices 1 2 3 4 5 6 
#
# 1 82.1732 15.6565 29.9076 0.0000 0.0000 0.0000
# 2 15.6565 60.5006 33.3072 0.0000 0.0000 0.0000
# 3 29.9076 33.3072 124.8834 0.0000 0.0000 0.0000
# 4 0.0000 0.0000 0.0000 15.7446 0.0000 0.0000
# 5 0.0000 0.0000 0.0000 0.0000 20.3107 0.0000
# 6 0.0000 0.0000 0.0000 0.0000 0.0000 11.8153
#
#
#
# Elastic Compliance Matrix: (Units=1/GPa)
#
#
# Indices 1 2 3 4 5 6 
#
# 1 0.013538 -0.002014 -0.002705 0.000000 0.000000 0.000000
# 2 -0.002014 0.019673 -0.004765 0.000000 0.000000 0.000000
# 3 -0.002705 -0.004765 0.009926 0.000000 0.000000 0.000000
# 4 0.000000 0.000000 0.000000 0.063514 0.000000 0.000000
# 5 0.000000 0.000000 0.000000 0.000000 0.049235 0.000000
# 6 0.000000 0.000000 0.000000 0.000000 0.000000 0.084636
#
#
# Mechanical properties :
#
#
# Convention : Reuss Voigt Hill
#
# Bulk Modulus (GPa) = 41.37460 47.25553 44.31506
# Shear Modulus (GPa) = 18.68841 22.15316 20.42079
#
# Velocity S-wave (km/s) = 3.10845 3.38435 3.24933
# Velocity P-wave (km/s) = 5.85449 6.30113 6.08191
#
# Compressibility (1/GPa) = 0.02416942
#
# Stress axis : x y z
#
# Youngs Moduli (GPa) = 73.86813 50.83098 100.74570
#
# Poissons Ratio (x) = 0.10238 0.27250
# Poissons Ratio (y) = 0.14879 0.48001
# Poissons Ratio (z) = 0.19980 0.24219
#
# Static dielectric constant tensor:
#      x y z
#    x 3.482880 0.000000 0.000000 
#    y 0.000000 3.183090 0.000000 
#    z 0.000000 0.000000 3.562340 
# 
# 
# High freq. dielectric constant tensor:
#      x y z
#    x 1.756210 0.000000 0.000000 
#    y 0.000000 1.724220 0.000000 
#    z 0.000000 0.000000 1.751340 
# 
# From -- ./inp_files/33602.got.cif
#   From: 2010.03.12/outbox.cif.g09.slc.cpg/sg51_17_cif.got.tgz:33602.got - 2010.04.16 13:43:02.
