data_PCOD8209199
_publ_section_title
;
Structure prediction by ZEFSAII (Michael W. Deem and Ramdas Pophale) SiO2 
 PCOD8209199
Probable space group: P M M A
;
_chemical_formula_sum "Si O2"
_cell_formula_units_Z 64
_cell_length_a 14.029105
_cell_length_b 23.182212
_cell_length_c 9.743962
_cell_angle_alpha 90.000000
_cell_angle_beta 90.000000
_cell_angle_gamma 90.000000
_cell_volume 3168.986729
_symmetry_space_group_name_H-M "P M M A"
_symmetry_group_IT_number 51
_symmetry_cell_setting 'orthorhombic'
loop_
_space_group_symop_operation_xyz
x,y,z
1/2-x,-y,z
1/2+x,-y,-z
-x,y,-z
-x,-y,-z
1/2+x,y,-z
1/2-x,y,z
x,-y,z
loop_
_atom_site_type_symbol
_atom_site_label
_atom_site_fract_x
_atom_site_fract_y
_atom_site_fract_z
Si Si1 0.018994 0.892829 0.349539
Si Si2 0.357889 0.783096 0.416298
Si Si3 0.646445 0.566480 0.060595
Si Si4 0.039760 0.433524 0.210010
Si Si5 0.358993 0.863864 0.851687
Si Si6 0.530255 0.679475 0.653897
Si Si7 0.359131 0.064607 0.110819
Si Si8 0.856505 0.745837 0.272365
O O1 0.068149 0.830634 0.365389
O O2 0.086269 0.931829 0.255102
O O3 0.000000 0.920598 0.500000
O O4 0.917710 0.889474 0.274556
O O5 0.250000 0.800606 0.378814
O O6 0.383039 0.724765 0.330842
O O7 0.369797 0.776128 0.579705
O O8 0.750000 0.596470 0.088161
O O9 0.664114 0.500000 0.034743
O O10 0.597784 0.588761 0.921632
O O11 0.573799 0.573825 0.186462
O O12 0.063610 0.500000 0.253271
O O13 0.066540 0.386115 0.323345
O O14 0.250000 0.883697 0.829854
O O15 0.367550 0.794112 0.847014
O O16 0.397017 0.889359 0.997122
O O17 0.500000 0.683757 0.500000
O O18 0.438487 0.697229 0.748809
O O19 0.250000 0.078148 0.144158
O O20 0.372552 0.000000 0.051162
O O21 0.750000 0.718037 0.263552
#
# Coordination Sequence:
#
# PCOD8209199 Si02
#       8
#     8   8   8   8   8   8   8   8
#     4  12  21  36  63  92 118 150 199 251 297 348
#     4  10  19  34  56  82 110 143 188 243 296 342
#     4   8  15  31  52  69  90 127 175 225 271 317
#     4   9  18  31  50  77 105 137 181 227 278 346
#     4  10  20  37  61  86 115 155 199 242 293 352
#     4  10  19  33  50  78 112 147 182 226 285 343
#     4  10  24  44  62  86 125 167 200 236 289 351
#     4   9  17  33  56  80 105 141 192 242 290 344
#
# _framework density 20.195729
#
# number of rings (size 3 to 8) (size 9 to 14) (size 15 to 20)
#    0.000    2.250    2.500    1.875    0.000    3.000 
#    0.000    2.500    0.000    3.000    0.000    7.000 
#    0.000    0.000    0.000    0.000    0.000    0.000 
#
# Total GULP energy -792985.444635 kJ/mol
# GULP energy per Si atom -12390.397572 kJ/mol
# Density = 2.014976 g / cm^3
# Si number density = 20.195729 Si / 1000 Ang^3
#
#
#
# Elastic Constant Matrix: (Units=GPa)
#
#
# Indices 1 2 3 4 5 6 
#
# 1 67.0572 19.8551 37.4613 0.0000 0.0000 0.0000
# 2 19.8551 90.5988 32.5982 0.0000 0.0000 0.0000
# 3 37.4613 32.5982 73.2225 0.0000 0.0000 0.0000
# 4 0.0000 0.0000 0.0000 26.3943 0.0000 0.0000
# 5 0.0000 0.0000 0.0000 0.0000 24.5960 0.0000
# 6 0.0000 0.0000 0.0000 0.0000 0.0000 19.2375
#
#
#
# Elastic Compliance Matrix: (Units=1/GPa)
#
#
# Indices 1 2 3 4 5 6 
#
# 1 0.020938 -0.000874 -0.010323 0.000000 0.000000 0.000000
# 2 -0.000874 0.013179 -0.005420 0.000000 0.000000 0.000000
# 3 -0.010323 -0.005420 0.021351 0.000000 0.000000 0.000000
# 4 0.000000 0.000000 0.000000 0.037887 0.000000 0.000000
# 5 0.000000 0.000000 0.000000 0.000000 0.040657 0.000000
# 6 0.000000 0.000000 0.000000 0.000000 0.000000 0.051982
#
#
# Mechanical properties :
#
#
# Convention : Reuss Voigt Hill
#
# Bulk Modulus (GPa) = 44.97563 45.63419 45.30491
# Shear Modulus (GPa) = 22.06128 23.44316 22.75222
#
# Velocity S-wave (km/s) = 3.30869 3.41074 3.36011
# Velocity P-wave (km/s) = 6.07576 6.17705 6.12661
#
# Compressibility (1/GPa) = 0.02223427
#
# Stress axis : x y z
#
# Youngs Moduli (GPa) = 47.75894 75.87546 46.83549
#
# Poissons Ratio (x) = 0.06635 0.48348
# Poissons Ratio (y) = 0.04176 0.25385
# Poissons Ratio (z) = 0.49302 0.41125
#
# Static dielectric constant tensor:
#      x y z
#    x 4.354350 0.000000 0.000000 
#    y 0.000000 3.560100 0.000000 
#    z 0.000000 0.000000 3.479920 
# 
# 
# High freq. dielectric constant tensor:
#      x y z
#    x 1.803080 0.000000 0.000000 
#    y 0.000000 1.769930 0.000000 
#    z 0.000000 0.000000 1.757930 
# 
# From -- ./inp_files/8713.got.cif
#   From: 2010.03.12/outbox.cif.g09.slc.cpg/sg51_5_cif.got.tgz:8713.got - 2010.04.16 13:43:02.
