data_PCOD8209618
_publ_section_title
;
Structure prediction by ZEFSAII (Michael W. Deem and Ramdas Pophale) SiO2 
 PCOD8209618
Probable space group: P M M A
;
_chemical_formula_sum "Si O2"
_cell_formula_units_Z 64
_cell_length_a 8.765464
_cell_length_b 22.814274
_cell_length_c 16.487839
_cell_angle_alpha 90.000000
_cell_angle_beta 90.000000
_cell_angle_gamma 90.000000
_cell_volume 3297.200079
_symmetry_space_group_name_H-M "P M M A"
_symmetry_group_IT_number 51
_symmetry_cell_setting 'orthorhombic'
loop_
_space_group_symop_operation_xyz
x,y,z
1/2-x,-y,z
1/2+x,-y,-z
-x,y,-z
-x,-y,-z
1/2+x,y,-z
1/2-x,y,z
x,-y,z
loop_
_atom_site_type_symbol
_atom_site_label
_atom_site_fract_x
_atom_site_fract_y
_atom_site_fract_z
Si Si1 0.569932 0.874550 0.247380
Si Si2 0.925657 0.644080 0.198806
Si Si3 0.576317 0.562824 0.916497
Si Si4 0.429375 0.566613 0.648937
Si Si5 0.071496 0.068533 0.085572
Si Si6 0.071969 0.249951 0.266479
Si Si7 0.571162 0.324473 0.579271
Si Si8 0.429017 0.932258 0.584120
O O1 0.750000 0.883972 0.240555
O O2 0.496809 0.901615 0.166132
O O3 0.529048 0.806648 0.250966
O O4 0.508671 0.902669 0.332442
O O5 0.750000 0.662705 0.205102
O O6 0.972356 0.595892 0.265666
O O7 0.964719 0.612435 0.116388
O O8 0.030368 0.702055 0.199014
O O9 0.750000 0.586092 0.922013
O O10 0.573856 0.500000 0.868613
O O11 0.500000 0.548464 0.000000
O O12 0.250000 0.566110 0.633823
O O13 0.493958 0.500000 0.643690
O O14 0.507316 0.609095 0.583584
O O15 0.250000 0.082577 0.082567
O O16 0.036608 0.000000 0.093961
O O17 0.000000 0.091788 0.000000
O O18 0.250000 0.233592 0.264420
O O19 0.019263 0.281107 0.349503
O O20 0.500000 0.294636 0.500000
O O21 0.750000 0.328368 0.573849
O O22 0.500000 0.906078 0.500000
O O23 0.250000 0.922244 0.577455
O O24 0.474714 0.000000 0.591059
#
# Coordination Sequence:
#
# PCOD8209618 Si02
#       8
#     8   8   8   8   8   8   8   8
#     4  11  22  37  59  86 117 154 195 239 287 336
#     4  10  19  34  55  76 101 134 172 215 266 320
#     4  10  20  33  51  77 107 137 170 210 258 314
#     4   9  18  32  51  75 101 130 166 210 263 324
#     4  10  21  38  62  92 124 157 192 232 280 334
#     4  10  22  39  56  77 105 139 183 227 269 322
#     4  10  21  36  54  74 100 136 176 222 272 323
#     4   9  19  35  55  82 117 154 191 233 281 334
#
# _framework density 19.410409000000001
#
# number of rings (size 3 to 8) (size 9 to 14) (size 15 to 20)
#    0.000    2.125    0.000    3.000    0.000    6.500 
#    0.000    4.375    0.000    0.000    0.000    0.000 
#    0.000    0.000    0.000    0.000    0.000    0.000 
#
# Total GULP energy -793132.729148 kJ/mol
# GULP energy per Si atom -12392.698893 kJ/mol
# Density = 1.936623 g / cm^3
# Si number density = 19.410409 Si / 1000 Ang^3
#
#
#
# Elastic Constant Matrix: (Units=GPa)
#
#
# Indices 1 2 3 4 5 6 
#
# 1 51.8397 35.0727 36.4395 0.0000 0.0000 0.0000
# 2 35.0727 96.9869 59.2699 0.0000 0.0000 0.0000
# 3 36.4395 59.2699 128.0823 0.0000 0.0000 0.0000
# 4 0.0000 0.0000 0.0000 13.4891 0.0000 0.0000
# 5 0.0000 0.0000 0.0000 0.0000 33.7654 0.0000
# 6 0.0000 0.0000 0.0000 0.0000 0.0000 29.3490
#
#
#
# Elastic Compliance Matrix: (Units=1/GPa)
#
#
# Indices 1 2 3 4 5 6 
#
# 1 0.027244 -0.007132 -0.004450 0.000000 0.000000 0.000000
# 2 -0.007132 0.016243 -0.005487 0.000000 0.000000 0.000000
# 3 -0.004450 -0.005487 0.011613 0.000000 0.000000 0.000000
# 4 0.000000 0.000000 0.000000 0.074134 0.000000 0.000000
# 5 0.000000 0.000000 0.000000 0.000000 0.029616 0.000000
# 6 0.000000 0.000000 0.000000 0.000000 0.000000 0.034073
#
#
# Mechanical properties :
#
#
# Convention : Reuss Voigt Hill
#
# Bulk Modulus (GPa) = 47.71026 59.83033 53.77029
# Shear Modulus (GPa) = 21.36297 25.06251 23.21274
#
# Velocity S-wave (km/s) = 3.32112 3.59721 3.46192
# Velocity P-wave (km/s) = 6.27212 6.93859 6.61375
#
# Compressibility (1/GPa) = 0.02095985
#
# Stress axis : x y z
#
# Youngs Moduli (GPa) = 36.70529 61.56385 86.11083
#
# Poissons Ratio (x) = 0.43909 0.38323
# Poissons Ratio (y) = 0.26179 0.47253
# Poissons Ratio (z) = 0.16336 0.33783
#
# Static dielectric constant tensor:
#      x y z
#    x 3.479350 0.000000 0.000000 
#    y 0.000000 3.507520 0.000000 
#    z 0.000000 0.000000 3.696160 
# 
# 
# High freq. dielectric constant tensor:
#      x y z
#    x 1.758800 0.000000 0.000000 
#    y 0.000000 1.747880 0.000000 
#    z 0.000000 0.000000 1.755300 
# 
# From -- ./inp_files/28380.got.cif
#   From: 2010.03.12/outbox.cif.g09.slc.cpg/sg51_15_cif.got.tgz:28380.got - 2010.04.16 13:43:02.
