data_PCOD8209831
_publ_section_title
;
Structure prediction by ZEFSAII (Michael W. Deem and Ramdas Pophale) SiO2 
 PCOD8209831
Probable space group: P M M A
;
_chemical_formula_sum "Si O2"
_cell_formula_units_Z 48
_cell_length_a 18.937773
_cell_length_b 9.314791
_cell_length_c 13.338649
_cell_angle_alpha 90.000000
_cell_angle_beta 90.000000
_cell_angle_gamma 90.000000
_cell_volume 2352.956324
_symmetry_space_group_name_H-M "P M M A"
_symmetry_group_IT_number 51
_symmetry_cell_setting 'orthorhombic'
loop_
_space_group_symop_operation_xyz
x,y,z
1/2-x,-y,z
1/2+x,-y,-z
-x,y,-z
-x,-y,-z
1/2+x,y,-z
1/2-x,y,z
x,-y,z
loop_
_atom_site_type_symbol
_atom_site_label
_atom_site_fract_x
_atom_site_fract_y
_atom_site_fract_z
Si Si1 0.327357 0.329291 0.785886
Si Si2 0.168509 0.664436 0.008926
Si Si3 0.548108 0.167703 0.683880
Si Si4 0.167555 0.332260 0.410313
Si Si5 0.578126 0.331751 0.393401
Si Si6 0.451078 0.834126 0.089699
O O1 0.250000 0.268347 0.757619
O O2 0.323674 0.500000 0.784267
O O3 0.348166 0.277347 0.896984
O O4 0.383455 0.273495 0.706179
O O5 0.250000 0.683856 0.036113
O O6 0.145431 0.500000 0.018902
O O7 0.124249 0.756594 0.086947
O O8 0.625928 0.238540 0.672442
O O9 0.495777 0.245670 0.604329
O O10 0.519684 0.191643 0.797794
O O11 0.552628 0.000000 0.657485
O O12 0.250000 0.287092 0.414280
O O13 0.160645 0.500000 0.383663
O O14 0.130683 0.296732 0.516176
O O15 0.559440 0.500000 0.389516
O O16 0.438037 0.000000 0.068576
O O17 0.500000 0.770004 0.000000
#
# Coordination Sequence:
#
# PCOD8209831 Si02
#       6
#     8   8   8   8   8   8
#     4   8  14  27  50  81 113 141 174 222 276 325
#     4   9  18  32  52  80 110 139 176 224 276 327
#     4  11  24  39  56  80 111 146 182 223 272 323
#     4  10  22  40  61  85 112 143 181 223 266 317
#     4  10  19  34  59  86 110 141 181 222 267 321
#     4  10  22  39  56  76 106 145 187 228 270 319
#
# _framework density 20.39987
#
# number of rings (size 3 to 8) (size 9 to 14) (size 15 to 20)
#    0.000    2.333    0.000    3.500    0.000    7.667 
#    0.000    3.333    0.000    2.500    0.000    0.000 
#    0.000    0.000    0.000    0.000    0.000    0.000 
#
# Total GULP energy -595061.431841 kJ/mol
# GULP energy per Si atom -12397.113163 kJ/mol
# Density = 2.035344 g / cm^3
# Si number density = 20.399870 Si / 1000 Ang^3
#
#
#
# Elastic Constant Matrix: (Units=GPa)
#
#
# Indices 1 2 3 4 5 6 
#
# 1 118.1692 50.5081 42.0986 0.0000 0.0000 0.0000
# 2 50.5081 63.6827 39.2744 0.0000 0.0000 0.0000
# 3 42.0986 39.2744 70.1213 0.0000 0.0000 0.0000
# 4 0.0000 0.0000 0.0000 26.1462 0.0000 0.0000
# 5 0.0000 0.0000 0.0000 0.0000 33.3307 0.0000
# 6 0.0000 0.0000 0.0000 0.0000 0.0000 13.5323
#
#
#
# Elastic Compliance Matrix: (Units=1/GPa)
#
#
# Indices 1 2 3 4 5 6 
#
# 1 0.013245 -0.008557 -0.003160 0.000000 0.000000 0.000000
# 2 -0.008557 0.029517 -0.011395 0.000000 0.000000 0.000000
# 3 -0.003160 -0.011395 0.022540 0.000000 0.000000 0.000000
# 4 0.000000 0.000000 0.000000 0.038247 0.000000 0.000000
# 5 0.000000 0.000000 0.000000 0.000000 0.030002 0.000000
# 6 0.000000 0.000000 0.000000 0.000000 0.000000 0.073898
#
#
# Mechanical properties :
#
#
# Convention : Reuss Voigt Hill
#
# Bulk Modulus (GPa) = 52.41113 57.30391 54.85752
# Shear Modulus (GPa) = 19.22847 22.60796 20.91822
#
# Velocity S-wave (km/s) = 3.07347 3.33264 3.20568
# Velocity P-wave (km/s) = 6.19215 6.55438 6.37584
#
# Compressibility (1/GPa) = 0.01907992
#
# Stress axis : x y z
#
# Youngs Moduli (GPa) = 75.49828 33.87905 44.36518
#
# Poissons Ratio (x) = 0.28989 0.14018
# Poissons Ratio (y) = 0.64601 0.50554
# Poissons Ratio (z) = 0.23855 0.38605
#
# Static dielectric constant tensor:
#      x y z
#    x 3.803320 0.000000 0.000000 
#    y 0.000000 3.345090 0.000000 
#    z 0.000000 0.000000 3.802370 
# 
# 
# High freq. dielectric constant tensor:
#      x y z
#    x 1.803270 0.000000 0.000000 
#    y 0.000000 1.764950 0.000000 
#    z 0.000000 0.000000 1.801890 
# 
# From -- ./inp_files/24814.got.cif
#   From: 2010.03.12/outbox.cif.g09.slc.cpg/sg51_13_cif.got.tgz:24814.got - 2010.04.16 13:43:02.
