data_PCOD8209855
_publ_section_title
;
Structure prediction by ZEFSAII (Michael W. Deem and Ramdas Pophale) SiO2 
 PCOD8209855
Probable space group: P M M A
;
_chemical_formula_sum "Si O2"
_cell_formula_units_Z 64
_cell_length_a 15.038227
_cell_length_b 9.210934
_cell_length_c 23.867266
_cell_angle_alpha 90.000000
_cell_angle_beta 90.000000
_cell_angle_gamma 90.000000
_cell_volume 3306.000995
_symmetry_space_group_name_H-M "P M M A"
_symmetry_group_IT_number 51
_symmetry_cell_setting 'orthorhombic'
loop_
_space_group_symop_operation_xyz
x,y,z
1/2-x,-y,z
1/2+x,-y,-z
-x,y,-z
-x,-y,-z
1/2+x,y,-z
1/2-x,y,z
x,-y,z
loop_
_atom_site_type_symbol
_atom_site_label
_atom_site_fract_x
_atom_site_fract_y
_atom_site_fract_z
Si Si1 0.651772 0.334972 0.395895
Si Si2 0.855324 0.659503 0.989041
Si Si3 0.350295 0.169667 0.117775
Si Si4 0.851300 0.166211 0.626705
Si Si5 0.001579 0.327152 0.689268
Si Si6 0.854003 0.330357 0.113785
Si Si7 0.398390 0.169555 0.497409
Si Si8 0.012613 0.828079 0.806148
O O1 0.750000 0.322525 0.368517
O O2 0.627579 0.500000 0.410492
O O3 0.579502 0.273633 0.352447
O O4 0.654374 0.248180 0.453672
O O5 0.750000 0.652098 0.989628
O O6 0.894710 0.500000 0.976463
O O7 0.885758 0.711312 0.050719
O O8 0.888770 0.764516 0.939966
O O9 0.250000 0.226249 0.131760
O O10 0.416250 0.212569 0.167977
O O11 0.348889 0.000000 0.108037
O O12 0.750000 0.179616 0.646816
O O13 0.907856 0.271761 0.665776
O O14 0.858459 0.216201 0.562273
O O15 0.885321 0.000000 0.633021
O O16 0.999594 0.500000 0.696320
O O17 0.021648 0.253545 0.747936
O O18 0.750000 0.297115 0.122465
O O19 0.873312 0.500000 0.125774
O O20 0.908268 0.227501 0.154906
O O21 0.500000 0.219216 0.500000
O O22 0.386795 0.000000 0.507682
O O23 0.022061 0.000000 0.797549
#
# Coordination Sequence:
#
# PCOD8209855 Si02
#       8
#     8   8   8   8   8   8   8   8
#     4  10  22  39  59  84 114 149 187 229 281 337
#     4   8  15  30  54  83 112 143 181 225 275 334
#     4   9  19  36  56  79 110 147 183 225 281 339
#     4  10  21  38  60  86 117 152 187 228 282 337
#     4  11  24  41  59  80 110 148 194 242 287 334
#     4   9  19  37  59  83 114 150 185 226 280 337
#     4  10  19  34  60  90 120 150 183 225 275 333
#     4  11  24  39  57  82 111 146 193 240 285 337
#
# _framework density 19.358733999999998
#
# number of rings (size 3 to 8) (size 9 to 14) (size 15 to 20)
#    0.000    2.250    1.250    1.875    0.000    5.500 
#    0.000    6.250    0.000    0.000    0.000    0.000 
#    0.000    0.000    0.000    0.000    0.000    0.000 
#
# Total GULP energy -793591.203525 kJ/mol
# GULP energy per Si atom -12399.862555 kJ/mol
# Density = 1.931467 g / cm^3
# Si number density = 19.358734 Si / 1000 Ang^3
#
#
#
# Elastic Constant Matrix: (Units=GPa)
#
#
# Indices 1 2 3 4 5 6 
#
# 1 54.3796 18.0046 2.2754 0.0000 0.0000 0.0000
# 2 18.0046 53.0278 30.0501 0.0000 0.0000 0.0000
# 3 2.2754 30.0501 74.7562 0.0000 0.0000 0.0000
# 4 0.0000 0.0000 0.0000 35.7429 0.0000 0.0000
# 5 0.0000 0.0000 0.0000 0.0000 -5.7577 0.0000
# 6 0.0000 0.0000 0.0000 0.0000 0.0000 27.7437
#
#
#
# Elastic Compliance Matrix: (Units=1/GPa)
#
#
# Indices 1 2 3 4 5 6 
#
# 1 0.021196 -0.008846 0.002911 0.000000 0.000000 0.000000
# 2 -0.008846 0.028113 -0.011031 0.000000 0.000000 0.000000
# 3 0.002911 -0.011031 0.017723 0.000000 0.000000 0.000000
# 4 0.000000 0.000000 0.000000 0.027978 0.000000 0.000000
# 5 0.000000 0.000000 0.000000 0.000000 -0.173681 0.000000
# 6 0.000000 0.000000 0.000000 0.000000 0.000000 0.036044
#
#
# Mechanical properties :
#
#
# Convention : Reuss Voigt Hill
#
# Bulk Modulus (GPa) = 30.21327 31.42486 30.81906
# Shear Modulus (GPa) = 2137.25177 20.33469 1078.79323
#
# Velocity S-wave (km/s) = 33.26291 3.24453 23.63206
# Velocity P-wave (km/s) = 38.61178 5.50491 27.57874
#
# Compressibility (1/GPa) = 0.03309804
#
# Stress axis : x y z
#
# Youngs Moduli (GPa) = 47.17782 35.57068 56.42519
#
# Poissons Ratio (x) = 0.31467 -0.16425
# Poissons Ratio (y) = 0.41735 0.62245
# Poissons Ratio (z) = -0.13733 0.39240
#
# Static dielectric constant tensor:
#      x y z
#    x 3.624880 0.000000 0.000000 
#    y 0.000000 3.540760 0.000000 
#    z 0.000000 0.000000 3.555960 
# 
# 
# High freq. dielectric constant tensor:
#      x y z
#    x 1.759270 0.000000 0.000000 
#    y 0.000000 1.746120 0.000000 
#    z 0.000000 0.000000 1.751150 
# 
# From -- ./inp_files/35732.got.cif
#   From: 2010.03.12/outbox.cif.g09.slc.cpg/sg51_18_cif.got.tgz:35732.got - 2010.04.16 13:43:02.
