data_PCOD8209866
_publ_section_title
;
Structure prediction by ZEFSAII (Michael W. Deem and Ramdas Pophale) SiO2 
 PCOD8209866
Probable space group: P M M A
;
_chemical_formula_sum "Si O2"
_cell_formula_units_Z 40
_cell_length_a 8.442501
_cell_length_b 11.985734
_cell_length_c 20.465235
_cell_angle_alpha 90.000000
_cell_angle_beta 90.000000
_cell_angle_gamma 90.000000
_cell_volume 2070.868356
_symmetry_space_group_name_H-M "P M M A"
_symmetry_group_IT_number 51
_symmetry_cell_setting 'orthorhombic'
loop_
_space_group_symop_operation_xyz
x,y,z
1/2-x,-y,z
1/2+x,-y,-z
-x,y,-z
-x,-y,-z
1/2+x,y,-z
1/2-x,y,z
x,-y,z
loop_
_atom_site_type_symbol
_atom_site_label
_atom_site_fract_x
_atom_site_fract_y
_atom_site_fract_z
Si Si1 0.936879 0.875814 0.807241
Si Si2 0.568696 0.500000 0.903573
Si Si3 0.565445 0.704603 0.698405
Si Si4 0.428575 0.500000 0.768234
Si Si5 0.063474 0.370828 0.570299
Si Si6 0.561327 0.741161 0.932513
O O1 0.750000 0.883381 0.815416
O O2 0.980047 0.815969 0.738789
O O3 0.005988 0.808774 0.870006
O O4 0.011148 0.000000 0.806053
O O5 0.750000 0.500000 0.923867
O O6 0.555773 0.500000 0.825719
O O7 0.490568 0.614361 0.930430
O O8 0.750000 0.676160 0.708301
O O9 0.453950 0.607408 0.724333
O O10 0.522585 0.712351 0.621792
O O11 0.250000 0.500000 0.795883
O O12 0.250000 0.352997 0.573613
O O13 0.017255 0.500000 0.584272
O O14 0.000000 0.333893 0.500000
O O15 0.750000 0.740444 0.930145
O O16 0.500000 0.796825 0.000000
#
# Coordination Sequence:
#
# PCOD8209866 Si02
#       6
#     8   4   8   4   8   8
#     4   9  19  36  57  79 103 138 185 230 272 320
#     4  10  19  35  53  75 105 141 178 215 271 335
#     4  11  20  34  57  80 109 146 181 221 269 322
#     4  12  22  31  50  81 111 139 176 223 271 323
#     4  10  20  33  51  81 118 151 179 214 261 316
#     4  10  20  34  53  77 107 140 176 220 271 329
#
# _framework density 19.315569
#
# number of rings (size 3 to 8) (size 9 to 14) (size 15 to 20)
#    0.000    1.800    3.000    2.400    0.000    2.000 
#    0.000    0.000    0.000    5.400    0.000    0.000 
#    0.000    0.000    0.000    0.000    0.000    0.000 
#
# Total GULP energy -495876.878024 kJ/mol
# GULP energy per Si atom -12396.921951 kJ/mol
# Density = 1.927161 g / cm^3
# Si number density = 19.315569 Si / 1000 Ang^3
#
#
#
# Elastic Constant Matrix: (Units=GPa)
#
#
# Indices 1 2 3 4 5 6 
#
# 1 39.8920 23.8365 19.9579 0.0000 0.0000 0.0000
# 2 23.8365 127.7337 67.7231 0.0000 0.0000 0.0000
# 3 19.9579 67.7231 169.6803 0.0000 0.0000 0.0000
# 4 0.0000 0.0000 0.0000 18.9098 0.0000 0.0000
# 5 0.0000 0.0000 0.0000 0.0000 32.6148 0.0000
# 6 0.0000 0.0000 0.0000 0.0000 0.0000 -13.2359
#
#
#
# Elastic Compliance Matrix: (Units=1/GPa)
#
#
# Indices 1 2 3 4 5 6 
#
# 1 0.028536 -0.004497 -0.001561 0.000000 0.000000 0.000000
# 2 -0.004497 0.010639 -0.003717 0.000000 0.000000 0.000000
# 3 -0.001561 -0.003717 0.007561 0.000000 0.000000 0.000000
# 4 0.000000 0.000000 0.000000 0.052883 0.000000 0.000000
# 5 0.000000 0.000000 0.000000 0.000000 0.030661 0.000000
# 6 0.000000 0.000000 0.000000 0.000000 0.000000 -0.075552
#
#
# Mechanical properties :
#
#
# Convention : Reuss Voigt Hill
#
# Bulk Modulus (GPa) = 36.78669 62.26011 49.52340
# Shear Modulus (GPa) = 59.99517 22.71033 41.35275
#
# Velocity S-wave (km/s) = 5.57924 3.43264 4.63201
# Velocity P-wave (km/s) = 7.78398 6.92920 7.36900
#
# Compressibility (1/GPa) = 0.02718375
#
# Stress axis : x y z
#
# Youngs Moduli (GPa) = 35.04333 93.99500 132.26244
#
# Poissons Ratio (x) = 0.42272 0.20652
# Poissons Ratio (y) = 0.15760 0.49165
# Poissons Ratio (z) = 0.05472 0.34940
#
# Static dielectric constant tensor:
#      x y z
#    x 3.181250 0.000000 0.000000 
#    y 0.000000 3.616350 0.000000 
#    z 0.000000 0.000000 3.740610 
# 
# 
# High freq. dielectric constant tensor:
#      x y z
#    x 1.729530 0.000000 0.000000 
#    y 0.000000 1.719600 0.000000 
#    z 0.000000 0.000000 1.765420 
# 
# From -- ./inp_files/31427.got.cif
#   From: 2010.03.12/outbox.cif.g09.slc.cpg/sg51_16_cif.got.tgz:31427.got - 2010.04.16 13:43:02.
