data_PCOD8209439
_publ_section_title
;
Structure prediction by ZEFSAII (Michael W. Deem and Ramdas Pophale) SiO2 
 PCOD8209439
Probable space group: P M M A
;
_chemical_formula_sum "Si O2"
_cell_formula_units_Z 56
_cell_length_a 19.125029
_cell_length_b 9.133099
_cell_length_c 17.581262
_cell_angle_alpha 90.000000
_cell_angle_beta 90.000000
_cell_angle_gamma 90.000000
_cell_volume 3070.932804
_symmetry_space_group_name_H-M "P M M A"
_symmetry_group_IT_number 51
_symmetry_cell_setting 'orthorhombic'
loop_
_space_group_symop_operation_xyz
x,y,z
1/2-x,-y,z
1/2+x,-y,-z
-x,y,-z
-x,-y,-z
1/2+x,y,-z
1/2-x,y,z
x,-y,z
loop_
_atom_site_type_symbol
_atom_site_label
_atom_site_fract_x
_atom_site_fract_y
_atom_site_fract_z
Si Si1 0.830568 0.664743 0.069593
Si Si2 0.393646 0.667148 0.774710
Si Si3 0.053297 0.670380 0.193851
Si Si4 0.929311 0.172857 0.654142
Si Si5 0.428246 0.172007 0.039917
Si Si6 0.587556 0.172405 0.373747
Si Si7 0.829357 0.174061 0.519490
O O1 0.750000 0.668292 0.049133
O O2 0.861243 0.500000 0.056963
O O3 0.840920 0.709275 0.157731
O O4 0.866457 0.782797 0.016026
O O5 0.385519 0.500000 0.748907
O O6 0.470878 0.699557 0.805721
O O7 0.376029 0.765023 0.701778
O O8 0.072632 0.500000 0.193336
O O9 0.088012 0.744376 0.267688
O O10 0.084081 0.744716 0.118806
O O11 0.870932 0.225505 0.594336
O O12 0.005887 0.218172 0.622180
O O13 0.926202 0.000000 0.669067
O O14 0.426090 0.000000 0.055699
O O15 0.500000 0.220602 0.000000
O O16 0.628959 0.236248 0.446387
O O17 0.595141 0.000000 0.370874
O O18 0.750000 0.235894 0.521187
O O19 0.828373 0.000000 0.516082
#
# Coordination Sequence:
#
# PCOD8209439 Si02
#       7
#     8   8   8   8   8   8   8
#     4  10  21  37  55  76 107 146 181 214 261 321
#     4   9  18  32  50  75 104 135 170 210 258 312
#     4  10  19  33  55  79 103 134 174 218 263 313
#     4   9  17  31  51  74 101 131 169 217 263 306
#     4  11  22  35  56  83 109 137 176 223 267 311
#     4   9  17  29  49  75 101 130 169 212 256 308
#     4   9  17  30  49  73 100 133 172 212 259 311
#
# _framework density 18.235502
#
# number of rings (size 3 to 8) (size 9 to 14) (size 15 to 20)
#    0.000    2.429    1.429    1.286    0.000    4.286 
#    0.000    1.429    0.000    7.286    0.000    0.000 
#    0.000    0.000    0.000    0.000    0.000    0.000 
#
# Total GULP energy -694470.378165 kJ/mol
# GULP energy per Si atom -12401.256753 kJ/mol
# Density = 1.819400 g / cm^3
# Si number density = 18.235502 Si / 1000 Ang^3
#
#
#
# Elastic Constant Matrix: (Units=GPa)
#
#
# Indices 1 2 3 4 5 6 
#
# 1 82.9644 27.7147 59.2874 0.0000 0.0000 0.0000
# 2 27.7147 47.7003 47.9713 0.0000 0.0000 0.0000
# 3 59.2874 47.9713 143.3985 0.0000 0.0000 0.0000
# 4 0.0000 0.0000 0.0000 21.0982 0.0000 0.0000
# 5 0.0000 0.0000 0.0000 0.0000 24.7481 0.0000
# 6 0.0000 0.0000 0.0000 0.0000 0.0000 14.8431
#
#
#
# Elastic Compliance Matrix: (Units=1/GPa)
#
#
# Indices 1 2 3 4 5 6 
#
# 1 0.017702 -0.004408 -0.005844 0.000000 0.000000 0.000000
# 2 -0.004408 0.032691 -0.009114 0.000000 0.000000 0.000000
# 3 -0.005844 -0.009114 0.012439 0.000000 0.000000 0.000000
# 4 0.000000 0.000000 0.000000 0.047397 0.000000 0.000000
# 5 0.000000 0.000000 0.000000 0.000000 0.040407 0.000000
# 6 0.000000 0.000000 0.000000 0.000000 0.000000 0.067371
#
#
# Mechanical properties :
#
#
# Convention : Reuss Voigt Hill
#
# Bulk Modulus (GPa) = 41.49373 60.44556 50.96964
# Shear Modulus (GPa) = 18.88415 21.41055 20.14735
#
# Velocity S-wave (km/s) = 3.22152 3.43025 3.32752
# Velocity P-wave (km/s) = 6.05321 6.99342 6.54023
#
# Compressibility (1/GPa) = 0.02410003
#
# Stress axis : x y z
#
# Youngs Moduli (GPa) = 56.48999 30.58979 80.39409
#
# Poissons Ratio (x) = 0.13483 0.46985
# Poissons Ratio (y) = 0.24899 0.73269
# Poissons Ratio (z) = 0.33015 0.27879
#
# Static dielectric constant tensor:
#      x y z
#    x 3.273040 0.000000 0.000000 
#    y 0.000000 3.184640 0.000000 
#    z 0.000000 0.000000 3.454760 
# 
# 
# High freq. dielectric constant tensor:
#      x y z
#    x 1.687710 0.000000 0.000000 
#    y 0.000000 1.688530 0.000000 
#    z 0.000000 0.000000 1.717500 
# 
# From -- ./inp_files/25688.got.cif
#   From: 2010.03.12/outbox.cif.g09.slc.cpg/sg51_13_cif.got.tgz:25688.got - 2010.04.16 13:43:02.
