data_PCOD8209186
_publ_section_title
;
Structure prediction by ZEFSAII (Michael W. Deem and Ramdas Pophale) SiO2 
 PCOD8209186
Probable space group: P M M A
;
_chemical_formula_sum "Si O2"
_cell_formula_units_Z 44
_cell_length_a 9.096444
_cell_length_b 16.524941
_cell_length_c 15.658551
_cell_angle_alpha 90.000000
_cell_angle_beta 90.000000
_cell_angle_gamma 90.000000
_cell_volume 2353.765207
_symmetry_space_group_name_H-M "P M M A"
_symmetry_group_IT_number 51
_symmetry_cell_setting 'orthorhombic'
loop_
_space_group_symop_operation_xyz
x,y,z
1/2-x,-y,z
1/2+x,-y,-z
-x,y,-z
-x,-y,-z
1/2+x,y,-z
1/2-x,y,z
x,-y,z
loop_
_atom_site_type_symbol
_atom_site_label
_atom_site_fract_x
_atom_site_fract_y
_atom_site_fract_z
Si Si1 0.421415 0.142277 0.793313
Si Si2 0.919187 0.000000 0.086044
Si Si3 0.915272 0.910836 0.634288
Si Si4 0.424765 0.696528 0.227778
Si Si5 0.580932 0.595862 0.086396
Si Si6 0.083295 0.264763 0.418859
O O1 0.250000 0.166025 0.791461
O O2 0.465171 0.080900 0.866412
O O3 0.461647 0.097170 0.706034
O O4 0.521367 0.219721 0.812585
O O5 0.750000 0.000000 0.067485
O O6 0.000000 0.000000 0.000000
O O7 0.750000 0.905680 0.673656
O O8 0.934811 0.833078 0.573248
O O9 0.936103 0.000000 0.589486
O O10 0.250000 0.687904 0.220008
O O11 0.501832 0.626131 0.173134
O O12 0.474715 0.698781 0.328188
O O13 0.750000 0.625932 0.084102
O O14 0.572500 0.500000 0.090122
O O15 0.500000 0.627466 0.000000
O O16 0.250000 0.291518 0.429024
O O17 0.000000 0.303560 0.500000
#
# Coordination Sequence:
#
# PCOD8209186 Si02
#       6
#     8   4   8   8   8   8
#     4  10  19  33  49  70  98 131 178 228 271 322
#     4  10  22  34  46  66  93 128 173 222 271 320
#     4   9  17  30  48  68  94 131 174 223 279 334
#     4  10  21  37  57  82 111 147 185 223 274 329
#     4  10  21  38  62  92 121 147 176 215 266 324
#     4   9  19  33  49  74 106 142 185 230 278 329
#
# _framework density 18.693453999999999
#
# number of rings (size 3 to 8) (size 9 to 14) (size 15 to 20)
#    0.000    2.364    0.909    2.727    0.000    7.273 
#    0.000    1.818    0.000    0.545    0.000    0.000 
#    0.000    0.000    0.000    0.000    0.000    0.000 
#
# Total GULP energy -545177.633730 kJ/mol
# GULP energy per Si atom -12390.400767 kJ/mol
# Density = 1.865091 g / cm^3
# Si number density = 18.693454 Si / 1000 Ang^3
#
#
#
# Elastic Constant Matrix: (Units=GPa)
#
#
# Indices 1 2 3 4 5 6 
#
# 1 71.2172 29.0232 56.1712 0.0000 0.0000 0.0000
# 2 29.0232 38.1790 33.1083 0.0000 0.0000 0.0000
# 3 56.1712 33.1083 120.0011 0.0000 0.0000 0.0000
# 4 0.0000 0.0000 0.0000 17.2824 0.0000 0.0000
# 5 0.0000 0.0000 0.0000 0.0000 36.0036 0.0000
# 6 0.0000 0.0000 0.0000 0.0000 0.0000 28.2410
#
#
#
# Elastic Compliance Matrix: (Units=1/GPa)
#
#
# Indices 1 2 3 4 5 6 
#
# 1 0.025890 -0.012056 -0.008792 0.000000 0.000000 0.000000
# 2 -0.012056 0.040045 -0.005405 0.000000 0.000000 0.000000
# 3 -0.008792 -0.005405 0.013940 0.000000 0.000000 0.000000
# 4 0.000000 0.000000 0.000000 0.057862 0.000000 0.000000
# 5 0.000000 0.000000 0.000000 0.000000 0.027775 0.000000
# 6 0.000000 0.000000 0.000000 0.000000 0.000000 0.035409
#
#
# Mechanical properties :
#
#
# Convention : Reuss Voigt Hill
#
# Bulk Modulus (GPa) = 36.54014 51.77807 44.15910
# Shear Modulus (GPa) = 19.04394 23.71171 21.37783
#
# Velocity S-wave (km/s) = 3.19525 3.56539 3.38538
# Velocity P-wave (km/s) = 5.76214 6.68641 6.24141
#
# Compressibility (1/GPa) = 0.02736717
#
# Stress axis : x y z
#
# Youngs Moduli (GPa) = 38.62536 24.97216 71.73590
#
# Poissons Ratio (x) = 0.30108 0.63072
# Poissons Ratio (y) = 0.46569 0.38772
# Poissons Ratio (z) = 0.33961 0.13497
#
# Static dielectric constant tensor:
#      x y z
#    x 3.517530 0.000000 0.000000 
#    y 0.000000 3.234250 0.000000 
#    z 0.000000 0.000000 3.333150 
# 
# 
# High freq. dielectric constant tensor:
#      x y z
#    x 1.735140 0.000000 0.000000 
#    y 0.000000 1.703280 0.000000 
#    z 0.000000 0.000000 1.715580 
# 
# From -- ./inp_files/20909.got.cif
#   From: 2010.03.12/outbox.cif.g09.slc.cpg/sg51_11_cif.got.tgz:20909.got - 2010.04.16 13:43:02.
