data_PCOD8209480
_publ_section_title
;
Structure prediction by ZEFSAII (Michael W. Deem and Ramdas Pophale) SiO2 
 PCOD8209480
Probable space group: P M M A
;
_chemical_formula_sum "Si O2"
_cell_formula_units_Z 48
_cell_length_a 31.169436
_cell_length_b 8.489349
_cell_length_c 8.977464
_cell_angle_alpha 90.000000
_cell_angle_beta 90.000000
_cell_angle_gamma 90.000000
_cell_volume 2375.510772
_symmetry_space_group_name_H-M "P M M A"
_symmetry_group_IT_number 51
_symmetry_cell_setting 'orthorhombic'
loop_
_space_group_symop_operation_xyz
x,y,z
1/2-x,-y,z
1/2+x,-y,-z
-x,y,-z
-x,-y,-z
1/2+x,y,-z
1/2-x,y,z
x,-y,z
loop_
_atom_site_type_symbol
_atom_site_label
_atom_site_fract_x
_atom_site_fract_y
_atom_site_fract_z
Si Si1 0.167208 0.815584 0.157242
Si Si2 0.667880 0.315612 0.168058
Si Si3 0.087017 0.686577 0.326732
Si Si4 0.499911 0.312777 0.167556
Si Si5 0.750000 0.813112 0.663096
Si Si6 0.250000 0.184616 0.669755
Si Si7 0.416546 0.313192 0.667678
O O1 0.125061 0.782201 0.251756
O O2 0.207969 0.753248 0.250374
O O3 0.171162 0.000000 0.121146
O O4 0.165221 0.718442 0.005947
O O5 0.672238 0.500000 0.195287
O O6 0.708480 0.233214 0.239494
O O7 0.625180 0.248042 0.246836
O O8 0.094735 0.500000 0.309752
O O9 0.043128 0.741600 0.249698
O O10 0.084905 0.741132 0.497336
O O11 0.502601 0.500000 0.165463
O O12 0.540912 0.242402 0.254789
O O13 0.500000 0.245355 0.000000
O O14 0.750000 0.740036 0.496230
O O15 0.750000 0.000000 0.654516
O O16 0.250000 0.000000 0.653269
O O17 0.418115 0.500000 0.678296
#
# Coordination Sequence:
#
# PCOD8209480 Si02
#       7
#     8   8   8   8   4   4   8
#     4  11  22  38  58  80 109 146 187 228 275 328
#     4  11  22  37  57  83 112 142 182 228 271 317
#     4  10  19  33  55  82 111 143 182 229 280 332
#     4   9  16  28  50  80 112 145 181 224 276 332
#     4   9  21  39  58  78 104 143 184 219 260 322
#     4  11  22  39  60  82 110 143 178 217 270 328
#     4   9  18  32  53  82 112 143 183 231 278 326
#
# _framework density 20.20618
#
# number of rings (size 3 to 8) (size 9 to 14) (size 15 to 20)
#    0.000    2.000    0.000    4.250    0.000    5.333 
#    0.000    4.583    0.000    7.500    0.000    0.000 
#    0.000    0.000    0.000    0.000    0.000    0.000 
#
# Total GULP energy -595348.413192 kJ/mol
# GULP energy per Si atom -12403.091942 kJ/mol
# Density = 2.016019 g / cm^3
# Si number density = 20.206180 Si / 1000 Ang^3
#
#
#
# Elastic Constant Matrix: (Units=GPa)
#
#
# Indices 1 2 3 4 5 6 
#
# 1 194.4919 12.7197 89.7116 0.0000 0.0000 0.0000
# 2 12.7197 24.7841 4.6315 0.0000 0.0000 0.0000
# 3 89.7116 4.6315 176.0001 0.0000 0.0000 0.0000
# 4 0.0000 0.0000 0.0000 22.5503 0.0000 0.0000
# 5 0.0000 0.0000 0.0000 0.0000 46.6449 0.0000
# 6 0.0000 0.0000 0.0000 0.0000 0.0000 8.7195
#
#
#
# Elastic Compliance Matrix: (Units=1/GPa)
#
#
# Indices 1 2 3 4 5 6 
#
# 1 0.006925 -0.002909 -0.003453 0.000000 0.000000 0.000000
# 2 -0.002909 0.041770 0.000383 0.000000 0.000000 0.000000
# 3 -0.003453 0.000383 0.007432 0.000000 0.000000 0.000000
# 4 0.000000 0.000000 0.000000 0.044345 0.000000 0.000000
# 5 0.000000 0.000000 0.000000 0.000000 0.021439 0.000000
# 6 0.000000 0.000000 0.000000 0.000000 0.000000 0.114685
#
#
# Mechanical properties :
#
#
# Convention : Reuss Voigt Hill
#
# Bulk Modulus (GPa) = 22.64009 67.71128 45.17569
# Shear Modulus (GPa) = 18.99156 34.79717 26.89436
#
# Velocity S-wave (km/s) = 3.06909 4.15433 3.65224
# Velocity P-wave (km/s) = 4.87729 7.52291 6.33964
#
# Compressibility (1/GPa) = 0.04416944
#
# Stress axis : x y z
#
# Youngs Moduli (GPa) = 144.41269 23.94091 134.55589
#
# Poissons Ratio (x) = 0.06963 0.46463
# Poissons Ratio (y) = 0.42003 -0.05159
# Poissons Ratio (z) = 0.49867 -0.00918
#
# Static dielectric constant tensor:
#      x y z
#    x 3.930050 0.000000 0.000000 
#    y 0.000000 3.186150 0.000000 
#    z 0.000000 0.000000 3.926540 
# 
# 
# High freq. dielectric constant tensor:
#      x y z
#    x 1.809960 0.000000 0.000000 
#    y 0.000000 1.745150 0.000000 
#    z 0.000000 0.000000 1.809740 
# 
# From -- ./inp_files/12958.got.cif
#   From: 2010.03.12/outbox.cif.g09.slc.cpg/sg51_7_cif.got.tgz:12958.got - 2010.04.16 13:43:02.
