data_PCOD8209454
_publ_section_title
;
Structure prediction by ZEFSAII (Michael W. Deem and Ramdas Pophale) SiO2 
 PCOD8209454
Probable space group: P M M A
;
_chemical_formula_sum "Si O2"
_cell_formula_units_Z 56
_cell_length_a 20.554029
_cell_length_b 12.736111
_cell_length_c 11.586708
_cell_angle_alpha 90.000000
_cell_angle_beta 90.000000
_cell_angle_gamma 90.000000
_cell_volume 3033.149822
_symmetry_space_group_name_H-M "P M M A"
_symmetry_group_IT_number 51
_symmetry_cell_setting 'orthorhombic'
loop_
_space_group_symop_operation_xyz
x,y,z
1/2-x,-y,z
1/2+x,-y,-z
-x,y,-z
-x,-y,-z
1/2+x,y,-z
1/2-x,y,z
x,-y,z
loop_
_atom_site_type_symbol
_atom_site_label
_atom_site_fract_x
_atom_site_fract_y
_atom_site_fract_z
Si Si1 0.626020 0.266466 0.656417
Si Si2 0.045633 0.617479 0.178323
Si Si3 0.173220 0.622511 0.573905
Si Si4 0.427832 0.795175 0.003749
Si Si5 0.821262 0.117283 0.830638
Si Si6 0.004607 0.884213 0.365912
Si Si7 0.417808 0.726869 0.753507
O O1 0.602632 0.368837 0.726549
O O2 0.648850 0.304976 0.531680
O O3 0.680638 0.202279 0.726328
O O4 0.566598 0.185132 0.662528
O O5 0.045001 0.500000 0.133964
O O6 0.061031 0.684949 0.066307
O O7 0.976709 0.645024 0.235874
O O8 0.250000 0.634912 0.586300
O O9 0.154312 0.500000 0.554923
O O10 0.141296 0.666856 0.690908
O O11 0.376969 0.864952 0.074005
O O12 0.500000 0.850396 0.000000
O O13 0.397137 0.771045 0.878650
O O14 0.750000 0.126135 0.889950
O O15 0.831282 0.000000 0.779925
O O16 0.939613 0.827670 0.320743
O O17 0.000000 0.898708 0.500000
O O18 0.010568 0.000000 0.308008
#
# Coordination Sequence:
#
# PCOD8209454 Si02
#       7
#     8   8   8   8   8   8   8
#     4  10  19  35  54  79 107 136 174 224 267 316
#     4   9  18  32  55  82 105 133 173 220 271 318
#     4  11  23  36  51  73 105 147 186 218 259 313
#     4   9  20  35  55  82 110 138 175 220 272 318
#     4  10  21  37  58  81 106 141 182 224 271 320
#     4  10  19  33  55  80 106 135 167 212 269 322
#     4  10  20  35  53  79 109 140 173 216 265 321
#
# _framework density 18.462655999999999
#
# number of rings (size 3 to 8) (size 9 to 14) (size 15 to 20)
#    0.000    2.143    1.429    2.571    0.000    4.571 
#    0.000    2.143    0.000    5.143    0.000    0.000 
#    0.000    0.000    0.000    0.000    0.000    0.000 
#
# Total GULP energy -694052.640337 kJ/mol
# GULP energy per Si atom -12393.797149 kJ/mol
# Density = 1.842063 g / cm^3
# Si number density = 18.462656 Si / 1000 Ang^3
#
#
#
# Elastic Constant Matrix: (Units=GPa)
#
#
# Indices 1 2 3 4 5 6 
#
# 1 77.6579 32.8255 29.1230 0.0000 0.0000 0.0000
# 2 32.8255 100.8058 23.9338 0.0000 0.0000 0.0000
# 3 29.1230 23.9338 102.3035 0.0000 0.0000 0.0000
# 4 0.0000 0.0000 0.0000 13.8771 0.0000 0.0000
# 5 0.0000 0.0000 0.0000 0.0000 27.2302 0.0000
# 6 0.0000 0.0000 0.0000 0.0000 0.0000 22.9460
#
#
#
# Elastic Compliance Matrix: (Units=1/GPa)
#
#
# Indices 1 2 3 4 5 6 
#
# 1 0.016062 -0.004388 -0.003546 0.000000 0.000000 0.000000
# 2 -0.004388 0.011702 -0.001489 0.000000 0.000000 0.000000
# 3 -0.003546 -0.001489 0.011132 0.000000 0.000000 0.000000
# 4 0.000000 0.000000 0.000000 0.072061 0.000000 0.000000
# 5 0.000000 0.000000 0.000000 0.000000 0.036724 0.000000
# 6 0.000000 0.000000 0.000000 0.000000 0.000000 0.043581
#
#
# Mechanical properties :
#
#
# Convention : Reuss Voigt Hill
#
# Bulk Modulus (GPa) = 49.87175 50.28132 50.07654
# Shear Modulus (GPa) = 23.06367 25.80298 24.43332
#
# Velocity S-wave (km/s) = 3.53825 3.74247 3.64179
# Velocity P-wave (km/s) = 6.61537 6.77997 6.69818
#
# Compressibility (1/GPa) = 0.02005143
#
# Stress axis : x y z
#
# Youngs Moduli (GPa) = 62.26033 85.45215 89.82766
#
# Poissons Ratio (x) = 0.37499 0.31850
# Poissons Ratio (y) = 0.27322 0.13371
# Poissons Ratio (z) = 0.22075 0.12720
#
# Static dielectric constant tensor:
#      x y z
#    x 3.465600 0.000000 0.000000 
#    y 0.000000 3.498080 0.000000 
#    z 0.000000 0.000000 2.351570 
# 
# 
# High freq. dielectric constant tensor:
#      x y z
#    x 1.705320 0.000000 0.000000 
#    y 0.000000 1.719050 0.000000 
#    z 0.000000 0.000000 1.716970 
# 
# From -- ./inp_files/18229.got.cif
#   From: 2010.03.12/outbox.cif.g09.slc.cpg/sg51_10_cif.got.tgz:18229.got - 2010.04.16 13:43:02.
