data_PCOD8209889
_publ_section_title
;
Structure prediction by ZEFSAII (Michael W. Deem and Ramdas Pophale) SiO2 
 PCOD8209889
Probable space group: P M M A
;
_chemical_formula_sum "Si O2"
_cell_formula_units_Z 64
_cell_length_a 25.797623
_cell_length_b 13.927932
_cell_length_c 9.230861
_cell_angle_alpha 90.000000
_cell_angle_beta 90.000000
_cell_angle_gamma 90.000000
_cell_volume 3316.717948
_symmetry_space_group_name_H-M "P M M A"
_symmetry_group_IT_number 51
_symmetry_cell_setting 'orthorhombic'
loop_
_space_group_symop_operation_xyz
x,y,z
1/2-x,-y,z
1/2+x,-y,-z
-x,y,-z
-x,-y,-z
1/2+x,y,-z
1/2-x,y,z
x,-y,z
loop_
_atom_site_type_symbol
_atom_site_label
_atom_site_fract_x
_atom_site_fract_y
_atom_site_fract_z
Si Si1 0.086206 0.386248 0.966328
Si Si2 0.308853 0.113056 0.262920
Si Si3 0.926884 0.770825 0.238894
Si Si4 0.308249 0.390520 0.419348
Si Si5 0.617437 0.763840 0.544951
Si Si6 0.115491 0.887866 0.016944
Si Si7 0.194345 0.386859 0.095092
Si Si8 0.954953 0.240820 0.807946
O O1 0.075419 0.500000 0.969307
O O2 0.145763 0.356730 0.999433
O O3 0.049315 0.333111 0.083968
O O4 0.077534 0.342392 0.806165
O O5 0.250000 0.152257 0.272700
O O6 0.344039 0.156300 0.391018
O O7 0.330957 0.138228 0.101917
O O8 0.310662 0.000000 0.287236
O O9 0.910971 0.798890 0.400525
O O10 0.987126 0.794339 0.220629
O O11 0.889347 0.832655 0.134800
O O12 0.250000 0.381325 0.481194
O O13 0.326918 0.500000 0.424767
O O14 0.348779 0.327669 0.509499
O O15 0.311436 0.344729 0.257218
O O16 0.573461 0.731716 0.658644
O O17 0.069446 0.853869 0.121470
O O18 0.110545 0.000000 0.986675
O O19 0.250000 0.353015 0.027629
O O20 0.195733 0.500000 0.116251
#
# Coordination Sequence:
#
# PCOD8209889 Si02
#       8
#     8   8   8   8   8   8   8   8
#     4  10  19  35  55  77 107 144 186 232 277 323
#     4   9  19  38  63  87 109 138 179 220 260 321
#     4  11  24  36  50  80 114 145 181 226 278 324
#     4   9  17  31  53  78 102 134 180 226 262 306
#     4  11  21  36  55  79 113 149 180 219 273 330
#     4   9  19  38  62  84 106 136 177 227 276 320
#     4   8  14  27  50  76  96 123 171 223 264 306
#     4  10  21  37  56  77 104 145 192 231 264 316
#
# _framework density 19.296182999999999
#
# number of rings (size 3 to 8) (size 9 to 14) (size 15 to 20)
#    0.000    2.375    1.250    3.000    0.000    3.000 
#    0.000    2.500    0.000    9.000    0.000    0.000 
#    0.000    0.000    0.000    0.000    0.000    0.000 
#
# Total GULP energy -793178.650684 kJ/mol
# GULP energy per Si atom -12393.416417 kJ/mol
# Density = 1.925226 g / cm^3
# Si number density = 19.296183 Si / 1000 Ang^3
#
#
#
# Elastic Constant Matrix: (Units=GPa)
#
#
# Indices 1 2 3 4 5 6 
#
# 1 87.8541 17.2542 33.4435 0.0000 0.0000 0.0000
# 2 17.2542 63.2900 30.9517 0.0000 0.0000 0.0000
# 3 33.4435 30.9517 94.6205 0.0000 0.0000 0.0000
# 4 0.0000 0.0000 0.0000 17.4592 0.0000 0.0000
# 5 0.0000 0.0000 0.0000 0.0000 10.8360 0.0000
# 6 0.0000 0.0000 0.0000 0.0000 0.0000 23.6495
#
#
#
# Elastic Compliance Matrix: (Units=1/GPa)
#
#
# Indices 1 2 3 4 5 6 
#
# 1 0.013283 -0.001578 -0.004179 0.000000 0.000000 0.000000
# 2 -0.001578 0.018997 -0.005656 0.000000 0.000000 0.000000
# 3 -0.004179 -0.005656 0.013896 0.000000 0.000000 0.000000
# 4 0.000000 0.000000 0.000000 0.057277 0.000000 0.000000
# 5 0.000000 0.000000 0.000000 0.000000 0.092285 0.000000
# 6 0.000000 0.000000 0.000000 0.000000 0.000000 0.042284
#
#
# Mechanical properties :
#
#
# Convention : Reuss Voigt Hill
#
# Bulk Modulus (GPa) = 42.82698 45.45149 44.13923
# Shear Modulus (GPa) = 18.61295 21.32996 19.97146
#
# Velocity S-wave (km/s) = 3.10916 3.32836 3.22062
# Velocity P-wave (km/s) = 5.92721 6.19487 6.06252
#
# Compressibility (1/GPa) = 0.02334977
#
# Stress axis : x y z
#
# Youngs Moduli (GPa) = 75.28360 52.64089 71.96391
#
# Poissons Ratio (x) = 0.08305 0.30073
# Poissons Ratio (y) = 0.11877 0.40706
# Poissons Ratio (z) = 0.31460 0.29776
#
# Static dielectric constant tensor:
#      x y z
#    x 4.257120 0.000000 0.000000 
#    y 0.000000 3.475620 0.000000 
#    z 0.000000 0.000000 3.282110 
# 
# 
# High freq. dielectric constant tensor:
#      x y z
#    x 1.762010 0.000000 0.000000 
#    y 0.000000 1.750030 0.000000 
#    z 0.000000 0.000000 1.717020 
# 
# From -- ./inp_files/11870.got.cif
#   From: 2010.03.12/outbox.cif.g09.slc.cpg/sg51_6_cif.got.tgz:11870.got - 2010.04.16 13:43:02.
