data_PCOD8209983
_publ_section_title
;
Structure prediction by ZEFSAII (Michael W. Deem and Ramdas Pophale) SiO2 
 PCOD8209983
Probable space group: P M M A
;
_chemical_formula_sum "Si O2"
_cell_formula_units_Z 48
_cell_length_a 16.307126
_cell_length_b 14.173360
_cell_length_c 10.156900
_cell_angle_alpha 90.000000
_cell_angle_beta 90.000000
_cell_angle_gamma 90.000000
_cell_volume 2347.531463
_symmetry_space_group_name_H-M "P M M A"
_symmetry_group_IT_number 51
_symmetry_cell_setting 'orthorhombic'
loop_
_space_group_symop_operation_xyz
x,y,z
1/2-x,-y,z
1/2+x,-y,-z
-x,y,-z
-x,-y,-z
1/2+x,y,-z
1/2-x,y,z
x,-y,z
loop_
_atom_site_type_symbol
_atom_site_label
_atom_site_fract_x
_atom_site_fract_y
_atom_site_fract_z
Si Si1 0.652652 0.277637 0.697021
Si Si2 0.843899 0.898575 0.270840
Si Si3 0.655543 0.704457 0.190969
Si Si4 0.152818 0.603726 0.555329
Si Si5 0.089893 0.107871 0.450427
Si Si6 0.590521 0.609390 0.943491
O O1 0.750000 0.280109 0.725377
O O2 0.626348 0.333685 0.567246
O O3 0.620694 0.171112 0.673007
O O4 0.603949 0.326442 0.816091
O O5 0.750000 0.909865 0.231362
O O6 0.883350 0.810998 0.188334
O O7 0.849029 0.876755 0.426769
O O8 0.888507 0.000000 0.240089
O O9 0.750000 0.718755 0.227997
O O10 0.614319 0.645809 0.310029
O O11 0.650415 0.648323 0.055584
O O12 0.250000 0.597147 0.565826
O O13 0.114865 0.500000 0.536144
O O14 0.000000 0.137545 0.500000
O O15 0.090817 0.000000 0.400079
O O16 0.611101 0.500000 0.912243
O O17 0.500000 0.622059 0.000000
#
# Coordination Sequence:
#
# PCOD8209983 Si02
#       6
#     8   8   8   8   8   8
#     4  11  22  38  62  91 121 160 207 259 313 365
#     4   9  17  32  57  87 116 146 188 242 294 351
#     4  10  19  35  59  85 112 152 199 245 302 364
#     4   9  17  30  53  85 113 138 185 249 302 353
#     4  10  21  36  59  92 128 163 197 240 304 368
#     4  11  26  43  58  81 119 166 207 251 312 374
#
# _framework density 20.447011
#
# number of rings (size 3 to 8) (size 9 to 14) (size 15 to 20)
#    0.000    2.000    1.667    2.000    2.333    3.667 
#    0.000    0.833    0.000    7.000    0.000    0.000 
#    0.000    0.000    0.000    0.000    0.000    0.000 
#
# Total GULP energy -594933.758983 kJ/mol
# GULP energy per Si atom -12394.453312 kJ/mol
# Density = 2.040047 g / cm^3
# Si number density = 20.447011 Si / 1000 Ang^3
#
#
#
# Elastic Constant Matrix: (Units=GPa)
#
#
# Indices 1 2 3 4 5 6 
#
# 1 33.4126 32.1267 10.4787 0.0000 0.0000 0.0000
# 2 32.1267 163.3496 59.0524 0.0000 0.0000 0.0000
# 3 10.4787 59.0524 108.4762 0.0000 0.0000 0.0000
# 4 0.0000 0.0000 0.0000 38.7691 0.0000 0.0000
# 5 0.0000 0.0000 0.0000 0.0000 23.5738 0.0000
# 6 0.0000 0.0000 0.0000 0.0000 0.0000 16.7686
#
#
#
# Elastic Compliance Matrix: (Units=1/GPa)
#
#
# Indices 1 2 3 4 5 6 
#
# 1 0.036929 -0.007437 0.000481 0.000000 0.000000 0.000000
# 2 -0.007437 0.009119 -0.004246 0.000000 0.000000 0.000000
# 3 0.000481 -0.004246 0.011484 0.000000 0.000000 0.000000
# 4 0.000000 0.000000 0.000000 0.025794 0.000000 0.000000
# 5 0.000000 0.000000 0.000000 0.000000 0.042420 0.000000
# 6 0.000000 0.000000 0.000000 0.000000 0.000000 0.059635
#
#
# Mechanical properties :
#
#
# Convention : Reuss Voigt Hill
#
# Bulk Modulus (GPa) = 28.46712 56.50600 42.48656
# Shear Modulus (GPa) = 22.77972 29.39435 26.08703
#
# Velocity S-wave (km/s) = 3.34141 3.79567 3.57576
# Velocity P-wave (km/s) = 5.37023 6.84871 6.15403
#
# Compressibility (1/GPa) = 0.03512824
#
# Stress axis : x y z
#
# Youngs Moduli (GPa) = 27.07927 109.65529 87.08069
#
# Poissons Ratio (x) = 0.81550 -0.04191
# Poissons Ratio (y) = 0.20139 0.36975
# Poissons Ratio (z) = -0.01303 0.46560
#
# Static dielectric constant tensor:
#      x y z
#    x 3.388960 0.000000 0.000000 
#    y 0.000000 4.268200 0.000000 
#    z 0.000000 0.000000 3.466620 
# 
# 
# High freq. dielectric constant tensor:
#      x y z
#    x 1.772600 0.000000 0.000000 
#    y 0.000000 1.824910 0.000000 
#    z 0.000000 0.000000 1.772430 
# 
# From -- ./inp_files/9655.got.cif
#   From: 2010.03.12/outbox.cif.g09.slc.cpg/sg51_5_cif.got.tgz:9655.got - 2010.04.16 13:43:02.
