data_PCOD8209134
_publ_section_title
;
Structure prediction by ZEFSAII (Michael W. Deem and Ramdas Pophale) SiO2 
 PCOD8209134
Probable space group: P M M A
;
_chemical_formula_sum "Si O2"
_cell_formula_units_Z 64
_cell_length_a 17.377718
_cell_length_b 36.420369
_cell_length_c 5.117679
_cell_angle_alpha 90.000000
_cell_angle_beta 90.000000
_cell_angle_gamma 90.000000
_cell_volume 3238.993890
_symmetry_space_group_name_H-M "P M M A"
_symmetry_group_IT_number 51
_symmetry_cell_setting 'orthorhombic'
loop_
_space_group_symop_operation_xyz
x,y,z
1/2-x,-y,z
1/2+x,-y,-z
-x,y,-z
-x,-y,-z
1/2+x,y,-z
1/2-x,y,z
x,-y,z
loop_
_atom_site_type_symbol
_atom_site_label
_atom_site_fract_x
_atom_site_fract_y
_atom_site_fract_z
Si Si1 0.658912 0.765991 0.733272
Si Si2 0.414736 0.573305 0.583120
Si Si3 0.949380 0.958354 0.255551
Si Si4 0.949410 0.345988 0.258614
Si Si5 0.658525 0.848069 0.712358
Si Si6 0.341045 0.892312 0.790050
Si Si7 0.341109 0.278805 0.763734
Si Si8 0.338023 0.542139 0.086714
O O1 0.750000 0.768825 0.712885
O O2 0.623662 0.806969 0.721348
O O3 0.628410 0.741235 0.495795
O O4 0.632797 0.747274 0.000571
O O5 0.500000 0.560966 0.500000
O O6 0.410443 0.615900 0.659228
O O7 0.360134 0.567101 0.334055
O O8 0.389464 0.549831 0.832775
O O9 0.874896 0.932948 0.231818
O O10 0.000000 0.945496 0.500000
O O11 0.919823 0.000000 0.294467
O O12 0.000000 0.954514 0.000000
O O13 0.881131 0.317862 0.200327
O O14 0.000000 0.331056 0.500000
O O15 0.000000 0.351882 0.000000
O O16 0.750000 0.845964 0.728073
O O17 0.630669 0.867341 0.448891
O O18 0.627179 0.872055 0.952883
O O19 0.250000 0.897001 0.793768
O O20 0.250000 0.285639 0.761171
O O21 0.250000 0.550687 0.012317
O O22 0.349573 0.500000 0.169717
#
# Coordination Sequence:
#
# PCOD8209134 Si02
#       8
#     8   8   8   8   8   8   8   8
#     4   9  17  31  52  80 111 139 176 224 267 318
#     4  11  23  41  63  88 117 157 204 238 278 345
#     4  10  21  37  55  74 102 141 176 210 264 325
#     4  11  23  41  60  81 115 152 185 231 288 334
#     4   9  17  30  51  79 109 139 171 216 272 319
#     4  10  19  32  54  81 104 133 177 222 264 312
#     4  10  20  34  57  85 107 139 188 230 266 319
#     4  11  24  41  62  91 125 156 188 237 298 344
#
# _framework density 19.759222000000001
#
# number of rings (size 3 to 8) (size 9 to 14) (size 15 to 20)
#    0.000    1.875    0.000    4.875    0.000    6.750 
#    0.000    1.250    0.000   19.500    0.000    0.000 
#    0.000    0.000    0.000    0.000    0.000    0.000 
#
# Total GULP energy -793797.084607 kJ/mol
# GULP energy per Si atom -12403.079447 kJ/mol
# Density = 1.971425 g / cm^3
# Si number density = 19.759222 Si / 1000 Ang^3
#
#
#
# Elastic Constant Matrix: (Units=GPa)
#
#
# Indices 1 2 3 4 5 6 
#
# 1 52.3119 57.9236 30.3799 0.0000 0.0000 0.0000
# 2 57.9236 120.3038 31.5760 0.0000 0.0000 0.0000
# 3 30.3799 31.5760 113.4841 0.0000 0.0000 0.0000
# 4 0.0000 0.0000 0.0000 32.8385 0.0000 0.0000
# 5 0.0000 0.0000 0.0000 0.0000 21.8841 0.0000
# 6 0.0000 0.0000 0.0000 0.0000 0.0000 24.0885
#
#
#
# Elastic Compliance Matrix: (Units=1/GPa)
#
#
# Indices 1 2 3 4 5 6 
#
# 1 0.044977 -0.019952 -0.006489 0.000000 0.000000 0.000000
# 2 -0.019952 0.017818 0.000384 0.000000 0.000000 0.000000
# 3 -0.006489 0.000384 0.010442 0.000000 0.000000 0.000000
# 4 0.000000 0.000000 0.000000 0.030452 0.000000 0.000000
# 5 0.000000 0.000000 0.000000 0.000000 0.045695 0.000000
# 6 0.000000 0.000000 0.000000 0.000000 0.000000 0.041514
#
#
# Mechanical properties :
#
#
# Convention : Reuss Voigt Hill
#
# Bulk Modulus (GPa) = 47.34374 58.42876 52.88625
# Shear Modulus (GPa) = 19.99559 26.84357 23.41958
#
# Velocity S-wave (km/s) = 3.18459 3.68983 3.44648
# Velocity P-wave (km/s) = 6.12654 6.91286 6.53154
#
# Compressibility (1/GPa) = 0.02112212
#
# Stress axis : x y z
#
# Youngs Moduli (GPa) = 22.23341 56.12207 95.76532
#
# Poissons Ratio (x) = 1.11977 0.62141
# Poissons Ratio (y) = 0.44361 -0.03673
# Poissons Ratio (z) = 0.14427 -0.02152
#
# Static dielectric constant tensor:
#      x y z
#    x 3.277790 0.000000 0.000000 
#    y 0.000000 3.691730 0.000000 
#    z 0.000000 0.000000 3.879790 
# 
# 
# High freq. dielectric constant tensor:
#      x y z
#    x 1.739650 0.000000 0.000000 
#    y 0.000000 1.779920 0.000000 
#    z 0.000000 0.000000 1.793220 
# 
# From -- ./inp_files/2117.got.cif
#   From: 2010.03.12/outbox.cif.g09.slc.cpg/sg51_2_cif.got.tgz:2117.got - 2010.04.16 13:43:02.
