data_PCOD8209600
_publ_section_title
;
Structure prediction by ZEFSAII (Michael W. Deem and Ramdas Pophale) SiO2 
 PCOD8209600
Probable space group: P M M A
;
_chemical_formula_sum "Si O2"
_cell_formula_units_Z 64
_cell_length_a 9.093688
_cell_length_b 20.162293
_cell_length_c 17.864265
_cell_angle_alpha 90.000000
_cell_angle_beta 90.000000
_cell_angle_gamma 90.000000
_cell_volume 3275.405876
_symmetry_space_group_name_H-M "P M M A"
_symmetry_group_IT_number 51
_symmetry_cell_setting 'orthorhombic'
loop_
_space_group_symop_operation_xyz
x,y,z
1/2-x,-y,z
1/2+x,-y,-z
-x,y,-z
-x,-y,-z
1/2+x,y,-z
1/2-x,y,z
x,-y,z
loop_
_atom_site_type_symbol
_atom_site_label
_atom_site_fract_x
_atom_site_fract_y
_atom_site_fract_z
Si Si1 0.408714 0.926416 0.564513
Si Si2 0.077478 0.574799 0.269198
Si Si3 0.924077 0.355605 0.575675
Si Si4 0.087470 0.752135 0.656293
Si Si5 0.074540 0.795495 0.923626
Si Si6 0.080002 0.116549 0.302941
Si Si7 0.588992 0.317995 0.189963
Si Si8 0.919724 0.924345 0.865159
O O1 0.500000 0.886876 0.500000
O O2 0.250000 0.891291 0.578168
O O3 0.505097 0.932848 0.638895
O O4 0.378143 0.000000 0.534901
O O5 0.250000 0.579716 0.259207
O O6 0.019069 0.500000 0.260249
O O7 0.035626 0.598203 0.353300
O O8 0.013081 0.617211 0.198896
O O9 0.750000 0.350589 0.563197
O O10 0.000000 0.384239 0.500000
O O11 0.991549 0.282646 0.591498
O O12 0.250000 0.770282 0.624848
O O13 0.106954 0.704297 0.725578
O O14 0.002952 0.814716 0.688460
O O15 0.250000 0.798055 0.930152
O O16 0.022799 0.741530 0.861350
O O17 0.019244 0.870112 0.906664
O O18 0.000000 0.771012 0.000000
O O19 0.250000 0.126904 0.321619
O O20 0.056402 0.084129 0.222727
O O21 0.750000 0.337746 0.157738
O O22 0.750000 0.911615 0.886933
O O23 0.965568 0.000000 0.887318
#
# Coordination Sequence:
#
# PCOD8209600 Si02
#       8
#     8   8   8   8   8   8   8   8
#     4  10  21  36  52  70  95 129 171 221 277 333
#     4   9  19  35  57  86 118 154 196 238 284 339
#     4  10  20  34  51  76 112 153 196 240 289 338
#     4  10  19  34  54  76 104 139 184 234 282 332
#     4  11  23  40  62  90 119 151 190 232 282 341
#     4  11  21  34  55  80 107 139 181 231 285 340
#     4   9  19  36  58  84 115 147 186 233 278 330
#     4  10  22  39  59  85 117 153 192 234 284 344
#
# _framework density 19.539565
#
# number of rings (size 3 to 8) (size 9 to 14) (size 15 to 20)
#    0.000    2.000    1.250    2.250    0.000    5.250 
#    0.000    2.500    0.000    0.375    0.000    0.000 
#    0.000    0.000    0.000    0.000    0.000    0.000 
#
# Total GULP energy -793044.354926 kJ/mol
# GULP energy per Si atom -12391.318046 kJ/mol
# Density = 1.949509 g / cm^3
# Si number density = 19.539565 Si / 1000 Ang^3
#
#
#
# Elastic Constant Matrix: (Units=GPa)
#
#
# Indices 1 2 3 4 5 6 
#
# 1 113.8094 46.8998 44.2593 0.0000 0.0000 0.0000
# 2 46.8998 118.6716 35.1174 0.0000 0.0000 0.0000
# 3 44.2593 35.1174 80.6894 0.0000 0.0000 0.0000
# 4 0.0000 0.0000 0.0000 20.8138 0.0000 0.0000
# 5 0.0000 0.0000 0.0000 0.0000 31.1214 0.0000
# 6 0.0000 0.0000 0.0000 0.0000 0.0000 -14.7609
#
#
#
# Elastic Compliance Matrix: (Units=1/GPa)
#
#
# Indices 1 2 3 4 5 6 
#
# 1 0.012174 -0.003254 -0.005261 0.000000 0.000000 0.000000
# 2 -0.003254 0.010542 -0.002803 0.000000 0.000000 0.000000
# 3 -0.005261 -0.002803 0.016499 0.000000 0.000000 0.000000
# 4 0.000000 0.000000 0.000000 0.048045 0.000000 0.000000
# 5 0.000000 0.000000 0.000000 0.000000 0.032132 0.000000
# 6 0.000000 0.000000 0.000000 0.000000 0.000000 -0.067746
#
#
# Mechanical properties :
#
#
# Convention : Reuss Voigt Hill
#
# Bulk Modulus (GPa) = 60.32153 62.85815 61.58984
# Shear Modulus (GPa) = 62.64975 19.89444 41.27210
#
# Velocity S-wave (km/s) = 5.66856 3.19433 4.60089
# Velocity P-wave (km/s) = 8.58965 6.77086 7.73390
#
# Compressibility (1/GPa) = 0.01657783
#
# Stress axis : x y z
#
# Youngs Moduli (GPa) = 82.14463 94.85668 60.60972
#
# Poissons Ratio (x) = 0.30868 0.31888
# Poissons Ratio (y) = 0.26732 0.16990
# Poissons Ratio (z) = 0.43217 0.26590
#
# Static dielectric constant tensor:
#      x y z
#    x 3.988430 0.000000 0.000000 
#    y 0.000000 3.543200 0.000000 
#    z 0.000000 0.000000 3.500350 
# 
# 
# High freq. dielectric constant tensor:
#      x y z
#    x 1.771480 0.000000 0.000000 
#    y 0.000000 1.748820 0.000000 
#    z 0.000000 0.000000 1.746200 
# 
# From -- ./inp_files/28444.got.cif
#   From: 2010.03.12/outbox.cif.g09.slc.cpg/sg51_15_cif.got.tgz:28444.got - 2010.04.16 13:43:02.
