data_PCOD8209080
_publ_section_title
;
Structure prediction by ZEFSAII (Michael W. Deem and Ramdas Pophale) SiO2 
 PCOD8209080
Probable space group: P M M A
;
_chemical_formula_sum "Si O2"
_cell_formula_units_Z 48
_cell_length_a 31.106096
_cell_length_b 9.252313
_cell_length_c 8.943289
_cell_angle_alpha 90.000000
_cell_angle_beta 90.000000
_cell_angle_gamma 90.000000
_cell_volume 2573.908413
_symmetry_space_group_name_H-M "P M M A"
_symmetry_group_IT_number 51
_symmetry_cell_setting 'orthorhombic'
loop_
_space_group_symop_operation_xyz
x,y,z
1/2-x,-y,z
1/2+x,-y,-z
-x,y,-z
-x,-y,-z
1/2+x,y,-z
1/2-x,y,z
x,-y,z
loop_
_atom_site_type_symbol
_atom_site_label
_atom_site_fract_x
_atom_site_fract_y
_atom_site_fract_z
Si Si1 0.797481 0.162896 0.065476
Si Si2 0.619812 0.670775 0.068763
Si Si3 0.040701 0.334358 0.394993
Si Si4 0.542701 0.830703 0.907299
Si Si5 0.796776 0.162356 0.420727
Si Si6 0.377881 0.331710 0.586924
O O1 0.750000 0.210691 0.006443
O O2 0.834353 0.271126 0.006259
O O3 0.797074 0.167379 0.243085
O O4 0.807679 0.000000 0.010537
O O5 0.617819 0.500000 0.043307
O O6 0.613708 0.714824 0.241936
O O7 0.582174 0.745292 0.977550
O O8 0.045736 0.500000 0.339353
O O9 0.034489 0.226831 0.258332
O O10 0.081934 0.282899 0.488527
O O11 0.000000 0.318766 0.500000
O O12 0.553496 0.000000 0.903700
O O13 0.500000 0.797672 0.000000
O O14 0.750000 0.218757 0.477744
O O15 0.835402 0.259099 0.483768
O O16 0.804140 0.000000 0.478352
O O17 0.369668 0.500000 0.578827
#
# Coordination Sequence:
#
# PCOD8209080 Si02
#       6
#     8   8   8   8   8   8
#     4   8  14  26  45  71 105 141 174 211 254 298
#     4  10  19  32  53  79 107 139 174 213 257 305
#     4  10  21  38  58  78 103 134 168 208 256 311
#     4  11  24  39  55  77 104 134 171 214 259 310
#     4   8  14  25  43  69 101 137 173 207 247 295
#     4   9  18  31  50  78 106 134 170 210 253 300
#
# _framework density 18.648683999999999
#
# number of rings (size 3 to 8) (size 9 to 14) (size 15 to 20)
#    0.000    2.667    0.000    3.000    0.000    5.000 
#    0.000    3.333    0.000    1.000    0.000    4.667 
#    0.000    0.000    0.000    0.000    0.000    0.000 
#
# Total GULP energy -595052.653278 kJ/mol
# GULP energy per Si atom -12396.930277 kJ/mol
# Density = 1.860624 g / cm^3
# Si number density = 18.648684 Si / 1000 Ang^3
#
#
#
# Elastic Constant Matrix: (Units=GPa)
#
#
# Indices 1 2 3 4 5 6 
#
# 1 159.8146 64.8564 41.4992 0.0000 0.0000 0.0000
# 2 64.8564 78.1549 36.5579 0.0000 0.0000 0.0000
# 3 41.4992 36.5579 56.9463 0.0000 0.0000 0.0000
# 4 0.0000 0.0000 0.0000 20.4336 0.0000 0.0000
# 5 0.0000 0.0000 0.0000 0.0000 23.8216 0.0000
# 6 0.0000 0.0000 0.0000 0.0000 0.0000 31.7584
#
#
#
# Elastic Compliance Matrix: (Units=1/GPa)
#
#
# Indices 1 2 3 4 5 6 
#
# 1 0.009721 -0.006793 -0.002723 0.000000 0.000000 0.000000
# 2 -0.006793 0.023034 -0.009836 0.000000 0.000000 0.000000
# 3 -0.002723 -0.009836 0.025859 0.000000 0.000000 0.000000
# 4 0.000000 0.000000 0.000000 0.048939 0.000000 0.000000
# 5 0.000000 0.000000 0.000000 0.000000 0.041979 0.000000
# 6 0.000000 0.000000 0.000000 0.000000 0.000000 0.031488
#
#
# Mechanical properties :
#
#
# Convention : Reuss Voigt Hill
#
# Bulk Modulus (GPa) = 50.22920 64.52697 57.37809
# Shear Modulus (GPa) = 22.08855 25.33621 23.71238
#
# Velocity S-wave (km/s) = 3.44533 3.68993 3.56972
# Velocity P-wave (km/s) = 6.54370 7.26846 6.91558
#
# Compressibility (1/GPa) = 0.01990874
#
# Stress axis : x y z
#
# Youngs Moduli (GPa) = 102.86716 43.41488 38.67055
#
# Poissons Ratio (x) = 0.29493 0.10531
# Poissons Ratio (y) = 0.69881 0.38037
# Poissons Ratio (z) = 0.28012 0.42704
#
# Static dielectric constant tensor:
#      x y z
#    x 3.937690 0.000000 0.000000 
#    y 0.000000 3.496120 0.000000 
#    z 0.000000 0.000000 3.110570 
# 
# 
# High freq. dielectric constant tensor:
#      x y z
#    x 1.745930 0.000000 0.000000 
#    y 0.000000 1.721440 0.000000 
#    z 0.000000 0.000000 1.683980 
# 
# From -- ./inp_files/12810.got.cif
#   From: 2010.03.12/outbox.cif.g09.slc.cpg/sg51_7_cif.got.tgz:12810.got - 2010.04.16 13:43:02.
