data_PCOD8209769
_publ_section_title
;
Structure prediction by ZEFSAII (Michael W. Deem and Ramdas Pophale) SiO2 
 PCOD8209769
Probable space group: P M M A
;
_chemical_formula_sum "Si O2"
_cell_formula_units_Z 56
_cell_length_a 8.999693
_cell_length_b 15.623568
_cell_length_c 19.614662
_cell_angle_alpha 90.000000
_cell_angle_beta 90.000000
_cell_angle_gamma 90.000000
_cell_volume 2757.964970
_symmetry_space_group_name_H-M "P M M A"
_symmetry_group_IT_number 51
_symmetry_cell_setting 'orthorhombic'
loop_
_space_group_symop_operation_xyz
x,y,z
1/2-x,-y,z
1/2+x,-y,-z
-x,y,-z
-x,-y,-z
1/2+x,y,-z
1/2-x,y,z
x,-y,z
loop_
_atom_site_type_symbol
_atom_site_label
_atom_site_fract_x
_atom_site_fract_y
_atom_site_fract_z
Si Si1 0.917470 0.659586 0.698995
Si Si2 0.573727 0.594180 0.840225
Si Si3 0.078641 0.096829 0.843206
Si Si4 0.576460 0.401278 0.431549
Si Si5 0.581020 0.144181 0.711234
Si Si6 0.585598 0.898972 0.564290
Si Si7 0.072559 0.754957 0.073390
O O1 0.750000 0.631218 0.679362
O O2 0.981903 0.604411 0.762104
O O3 0.919044 0.755709 0.726818
O O4 0.020354 0.651311 0.633282
O O5 0.750000 0.601517 0.839450
O O6 0.521995 0.500000 0.866608
O O7 0.511995 0.669390 0.888661
O O8 0.250000 0.126396 0.845962
O O9 0.022383 0.096983 0.765458
O O10 0.978281 0.159878 0.887745
O O11 0.062128 0.000000 0.871499
O O12 0.500000 0.365745 0.500000
O O13 0.750000 0.387338 0.439541
O O14 0.533300 0.500000 0.420128
O O15 0.750000 0.107755 0.715343
O O16 0.511407 0.126083 0.636357
O O17 0.500000 0.857898 0.500000
O O18 0.750000 0.858798 0.562793
O O19 0.590718 0.000000 0.556236
O O20 0.250000 0.756224 0.067694
O O21 0.000000 0.754840 0.000000
#
# Coordination Sequence:
#
# PCOD8209769 Si02
#       7
#     8   8   8   8   8   8   8
#     4  10  19  34  57  84 114 151 195 244 300 358
#     4   9  18  35  61  91 123 160 200 240 290 353
#     4  11  24  41  63  92 124 160 202 248 300 355
#     4  10  21  36  53  76 108 149 198 251 306 361
#     4  10  20  36  58  85 115 152 198 246 299 357
#     4   9  18  32  50  73 105 145 190 240 291 345
#     4  11  23  42  66  94 127 162 199 242 293 351
#
# _framework density 20.304828000000001
#
# number of rings (size 3 to 8) (size 9 to 14) (size 15 to 20)
#    0.000    2.000    1.429    2.143    0.000    5.429 
#    0.000    2.857    0.000    2.143    0.000    0.000 
#    0.000    0.000    0.000    0.000    0.000    0.000 
#
# Total GULP energy -694398.667453 kJ/mol
# GULP energy per Si atom -12399.976205 kJ/mol
# Density = 2.025861 g / cm^3
# Si number density = 20.304828 Si / 1000 Ang^3
#
#
#
# Elastic Constant Matrix: (Units=GPa)
#
#
# Indices 1 2 3 4 5 6 
#
# 1 77.3259 31.2936 45.6328 0.0000 0.0000 0.0000
# 2 31.2936 90.8025 45.8457 0.0000 0.0000 0.0000
# 3 45.6328 45.8457 146.0836 0.0000 0.0000 0.0000
# 4 0.0000 0.0000 0.0000 25.1530 0.0000 0.0000
# 5 0.0000 0.0000 0.0000 0.0000 35.1644 0.0000
# 6 0.0000 0.0000 0.0000 0.0000 0.0000 21.5563
#
#
#
# Elastic Compliance Matrix: (Units=1/GPa)
#
#
# Indices 1 2 3 4 5 6 
#
# 1 0.016863 -0.003745 -0.004092 0.000000 0.000000 0.000000
# 2 -0.003745 0.013918 -0.003198 0.000000 0.000000 0.000000
# 3 -0.004092 -0.003198 0.009127 0.000000 0.000000 0.000000
# 4 0.000000 0.000000 0.000000 0.039757 0.000000 0.000000
# 5 0.000000 0.000000 0.000000 0.000000 0.028438 0.000000
# 6 0.000000 0.000000 0.000000 0.000000 0.000000 0.046390
#
#
# Mechanical properties :
#
#
# Convention : Reuss Voigt Hill
#
# Bulk Modulus (GPa) = 56.06188 62.19513 59.12850
# Shear Modulus (GPa) = 27.39569 29.13740 28.26655
#
# Velocity S-wave (km/s) = 3.67716 3.79225 3.73515
# Velocity P-wave (km/s) = 6.76008 7.06202 6.91270
#
# Compressibility (1/GPa) = 0.01783743
#
# Stress axis : x y z
#
# Youngs Moduli (GPa) = 59.30155 71.84728 109.56122
#
# Poissons Ratio (x) = 0.26910 0.44834
# Poissons Ratio (y) = 0.22211 0.35038
# Poissons Ratio (z) = 0.24267 0.22977
#
# Static dielectric constant tensor:
#      x y z
#    x 3.558320 0.000000 0.000000 
#    y 0.000000 3.698340 0.000000 
#    z 0.000000 0.000000 3.731750 
# 
# 
# High freq. dielectric constant tensor:
#      x y z
#    x 1.770380 0.000000 0.000000 
#    y 0.000000 1.795360 0.000000 
#    z 0.000000 0.000000 1.797990 
# 
# From -- ./inp_files/32021.got.cif
#   From: 2010.03.12/outbox.cif.g09.slc.cpg/sg51_17_cif.got.tgz:32021.got - 2010.04.16 13:43:02.
