data_PCOD8209162
_publ_section_title
;
Structure prediction by ZEFSAII (Michael W. Deem and Ramdas Pophale) SiO2 
 PCOD8209162
Probable space group: P M M A
;
_chemical_formula_sum "Si O2"
_cell_formula_units_Z 64
_cell_length_a 16.463104
_cell_length_b 21.762738
_cell_length_c 9.269216
_cell_angle_alpha 90.000000
_cell_angle_beta 90.000000
_cell_angle_gamma 90.000000
_cell_volume 3320.995277
_symmetry_space_group_name_H-M "P M M A"
_symmetry_group_IT_number 51
_symmetry_cell_setting 'orthorhombic'
loop_
_space_group_symop_operation_xyz
x,y,z
1/2-x,-y,z
1/2+x,-y,-z
-x,y,-z
-x,-y,-z
1/2+x,y,-z
1/2-x,y,z
x,-y,z
loop_
_atom_site_type_symbol
_atom_site_label
_atom_site_fract_x
_atom_site_fract_y
_atom_site_fract_z
Si Si1 0.036193 0.878178 0.347115
Si Si2 0.156682 0.069885 0.122699
Si Si3 0.081434 0.325829 0.184194
Si Si4 0.902920 0.296117 0.128809
Si Si5 0.924193 0.161667 0.097191
Si Si6 0.839302 0.665081 0.409594
Si Si7 0.344625 0.235146 0.386846
Si Si8 0.917983 0.568843 0.588842
O O1 0.095338 0.924614 0.259389
O O2 0.094889 0.821357 0.377671
O O3 0.000000 0.903952 0.500000
O O4 0.956669 0.863856 0.249938
O O5 0.250000 0.086586 0.166680
O O6 0.151770 0.000000 0.068067
O O7 0.130391 0.111924 0.986942
O O8 0.147730 0.278409 0.246029
O O9 0.078964 0.391474 0.264658
O O10 0.993392 0.294606 0.194206
O O11 0.104503 0.335284 0.017346
O O12 0.873439 0.225017 0.116663
O O13 0.847712 0.334524 0.238265
O O14 0.000000 0.181094 0.000000
O O15 0.750000 0.680594 0.458775
O O16 0.884433 0.723188 0.484063
O O17 0.857040 0.598475 0.474425
O O18 0.250000 0.213738 0.402932
O O19 0.890591 0.500000 0.630567
O O20 0.000000 0.568704 0.500000
#
# Coordination Sequence:
#
# PCOD8209162 Si02
#       8
#     8   8   8   8   8   8   8   8
#     4  11  21  34  58  90 119 150 191 245 299 357
#     4  10  23  43  62  81 114 160 205 247 290 345
#     4  10  19  32  55  80 114 149 185 236 290 340
#     4  11  18  33  53  86 118 145 179 233 295 346
#     4  10  19  34  59  87 115 153 194 230 288 352
#     4  10  22  35  54  82 113 151 186 233 293 347
#     4  10  20  34  54  83 115 151 190 228 286 354
#     4  10  20  36  57  78 103 150 202 238 279 341
#
# _framework density 19.271331
#
# number of rings (size 3 to 8) (size 9 to 14) (size 15 to 20)
#    0.000    1.750    3.750    1.875    0.000    3.750 
#    0.000    3.125    0.000    1.500    0.000    0.000 
#    0.000    0.000    0.000    0.000    0.000    0.000 
#
# Total GULP energy -792954.199116 kJ/mol
# GULP energy per Si atom -12389.909361 kJ/mol
# Density = 1.922747 g / cm^3
# Si number density = 19.271331 Si / 1000 Ang^3
#
#
#
# Elastic Constant Matrix: (Units=GPa)
#
#
# Indices 1 2 3 4 5 6 
#
# 1 65.3547 32.2358 39.7143 0.0000 0.0000 0.0000
# 2 32.2358 115.8156 54.9539 0.0000 0.0000 0.0000
# 3 39.7143 54.9539 126.1429 0.0000 0.0000 0.0000
# 4 0.0000 0.0000 0.0000 17.8267 0.0000 0.0000
# 5 0.0000 0.0000 0.0000 0.0000 17.5084 0.0000
# 6 0.0000 0.0000 0.0000 0.0000 0.0000 39.1638
#
#
#
# Elastic Compliance Matrix: (Units=1/GPa)
#
#
# Indices 1 2 3 4 5 6 
#
# 1 0.019832 -0.003224 -0.004839 0.000000 0.000000 0.000000
# 2 -0.003224 0.011408 -0.003955 0.000000 0.000000 0.000000
# 3 -0.004839 -0.003955 0.011174 0.000000 0.000000 0.000000
# 4 0.000000 0.000000 0.000000 0.056096 0.000000 0.000000
# 5 0.000000 0.000000 0.000000 0.000000 0.057116 0.000000
# 6 0.000000 0.000000 0.000000 0.000000 0.000000 0.025534
#
#
# Mechanical properties :
#
#
# Convention : Reuss Voigt Hill
#
# Bulk Modulus (GPa) = 54.41265 62.34680 58.37973
# Shear Modulus (GPa) = 23.66058 26.92705 25.29382
#
# Velocity S-wave (km/s) = 3.50774 3.74205 3.62679
# Velocity P-wave (km/s) = 6.68596 7.14793 6.92080
#
# Compressibility (1/GPa) = 0.01837808
#
# Stress axis : x y z
#
# Youngs Moduli (GPa) = 50.42368 87.65497 89.49212
#
# Poissons Ratio (x) = 0.28257 0.43309
# Poissons Ratio (y) = 0.16255 0.35395
# Poissons Ratio (z) = 0.24402 0.34668
#
# Static dielectric constant tensor:
#      x y z
#    x 3.602100 0.000000 0.000000 
#    y 0.000000 3.507760 0.000000 
#    z 0.000000 0.000000 3.723210 
# 
# 
# High freq. dielectric constant tensor:
#      x y z
#    x 1.739500 0.000000 0.000000 
#    y 0.000000 1.733480 0.000000 
#    z 0.000000 0.000000 1.754730 
# 
# From -- ./inp_files/10017.got.cif
#   From: 2010.03.12/outbox.cif.g09.slc.cpg/sg51_6_cif.got.tgz:10017.got - 2010.04.16 13:43:02.
