data_PCOD8209009
_publ_section_title
;
Structure prediction by ZEFSAII (Michael W. Deem and Ramdas Pophale) SiO2 
 PCOD8209009
Probable space group: P M M A
;
_chemical_formula_sum "Si O2"
_cell_formula_units_Z 52
_cell_length_a 8.984443
_cell_length_b 12.748148
_cell_length_c 22.479701
_cell_angle_alpha 90.000000
_cell_angle_beta 90.000000
_cell_angle_gamma 90.000000
_cell_volume 2574.712758
_symmetry_space_group_name_H-M "P M M A"
_symmetry_group_IT_number 51
_symmetry_cell_setting 'orthorhombic'
loop_
_space_group_symop_operation_xyz
x,y,z
1/2-x,-y,z
1/2+x,-y,-z
-x,y,-z
-x,-y,-z
1/2+x,y,-z
1/2-x,y,z
x,-y,z
loop_
_atom_site_type_symbol
_atom_site_label
_atom_site_fract_x
_atom_site_fract_y
_atom_site_fract_z
Si Si1 0.574333 0.691157 0.441300
Si Si2 0.083370 0.621569 0.324479
Si Si3 0.911240 0.879166 0.735112
Si Si4 0.422194 0.824033 0.849084
Si Si5 0.571977 0.000000 0.063938
Si Si6 0.923117 0.881271 0.604339
Si Si7 0.075215 0.381239 0.793894
O O1 0.500000 0.639370 0.500000
O O2 0.750000 0.679985 0.445741
O O3 0.516445 0.632861 0.382867
O O4 0.523372 0.812920 0.439859
O O5 0.250000 0.667537 0.334353
O O6 0.091785 0.500000 0.309484
O O7 0.009903 0.668393 0.263548
O O8 0.750000 0.839240 0.759211
O O9 0.948323 0.827197 0.670412
O O10 0.035687 0.867456 0.784563
O O11 0.896366 0.000000 0.716691
O O12 0.250000 0.842560 0.856080
O O13 0.461274 0.698591 0.849301
O O14 0.491475 0.895614 0.901696
O O15 0.750000 0.000000 0.057797
O O16 0.500000 0.000000 0.000000
O O17 0.750000 0.874456 0.586539
O O18 0.982115 0.000000 0.600333
O O19 0.250000 0.378721 0.778940
O O20 0.025852 0.500000 0.811095
#
# Coordination Sequence:
#
# PCOD8209009 Si02
#       7
#     8   8   8   8   4   8   8
#     4  12  25  39  55  74  99 135 180 228 276 332
#     4  10  21  38  59  82 109 139 172 217 272 327
#     4   9  17  29  48  76 106 135 169 210 265 325
#     4  10  19  32  52  78 110 145 181 226 268 313
#     4  10  22  38  54  78 112 152 195 232 269 312
#     4   9  19  36  55  76 105 138 173 219 271 329
#     4   9  18  33  55  84 114 143 176 217 273 334
#
# _framework density 20.196428000000001
#
# number of rings (size 3 to 8) (size 9 to 14) (size 15 to 20)
#    0.000    2.154    0.769    3.692    0.000    6.154 
#    0.000    1.538    0.000    0.462    0.000    0.000 
#    0.000    0.000    0.000    0.000    0.000    0.000 
#
# Total GULP energy -644406.687116 kJ/mol
# GULP energy per Si atom -12392.436291 kJ/mol
# Density = 2.015046 g / cm^3
# Si number density = 20.196428 Si / 1000 Ang^3
#
#
#
# Elastic Constant Matrix: (Units=GPa)
#
#
# Indices 1 2 3 4 5 6 
#
# 1 69.8481 32.7979 36.6700 0.0000 0.0000 0.0000
# 2 32.7979 74.7993 53.3437 0.0000 0.0000 0.0000
# 3 36.6700 53.3437 113.5331 0.0000 0.0000 0.0000
# 4 0.0000 0.0000 0.0000 21.8148 0.0000 0.0000
# 5 0.0000 0.0000 0.0000 0.0000 29.1590 0.0000
# 6 0.0000 0.0000 0.0000 0.0000 0.0000 23.5863
#
#
#
# Elastic Compliance Matrix: (Units=1/GPa)
#
#
# Indices 1 2 3 4 5 6 
#
# 1 0.018821 -0.005892 -0.003311 0.000000 0.000000 0.000000
# 2 -0.005892 0.021950 -0.008411 0.000000 0.000000 0.000000
# 3 -0.003311 -0.008411 0.013829 0.000000 0.000000 0.000000
# 4 0.000000 0.000000 0.000000 0.045841 0.000000 0.000000
# 5 0.000000 0.000000 0.000000 0.000000 0.034295 0.000000
# 6 0.000000 0.000000 0.000000 0.000000 0.000000 0.042398
#
#
# Mechanical properties :
#
#
# Convention : Reuss Voigt Hill
#
# Bulk Modulus (GPa) = 51.61321 55.97819 53.79570
# Shear Modulus (GPa) = 22.85000 23.93660 23.39330
#
# Velocity S-wave (km/s) = 3.36726 3.44639 3.40706
# Velocity P-wave (km/s) = 6.38193 6.60408 6.49395
#
# Compressibility (1/GPa) = 0.01937489
#
# Stress axis : x y z
#
# Youngs Moduli (GPa) = 53.13079 45.55709 72.31118
#
# Poissons Ratio (x) = 0.26840 0.23942
# Poissons Ratio (y) = 0.31302 0.60818
# Poissons Ratio (z) = 0.17591 0.38316
#
# Static dielectric constant tensor:
#      x y z
#    x 3.548690 0.000000 0.000000 
#    y 0.000000 4.129700 0.000000 
#    z 0.000000 0.000000 3.378670 
# 
# 
# High freq. dielectric constant tensor:
#      x y z
#    x 1.776390 0.000000 0.000000 
#    y 0.000000 1.815820 0.000000 
#    z 0.000000 0.000000 1.750920 
# 
# From -- ./inp_files/31739.got.cif
#   From: 2010.03.12/outbox.cif.g09.slc.cpg/sg51_16_cif.got.tgz:31739.got - 2010.04.16 13:43:02.
