data_PCOD8209483
_publ_section_title
;
Structure prediction by ZEFSAII (Michael W. Deem and Ramdas Pophale) SiO2 
 PCOD8209483
Probable space group: P M M A
;
_chemical_formula_sum "Si O2"
_cell_formula_units_Z 64
_cell_length_a 14.465431
_cell_length_b 9.146500
_cell_length_c 25.321833
_cell_angle_alpha 90.000000
_cell_angle_beta 90.000000
_cell_angle_gamma 90.000000
_cell_volume 3350.282717
_symmetry_space_group_name_H-M "P M M A"
_symmetry_group_IT_number 51
_symmetry_cell_setting 'orthorhombic'
loop_
_space_group_symop_operation_xyz
x,y,z
1/2-x,-y,z
1/2+x,-y,-z
-x,y,-z
-x,-y,-z
1/2+x,y,-z
1/2-x,y,z
x,-y,z
loop_
_atom_site_type_symbol
_atom_site_label
_atom_site_fract_x
_atom_site_fract_y
_atom_site_fract_z
Si Si1 0.141547 0.327008 0.233017
Si Si2 0.851051 0.673936 0.089455
Si Si3 0.894975 0.334413 0.483218
Si Si4 0.855810 0.667085 0.972708
Si Si5 0.542131 0.326354 0.872382
Si Si6 0.850646 0.837050 0.581210
Si Si7 0.356231 0.328611 0.634232
Si Si8 0.474018 0.825155 0.324071
O O1 0.250000 0.286565 0.234729
O O2 0.127078 0.500000 0.240626
O O3 0.097720 0.268642 0.178203
O O4 0.085529 0.241201 0.277170
O O5 0.750000 0.731182 0.109423
O O6 0.846265 0.500000 0.084657
O O7 0.933301 0.720831 0.129377
O O8 0.871895 0.738292 0.030604
O O9 0.860098 0.500000 0.483500
O O10 0.837767 0.250383 0.527186
O O11 0.875138 0.269643 0.425154
O O12 0.000000 0.317955 0.500000
O O13 0.750000 0.680540 0.955435
O O14 0.887704 0.500000 0.976386
O O15 0.915277 0.742807 0.926147
O O16 0.552515 0.500000 0.873621
O O17 0.750000 0.836367 0.609224
O O18 0.924739 0.770927 0.621903
O O19 0.882024 0.000000 0.566178
O O20 0.250000 0.298109 0.650070
O O21 0.380141 0.500000 0.638446
O O22 0.422093 0.240165 0.674712
O O23 0.476379 0.000000 0.318789
#
# Coordination Sequence:
#
# PCOD8209483 Si02
#       8
#     8   8   8   8   8   8   8   8
#     4  10  21  36  54  76 101 131 171 220 273 325
#     4   8  13  20  32  55  89 128 165 200 245 306
#     4  10  19  33  55  82 112 142 170 204 247 303
#     4   8  12  18  31  54  86 124 163 201 247 307
#     4   9  15  24  39  60  90 128 167 208 256 314
#     4  10  21  35  52  76 105 137 173 212 256 306
#     4  10  21  38  59  83 112 143 176 214 256 305
#     4  11  23  39  58  77 103 137 177 222 266 313
#
# _framework density 19.102865000000001
#
# number of rings (size 3 to 8) (size 9 to 14) (size 15 to 20)
#    0.000    2.500    1.250    2.625    0.000    6.000 
#    0.000    0.625    0.000    2.250    0.000    0.000 
#    0.000    2.000    0.000    3.000    0.000    2.500 
#
# Total GULP energy -793098.381888 kJ/mol
# GULP energy per Si atom -12392.162217 kJ/mol
# Density = 1.905939 g / cm^3
# Si number density = 19.102865 Si / 1000 Ang^3
#
#
#
# Elastic Constant Matrix: (Units=GPa)
#
#
# Indices 1 2 3 4 5 6 
#
# 1 144.8505 36.5753 70.9497 0.0000 0.0000 0.0000
# 2 36.5753 35.9205 29.0394 0.0000 0.0000 0.0000
# 3 70.9497 29.0394 93.0976 0.0000 0.0000 0.0000
# 4 0.0000 0.0000 0.0000 4.3956 0.0000 0.0000
# 5 0.0000 0.0000 0.0000 0.0000 33.6659 0.0000
# 6 0.0000 0.0000 0.0000 0.0000 0.0000 15.1442
#
#
#
# Elastic Compliance Matrix: (Units=1/GPa)
#
#
# Indices 1 2 3 4 5 6 
#
# 1 0.012046 -0.006478 -0.007160 0.000000 0.000000 0.000000
# 2 -0.006478 0.040710 -0.007762 0.000000 0.000000 0.000000
# 3 -0.007160 -0.007762 0.018619 0.000000 0.000000 0.000000
# 4 0.000000 0.000000 0.000000 0.227500 0.000000 0.000000
# 5 0.000000 0.000000 0.000000 0.000000 0.029704 0.000000
# 6 0.000000 0.000000 0.000000 0.000000 0.000000 0.066032
#
#
# Mechanical properties :
#
#
# Convention : Reuss Voigt Hill
#
# Bulk Modulus (GPa) = 34.99376 60.77747 47.88562
# Shear Modulus (GPa) = 11.18731 19.79476 15.49103
#
# Velocity S-wave (km/s) = 2.42262 3.22253 2.85077
# Velocity P-wave (km/s) = 5.11701 6.76249 5.99646
#
# Compressibility (1/GPa) = 0.02857652
#
# Stress axis : x y z
#
# Youngs Moduli (GPa) = 83.01275 24.56411 53.70800
#
# Poissons Ratio (x) = 0.15911 0.38455
# Poissons Ratio (y) = 0.53772 0.41687
# Poissons Ratio (z) = 0.59437 0.19066
#
# Static dielectric constant tensor:
#      x y z
#    x 3.732160 0.000000 0.000000 
#    y 0.000000 2.984330 0.000000 
#    z 0.000000 0.000000 3.483080 
# 
# 
# High freq. dielectric constant tensor:
#      x y z
#    x 1.764060 0.000000 0.000000 
#    y 0.000000 1.682380 0.000000 
#    z 0.000000 0.000000 1.727860 
# 
# From -- ./inp_files/35757.got.cif
#   From: 2010.03.12/outbox.cif.g09.slc.cpg/sg51_18_cif.got.tgz:35757.got - 2010.04.16 13:43:02.
