data_PCOD8209667
_publ_section_title
;
Structure prediction by ZEFSAII (Michael W. Deem and Ramdas Pophale) SiO2 
 PCOD8209667
Probable space group: P M M A
;
_chemical_formula_sum "Si O2"
_cell_formula_units_Z 56
_cell_length_a 23.054433
_cell_length_b 8.987744
_cell_length_c 13.584831
_cell_angle_alpha 90.000000
_cell_angle_beta 90.000000
_cell_angle_gamma 90.000000
_cell_volume 2814.876721
_symmetry_space_group_name_H-M "P M M A"
_symmetry_group_IT_number 51
_symmetry_cell_setting 'orthorhombic'
loop_
_space_group_symop_operation_xyz
x,y,z
1/2-x,-y,z
1/2+x,-y,-z
-x,y,-z
-x,-y,-z
1/2+x,y,-z
1/2-x,y,z
x,-y,z
loop_
_atom_site_type_symbol
_atom_site_label
_atom_site_fract_x
_atom_site_fract_y
_atom_site_fract_z
Si Si1 0.315582 0.670991 0.446743
Si Si2 0.369243 0.324543 0.083955
Si Si3 0.250000 0.323303 0.005837
Si Si4 0.087352 0.676023 0.291901
Si Si5 0.555553 0.836109 0.066148
Si Si6 0.529960 0.825891 0.283570
Si Si7 0.750000 0.322337 0.219126
Si Si8 0.655761 0.824931 0.353196
O O1 0.250000 0.688108 0.405287
O O2 0.327506 0.500000 0.476940
O O3 0.360985 0.724784 0.364481
O O4 0.322321 0.774797 0.540889
O O5 0.370139 0.500000 0.092646
O O6 0.396749 0.257719 0.183889
O O7 0.304380 0.263928 0.068414
O O8 0.402303 0.279188 0.985503
O O9 0.250000 0.500000 0.000526
O O10 0.250000 0.265287 0.893454
O O11 0.081011 0.500000 0.289085
O O12 0.026191 0.743414 0.328627
O O13 0.539150 0.769690 0.172049
O O14 0.584732 0.000000 0.078719
O O15 0.500000 0.853620 0.000000
O O16 0.587547 0.784856 0.344789
O O17 0.516641 0.000000 0.286822
O O18 0.750000 0.500000 0.228842
O O19 0.808063 0.259466 0.269504
O O20 0.666201 0.000000 0.340113
#
# Coordination Sequence:
#
# PCOD8209667 Si02
#       8
#     8   8   4   8   8   8   4   8
#     4  10  22  41  63  86 113 150 193 237 293 349
#     4  10  20  35  56  84 116 151 191 234 278 329
#     4   9  20  35  54  83 118 150 183 229 282 333
#     4  10  22  37  58  87 116 150 194 240 283 340
#     4  10  19  34  56  79 112 154 190 226 274 333
#     4  10  22  39  58  84 118 156 191 233 290 344
#     4  11  21  37  60  87 118 152 187 231 290 345
#     4  11  23  39  62  88 114 147 192 241 288 342
#
# _framework density 19.894300000000001
#
# number of rings (size 3 to 8) (size 9 to 14) (size 15 to 20)
#    0.000    1.857    2.143    1.500    1.000    3.143 
#    0.000    3.929    0.000    0.000    0.000    0.000 
#    0.000    0.000    0.000    0.000    0.000    0.000 
#
# Total GULP energy -694395.645958 kJ/mol
# GULP energy per Si atom -12399.922249 kJ/mol
# Density = 1.984902 g / cm^3
# Si number density = 19.894300 Si / 1000 Ang^3
#
#
#
# Elastic Constant Matrix: (Units=GPa)
#
#
# Indices 1 2 3 4 5 6 
#
# 1 147.9346 37.3951 35.5590 0.0000 0.0000 0.0000
# 2 37.3951 46.0680 20.3747 0.0000 0.0000 0.0000
# 3 35.5590 20.3747 58.4685 0.0000 0.0000 0.0000
# 4 0.0000 0.0000 0.0000 20.6048 0.0000 0.0000
# 5 0.0000 0.0000 0.0000 0.0000 35.9739 0.0000
# 6 0.0000 0.0000 0.0000 0.0000 0.0000 19.7965
#
#
#
# Elastic Compliance Matrix: (Units=1/GPa)
#
#
# Indices 1 2 3 4 5 6 
#
# 1 0.009069 -0.005819 -0.003488 0.000000 0.000000 0.000000
# 2 -0.005819 0.029396 -0.006705 0.000000 0.000000 0.000000
# 3 -0.003488 -0.006705 0.021561 0.000000 0.000000 0.000000
# 4 0.000000 0.000000 0.000000 0.048532 0.000000 0.000000
# 5 0.000000 0.000000 0.000000 0.000000 0.027798 0.000000
# 6 0.000000 0.000000 0.000000 0.000000 0.000000 0.050514
#
#
# Mechanical properties :
#
#
# Convention : Reuss Voigt Hill
#
# Bulk Modulus (GPa) = 35.71085 48.79209 42.25147
# Shear Modulus (GPa) = 21.90798 25.88454 23.89626
#
# Velocity S-wave (km/s) = 3.32206 3.61099 3.46954
# Velocity P-wave (km/s) = 5.71875 6.47801 6.11018
#
# Compressibility (1/GPa) = 0.02800269
#
# Stress axis : x y z
#
# Youngs Moduli (GPa) = 110.26493 34.01829 46.38048
#
# Poissons Ratio (x) = 0.19796 0.16176
# Poissons Ratio (y) = 0.64165 0.31097
# Poissons Ratio (z) = 0.38458 0.22808
#
# Static dielectric constant tensor:
#      x y z
#    x 3.741130 0.000000 0.000000 
#    y 0.000000 3.465110 0.000000 
#    z 0.000000 0.000000 3.671430 
# 
# 
# High freq. dielectric constant tensor:
#      x y z
#    x 1.790350 0.000000 0.000000 
#    y 0.000000 1.757440 0.000000 
#    z 0.000000 0.000000 1.773700 
# 
# From -- ./inp_files/25795.got.cif
#   From: 2010.03.12/outbox.cif.g09.slc.cpg/sg51_13_cif.got.tgz:25795.got - 2010.04.16 13:43:02.
