data_PCOD8209413
_publ_section_title
;
Structure prediction by ZEFSAII (Michael W. Deem and Ramdas Pophale) SiO2 
 PCOD8209413
Probable space group: P M M A
;
_chemical_formula_sum "Si O2"
_cell_formula_units_Z 56
_cell_length_a 14.722057
_cell_length_b 14.561779
_cell_length_c 14.446934
_cell_angle_alpha 90.000000
_cell_angle_beta 90.000000
_cell_angle_gamma 90.000000
_cell_volume 3097.124183
_symmetry_space_group_name_H-M "P M M A"
_symmetry_group_IT_number 51
_symmetry_cell_setting 'orthorhombic'
loop_
_space_group_symop_operation_xyz
x,y,z
1/2-x,-y,z
1/2+x,-y,-z
-x,y,-z
-x,-y,-z
1/2+x,y,-z
1/2-x,y,z
x,-y,z
loop_
_atom_site_type_symbol
_atom_site_label
_atom_site_fract_x
_atom_site_fract_y
_atom_site_fract_z
Si Si1 0.853801 0.894487 0.430640
Si Si2 0.854277 0.403165 0.663623
Si Si3 0.145288 0.398112 0.932529
Si Si4 0.985721 0.767876 0.104614
Si Si5 0.491309 0.107901 0.729771
Si Si6 0.851014 0.652843 0.864138
Si Si7 0.642329 0.796203 0.620023
O O1 0.750000 0.878225 0.400549
O O2 0.916535 0.864162 0.346094
O O3 0.880021 0.833611 0.518662
O O4 0.870989 0.000000 0.458631
O O5 0.750000 0.402462 0.633662
O O6 0.898157 0.500000 0.625927
O O7 0.864151 0.410055 0.774615
O O8 0.896235 0.308890 0.623590
O O9 0.250000 0.374480 0.910016
O O10 0.120505 0.500000 0.893164
O O11 0.083238 0.318689 0.888472
O O12 0.128354 0.404218 0.042835
O O13 0.955732 0.849208 0.173128
O O14 0.083071 0.739058 0.143605
O O15 0.000000 0.804288 0.000000
O O16 0.589316 0.144308 0.696449
O O17 0.497625 0.000000 0.745027
O O18 0.750000 0.694564 0.866999
O O19 0.750000 0.801801 0.643175
#
# Coordination Sequence:
#
# PCOD8209413 Si02
#       7
#     8   8   8   8   8   8   8
#     4   9  19  36  58  80  99 125 169 222 267 307
#     4   9  16  26  45  74 106 137 164 194 242 308
#     4   9  18  32  51  74 100 132 174 222 263 299
#     4  10  21  34  50  76 104 142 177 212 255 309
#     4  11  22  36  54  77 103 136 176 219 265 311
#     4   9  16  29  48  73 105 135 169 210 253 301
#     4  10  19  33  54  82 109 132 162 209 267 320
#
# _framework density 18.081289000000002
#
# number of rings (size 3 to 8) (size 9 to 14) (size 15 to 20)
#    0.000    2.429    1.429    1.286    0.000    7.714 
#    0.000    0.000    0.000    2.571    0.000    8.000 
#    0.000    0.000    0.000    0.000    0.000    0.000 
#
# Total GULP energy -693917.765400 kJ/mol
# GULP energy per Si atom -12391.388668 kJ/mol
# Density = 1.804014 g / cm^3
# Si number density = 18.081289 Si / 1000 Ang^3
#
#
#
# Elastic Constant Matrix: (Units=GPa)
#
#
# Indices 1 2 3 4 5 6 
#
# 1 66.2812 46.9392 40.7043 0.0000 0.0000 0.0000
# 2 46.9392 136.4366 71.2581 0.0000 0.0000 0.0000
# 3 40.7043 71.2581 91.5045 0.0000 0.0000 0.0000
# 4 0.0000 0.0000 0.0000 19.6325 0.0000 0.0000
# 5 0.0000 0.0000 0.0000 0.0000 18.6294 0.0000
# 6 0.0000 0.0000 0.0000 0.0000 0.0000 17.6219
#
#
#
# Elastic Compliance Matrix: (Units=1/GPa)
#
#
# Indices 1 2 3 4 5 6 
#
# 1 0.022073 -0.004156 -0.006582 0.000000 0.000000 0.000000
# 2 -0.004156 0.013137 -0.008381 0.000000 0.000000 0.000000
# 3 -0.006582 -0.008381 0.020383 0.000000 0.000000 0.000000
# 4 0.000000 0.000000 0.000000 0.050936 0.000000 0.000000
# 5 0.000000 0.000000 0.000000 0.000000 0.053679 0.000000
# 6 0.000000 0.000000 0.000000 0.000000 0.000000 0.056747
#
#
# Mechanical properties :
#
#
# Convention : Reuss Voigt Hill
#
# Bulk Modulus (GPa) = 57.62515 68.00283 62.81399
# Shear Modulus (GPa) = 19.15872 20.19816 19.67844
#
# Velocity S-wave (km/s) = 3.25866 3.34589 3.30257
# Velocity P-wave (km/s) = 6.78953 7.25381 7.02551
#
# Compressibility (1/GPa) = 0.01735353
#
# Stress axis : x y z
#
# Youngs Moduli (GPa) = 45.30481 76.12329 49.06012
#
# Poissons Ratio (x) = 0.31638 0.32292
# Poissons Ratio (y) = 0.18829 0.41118
# Poissons Ratio (z) = 0.29820 0.63800
#
# Static dielectric constant tensor:
#      x y z
#    x 3.354480 0.000000 0.000000 
#    y 0.000000 3.470030 0.000000 
#    z 0.000000 0.000000 3.199880 
# 
# 
# High freq. dielectric constant tensor:
#      x y z
#    x 1.692780 0.000000 0.000000 
#    y 0.000000 1.696730 0.000000 
#    z 0.000000 0.000000 1.680220 
# 
# From -- ./inp_files/24310.got.cif
#   From: 2010.03.12/outbox.cif.g09.slc.cpg/sg51_13_cif.got.tgz:24310.got - 2010.04.16 13:43:02.
