data_PCOD8209780
_publ_section_title
;
Structure prediction by ZEFSAII (Michael W. Deem and Ramdas Pophale) SiO2 
 PCOD8209780
Probable space group: P M M A
;
_chemical_formula_sum "Si O2"
_cell_formula_units_Z 48
_cell_length_a 8.796855
_cell_length_b 20.530423
_cell_length_c 14.125232
_cell_angle_alpha 90.000000
_cell_angle_beta 90.000000
_cell_angle_gamma 90.000000
_cell_volume 2551.061453
_symmetry_space_group_name_H-M "P M M A"
_symmetry_group_IT_number 51
_symmetry_cell_setting 'orthorhombic'
loop_
_space_group_symop_operation_xyz
x,y,z
1/2-x,-y,z
1/2+x,-y,-z
-x,y,-z
-x,-y,-z
1/2+x,y,-z
1/2-x,y,z
x,-y,z
loop_
_atom_site_type_symbol
_atom_site_label
_atom_site_fract_x
_atom_site_fract_y
_atom_site_fract_z
Si Si1 0.571792 0.316905 0.597316
Si Si2 0.068852 0.500000 0.104254
Si Si3 0.071283 0.000000 0.897180
Si Si4 0.570468 0.165984 0.598244
Si Si5 0.430520 0.629747 0.206218
Si Si6 0.569934 0.127366 0.215944
Si Si7 0.929993 0.242748 0.899145
O O1 0.500000 0.343506 0.500000
O O2 0.750000 0.325508 0.587081
O O3 0.528957 0.241729 0.615196
O O4 0.508589 0.358746 0.686599
O O5 0.250000 0.500000 0.095148
O O6 0.008499 0.437720 0.162903
O O7 0.000000 0.500000 0.000000
O O8 0.017098 0.063281 0.839939
O O9 0.250000 0.000000 0.909938
O O10 0.000000 0.000000 0.000000
O O11 0.500000 0.141971 0.500000
O O12 0.750000 0.154224 0.599858
O O13 0.488336 0.121759 0.676758
O O14 0.250000 0.630259 0.209620
O O15 0.487916 0.687318 0.137742
O O16 0.750000 0.137005 0.212224
O O17 0.485549 0.188965 0.173058
O O18 0.750000 0.239896 0.906047
O O19 0.000000 0.227512 0.000000
#
# Coordination Sequence:
#
# PCOD8209780 Si02
#       7
#     8   4   4   8   8   8   8
#     4   9  17  32  52  78 109 141 176 219 270 323
#     4  10  20  36  57  76 104 148 187 224 273 328
#     4  10  24  42  59  80 111 148 187 230 276 334
#     4  10  19  34  57  85 116 147 182 227 278 330
#     4   9  18  34  54  77 108 144 182 223 274 329
#     4  11  22  38  58  83 111 145 186 228 278 332
#     4  11  21  35  53  79 110 140 181 234 281 329
#
# _framework density 18.815695999999999
#
# number of rings (size 3 to 8) (size 9 to 14) (size 15 to 20)
#    0.000    2.000    1.667    2.500    0.000    3.333 
#    0.000    2.500    0.000    0.000    0.000    0.000 
#    0.000    0.000    0.000    0.000    0.000    0.000 
#
# Total GULP energy -595261.163932 kJ/mol
# GULP energy per Si atom -12401.274249 kJ/mol
# Density = 1.877287 g / cm^3
# Si number density = 18.815696 Si / 1000 Ang^3
#
#
#
# Elastic Constant Matrix: (Units=GPa)
#
#
# Indices 1 2 3 4 5 6 
#
# 1 47.1801 31.7408 36.3834 0.0000 0.0000 0.0000
# 2 31.7408 111.9134 59.5366 0.0000 0.0000 0.0000
# 3 36.3834 59.5366 168.3881 0.0000 0.0000 0.0000
# 4 0.0000 0.0000 0.0000 36.5281 0.0000 0.0000
# 5 0.0000 0.0000 0.0000 0.0000 37.6801 0.0000
# 6 0.0000 0.0000 0.0000 0.0000 0.0000 19.6908
#
#
#
# Elastic Compliance Matrix: (Units=1/GPa)
#
#
# Indices 1 2 3 4 5 6 
#
# 1 0.028251 -0.005869 -0.004029 0.000000 0.000000 0.000000
# 2 -0.005869 0.012225 -0.003054 0.000000 0.000000 0.000000
# 3 -0.004029 -0.003054 0.007889 0.000000 0.000000 0.000000
# 4 0.000000 0.000000 0.000000 0.027376 0.000000 0.000000
# 5 0.000000 0.000000 0.000000 0.000000 0.026539 0.000000
# 6 0.000000 0.000000 0.000000 0.000000 0.000000 0.050785
#
#
# Mechanical properties :
#
#
# Convention : Reuss Voigt Hill
#
# Bulk Modulus (GPa) = 44.52317 64.75590 54.63953
# Shear Modulus (GPa) = 26.81589 32.10120 29.45854
#
# Velocity S-wave (km/s) = 3.77926 4.13496 3.96111
# Velocity P-wave (km/s) = 6.53895 7.56887 7.07268
#
# Compressibility (1/GPa) = 0.02246022
#
# Stress axis : x y z
#
# Youngs Moduli (GPa) = 35.39713 81.80052 126.75778
#
# Poissons Ratio (x) = 0.48010 0.51071
# Poissons Ratio (y) = 0.20775 0.38714
# Poissons Ratio (z) = 0.14262 0.24983
#
# Static dielectric constant tensor:
#      x y z
#    x 3.280330 0.000000 0.000000 
#    y 0.000000 3.526110 0.000000 
#    z 0.000000 0.000000 3.244730 
# 
# 
# High freq. dielectric constant tensor:
#      x y z
#    x 1.717800 0.000000 0.000000 
#    y 0.000000 1.715060 0.000000 
#    z 0.000000 0.000000 1.751760 
# 
# From -- ./inp_files/21225.got.cif
#   From: 2010.03.12/outbox.cif.g09.slc.cpg/sg51_11_cif.got.tgz:21225.got - 2010.04.16 13:43:02.
