data_PCOD8209906
_publ_section_title
;
Structure prediction by ZEFSAII (Michael W. Deem and Ramdas Pophale) SiO2 
 PCOD8209906
Probable space group: P M M A
;
_chemical_formula_sum "Si O2"
_cell_formula_units_Z 40
_cell_length_a 10.146111
_cell_length_b 9.148014
_cell_length_c 24.674563
_cell_angle_alpha 90.000000
_cell_angle_beta 90.000000
_cell_angle_gamma 90.000000
_cell_volume 2290.213127
_symmetry_space_group_name_H-M "P M M A"
_symmetry_group_IT_number 51
_symmetry_cell_setting 'orthorhombic'
loop_
_space_group_symop_operation_xyz
x,y,z
1/2-x,-y,z
1/2+x,-y,-z
-x,y,-z
-x,-y,-z
1/2+x,y,-z
1/2-x,y,z
x,-y,z
loop_
_atom_site_type_symbol
_atom_site_label
_atom_site_fract_x
_atom_site_fract_y
_atom_site_fract_z
Si Si1 0.599420 0.827373 0.453968
Si Si2 0.406815 0.337195 0.651862
Si Si3 0.103843 0.327132 0.768387
Si Si4 0.017165 0.330175 0.883122
Si Si5 0.750000 0.173602 0.056053
Si Si6 0.250000 0.667646 0.056032
O O1 0.500000 0.768547 0.500000
O O2 0.750000 0.775547 0.466259
O O3 0.546066 0.765360 0.397003
O O4 0.593276 0.000000 0.449969
O O5 0.250000 0.342072 0.654775
O O6 0.463210 0.500000 0.641409
O O7 0.455755 0.272352 0.710403
O O8 0.250000 0.261654 0.778903
O O9 0.114785 0.500000 0.762777
O O10 0.013790 0.283206 0.819682
O O11 0.058282 0.500000 0.889118
O O12 0.120286 0.232994 0.915274
O O13 0.874612 0.298807 0.906778
O O14 0.750000 0.000000 0.058170
O O15 0.750000 0.224240 0.994157
O O16 0.250000 0.500000 0.035248
#
# Coordination Sequence:
#
# PCOD8209906 Si02
#       6
#     8   8   8   8   4   4
#     4   9  17  29  45  65  90 122 158 194 230 270
#     4   8  14  25  44  70  95 120 152 191 237 282
#     4   8  13  25  49  74  94 119 153 196 242 281
#     4  10  19  35  57  77  99 129 167 207 245 293
#     4  12  24  36  52  76 102 132 167 204 249 296
#     4  10  22  36  54  78 100 130 169 204 243 296
#
# _framework density 17.465624999999999
#
# number of rings (size 3 to 8) (size 9 to 14) (size 15 to 20)
#    0.000    2.800    1.000    2.700    0.000    3.600 
#    0.000    1.000    2.200    0.000    0.000    0.000 
#    0.000    0.000    0.000    0.000    0.000    0.000 
#
# Total GULP energy -495723.017913 kJ/mol
# GULP energy per Si atom -12393.075448 kJ/mol
# Density = 1.742587 g / cm^3
# Si number density = 17.465625 Si / 1000 Ang^3
#
#
#
# Elastic Constant Matrix: (Units=GPa)
#
#
# Indices 1 2 3 4 5 6 
#
# 1 87.9867 38.2255 68.9963 0.0000 0.0000 0.0000
# 2 38.2255 50.6077 50.2174 0.0000 0.0000 0.0000
# 3 68.9963 50.2174 191.8395 0.0000 0.0000 0.0000
# 4 0.0000 0.0000 0.0000 1.8077 0.0000 0.0000
# 5 0.0000 0.0000 0.0000 0.0000 18.0915 0.0000
# 6 0.0000 0.0000 0.0000 0.0000 0.0000 9.2013
#
#
#
# Elastic Compliance Matrix: (Units=1/GPa)
#
#
# Indices 1 2 3 4 5 6 
#
# 1 0.019114 -0.010288 -0.004181 0.000000 0.000000 0.000000
# 2 -0.010288 0.032231 -0.004737 0.000000 0.000000 0.000000
# 3 -0.004181 -0.004737 0.007956 0.000000 0.000000 0.000000
# 4 0.000000 0.000000 0.000000 0.553193 0.000000 0.000000
# 5 0.000000 0.000000 0.000000 0.000000 0.055275 0.000000
# 6 0.000000 0.000000 0.000000 0.000000 0.000000 0.108681
#
#
# Mechanical properties :
#
#
# Convention : Reuss Voigt Hill
#
# Bulk Modulus (GPa) = 47.87264 71.70137 59.78700
# Shear Modulus (GPa) = 6.08402 17.35307 11.71855
#
# Velocity S-wave (km/s) = 1.86842 3.15549 2.59308
# Velocity P-wave (km/s) = 5.66779 7.37687 6.57807
#
# Compressibility (1/GPa) = 0.02088876
#
# Stress axis : x y z
#
# Youngs Moduli (GPa) = 52.31808 31.02590 125.68370
#
# Poissons Ratio (x) = 0.31920 0.52552
# Poissons Ratio (y) = 0.53826 0.59535
# Poissons Ratio (z) = 0.21876 0.14697
#
# Static dielectric constant tensor:
#      x y z
#    x 3.036640 0.000000 0.000000 
#    y 0.000000 3.010380 0.000000 
#    z 0.000000 0.000000 3.776780 
# 
# 
# High freq. dielectric constant tensor:
#      x y z
#    x 1.640780 0.000000 0.000000 
#    y 0.000000 1.643440 0.000000 
#    z 0.000000 0.000000 1.697290 
# 
# From -- ./inp_files/35996.got.cif
#   From: 2010.03.12/outbox.cif.g09.slc.cpg/sg51_18_cif.got.tgz:35996.got - 2010.04.16 13:43:02.
