data_PCOD8209803
_publ_section_title
;
Structure prediction by ZEFSAII (Michael W. Deem and Ramdas Pophale) SiO2 
 PCOD8209803
Probable space group: P M M A
;
_chemical_formula_sum "Si O2"
_cell_formula_units_Z 48
_cell_length_a 14.187878
_cell_length_b 15.585874
_cell_length_c 11.996251
_cell_angle_alpha 90.000000
_cell_angle_beta 90.000000
_cell_angle_gamma 90.000000
_cell_volume 2652.736728
_symmetry_space_group_name_H-M "P M M A"
_symmetry_group_IT_number 51
_symmetry_cell_setting 'orthorhombic'
loop_
_space_group_symop_operation_xyz
x,y,z
1/2-x,-y,z
1/2+x,-y,-z
-x,y,-z
-x,-y,-z
1/2+x,y,-z
1/2-x,y,z
x,-y,z
loop_
_atom_site_type_symbol
_atom_site_label
_atom_site_fract_x
_atom_site_fract_y
_atom_site_fract_z
Si Si1 0.643724 0.000000 0.809676
Si Si2 0.498133 0.750608 0.321182
Si Si3 0.516645 0.402802 0.174667
Si Si4 0.357617 0.346099 0.022208
Si Si5 0.361926 0.185733 0.504471
Si Si6 0.430061 0.829523 0.098311
Si Si7 0.138824 0.000000 0.433281
O O1 0.626757 0.084040 0.882223
O O2 0.589963 0.000000 0.689932
O O3 0.750000 0.000000 0.772567
O O4 0.506208 0.649928 0.289602
O O5 0.594742 0.778192 0.381514
O O6 0.406878 0.764074 0.399509
O O7 0.487800 0.804919 0.208683
O O8 0.545264 0.500000 0.203559
O O9 0.417498 0.403412 0.108350
O O10 0.597416 0.357250 0.100247
O O11 0.250000 0.377913 0.021115
O O12 0.360973 0.247090 0.060987
O O13 0.250000 0.200188 0.502571
O O14 0.392299 0.085655 0.498468
O O15 0.500000 0.851030 0.000000
O O16 0.250000 0.000000 0.423899
#
# Coordination Sequence:
#
# PCOD8209803 Si02
#       7
#     4   8   8   8   8   8   4
#     4  11  21  32  53  85 118 156 197 235 270 326
#     4  10  21  37  59  83 108 150 190 231 297 336
#     4  10  21  38  56  82 115 144 188 238 287 350
#     4  10  19  34  58  83 113 152 192 232 278 337
#     4  10  21  38  59  83 112 145 194 243 280 332
#     4  11  20  37  53  83 123 157 190 224 281 344
#     4   9  18  33  56  82 105 141 193 238 269 308
#
# _framework density 18.094521
#
# number of rings (size 3 to 8) (size 9 to 14) (size 15 to 20)
#    0.000    1.833    5.000    1.750    0.000    6.667 
#    0.000    1.667    0.000    2.000    0.000    0.000 
#    0.000    0.000    0.000    0.000    0.000    0.000 
#
# Total GULP energy -595064.599791 kJ/mol
# GULP energy per Si atom -12397.179162 kJ/mol
# Density = 1.805334 g / cm^3
# Si number density = 18.094521 Si / 1000 Ang^3
#
#
#
# Elastic Constant Matrix: (Units=GPa)
#
#
# Indices 1 2 3 4 5 6 
#
# 1 117.5741 28.9118 49.8388 0.0000 0.0000 0.0000
# 2 28.9118 141.9514 55.7787 0.0000 0.0000 0.0000
# 3 49.8388 55.7787 106.3887 0.0000 0.0000 0.0000
# 4 0.0000 0.0000 0.0000 23.4913 0.0000 0.0000
# 5 0.0000 0.0000 0.0000 0.0000 18.0075 0.0000
# 6 0.0000 0.0000 0.0000 0.0000 0.0000 14.4942
#
#
#
# Elastic Compliance Matrix: (Units=1/GPa)
#
#
# Indices 1 2 3 4 5 6 
#
# 1 0.010620 -0.000262 -0.004838 0.000000 0.000000 0.000000
# 2 -0.000262 0.008879 -0.004532 0.000000 0.000000 0.000000
# 3 -0.004838 -0.004532 0.014042 0.000000 0.000000 0.000000
# 4 0.000000 0.000000 0.000000 0.042569 0.000000 0.000000
# 5 0.000000 0.000000 0.000000 0.000000 0.055532 0.000000
# 6 0.000000 0.000000 0.000000 0.000000 0.000000 0.068993
#
#
# Mechanical properties :
#
#
# Convention : Reuss Voigt Hill
#
# Bulk Modulus (GPa) = 70.04324 70.55253 70.29789
# Shear Modulus (GPa) = 22.25589 26.62426 24.44007
#
# Velocity S-wave (km/s) = 3.51091 3.84004 3.67916
# Velocity P-wave (km/s) = 7.43162 7.66401 7.54871
#
# Compressibility (1/GPa) = 0.01427689
#
# Stress axis : x y z
#
# Youngs Moduli (GPa) = 94.15790 112.62491 71.21424
#
# Poissons Ratio (x) = 0.02952 0.34452
# Poissons Ratio (y) = 0.02468 0.32277
# Poissons Ratio (z) = 0.45552 0.51046
#
# Static dielectric constant tensor:
#      x y z
#    x 3.181080 0.000000 0.000000 
#    y 0.000000 3.476270 0.000000 
#    z 0.000000 0.000000 3.395740 
# 
# 
# High freq. dielectric constant tensor:
#      x y z
#    x 1.690630 0.000000 0.000000 
#    y 0.000000 1.702480 0.000000 
#    z 0.000000 0.000000 1.694680 
# 
# From -- ./inp_files/16534.got.cif
#   From: 2010.03.12/outbox.cif.g09.slc.cpg/sg51_9_cif.got.tgz:16534.got - 2010.04.16 13:43:02.
