data_PCOD8209506
_publ_section_title
;
Structure prediction by ZEFSAII (Michael W. Deem and Ramdas Pophale) SiO2 
 PCOD8209506
Probable space group: P M M A
;
_chemical_formula_sum "Si O2"
_cell_formula_units_Z 64
_cell_length_a 24.307105
_cell_length_b 9.158000
_cell_length_c 15.225469
_cell_angle_alpha 90.000000
_cell_angle_beta 90.000000
_cell_angle_gamma 90.000000
_cell_volume 3389.257421
_symmetry_space_group_name_H-M "P M M A"
_symmetry_group_IT_number 51
_symmetry_cell_setting 'orthorhombic'
loop_
_space_group_symop_operation_xyz
x,y,z
1/2-x,-y,z
1/2+x,-y,-z
-x,y,-z
-x,-y,-z
1/2+x,y,-z
1/2-x,y,z
x,-y,z
loop_
_atom_site_type_symbol
_atom_site_label
_atom_site_fract_x
_atom_site_fract_y
_atom_site_fract_z
Si Si1 0.413105 0.832239 0.858206
Si Si2 0.605762 0.830860 0.333521
Si Si3 0.811791 0.827420 0.480606
Si Si4 0.117500 0.830919 0.047715
Si Si5 0.483726 0.661339 0.100613
Si Si6 0.309766 0.171105 0.200962
Si Si7 0.502054 0.671533 0.602526
Si Si8 0.885903 0.826117 0.643570
O O1 0.377668 0.810325 0.769436
O O2 0.469062 0.742378 0.844990
O O3 0.430135 0.000000 0.870499
O O4 0.379536 0.779148 0.945432
O O5 0.657917 0.778006 0.390729
O O6 0.552527 0.735565 0.353931
O O7 0.591978 0.000000 0.354433
O O8 0.750000 0.759110 0.483847
O O9 0.848923 0.772558 0.561484
O O10 0.806292 0.000000 0.484974
O O11 0.072550 0.749104 0.106612
O O12 0.174083 0.798273 0.099022
O O13 0.101846 0.000000 0.051671
O O14 0.475979 0.500000 0.140830
O O15 0.500000 0.652831 0.000000
O O16 0.250000 0.244109 0.216825
O O17 0.354374 0.231228 0.269706
O O18 0.305066 0.000000 0.218325
O O19 0.500000 0.707052 0.500000
O O20 0.505073 0.500000 0.621651
O O21 0.555271 0.748316 0.643971
O O22 0.895192 0.000000 0.641862
#
# Coordination Sequence:
#
# PCOD8209506 Si02
#       8
#     8   8   8   8   8   8   8   8
#     4   9  18  31  48  71 101 137 172 206 251 302
#     4  10  20  34  53  77 107 141 178 213 253 312
#     4   9  17  31  53  78 101 128 168 219 261 297
#     4   9  17  31  49  70 100 134 169 211 255 298
#     4   9  17  29  46  69  96 128 166 208 253 301
#     4   9  18  32  52  79 106 134 174 219 261 311
#     4  11  23  37  53  77 111 142 170 212 267 319
#     4  10  19  33  56  80 103 135 175 214 257 312
#
# _framework density 18.883192999999999
#
# number of rings (size 3 to 8) (size 9 to 14) (size 15 to 20)
#    0.000    2.500    1.250    1.125    1.750    4.000 
#    0.000    0.625    0.000    7.500    0.000    0.000 
#    0.000    3.000    0.000    0.000    0.000    0.000 
#
# Total GULP energy -793243.842481 kJ/mol
# GULP energy per Si atom -12394.435039 kJ/mol
# Density = 1.884021 g / cm^3
# Si number density = 18.883193 Si / 1000 Ang^3
#
#
#
# Elastic Constant Matrix: (Units=GPa)
#
#
# Indices 1 2 3 4 5 6 
#
# 1 110.6262 24.2788 42.3168 0.0000 0.0000 0.0000
# 2 24.2788 44.0680 22.2008 0.0000 0.0000 0.0000
# 3 42.3168 22.2008 112.2594 0.0000 0.0000 0.0000
# 4 0.0000 0.0000 0.0000 13.1379 0.0000 0.0000
# 5 0.0000 0.0000 0.0000 0.0000 21.9519 0.0000
# 6 0.0000 0.0000 0.0000 0.0000 0.0000 -0.2962
#
#
#
# Elastic Compliance Matrix: (Units=1/GPa)
#
#
# Indices 1 2 3 4 5 6 
#
# 1 0.011326 -0.004541 -0.003371 0.000000 0.000000 0.000000
# 2 -0.004541 0.027024 -0.003632 0.000000 0.000000 0.000000
# 3 -0.003371 -0.003632 0.010897 0.000000 0.000000 0.000000
# 4 0.000000 0.000000 0.000000 0.076115 0.000000 0.000000
# 5 0.000000 0.000000 0.000000 0.000000 0.045554 0.000000
# 6 0.000000 0.000000 0.000000 0.000000 0.000000 -3.376618
#
#
# Mechanical properties :
#
#
# Convention : Reuss Voigt Hill
#
# Bulk Modulus (GPa) = 38.23089 49.39405 43.81247
# Shear Modulus (GPa) = -1.57535 18.83588 8.63026
#
# Velocity S-wave (km/s) = -0.91437 3.16174 2.14015
# Velocity P-wave (km/s) = 4.37895 6.28834 5.41841
#
# Compressibility (1/GPa) = 0.02615686
#
# Stress axis : x y z
#
# Youngs Moduli (GPa) = 88.29499 37.00382 91.76766
#
# Poissons Ratio (x) = 0.16805 0.30936
# Poissons Ratio (y) = 0.40099 0.33335
# Poissons Ratio (z) = 0.29765 0.13442
#
# Static dielectric constant tensor:
#      x y z
#    x 3.490230 0.000000 0.000000 
#    y 0.000000 3.266340 0.000000 
#    z 0.000000 0.000000 3.685710 
# 
# 
# High freq. dielectric constant tensor:
#      x y z
#    x 1.718290 0.000000 0.000000 
#    y 0.000000 1.697830 0.000000 
#    z 0.000000 0.000000 1.747260 
# 
# From -- ./inp_files/26313.got.cif
#   From: 2010.03.12/outbox.cif.g09.slc.cpg/sg51_14_cif.got.tgz:26313.got - 2010.04.16 13:43:02.
