data_PCOD8209277
_publ_section_title
;
Structure prediction by ZEFSAII (Michael W. Deem and Ramdas Pophale) SiO2 
 PCOD8209277
Probable space group: P M M A
;
_chemical_formula_sum "Si O2"
_cell_formula_units_Z 64
_cell_length_a 17.598064
_cell_length_b 8.681199
_cell_length_c 22.854237
_cell_angle_alpha 90.000000
_cell_angle_beta 90.000000
_cell_angle_gamma 90.000000
_cell_volume 3491.494251
_symmetry_space_group_name_H-M "P M M A"
_symmetry_group_IT_number 51
_symmetry_cell_setting 'orthorhombic'
loop_
_space_group_symop_operation_xyz
x,y,z
1/2-x,-y,z
1/2+x,-y,-z
-x,y,-z
-x,-y,-z
1/2+x,y,-z
1/2-x,y,z
x,-y,z
loop_
_atom_site_type_symbol
_atom_site_label
_atom_site_fract_x
_atom_site_fract_y
_atom_site_fract_z
Si Si1 0.836563 0.680488 0.055408
Si Si2 0.601505 0.818522 0.428152
Si Si3 0.524032 0.320138 0.135707
Si Si4 0.837369 0.819653 0.553381
Si Si5 0.928280 0.828871 0.958363
Si Si6 0.025561 0.179634 0.739491
Si Si7 0.457486 0.319570 0.371273
Si Si8 0.664496 0.323464 0.317628
O O1 0.750000 0.724560 0.073515
O O2 0.845184 0.500000 0.044768
O O3 0.895783 0.732114 0.106082
O O4 0.856664 0.761461 0.993890
O O5 0.621623 0.768180 0.493634
O O6 0.515712 0.770596 0.413467
O O7 0.658984 0.732429 0.384478
O O8 0.611766 0.000000 0.419638
O O9 0.525524 0.500000 0.149981
O O10 0.451465 0.281857 0.095141
O O11 0.510086 0.225598 0.194300
O O12 0.750000 0.772042 0.549510
O O13 0.873630 0.726747 0.607472
O O14 0.847612 0.000000 0.564737
O O15 0.907391 0.000000 0.935482
O O16 0.000000 0.837597 0.000000
O O17 0.112403 0.220483 0.724120
O O18 0.968735 0.269725 0.696055
O O19 0.011513 0.000000 0.730916
O O20 0.471237 0.500000 0.377184
O O21 0.750000 0.305605 0.294930
O O22 0.637080 0.500000 0.313759
#
# Coordination Sequence:
#
# PCOD8209277 Si02
#       8
#     8   8   8   8   8   8   8   8
#     4   9  18  32  51  77 109 142 171 203 249 300
#     4  10  19  33  54  77 102 134 171 208 252 309
#     4  10  19  33  53  76 103 136 175 215 253 298
#     4  10  21  36  54  77 104 133 166 208 260 315
#     4   9  17  30  49  74 103 135 171 208 245 287
#     4  11  22  36  54  74  99 134 176 217 256 302
#     4  11  22  36  54  76 103 135 172 214 259 307
#     4  10  20  33  49  71 102 137 171 210 256 305
#
# _framework density 18.330259999999999
#
# number of rings (size 3 to 8) (size 9 to 14) (size 15 to 20)
#    0.000    2.000    0.000    6.000    0.000    7.000 
#    0.000    1.250    0.000    0.750    0.000    0.000 
#    0.000    0.000    0.000    0.000    0.000    0.000 
#
# Total GULP energy -793653.483780 kJ/mol
# GULP energy per Si atom -12400.835684 kJ/mol
# Density = 1.828854 g / cm^3
# Si number density = 18.330260 Si / 1000 Ang^3
#
#
#
# Elastic Constant Matrix: (Units=GPa)
#
#
# Indices 1 2 3 4 5 6 
#
# 1 56.4757 15.6940 38.5678 0.0000 0.0000 0.0000
# 2 15.6940 58.1531 22.7745 0.0000 0.0000 0.0000
# 3 38.5678 22.7745 99.4039 0.0000 0.0000 0.0000
# 4 0.0000 0.0000 0.0000 30.0879 0.0000 0.0000
# 5 0.0000 0.0000 0.0000 0.0000 14.9231 0.0000
# 6 0.0000 0.0000 0.0000 0.0000 0.0000 24.9116
#
#
#
# Elastic Compliance Matrix: (Units=1/GPa)
#
#
# Indices 1 2 3 4 5 6 
#
# 1 0.024616 -0.003189 -0.008820 0.000000 0.000000 0.000000
# 2 -0.003189 0.019304 -0.003185 0.000000 0.000000 0.000000
# 3 -0.008820 -0.003185 0.014212 0.000000 0.000000 0.000000
# 4 0.000000 0.000000 0.000000 0.033236 0.000000 0.000000
# 5 0.000000 0.000000 0.000000 0.000000 0.067010 0.000000
# 6 0.000000 0.000000 0.000000 0.000000 0.000000 0.040142
#
#
# Mechanical properties :
#
#
# Convention : Reuss Voigt Hill
#
# Bulk Modulus (GPa) = 36.04523 40.90060 38.47291
# Shear Modulus (GPa) = 20.99448 23.11761 22.05604
#
# Velocity S-wave (km/s) = 3.38797 3.55515 3.47257
# Velocity P-wave (km/s) = 5.91705 6.26209 6.09201
#
# Compressibility (1/GPa) = 0.02774292
#
# Stress axis : x y z
#
# Youngs Moduli (GPa) = 40.62339 51.80236 70.36314
#
# Poissons Ratio (x) = 0.16520 0.62062
# Poissons Ratio (y) = 0.12955 0.22414
# Poissons Ratio (z) = 0.35831 0.16502
#
# Static dielectric constant tensor:
#      x y z
#    x 3.308660 0.000000 0.000000 
#    y 0.000000 3.469440 0.000000 
#    z 0.000000 0.000000 3.326690 
# 
# 
# High freq. dielectric constant tensor:
#      x y z
#    x 1.692380 0.000000 0.000000 
#    y 0.000000 1.720570 0.000000 
#    z 0.000000 0.000000 1.699410 
# 
# From -- ./inp_files/33928.got.cif
#   From: 2010.03.12/outbox.cif.g09.slc.cpg/sg51_17_cif.got.tgz:33928.got - 2010.04.16 13:43:02.
