data_PCOD8209474
_publ_section_title
;
Structure prediction by ZEFSAII (Michael W. Deem and Ramdas Pophale) SiO2 
 PCOD8209474
Probable space group: P M M A
;
_chemical_formula_sum "Si O2"
_cell_formula_units_Z 64
_cell_length_a 22.847721
_cell_length_b 8.725493
_cell_length_c 16.394906
_cell_angle_alpha 90.000000
_cell_angle_beta 90.000000
_cell_angle_gamma 90.000000
_cell_volume 3268.449599
_symmetry_space_group_name_H-M "P M M A"
_symmetry_group_IT_number 51
_symmetry_cell_setting 'orthorhombic'
loop_
_space_group_symop_operation_xyz
x,y,z
1/2-x,-y,z
1/2+x,-y,-z
-x,y,-z
-x,-y,-z
1/2+x,y,-z
1/2-x,y,z
x,-y,z
loop_
_atom_site_type_symbol
_atom_site_label
_atom_site_fract_x
_atom_site_fract_y
_atom_site_fract_z
Si Si1 0.816194 0.335649 0.723159
Si Si2 0.816088 0.318461 0.388517
Si Si3 0.925750 0.679912 0.284907
Si Si4 0.027223 0.181132 0.879958
Si Si5 0.866151 0.322168 0.558503
Si Si6 0.079694 0.320744 0.037945
Si Si7 0.818616 0.826860 0.878552
Si Si8 0.014950 0.826647 0.406206
O O1 0.750000 0.358564 0.748709
O O2 0.849163 0.500000 0.737032
O O3 0.817488 0.293287 0.627678
O O4 0.840105 0.207835 0.785568
O O5 0.750000 0.253879 0.372609
O O6 0.812572 0.500000 0.397539
O O7 0.860163 0.272330 0.315198
O O8 0.842294 0.251209 0.473627
O O9 0.928640 0.500000 0.266928
O O10 0.941489 0.771098 0.203677
O O11 0.971364 0.719151 0.356063
O O12 0.963969 0.261559 0.890766
O O13 0.018302 0.000000 0.880773
O O14 0.068196 0.231782 0.954208
O O15 0.882361 0.500000 0.545104
O O16 0.919771 0.234486 0.600052
O O17 0.070039 0.500000 0.023745
O O18 0.146513 0.286503 0.061794
O O19 0.750000 0.800248 0.893309
O O20 0.836615 0.000000 0.898080
O O21 0.000000 0.817152 0.500000
O O22 0.010803 0.000000 0.372477
#
# Coordination Sequence:
#
# PCOD8209474 Si02
#       8
#     8   8   8   8   8   8   8   8
#     4   9  18  32  51  78 112 148 189 237 283 336
#     4   9  18  34  58  85 112 147 193 246 295 337
#     4  11  22  38  61  87 116 151 195 241 289 346
#     4  11  23  41  64  89 120 153 188 237 295 353
#     4  10  19  33  55  81 109 146 193 241 289 341
#     4  11  22  40  65  92 119 149 192 238 288 351
#     4  10  21  37  57  83 119 160 197 236 289 350
#     4  11  23  37  53  77 114 153 190 236 290 343
#
# _framework density 19.581150000000001
#
# number of rings (size 3 to 8) (size 9 to 14) (size 15 to 20)
#    0.000    1.750    1.250    4.500    1.750    3.250 
#    0.000    0.625    0.000    6.375    0.000    0.000 
#    0.000    0.000    0.000    0.000    0.000    0.000 
#
# Total GULP energy -793270.643653 kJ/mol
# GULP energy per Si atom -12394.853807 kJ/mol
# Density = 1.953658 g / cm^3
# Si number density = 19.581150 Si / 1000 Ang^3
#
#
#
# Elastic Constant Matrix: (Units=GPa)
#
#
# Indices 1 2 3 4 5 6 
#
# 1 96.9476 26.3111 48.5602 0.0000 0.0000 0.0000
# 2 26.3111 70.7190 26.2577 0.0000 0.0000 0.0000
# 3 48.5602 26.2577 86.1931 0.0000 0.0000 0.0000
# 4 0.0000 0.0000 0.0000 29.8454 0.0000 0.0000
# 5 0.0000 0.0000 0.0000 0.0000 28.0552 0.0000
# 6 0.0000 0.0000 0.0000 0.0000 0.0000 26.4649
#
#
#
# Elastic Compliance Matrix: (Units=1/GPa)
#
#
# Indices 1 2 3 4 5 6 
#
# 1 0.014820 -0.002722 -0.007521 0.000000 0.000000 0.000000
# 2 -0.002722 0.016444 -0.003476 0.000000 0.000000 0.000000
# 3 -0.007521 -0.003476 0.016898 0.000000 0.000000 0.000000
# 4 0.000000 0.000000 0.000000 0.033506 0.000000 0.000000
# 5 0.000000 0.000000 0.000000 0.000000 0.035644 0.000000
# 6 0.000000 0.000000 0.000000 0.000000 0.000000 0.037786
#
#
# Mechanical properties :
#
#
# Convention : Reuss Voigt Hill
#
# Bulk Modulus (GPa) = 48.24977 50.67975 49.46476
# Shear Modulus (GPa) = 26.39319 27.05516 26.72418
#
# Velocity S-wave (km/s) = 3.67534 3.72115 3.69832
# Velocity P-wave (km/s) = 6.53493 6.66338 6.59947
#
# Compressibility (1/GPa) = 0.02072549
#
# Stress axis : x y z
#
# Youngs Moduli (GPa) = 67.47427 60.81356 59.17934
#
# Poissons Ratio (x) = 0.16551 0.44506
# Poissons Ratio (y) = 0.18364 0.20571
# Poissons Ratio (z) = 0.50744 0.21139
#
# Static dielectric constant tensor:
#      x y z
#    x 3.579470 0.000000 0.000000 
#    y 0.000000 3.628920 0.000000 
#    z 0.000000 0.000000 3.562200 
# 
# 
# High freq. dielectric constant tensor:
#      x y z
#    x 1.760830 0.000000 0.000000 
#    y 0.000000 1.755520 0.000000 
#    z 0.000000 0.000000 1.758620 
# 
# From -- ./inp_files/26262.got.cif
#   From: 2010.03.12/outbox.cif.g09.slc.cpg/sg51_14_cif.got.tgz:26262.got - 2010.04.16 13:43:02.
