data_PCOD8209149
_publ_section_title
;
Structure prediction by ZEFSAII (Michael W. Deem and Ramdas Pophale) SiO2 
 PCOD8209149
Probable space group: P M M A
;
_chemical_formula_sum "Si O2"
_cell_formula_units_Z 44
_cell_length_a 8.924857
_cell_length_b 17.732468
_cell_length_c 14.212528
_cell_angle_alpha 90.000000
_cell_angle_beta 90.000000
_cell_angle_gamma 90.000000
_cell_volume 2249.271002
_symmetry_space_group_name_H-M "P M M A"
_symmetry_group_IT_number 51
_symmetry_cell_setting 'orthorhombic'
loop_
_space_group_symop_operation_xyz
x,y,z
1/2-x,-y,z
1/2+x,-y,-z
-x,y,-z
-x,-y,-z
1/2+x,y,-z
1/2-x,y,z
x,-y,z
loop_
_atom_site_type_symbol
_atom_site_label
_atom_site_fract_x
_atom_site_fract_y
_atom_site_fract_z
Si Si1 0.076030 0.413924 0.789919
Si Si2 0.074535 0.000000 0.898910
Si Si3 0.924674 0.185013 0.592145
Si Si4 0.924394 0.284249 0.901878
Si Si5 0.078572 0.133532 0.206052
Si Si6 0.073441 0.345739 0.593741
O O1 0.250000 0.396349 0.806168
O O2 0.036269 0.500000 0.813531
O O3 0.032404 0.398444 0.681694
O O4 0.983510 0.362488 0.860790
O O5 0.029924 0.925980 0.841679
O O6 0.250000 0.000000 0.914297
O O7 0.000000 0.000000 0.000000
O O8 0.750000 0.200115 0.573523
O O9 0.947688 0.130734 0.681673
O O10 0.000000 0.146550 0.500000
O O11 0.004928 0.263828 0.612540
O O12 0.750000 0.293343 0.919786
O O13 0.961200 0.217018 0.829859
O O14 0.000000 0.263917 0.000000
O O15 0.250000 0.112746 0.181098
O O16 0.250000 0.338428 0.578934
O O17 0.000000 0.381829 0.500000
#
# Coordination Sequence:
#
# PCOD8209149 Si02
#       6
#     8   4   8   8   8   8
#     4  10  22  39  57  81 115 154 197 246 297 349
#     4  12  26  42  65  94 125 158 197 240 294 350
#     4  10  19  34  58  89 121 155 195 239 286 343
#     4  11  23  40  62  87 113 149 196 243 296 354
#     4  10  22  41  64  90 123 157 195 241 291 346
#     4  10  19  32  54  82 115 153 194 241 290 346
#
# _framework density 19.561893999999999
#
# number of rings (size 3 to 8) (size 9 to 14) (size 15 to 20)
#    0.000    1.636    1.818    4.091    0.000    6.182 
#    0.000    0.455    0.000    0.000    0.000    0.000 
#    0.000    0.000    0.000    0.000    0.000    0.000 
#
# Total GULP energy -545725.566175 kJ/mol
# GULP energy per Si atom -12402.853777 kJ/mol
# Density = 1.951737 g / cm^3
# Si number density = 19.561894 Si / 1000 Ang^3
#
#
#
# Elastic Constant Matrix: (Units=GPa)
#
#
# Indices 1 2 3 4 5 6 
#
# 1 116.5490 43.9889 61.1538 0.0000 0.0000 0.0000
# 2 43.9889 78.4174 39.9183 0.0000 0.0000 0.0000
# 3 61.1538 39.9183 127.8330 0.0000 0.0000 0.0000
# 4 0.0000 0.0000 0.0000 22.7447 0.0000 0.0000
# 5 0.0000 0.0000 0.0000 0.0000 36.5062 0.0000
# 6 0.0000 0.0000 0.0000 0.0000 0.0000 31.1587
#
#
#
# Elastic Compliance Matrix: (Units=1/GPa)
#
#
# Indices 1 2 3 4 5 6 
#
# 1 0.012837 -0.004845 -0.004628 0.000000 0.000000 0.000000
# 2 -0.004845 0.016991 -0.002988 0.000000 0.000000 0.000000
# 3 -0.004628 -0.002988 0.010970 0.000000 0.000000 0.000000
# 4 0.000000 0.000000 0.000000 0.043966 0.000000 0.000000
# 5 0.000000 0.000000 0.000000 0.000000 0.027393 0.000000
# 6 0.000000 0.000000 0.000000 0.000000 0.000000 0.032094
#
#
# Mechanical properties :
#
#
# Convention : Reuss Voigt Hill
#
# Bulk Modulus (GPa) = 62.98960 68.10239 65.54599
# Shear Modulus (GPa) = 28.65897 29.93114 29.29505
#
# Velocity S-wave (km/s) = 3.83174 3.91586 3.87403
# Velocity P-wave (km/s) = 7.20044 7.43873 7.32055
#
# Compressibility (1/GPa) = 0.01587564
#
# Stress axis : x y z
#
# Youngs Moduli (GPa) = 77.89855 58.85391 91.15929
#
# Poissons Ratio (x) = 0.28516 0.42190
# Poissons Ratio (y) = 0.37743 0.27238
# Poissons Ratio (z) = 0.36053 0.17585
#
# Static dielectric constant tensor:
#      x y z
#    x 3.626030 0.000000 0.000000 
#    y 0.000000 3.335630 0.000000 
#    z 0.000000 0.000000 3.529690 
# 
# 
# High freq. dielectric constant tensor:
#      x y z
#    x 1.769800 0.000000 0.000000 
#    y 0.000000 1.743010 0.000000 
#    z 0.000000 0.000000 1.779140 
# 
# From -- ./inp_files/20970.got.cif
#   From: 2010.03.12/outbox.cif.g09.slc.cpg/sg51_11_cif.got.tgz:20970.got - 2010.04.16 13:43:02.
