data_PCOD8209151
_publ_section_title
;
Structure prediction by ZEFSAII (Michael W. Deem and Ramdas Pophale) SiO2 
 PCOD8209151
Probable space group: P M M A
;
_chemical_formula_sum "Si O2"
_cell_formula_units_Z 48
_cell_length_a 27.880189
_cell_length_b 8.960438
_cell_length_c 10.325687
_cell_angle_alpha 90.000000
_cell_angle_beta 90.000000
_cell_angle_gamma 90.000000
_cell_volume 2579.549754
_symmetry_space_group_name_H-M "P M M A"
_symmetry_group_IT_number 51
_symmetry_cell_setting 'orthorhombic'
loop_
_space_group_symop_operation_xyz
x,y,z
1/2-x,-y,z
1/2+x,-y,-z
-x,y,-z
-x,-y,-z
1/2+x,y,-z
1/2-x,y,z
x,-y,z
loop_
_atom_site_type_symbol
_atom_site_label
_atom_site_fract_x
_atom_site_fract_y
_atom_site_fract_z
Si Si1 0.456063 0.674138 0.644343
Si Si2 0.448241 0.176412 0.370633
Si Si3 0.357524 0.672901 0.762184
Si Si4 0.805385 0.669036 0.492202
Si Si5 0.653022 0.174808 0.735602
Si Si6 0.304615 0.822873 0.996192
O O1 0.465477 0.500000 0.618318
O O2 0.504530 0.752746 0.696072
O O3 0.439757 0.749905 0.510345
O O4 0.414838 0.696753 0.751814
O O5 0.403026 0.215663 0.280096
O O6 0.455086 0.000000 0.388016
O O7 0.344040 0.500000 0.781748
O O8 0.334064 0.734985 0.630066
O O9 0.337574 0.765227 0.881166
O O10 0.750000 0.679301 0.456269
O O11 0.822123 0.500000 0.518213
O O12 0.815450 0.761664 0.620021
O O13 0.660999 0.000000 0.732124
O O14 0.672774 0.240296 0.870603
O O15 0.250000 0.764363 0.982153
O O16 0.305868 0.000000 0.994180
#
# Coordination Sequence:
#
# PCOD8209151 Si02
#       6
#     8   8   8   8   8   8
#     4  10  19  33  55  81 111 144 177 221 274 324
#     4  10  19  32  54  83 112 142 178 222 272 325
#     4  10  21  37  56  80 110 144 183 226 274 325
#     4  10  20  34  54  80 108 138 179 230 276 322
#     4  10  21  37  56  80 111 145 182 225 274 326
#     4  10  22  39  57  78 108 147 187 226 272 326
#
# _framework density 18.607897999999999
#
# number of rings (size 3 to 8) (size 9 to 14) (size 15 to 20)
#    0.000    2.000    1.667    3.000    0.000    5.333 
#    0.000    0.833    0.000    5.000    0.000    0.000 
#    0.000    0.000    0.000    0.000    0.000    0.000 
#
# Total GULP energy -595247.259611 kJ/mol
# GULP energy per Si atom -12400.984575 kJ/mol
# Density = 1.856555 g / cm^3
# Si number density = 18.607898 Si / 1000 Ang^3
#
#
#
# Elastic Constant Matrix: (Units=GPa)
#
#
# Indices 1 2 3 4 5 6 
#
# 1 106.8174 38.7013 44.2551 0.0000 0.0000 0.0000
# 2 38.7013 50.9878 22.0821 0.0000 0.0000 0.0000
# 3 44.2551 22.0821 99.5706 0.0000 0.0000 0.0000
# 4 0.0000 0.0000 0.0000 45.4872 0.0000 0.0000
# 5 0.0000 0.0000 0.0000 0.0000 33.8898 0.0000
# 6 0.0000 0.0000 0.0000 0.0000 0.0000 30.3421
#
#
#
# Elastic Compliance Matrix: (Units=1/GPa)
#
#
# Indices 1 2 3 4 5 6 
#
# 1 0.014484 -0.009077 -0.004424 0.000000 0.000000 0.000000
# 2 -0.009077 0.027386 -0.002039 0.000000 0.000000 0.000000
# 3 -0.004424 -0.002039 0.012462 0.000000 0.000000 0.000000
# 4 0.000000 0.000000 0.000000 0.021984 0.000000 0.000000
# 5 0.000000 0.000000 0.000000 0.000000 0.029507 0.000000
# 6 0.000000 0.000000 0.000000 0.000000 0.000000 0.032958
#
#
# Mechanical properties :
#
#
# Convention : Reuss Voigt Hill
#
# Bulk Modulus (GPa) = 43.01107 51.93922 47.47515
# Shear Modulus (GPa) = 28.15140 32.09964 30.12552
#
# Velocity S-wave (km/s) = 3.89379 4.15788 4.02800
# Velocity P-wave (km/s) = 6.58635 7.14309 6.87036
#
# Compressibility (1/GPa) = 0.02324983
#
# Stress axis : x y z
#
# Youngs Moduli (GPa) = 69.04340 36.51558 80.24598
#
# Poissons Ratio (x) = 0.33147 0.35503
# Poissons Ratio (y) = 0.62674 0.16361
# Poissons Ratio (z) = 0.30547 0.07445
#
# Static dielectric constant tensor:
#      x y z
#    x 3.690000 0.000000 0.000000 
#    y 0.000000 3.655320 0.000000 
#    z 0.000000 0.000000 3.310200 
# 
# 
# High freq. dielectric constant tensor:
#      x y z
#    x 1.741370 0.000000 0.000000 
#    y 0.000000 1.719020 0.000000 
#    z 0.000000 0.000000 1.702050 
# 
# From -- ./inp_files/12815.got.cif
#   From: 2010.03.12/outbox.cif.g09.slc.cpg/sg51_7_cif.got.tgz:12815.got - 2010.04.16 13:43:02.
