data_PCOD8209976
_publ_section_title
;
Structure prediction by ZEFSAII (Michael W. Deem and Ramdas Pophale) SiO2 
 PCOD8209976
Probable space group: P M M A
;
_chemical_formula_sum "Si O2"
_cell_formula_units_Z 48
_cell_length_a 30.962391
_cell_length_b 8.775179
_cell_length_c 9.066916
_cell_angle_alpha 90.000000
_cell_angle_beta 90.000000
_cell_angle_gamma 90.000000
_cell_volume 2463.485822
_symmetry_space_group_name_H-M "P M M A"
_symmetry_group_IT_number 51
_symmetry_cell_setting 'orthorhombic'
loop_
_space_group_symop_operation_xyz
x,y,z
1/2-x,-y,z
1/2+x,-y,-z
-x,y,-z
-x,-y,-z
1/2+x,y,-z
1/2-x,y,z
x,-y,z
loop_
_atom_site_type_symbol
_atom_site_label
_atom_site_fract_x
_atom_site_fract_y
_atom_site_fract_z
Si Si1 0.916027 0.323155 0.173900
Si Si2 0.331740 0.320532 0.642424
Si Si3 0.250000 0.680918 0.160272
Si Si4 0.410234 0.678051 0.165683
Si Si5 0.750000 0.680242 0.170905
Si Si6 0.669463 0.821167 0.674978
Si Si7 0.997392 0.829173 0.825076
O O1 0.927431 0.500000 0.181258
O O2 0.875691 0.279176 0.274132
O O3 0.957530 0.234646 0.238062
O O4 0.905153 0.277892 0.005863
O O5 0.328451 0.500000 0.607549
O O6 0.292464 0.263487 0.744042
O O7 0.329758 0.225109 0.494565
O O8 0.250000 0.500000 0.160168
O O9 0.292508 0.736053 0.241556
O O10 0.250000 0.747646 0.994179
O O11 0.402401 0.500000 0.193937
O O12 0.375927 0.774788 0.255716
O O13 0.457570 0.723874 0.226101
O O14 0.750000 0.500000 0.160527
O O15 0.676535 0.000000 0.689947
O O16 0.990313 0.000000 0.765479
O O17 0.000000 0.825459 0.000000
#
# Coordination Sequence:
#
# PCOD8209976 Si02
#       7
#     8   8   4   8   4   8   8
#     4   9  18  33  56  84 111 144 192 239 277 328
#     4  10  20  37  59  83 112 148 187 228 276 330
#     4  11  22  41  66  88 110 143 186 229 274 326
#     4  10  19  35  59  84 110 146 190 234 278 328
#     4   9  19  37  64  90 108 135 184 235 272 318
#     4  12  25  39  55  83 119 151 184 225 276 332
#     4   9  17  30  51  81 115 148 182 228 285 335
#
# _framework density 19.484584999999999
#
# number of rings (size 3 to 8) (size 9 to 14) (size 15 to 20)
#    0.000    2.000    0.000    4.250    0.000    6.667 
#    0.000    4.167    0.000    5.000    0.000    0.000 
#    0.000    0.000    0.000    0.000    0.000    0.000 
#
# Total GULP energy -595337.979274 kJ/mol
# GULP energy per Si atom -12402.874568 kJ/mol
# Density = 1.944024 g / cm^3
# Si number density = 19.484585 Si / 1000 Ang^3
#
#
#
# Elastic Constant Matrix: (Units=GPa)
#
#
# Indices 1 2 3 4 5 6 
#
# 1 150.0203 42.4166 61.6556 0.0000 0.0000 0.0000
# 2 42.4166 80.5498 39.9364 0.0000 0.0000 0.0000
# 3 61.6556 39.9364 106.9846 0.0000 0.0000 0.0000
# 4 0.0000 0.0000 0.0000 17.9296 0.0000 0.0000
# 5 0.0000 0.0000 0.0000 0.0000 101.7996 0.0000
# 6 0.0000 0.0000 0.0000 0.0000 0.0000 26.5946
#
#
#
# Elastic Compliance Matrix: (Units=1/GPa)
#
#
# Indices 1 2 3 4 5 6 
#
# 1 0.009195 -0.002718 -0.004285 0.000000 0.000000 0.000000
# 2 -0.002718 0.016037 -0.004420 0.000000 0.000000 0.000000
# 3 -0.004285 -0.004420 0.013467 0.000000 0.000000 0.000000
# 4 0.000000 0.000000 0.000000 0.055774 0.000000 0.000000
# 5 0.000000 0.000000 0.000000 0.000000 0.009823 0.000000
# 6 0.000000 0.000000 0.000000 0.000000 0.000000 0.037602
#
#
# Mechanical properties :
#
#
# Convention : Reuss Voigt Hill
#
# Bulk Modulus (GPa) = 63.07768 69.50799 66.29284
# Shear Modulus (GPa) = 29.40698 42.16782 35.78740
#
# Velocity S-wave (km/s) = 3.88911 4.65710 4.29033
# Velocity P-wave (km/s) = 7.25330 8.04170 7.65765
#
# Compressibility (1/GPa) = 0.01585347
#
# Stress axis : x y z
#
# Youngs Moduli (GPa) = 108.75381 62.35417 74.25834
#
# Poissons Ratio (x) = 0.16946 0.31817
# Poissons Ratio (y) = 0.29556 0.32825
# Poissons Ratio (z) = 0.46597 0.27563
#
# Static dielectric constant tensor:
#      x y z
#    x 3.863890 0.000000 0.000000 
#    y 0.000000 3.490680 0.000000 
#    z 0.000000 0.000000 3.488770 
# 
# 
# High freq. dielectric constant tensor:
#      x y z
#    x 1.779270 0.000000 0.000000 
#    y 0.000000 1.751630 0.000000 
#    z 0.000000 0.000000 1.742920 
# 
# From -- ./inp_files/12906.got.cif
#   From: 2010.03.12/outbox.cif.g09.slc.cpg/sg51_7_cif.got.tgz:12906.got - 2010.04.16 13:43:02.
