data_PCOD8209771
_publ_section_title
;
Structure prediction by ZEFSAII (Michael W. Deem and Ramdas Pophale) SiO2 
 PCOD8209771
Probable space group: P M M A
;
_chemical_formula_sum "Si O2"
_cell_formula_units_Z 48
_cell_length_a 8.760583
_cell_length_b 31.040823
_cell_length_c 9.084007
_cell_angle_alpha 90.000000
_cell_angle_beta 90.000000
_cell_angle_gamma 90.000000
_cell_volume 2470.265859
_symmetry_space_group_name_H-M "P M M A"
_symmetry_group_IT_number 51
_symmetry_cell_setting 'orthorhombic'
loop_
_space_group_symop_operation_xyz
x,y,z
1/2-x,-y,z
1/2+x,-y,-z
-x,y,-z
-x,-y,-z
1/2+x,y,-z
1/2-x,y,z
x,-y,z
loop_
_atom_site_type_symbol
_atom_site_label
_atom_site_fract_x
_atom_site_fract_y
_atom_site_fract_z
Si Si1 0.072510 0.253518 0.342469
Si Si2 0.073260 0.000000 0.656211
Si Si3 0.930714 0.593576 0.662998
Si Si4 0.570124 0.093332 0.338344
Si Si5 0.574367 0.500000 0.655312
Si Si6 0.073935 0.831491 0.154951
Si Si7 0.430945 0.670270 0.840481
O O1 0.250000 0.266211 0.354586
O O2 0.047988 0.209506 0.256537
O O3 0.000000 0.245960 0.500000
O O4 0.981622 0.291526 0.265086
O O5 0.028749 0.954251 0.731715
O O6 0.000000 0.000000 0.500000
O O7 0.250000 0.000000 0.626216
O O8 0.750000 0.602524 0.654520
O O9 0.967873 0.545675 0.731960
O O10 0.000000 0.599491 0.500000
O O11 0.009170 0.625490 0.776454
O O12 0.500000 0.099789 0.500000
O O13 0.750000 0.100234 0.353068
O O14 0.504502 0.127192 0.224927
O O15 0.750000 0.500000 0.620431
O O16 0.500000 0.500000 0.500000
O O17 0.250000 0.842232 0.132094
O O18 0.000000 0.820346 0.000000
O O19 0.250000 0.669037 0.852268
O O20 0.500000 0.678625 0.000000
#
# Coordination Sequence:
#
# PCOD8209771 Si02
#       7
#     8   4   8   8   4   8   8
#     4  11  24  42  64  89 115 146 185 230 277 331
#     4   8  16  30  51  80 111 146 186 232 280 328
#     4  10  19  35  58  86 117 151 192 236 282 332
#     4  10  19  34  57  84 115 149 190 235 281 332
#     4   8  16  30  53  82 113 148 188 234 280 328
#     4  11  24  40  59  84 115 150 188 230 282 337
#     4  12  25  41  60  84 115 151 189 232 283 338
#
# _framework density 19.431107000000001
#
# number of rings (size 3 to 8) (size 9 to 14) (size 15 to 20)
#    0.000    1.667    0.000    5.000    0.000    6.667 
#    0.000    0.833    0.000    0.000    0.000    0.000 
#    0.000    0.000    0.000    0.000    0.000    0.000 
#
# Total GULP energy -594921.070924 kJ/mol
# GULP energy per Si atom -12394.188978 kJ/mol
# Density = 1.938688 g / cm^3
# Si number density = 19.431107 Si / 1000 Ang^3
#
#
#
# Elastic Constant Matrix: (Units=GPa)
#
#
# Indices 1 2 3 4 5 6 
#
# 1 128.9966 69.1145 54.0390 0.0000 0.0000 0.0000
# 2 69.1145 127.9360 39.6530 0.0000 0.0000 0.0000
# 3 54.0390 39.6530 101.8025 0.0000 0.0000 0.0000
# 4 0.0000 0.0000 0.0000 -58.7597 0.0000 0.0000
# 5 0.0000 0.0000 0.0000 0.0000 32.3023 0.0000
# 6 0.0000 0.0000 0.0000 0.0000 0.0000 278.1474
#
#
#
# Elastic Compliance Matrix: (Units=1/GPa)
#
#
# Indices 1 2 3 4 5 6 
#
# 1 0.012535 -0.005356 -0.004568 0.000000 0.000000 0.000000
# 2 -0.005356 0.011178 -0.001511 0.000000 0.000000 0.000000
# 3 -0.004568 -0.001511 0.012836 0.000000 0.000000 0.000000
# 4 0.000000 0.000000 0.000000 -0.017018 0.000000 0.000000
# 5 0.000000 0.000000 0.000000 0.000000 0.030958 0.000000
# 6 0.000000 0.000000 0.000000 0.000000 0.000000 0.003595
#
#
# Mechanical properties :
#
#
# Convention : Reuss Voigt Hill
#
# Bulk Modulus (GPa) = 73.09880 76.03868 74.56874
# Shear Modulus (GPa) = 61.33918 63.39989 62.36954
#
# Velocity S-wave (km/s) = 5.62459 5.71829 5.67164
# Velocity P-wave (km/s) = 8.93770 9.10032 9.01938
#
# Compressibility (1/GPa) = 0.01368012
#
# Stress axis : x y z
#
# Youngs Moduli (GPa) = 79.77357 89.45926 77.90519
#
# Poissons Ratio (x) = 0.47917 0.35586
# Poissons Ratio (y) = 0.42729 0.11770
# Poissons Ratio (z) = 0.36439 0.13516
#
# Static dielectric constant tensor:
#      x y z
#    x 3.767610 0.000000 0.000000 
#    y 0.000000 5.233490 0.000000 
#    z 0.000000 0.000000 3.119920 
# 
# 
# High freq. dielectric constant tensor:
#      x y z
#    x 1.774530 0.000000 0.000000 
#    y 0.000000 1.786240 0.000000 
#    z 0.000000 0.000000 1.733970 
# 
# From -- ./inp_files/6293.got.cif
#   From: 2010.03.12/outbox.cif.g09.slc.cpg/sg51_4_cif.got.tgz:6293.got - 2010.04.16 13:43:02.
