data_PCOD8209745
_publ_section_title
;
Structure prediction by ZEFSAII (Michael W. Deem and Ramdas Pophale) SiO2 
 PCOD8209745
Probable space group: P M M A
;
_chemical_formula_sum "Si O2"
_cell_formula_units_Z 48
_cell_length_a 9.535676
_cell_length_b 28.875896
_cell_length_c 9.387453
_cell_angle_alpha 90.000000
_cell_angle_beta 90.000000
_cell_angle_gamma 90.000000
_cell_volume 2584.846340
_symmetry_space_group_name_H-M "P M M A"
_symmetry_group_IT_number 51
_symmetry_cell_setting 'orthorhombic'
loop_
_space_group_symop_operation_xyz
x,y,z
1/2-x,-y,z
1/2+x,-y,-z
-x,y,-z
-x,-y,-z
1/2+x,y,-z
1/2-x,y,z
x,-y,z
loop_
_atom_site_type_symbol
_atom_site_label
_atom_site_fract_x
_atom_site_fract_y
_atom_site_fract_z
Si Si1 0.002850 0.885636 0.331324
Si Si2 0.750000 0.052194 0.321211
Si Si3 0.250000 0.949281 0.342157
Si Si4 0.915737 0.613930 0.641357
Si Si5 0.915751 0.200859 0.853537
Si Si6 0.091019 0.720967 0.364870
Si Si7 0.586720 0.448101 0.143886
O O1 0.875208 0.915303 0.272261
O O2 0.000000 0.874413 0.500000
O O3 0.121536 0.920666 0.286214
O O4 0.019884 0.838076 0.248271
O O5 0.750000 0.045422 0.489186
O O6 0.750000 0.000000 0.252849
O O7 0.250000 0.000000 0.271609
O O8 0.750000 0.600428 0.629928
O O9 0.933723 0.667874 0.677741
O O10 0.000000 0.601170 0.500000
O O11 0.997182 0.586059 0.760347
O O12 0.750000 0.193198 0.880639
O O13 0.945841 0.249302 0.774552
O O14 0.000000 0.201223 0.000000
O O15 0.250000 0.729950 0.412772
O O16 0.000000 0.736416 0.500000
O O17 0.750000 0.431733 0.124337
O O18 0.586520 0.500000 0.208777
O O19 0.500000 0.448098 0.000000
#
# Coordination Sequence:
#
# PCOD8209745 Si02
#       7
#     8   4   4   8   8   8   8
#     4  10  19  34  57  82 110 142 178 223 271 321
#     4   9  18  30  53  87 113 133 173 225 272 323
#     4   9  16  30  53  83 111 139 175 221 270 315
#     4  10  20  36  59  86 117 150 187 236 288 342
#     4  11  24  40  56  79 111 146 184 226 271 326
#     4   9  20  39  61  86 113 143 184 230 281 336
#     4  10  21  37  57  82 115 156 200 243 287 338
#
# _framework density 18.569769999999998
#
# number of rings (size 3 to 8) (size 9 to 14) (size 15 to 20)
#    0.000    2.167    0.833    2.000    1.167    5.333 
#    0.000    1.667    0.000    3.000    0.000    0.000 
#    0.000    0.000    0.000    0.000    0.000    0.000 
#
# Total GULP energy -594813.803500 kJ/mol
# GULP energy per Si atom -12391.954240 kJ/mol
# Density = 1.852750 g / cm^3
# Si number density = 18.569770 Si / 1000 Ang^3
#
#
#
# Elastic Constant Matrix: (Units=GPa)
#
#
# Indices 1 2 3 4 5 6 
#
# 1 162.1071 64.2752 58.3853 0.0000 0.0000 0.0000
# 2 64.2752 101.1528 60.2838 0.0000 0.0000 0.0000
# 3 58.3853 60.2838 91.9698 0.0000 0.0000 0.0000
# 4 0.0000 0.0000 0.0000 -11.2132 0.0000 0.0000
# 5 0.0000 0.0000 0.0000 0.0000 35.4526 0.0000
# 6 0.0000 0.0000 0.0000 0.0000 0.0000 35.7962
#
#
#
# Elastic Compliance Matrix: (Units=1/GPa)
#
#
# Indices 1 2 3 4 5 6 
#
# 1 0.008766 -0.003699 -0.003141 0.000000 0.000000 0.000000
# 2 -0.003699 0.017784 -0.009309 0.000000 0.000000 0.000000
# 3 -0.003141 -0.009309 0.018969 0.000000 0.000000 0.000000
# 4 0.000000 0.000000 0.000000 -0.089180 0.000000 0.000000
# 5 0.000000 0.000000 0.000000 0.000000 0.028207 0.000000
# 6 0.000000 0.000000 0.000000 0.000000 0.000000 0.027936
#
#
# Mechanical properties :
#
#
# Convention : Reuss Voigt Hill
#
# Bulk Modulus (GPa) = 75.62904 80.12427 77.87665
# Shear Modulus (GPa) = 101.65451 23.49281 62.57366
#
# Velocity S-wave (km/s) = 7.40681 3.56070 5.81117
# Velocity P-wave (km/s) = 10.67535 7.75539 9.33031
#
# Compressibility (1/GPa) = 0.01322243
#
# Stress axis : x y z
#
# Youngs Moduli (GPa) = 114.07074 56.23000 52.71776
#
# Poissons Ratio (x) = 0.20797 0.16558
# Poissons Ratio (y) = 0.42190 0.49075
# Poissons Ratio (z) = 0.35829 0.52345
#
# Static dielectric constant tensor:
#      x y z
#    x 3.370210 0.000000 0.000000 
#    y 0.000000 3.635490 0.000000 
#    z 0.000000 0.000000 0.536270 
# 
# 
# High freq. dielectric constant tensor:
#      x y z
#    x 1.741020 0.000000 0.000000 
#    y 0.000000 1.734050 0.000000 
#    z 0.000000 0.000000 1.692500 
# 
# From -- ./inp_files/6245.got.cif
#   From: 2010.03.12/outbox.cif.g09.slc.cpg/sg51_4_cif.got.tgz:6245.got - 2010.04.16 13:43:02.
