data_PCOD8209512
_publ_section_title
;
Structure prediction by ZEFSAII (Michael W. Deem and Ramdas Pophale) SiO2 
 PCOD8209512
Probable space group: P M M A
;
_chemical_formula_sum "Si O2"
_cell_formula_units_Z 64
_cell_length_a 17.972182
_cell_length_b 8.638680
_cell_length_c 21.469078
_cell_angle_alpha 90.000000
_cell_angle_beta 90.000000
_cell_angle_gamma 90.000000
_cell_volume 3333.201654
_symmetry_space_group_name_H-M "P M M A"
_symmetry_group_IT_number 51
_symmetry_cell_setting 'orthorhombic'
loop_
_space_group_symop_operation_xyz
x,y,z
1/2-x,-y,z
1/2+x,-y,-z
-x,y,-z
-x,-y,-z
1/2+x,y,-z
1/2-x,y,z
x,-y,z
loop_
_atom_site_type_symbol
_atom_site_label
_atom_site_fract_x
_atom_site_fract_y
_atom_site_fract_z
Si Si1 0.833391 0.817642 0.872353
Si Si2 0.417116 0.679931 0.615020
Si Si3 0.970676 0.317623 0.935106
Si Si4 0.336681 0.179339 0.500595
Si Si5 0.454915 0.318275 0.808939
Si Si6 0.089525 0.319453 0.383206
Si Si7 0.092208 0.181618 0.254629
Si Si8 0.665066 0.181301 0.268823
O O1 0.750000 0.759747 0.886139
O O2 0.887586 0.742128 0.922909
O O3 0.855504 0.766643 0.802605
O O4 0.840540 0.000000 0.878814
O O5 0.408426 0.500000 0.631989
O O6 0.381299 0.713984 0.548410
O O7 0.503227 0.727388 0.611390
O O8 0.375673 0.779432 0.666992
O O9 0.966637 0.500000 0.940314
O O10 0.026658 0.266788 0.879674
O O11 0.000000 0.245607 0.000000
O O12 0.250000 0.216997 0.507089
O O13 0.363234 0.220224 0.431595
O O14 0.353054 0.000000 0.514645
O O15 0.467479 0.500000 0.799987
O O16 0.507712 0.228399 0.760774
O O17 0.371547 0.269548 0.790281
O O18 0.102316 0.500000 0.395837
O O19 0.119813 0.274235 0.314995
O O20 0.096732 0.000000 0.267895
O O21 0.750000 0.237371 0.273402
O O22 0.659822 0.000000 0.256477
#
# Coordination Sequence:
#
# PCOD8209512 Si02
#       8
#     8   8   8   8   8   8   8   8
#     4   9  19  35  55  83 117 150 188 233 279 330
#     4  11  23  39  60  84 111 143 184 233 283 337
#     4   9  19  36  58  84 114 150 192 234 276 328
#     4  11  25  42  58  79 109 146 189 235 283 336
#     4  10  19  34  56  81 110 144 184 228 275 330
#     4  11  23  38  58  85 113 144 186 232 280 339
#     4  10  19  33  56  82 111 147 183 226 278 330
#     4  11  23  37  56  83 113 146 186 231 281 336
#
# _framework density 19.200759000000001
#
# number of rings (size 3 to 8) (size 9 to 14) (size 15 to 20)
#    0.000    1.750    1.250    3.000    0.000    8.500 
#    0.000    1.875    0.000    3.750    0.000    0.000 
#    0.000    0.000    0.000    0.000    0.000    0.000 
#
# Total GULP energy -793868.840413 kJ/mol
# GULP energy per Si atom -12404.200631 kJ/mol
# Density = 1.915706 g / cm^3
# Si number density = 19.200759 Si / 1000 Ang^3
#
#
#
# Elastic Constant Matrix: (Units=GPa)
#
#
# Indices 1 2 3 4 5 6 
#
# 1 63.0231 23.8576 34.5846 0.0000 0.0000 0.0000
# 2 23.8576 32.8551 15.4192 0.0000 0.0000 0.0000
# 3 34.5846 15.4192 115.5406 0.0000 0.0000 0.0000
# 4 0.0000 0.0000 0.0000 27.5591 0.0000 0.0000
# 5 0.0000 0.0000 0.0000 0.0000 23.7786 0.0000
# 6 0.0000 0.0000 0.0000 0.0000 0.0000 23.0675
#
#
#
# Elastic Compliance Matrix: (Units=1/GPa)
#
#
# Indices 1 2 3 4 5 6 
#
# 1 0.024601 -0.015371 -0.005313 0.000000 0.000000 0.000000
# 2 -0.015371 0.042074 -0.001014 0.000000 0.000000 0.000000
# 3 -0.005313 -0.001014 0.010380 0.000000 0.000000 0.000000
# 4 0.000000 0.000000 0.000000 0.036286 0.000000 0.000000
# 5 0.000000 0.000000 0.000000 0.000000 0.042055 0.000000
# 6 0.000000 0.000000 0.000000 0.000000 0.000000 0.043351
#
#
# Mechanical properties :
#
#
# Convention : Reuss Voigt Hill
#
# Bulk Modulus (GPa) = 29.70801 39.90463 34.80632
# Shear Modulus (GPa) = 19.73462 24.05156 21.89309
#
# Velocity S-wave (km/s) = 3.20942 3.54310 3.38038
# Velocity P-wave (km/s) = 5.40738 6.12911 5.77952
#
# Compressibility (1/GPa) = 0.03366095
#
# Stress axis : x y z
#
# Youngs Moduli (GPa) = 40.64840 23.76765 96.33471
#
# Poissons Ratio (x) = 0.36533 0.51178
# Poissons Ratio (y) = 0.62480 0.09768
# Poissons Ratio (z) = 0.21595 0.02410
#
# Static dielectric constant tensor:
#      x y z
#    x 3.590980 0.000000 0.000000 
#    y 0.000000 3.441490 0.000000 
#    z 0.000000 0.000000 3.636620 
# 
# 
# High freq. dielectric constant tensor:
#      x y z
#    x 1.743910 0.000000 0.000000 
#    y 0.000000 1.750300 0.000000 
#    z 0.000000 0.000000 1.746530 
# 
# From -- ./inp_files/33940.got.cif
#   From: 2010.03.12/outbox.cif.g09.slc.cpg/sg51_17_cif.got.tgz:33940.got - 2010.04.16 13:43:02.
