data_PCOD8209182
_publ_section_title
;
Structure prediction by ZEFSAII (Michael W. Deem and Ramdas Pophale) SiO2 
 PCOD8209182
Probable space group: P M M A
;
_chemical_formula_sum "Si O2"
_cell_formula_units_Z 64
_cell_length_a 8.933886
_cell_length_b 30.651111
_cell_length_c 14.377337
_cell_angle_alpha 90.000000
_cell_angle_beta 90.000000
_cell_angle_gamma 90.000000
_cell_volume 3936.996964
_symmetry_space_group_name_H-M "P M M A"
_symmetry_group_IT_number 51
_symmetry_cell_setting 'orthorhombic'
loop_
_space_group_symop_operation_xyz
x,y,z
1/2-x,-y,z
1/2+x,-y,-z
-x,y,-z
-x,-y,-z
1/2+x,y,-z
1/2-x,y,z
x,-y,z
loop_
_atom_site_type_symbol
_atom_site_label
_atom_site_fract_x
_atom_site_fract_y
_atom_site_fract_z
Si Si1 0.426452 0.659007 0.092996
Si Si2 0.425313 0.952660 0.400007
Si Si3 0.924943 0.758017 0.907927
Si Si4 0.924898 0.449603 0.404393
Si Si5 0.072510 0.867688 0.601433
Si Si6 0.924951 0.704658 0.598542
Si Si7 0.927269 0.378709 0.712959
Si Si8 0.575532 0.791163 0.710033
O O1 0.250000 0.657712 0.081586
O O2 0.482685 0.708622 0.108670
O O3 0.476883 0.630329 0.181116
O O4 0.500000 0.639031 0.000000
O O5 0.500000 0.955823 0.500000
O O6 0.250000 0.942078 0.409952
O O7 0.508241 0.912128 0.349718
O O8 0.448460 0.000000 0.349390
O O9 0.750000 0.757373 0.924802
O O10 0.965030 0.787500 0.818963
O O11 0.000000 0.778519 0.000000
O O12 0.750000 0.440750 0.413046
O O13 0.961917 0.500000 0.385194
O O14 0.000000 0.433599 0.500000
O O15 0.992205 0.422806 0.318718
O O16 0.250000 0.870353 0.591326
O O17 0.000000 0.860719 0.500000
O O18 0.028929 0.828093 0.667540
O O19 0.750000 0.701343 0.582277
O O20 0.983878 0.661106 0.648731
O O21 0.965657 0.745531 0.662641
O O22 0.000000 0.710988 0.500000
O O23 0.750000 0.384356 0.705250
O O24 0.750000 0.802701 0.694819
#
# Coordination Sequence:
#
# PCOD8209182 Si02
#       8
#     8   8   8   8   8   8   8   8
#     4   9  17  31  50  73  98 124 154 192 237 282
#     4   9  16  27  44  64  86 116 156 199 241 284
#     4   9  17  31  50  69  92 122 155 195 239 279
#     4  10  21  36  53  74  99 126 157 193 234 280
#     4  11  21  31  44  64  92 127 165 201 238 282
#     4  10  20  32  45  64  92 125 158 192 228 269
#     4  10  19  33  52  73  98 125 157 195 236 281
#     4  10  19  33  48  63  92 129 160 193 234 277
#
# _framework density 16.256045
#
# number of rings (size 3 to 8) (size 9 to 14) (size 15 to 20)
#    0.000    2.250    1.250    3.375    0.000    5.500 
#    0.000    0.000    0.000    0.375    0.000    0.000 
#    0.000    0.500    0.000    1.625    0.000    2.250 
#
# Total GULP energy -793450.251512 kJ/mol
# GULP energy per Si atom -12397.660180 kJ/mol
# Density = 1.621905 g / cm^3
# Si number density = 16.256045 Si / 1000 Ang^3
#
#
#
# Elastic Constant Matrix: (Units=GPa)
#
#
# Indices 1 2 3 4 5 6 
#
# 1 71.7872 44.9066 44.8529 0.0000 0.0000 0.0000
# 2 44.9066 86.6380 42.5647 0.0000 0.0000 0.0000
# 3 44.8529 42.5647 104.4220 0.0000 0.0000 0.0000
# 4 0.0000 0.0000 0.0000 11.7845 0.0000 0.0000
# 5 0.0000 0.0000 0.0000 0.0000 26.9562 0.0000
# 6 0.0000 0.0000 0.0000 0.0000 0.0000 26.0457
#
#
#
# Elastic Compliance Matrix: (Units=1/GPa)
#
#
# Indices 1 2 3 4 5 6 
#
# 1 0.023645 -0.009086 -0.006453 0.000000 0.000000 0.000000
# 2 -0.009086 0.017924 -0.003403 0.000000 0.000000 0.000000
# 3 -0.006453 -0.003403 0.013736 0.000000 0.000000 0.000000
# 4 0.000000 0.000000 0.000000 0.084857 0.000000 0.000000
# 5 0.000000 0.000000 0.000000 0.000000 0.037097 0.000000
# 6 0.000000 0.000000 0.000000 0.000000 0.000000 0.038394
#
#
# Mechanical properties :
#
#
# Convention : Reuss Voigt Hill
#
# Bulk Modulus (GPa) = 57.40378 58.61064 58.00721
# Shear Modulus (GPa) = 19.27940 21.65884 20.46912
#
# Velocity S-wave (km/s) = 3.44755 3.65410 3.55233
# Velocity P-wave (km/s) = 7.15796 7.34413 7.25164
#
# Compressibility (1/GPa) = 0.01742045
#
# Stress axis : x y z
#
# Youngs Moduli (GPa) = 42.29135 55.79200 72.80318
#
# Poissons Ratio (x) = 0.50691 0.46980
# Poissons Ratio (y) = 0.38425 0.24778
# Poissons Ratio (z) = 0.27291 0.18989
#
# Static dielectric constant tensor:
#      x y z
#    x 3.246490 0.000000 0.000000 
#    y 0.000000 3.337540 0.000000 
#    z 0.000000 0.000000 2.981560 
# 
# 
# High freq. dielectric constant tensor:
#      x y z
#    x 1.628400 0.000000 0.000000 
#    y 0.000000 1.617660 0.000000 
#    z 0.000000 0.000000 1.603520 
# 
# From -- ./inp_files/22605.got.cif
#   From: 2010.03.12/outbox.cif.g09.slc.cpg/sg51_12_cif.got.tgz:22605.got - 2010.04.16 13:43:02.
