data_PCOD8209575
_publ_section_title
;
Structure prediction by ZEFSAII (Michael W. Deem and Ramdas Pophale) SiO2 
 PCOD8209575
Probable space group: P M M A
;
_chemical_formula_sum "Si O2"
_cell_formula_units_Z 52
_cell_length_a 8.941524
_cell_length_b 11.781240
_cell_length_c 29.606531
_cell_angle_alpha 90.000000
_cell_angle_beta 90.000000
_cell_angle_gamma 90.000000
_cell_volume 3118.818300
_symmetry_space_group_name_H-M "P M M A"
_symmetry_group_IT_number 51
_symmetry_cell_setting 'orthorhombic'
loop_
_space_group_symop_operation_xyz
x,y,z
1/2-x,-y,z
1/2+x,-y,-z
-x,y,-z
-x,-y,-z
1/2+x,y,-z
1/2-x,y,z
x,-y,z
loop_
_atom_site_type_symbol
_atom_site_label
_atom_site_fract_x
_atom_site_fract_y
_atom_site_fract_z
Si Si1 0.421423 0.799019 0.640715
Si Si2 0.416925 0.626087 0.868075
Si Si3 0.926783 0.000000 0.218667
Si Si4 0.077815 0.500000 0.952467
Si Si5 0.925479 0.231653 0.797254
Si Si6 0.577544 0.871240 0.455514
Si Si7 0.423072 0.629534 0.717466
Si Si8 0.923594 0.000000 0.686869
O O1 0.250000 0.842271 0.647701
O O2 0.454737 0.788365 0.587165
O O3 0.445835 0.680545 0.667074
O O4 0.540747 0.888439 0.658760
O O5 0.250000 0.679124 0.862804
O O6 0.415554 0.500000 0.845822
O O7 0.459599 0.611633 0.921550
O O8 0.540426 0.700240 0.843029
O O9 0.996248 0.111021 0.195837
O O10 0.750000 0.000000 0.212037
O O11 0.966918 0.000000 0.270899
O O12 0.250000 0.500000 0.964109
O O13 0.000000 0.500000 0.000000
O O14 0.750000 0.214763 0.791417
O O15 0.985373 0.297136 0.753393
O O16 0.500000 0.820093 0.500000
O O17 0.750000 0.874635 0.467025
O O18 0.520385 0.000000 0.444955
O O19 0.250000 0.635580 0.731845
O O20 0.480920 0.500000 0.716748
O O21 0.750000 0.000000 0.701572
#
# Coordination Sequence:
#
# PCOD8209575 Si02
#       8
#     8   8   4   4   8   8   8   4
#     4  10  19  34  53  70  97 134 167 201 249 309
#     4   8  17  33  51  73 105 146 182 211 254 316
#     4  12  24  38  54  69  98 143 178 210 253 311
#     4   8  16  30  52  80 110 142 184 228 267 312
#     4  12  23  34  50  77 106 135 174 221 264 302
#     4   9  17  29  46  70  95 123 158 198 251 310
#     4  10  21  35  53  73  96 135 178 210 248 306
#     4  12  22  32  49  77 102 125 162 208 254 301
#
# _framework density 16.672981
#
# number of rings (size 3 to 8) (size 9 to 14) (size 15 to 20)
#    0.462    1.538    2.308    3.231    0.000    3.692 
#    0.000    0.000    0.000    0.462    0.000    0.538 
#    0.000    0.000    0.000    0.000    0.000    0.000 
#
# Total GULP energy -644432.762953 kJ/mol
# GULP energy per Si atom -12392.937749 kJ/mol
# Density = 1.663503 g / cm^3
# Si number density = 16.672981 Si / 1000 Ang^3
#
#
#
# Elastic Constant Matrix: (Units=GPa)
#
#
# Indices 1 2 3 4 5 6 
#
# 1 88.3971 43.0863 45.8459 0.0000 0.0000 0.0000
# 2 43.0863 91.2015 44.8696 0.0000 0.0000 0.0000
# 3 45.8459 44.8696 121.3718 0.0000 0.0000 0.0000
# 4 0.0000 0.0000 0.0000 17.8871 0.0000 0.0000
# 5 0.0000 0.0000 0.0000 0.0000 28.3496 0.0000
# 6 0.0000 0.0000 0.0000 0.0000 0.0000 18.9823
#
#
#
# Elastic Compliance Matrix: (Units=1/GPa)
#
#
# Indices 1 2 3 4 5 6 
#
# 1 0.016149 -0.005657 -0.004009 0.000000 0.000000 0.000000
# 2 -0.005657 0.015384 -0.003550 0.000000 0.000000 0.000000
# 3 -0.004009 -0.003550 0.011066 0.000000 0.000000 0.000000
# 4 0.000000 0.000000 0.000000 0.055906 0.000000 0.000000
# 5 0.000000 0.000000 0.000000 0.000000 0.035274 0.000000
# 6 0.000000 0.000000 0.000000 0.000000 0.000000 0.052681
#
#
# Mechanical properties :
#
#
# Convention : Reuss Voigt Hill
#
# Bulk Modulus (GPa) = 61.85577 63.17488 62.51532
# Shear Modulus (GPa) = 22.90626 24.18836 23.54731
#
# Velocity S-wave (km/s) = 3.71058 3.81301 3.76214
# Velocity P-wave (km/s) = 7.45237 7.57352 7.51319
#
# Compressibility (1/GPa) = 0.01616664
#
# Stress axis : x y z
#
# Youngs Moduli (GPa) = 61.92352 65.00233 90.36787
#
# Poissons Ratio (x) = 0.36772 0.36225
# Poissons Ratio (y) = 0.35031 0.32085
# Poissons Ratio (z) = 0.24823 0.23079
#
# Static dielectric constant tensor:
#      x y z
#    x 3.093660 0.000000 0.000000 
#    y 0.000000 3.025010 0.000000 
#    z 0.000000 0.000000 3.098560 
# 
# 
# High freq. dielectric constant tensor:
#      x y z
#    x 1.641630 0.000000 0.000000 
#    y 0.000000 1.615370 0.000000 
#    z 0.000000 0.000000 1.633030 
# 
# From -- ./inp_files/37394.got.cif
#   From: 2010.03.12/outbox.cif.g09.slc.cpg/sg51_19_cif.got.tgz:37394.got - 2010.04.16 13:43:02.
