data_PCOD8209720
_publ_section_title
;
Structure prediction by ZEFSAII (Michael W. Deem and Ramdas Pophale) SiO2 
 PCOD8209720
Probable space group: P M M A
;
_chemical_formula_sum "Si O2"
_cell_formula_units_Z 40
_cell_length_a 8.645077
_cell_length_b 15.803464
_cell_length_c 13.981255
_cell_angle_alpha 90.000000
_cell_angle_beta 90.000000
_cell_angle_gamma 90.000000
_cell_volume 1910.149302
_symmetry_space_group_name_H-M "P M M A"
_symmetry_group_IT_number 51
_symmetry_cell_setting 'orthorhombic'
loop_
_space_group_symop_operation_xyz
x,y,z
1/2-x,-y,z
1/2+x,-y,-z
-x,y,-z
-x,-y,-z
1/2+x,y,-z
1/2-x,y,z
x,-y,z
loop_
_atom_site_type_symbol
_atom_site_label
_atom_site_fract_x
_atom_site_fract_y
_atom_site_fract_z
Si Si1 0.433266 0.000000 0.894491
Si Si2 0.068320 0.237647 0.395058
Si Si3 0.567924 0.408370 0.394612
Si Si4 0.067921 0.163041 0.779716
Si Si5 0.570177 0.500000 0.896688
Si Si6 0.433680 0.317248 0.106303
O O1 0.494153 0.917704 0.838127
O O2 0.250000 0.000000 0.902234
O O3 0.500000 0.000000 0.000000
O O4 0.250000 0.235254 0.402078
O O5 0.000000 0.223976 0.500000
O O6 0.015039 0.327427 0.346627
O O7 0.008912 0.163179 0.325596
O O8 0.500000 0.414220 0.500000
O O9 0.750000 0.390450 0.399726
O O10 0.534889 0.500000 0.343193
O O11 0.250000 0.158421 0.766865
O O12 0.021018 0.247678 0.833490
O O13 0.750000 0.500000 0.914689
O O14 0.525239 0.410310 0.846462
O O15 0.500000 0.500000 0.000000
O O16 0.250000 0.299804 0.106269
O O17 0.500000 0.312708 0.000000
#
# Coordination Sequence:
#
# PCOD8209720 Si02
#       6
#     4   8   8   8   4   8
#     4  10  24  44  69  96 125 156 191 242 306 366
#     4  11  22  38  60  86 118 160 203 251 304 358
#     4   9  16  28  49  77 110 151 199 248 297 347
#     4  11  23  41  62  89 120 155 199 250 302 365
#     4   8  16  30  50  76 113 154 195 236 284 346
#     4  10  19  34  56  85 118 157 197 242 296 356
#
# _framework density 20.940771000000002
#
# number of rings (size 3 to 8) (size 9 to 14) (size 15 to 20)
#    0.000    2.000    0.000    5.400    0.000    5.200 
#    1.800    0.500    0.000    0.000    0.000    0.000 
#    0.000    0.000    0.000    0.000    0.000    0.000 
#
# Total GULP energy -495666.499153 kJ/mol
# GULP energy per Si atom -12391.662479 kJ/mol
# Density = 2.089311 g / cm^3
# Si number density = 20.940771 Si / 1000 Ang^3
#
#
#
# Elastic Constant Matrix: (Units=GPa)
#
#
# Indices 1 2 3 4 5 6 
#
# 1 106.3794 47.5881 35.1015 0.0000 0.0000 0.0000
# 2 47.5881 152.6507 77.7533 0.0000 0.0000 0.0000
# 3 35.1015 77.7533 98.9457 0.0000 0.0000 0.0000
# 4 0.0000 0.0000 0.0000 35.6283 0.0000 0.0000
# 5 0.0000 0.0000 0.0000 0.0000 31.6996 0.0000
# 6 0.0000 0.0000 0.0000 0.0000 0.0000 28.2810
#
#
#
# Elastic Compliance Matrix: (Units=1/GPa)
#
#
# Indices 1 2 3 4 5 6 
#
# 1 0.011166 -0.002440 -0.002044 0.000000 0.000000 0.000000
# 2 -0.002440 0.011456 -0.008137 0.000000 0.000000 0.000000
# 3 -0.002044 -0.008137 0.017226 0.000000 0.000000 0.000000
# 4 0.000000 0.000000 0.000000 0.028068 0.000000 0.000000
# 5 0.000000 0.000000 0.000000 0.000000 0.031546 0.000000
# 6 0.000000 0.000000 0.000000 0.000000 0.000000 0.035359
#
#
# Mechanical properties :
#
#
# Convention : Reuss Voigt Hill
#
# Bulk Modulus (GPa) = 68.46199 75.42907 71.94553
# Shear Modulus (GPa) = 30.31566 32.29064 31.30315
#
# Velocity S-wave (km/s) = 3.80897 3.93109 3.87051
# Velocity P-wave (km/s) = 7.21862 7.53014 7.37603
#
# Compressibility (1/GPa) = 0.01460665
#
# Stress axis : x y z
#
# Youngs Moduli (GPa) = 89.55568 87.29021 58.05289
#
# Poissons Ratio (x) = 0.21298 0.11866
# Poissons Ratio (y) = 0.21851 0.47236
# Poissons Ratio (z) = 0.18305 0.71026
#
# Static dielectric constant tensor:
#      x y z
#    x 3.805600 0.000000 0.000000 
#    y 0.000000 4.440130 0.000000 
#    z 0.000000 0.000000 3.681180 
# 
# 
# High freq. dielectric constant tensor:
#      x y z
#    x 1.826270 0.000000 0.000000 
#    y 0.000000 1.822030 0.000000 
#    z 0.000000 0.000000 1.810960 
# 
# From -- ./inp_files/20592.got.cif
#   From: 2010.03.12/outbox.cif.g09.slc.cpg/sg51_11_cif.got.tgz:20592.got - 2010.04.16 13:43:02.
