data_PCOD8209463
_publ_section_title
;
Structure prediction by ZEFSAII (Michael W. Deem and Ramdas Pophale) SiO2 
 PCOD8209463
Probable space group: P M M A
;
_chemical_formula_sum "Si O2"
_cell_formula_units_Z 48
_cell_length_a 8.673440
_cell_length_b 20.477387
_cell_length_c 14.443552
_cell_angle_alpha 90.000000
_cell_angle_beta 90.000000
_cell_angle_gamma 90.000000
_cell_volume 2565.310424
_symmetry_space_group_name_H-M "P M M A"
_symmetry_group_IT_number 51
_symmetry_cell_setting 'orthorhombic'
loop_
_space_group_symop_operation_xyz
x,y,z
1/2-x,-y,z
1/2+x,-y,-z
-x,y,-z
-x,-y,-z
1/2+x,y,-z
1/2-x,y,z
x,-y,z
loop_
_atom_site_type_symbol
_atom_site_label
_atom_site_fract_x
_atom_site_fract_y
_atom_site_fract_z
Si Si1 0.932267 0.732544 0.404278
Si Si2 0.068392 0.572835 0.097073
Si Si3 0.067485 0.308037 0.219903
Si Si4 0.427468 0.925937 0.209154
Si Si5 0.569920 0.125794 0.593308
Si Si6 0.431219 0.809578 0.898092
O O1 0.750000 0.729035 0.406423
O O2 0.000000 0.704654 0.500000
O O3 0.997094 0.688355 0.321953
O O4 0.985356 0.806352 0.387389
O O5 0.250000 0.573532 0.086843
O O6 0.009271 0.500000 0.123614
O O7 0.013694 0.624289 0.173600
O O8 0.000000 0.596096 0.000000
O O9 0.250000 0.300918 0.225258
O O10 0.003899 0.246784 0.163760
O O11 0.250000 0.907359 0.189363
O O12 0.461427 0.920202 0.318903
O O13 0.534615 0.879417 0.148316
O O14 0.463265 0.000000 0.179380
O O15 0.500000 0.092997 0.500000
O O16 0.750000 0.139407 0.577946
O O17 0.250000 0.798857 0.903827
O O18 0.500000 0.806809 0.000000
#
# Coordination Sequence:
#
# PCOD8209463 Si02
#       6
#     8   8   8   8   8   8
#     4  11  21  34  55  83 114 147 185 229 278 331
#     4   9  19  35  56  84 118 154 189 226 273 327
#     4  11  21  36  59  86 117 149 185 231 277 327
#     4  10  22  40  59  79 108 146 186 231 283 337
#     4  10  19  33  55  80 111 144 180 225 277 331
#     4  12  25  40  59  82 109 143 186 234 282 334
#
# _framework density 18.711185
#
# number of rings (size 3 to 8) (size 9 to 14) (size 15 to 20)
#    0.000    1.500    1.667    5.500    0.000    4.333 
#    0.000    0.000    0.000    0.500    0.000    0.000 
#    0.000    0.000    0.000    0.000    0.000    0.000 
#
# Total GULP energy -595315.153633 kJ/mol
# GULP energy per Si atom -12402.399034 kJ/mol
# Density = 1.866860 g / cm^3
# Si number density = 18.711185 Si / 1000 Ang^3
#
#
#
# Elastic Constant Matrix: (Units=GPa)
#
#
# Indices 1 2 3 4 5 6 
#
# 1 108.9138 39.9304 53.1364 0.0000 0.0000 0.0000
# 2 39.9304 93.7351 60.4478 0.0000 0.0000 0.0000
# 3 53.1364 60.4478 139.9218 0.0000 0.0000 0.0000
# 4 0.0000 0.0000 0.0000 46.2495 0.0000 0.0000
# 5 0.0000 0.0000 0.0000 0.0000 37.0829 0.0000
# 6 0.0000 0.0000 0.0000 0.0000 0.0000 9.6277
#
#
#
# Elastic Compliance Matrix: (Units=1/GPa)
#
#
# Indices 1 2 3 4 5 6 
#
# 1 0.011838 -0.002972 -0.003212 0.000000 0.000000 0.000000
# 2 -0.002972 0.015534 -0.005582 0.000000 0.000000 0.000000
# 3 -0.003212 -0.005582 0.010778 0.000000 0.000000 0.000000
# 4 0.000000 0.000000 0.000000 0.021622 0.000000 0.000000
# 5 0.000000 0.000000 0.000000 0.000000 0.026967 0.000000
# 6 0.000000 0.000000 0.000000 0.000000 0.000000 0.103867
#
#
# Mechanical properties :
#
#
# Convention : Reuss Voigt Hill
#
# Bulk Modulus (GPa) = 68.40566 72.17776 70.29171
# Shear Modulus (GPa) = 22.82990 31.19575 27.01283
#
# Velocity S-wave (km/s) = 3.49681 4.08760 3.80369
# Velocity P-wave (km/s) = 7.27610 7.80617 7.54579
#
# Compressibility (1/GPa) = 0.01461867
#
# Stress axis : x y z
#
# Youngs Moduli (GPa) = 84.47358 64.37372 92.77965
#
# Poissons Ratio (x) = 0.19130 0.29799
# Poissons Ratio (y) = 0.25103 0.51794
# Poissons Ratio (z) = 0.27131 0.35936
#
# Static dielectric constant tensor:
#      x y z
#    x 3.511160 0.000000 0.000000 
#    y 0.000000 3.467210 0.000000 
#    z 0.000000 0.000000 3.504240 
# 
# 
# High freq. dielectric constant tensor:
#      x y z
#    x 1.736280 0.000000 0.000000 
#    y 0.000000 1.708400 0.000000 
#    z 0.000000 0.000000 1.736760 
# 
# From -- ./inp_files/21111.got.cif
#   From: 2010.03.12/outbox.cif.g09.slc.cpg/sg51_11_cif.got.tgz:21111.got - 2010.04.16 13:43:02.
