data_PCOD8209124
_publ_section_title
;
Structure prediction by ZEFSAII (Michael W. Deem and Ramdas Pophale) SiO2 
 PCOD8209124
Probable space group: P M M A
;
_chemical_formula_sum "Si O2"
_cell_formula_units_Z 48
_cell_length_a 27.157106
_cell_length_b 13.532284
_cell_length_c 7.480754
_cell_angle_alpha 90.000000
_cell_angle_beta 90.000000
_cell_angle_gamma 90.000000
_cell_volume 2749.159672
_symmetry_space_group_name_H-M "P M M A"
_symmetry_group_IT_number 51
_symmetry_cell_setting 'orthorhombic'
loop_
_space_group_symop_operation_xyz
x,y,z
1/2-x,-y,z
1/2+x,-y,-z
-x,y,-z
-x,-y,-z
1/2+x,y,-z
1/2-x,y,z
x,-y,z
loop_
_atom_site_type_symbol
_atom_site_label
_atom_site_fract_x
_atom_site_fract_y
_atom_site_fract_z
Si Si1 0.382245 0.612950 0.245891
Si Si2 0.867730 0.114352 0.040293
Si Si3 0.307431 0.782590 0.250393
Si Si4 0.805891 0.112978 0.383526
Si Si5 0.056426 0.283157 0.955509
Si Si6 0.551406 0.614610 0.417460
O O1 0.366040 0.500000 0.224803
O O2 0.333320 0.677420 0.220175
O O3 0.405651 0.632670 0.439554
O O4 0.422099 0.637078 0.093574
O O5 0.841810 0.144123 0.224927
O O6 0.916954 0.178160 0.019378
O O7 0.882831 0.000000 0.035344
O O8 0.829619 0.135515 0.881320
O O9 0.250000 0.770232 0.209932
O O10 0.317902 0.817283 0.450773
O O11 0.750000 0.128323 0.317631
O O12 0.814561 0.000000 0.442096
O O13 0.064458 0.322065 0.755837
O O14 0.000000 0.265385 0.000000
O O15 0.500000 0.652002 0.500000
O O16 0.546969 0.500000 0.362773
#
# Coordination Sequence:
#
# PCOD8209124 Si02
#       6
#     8   8   8   8   8   8
#     4  10  21  35  52  77 106 136 170 209 255 305
#     4  10  21  35  52  75 104 136 172 213 258 307
#     4  10  20  34  54  78 104 135 170 210 255 305
#     4   9  17  31  53  77  99 126 164 210 255 300
#     4  11  21  34  53  75 103 137 173 213 257 305
#     4  10  19  32  54  79 102 132 172 215 256 303
#
# _framework density 17.459879999999998
#
# number of rings (size 3 to 8) (size 9 to 14) (size 15 to 20)
#    0.000    2.000    1.667    2.500    0.000    3.000 
#    0.000    0.000    0.000    0.500    0.000    4.667 
#    0.000    0.000    0.000    0.000    0.000    0.000 
#
# Total GULP energy -595386.330136 kJ/mol
# GULP energy per Si atom -12403.881878 kJ/mol
# Density = 1.742014 g / cm^3
# Si number density = 17.459880 Si / 1000 Ang^3
#
#
#
# Elastic Constant Matrix: (Units=GPa)
#
#
# Indices 1 2 3 4 5 6 
#
# 1 63.9871 25.7470 30.3398 0.0000 0.0000 0.0000
# 2 25.7470 76.6541 37.5884 0.0000 0.0000 0.0000
# 3 30.3398 37.5884 94.8236 0.0000 0.0000 0.0000
# 4 0.0000 0.0000 0.0000 27.2231 0.0000 0.0000
# 5 0.0000 0.0000 0.0000 0.0000 26.9321 0.0000
# 6 0.0000 0.0000 0.0000 0.0000 0.0000 -2.2341
#
#
#
# Elastic Compliance Matrix: (Units=1/GPa)
#
#
# Indices 1 2 3 4 5 6 
#
# 1 0.019519 -0.004337 -0.004526 0.000000 0.000000 0.000000
# 2 -0.004337 0.017157 -0.005413 0.000000 0.000000 0.000000
# 3 -0.004526 -0.005413 0.014140 0.000000 0.000000 0.000000
# 4 0.000000 0.000000 0.000000 0.036734 0.000000 0.000000
# 5 0.000000 0.000000 0.000000 0.000000 0.037130 0.000000
# 6 0.000000 0.000000 0.000000 0.000000 0.000000 -0.447607
#
#
# Mechanical properties :
#
#
# Convention : Reuss Voigt Hill
#
# Bulk Modulus (GPa) = 44.91711 46.97947 45.94829
# Shear Modulus (GPa) = -17.42445 19.83685 1.20620
#
# Velocity S-wave (km/s) = -3.16249 3.37432 0.83207
# Velocity P-wave (km/s) = 3.52797 6.49207 5.22463
#
# Compressibility (1/GPa) = 0.02226323
#
# Stress axis : x y z
#
# Youngs Moduli (GPa) = 51.23123 58.28592 70.72109
#
# Poissons Ratio (x) = 0.25277 0.32011
# Poissons Ratio (y) = 0.22218 0.38284
# Poissons Ratio (z) = 0.23189 0.31553
#
# Static dielectric constant tensor:
#      x y z
#    x 3.149460 0.000000 0.000000 
#    y 0.000000 3.108480 0.000000 
#    z 0.000000 0.000000 3.346910 
# 
# 
# High freq. dielectric constant tensor:
#      x y z
#    x 1.672010 0.000000 0.000000 
#    y 0.000000 1.669370 0.000000 
#    z 0.000000 0.000000 1.688410 
# 
# From -- ./inp_files/3521.got.cif
#   From: 2010.03.12/outbox.cif.g09.slc.cpg/sg51_2_cif.got.tgz:3521.got - 2010.04.16 13:43:02.
