data_PCOD8209268
_publ_section_title
;
Structure prediction by ZEFSAII (Michael W. Deem and Ramdas Pophale) SiO2 
 PCOD8209268
Probable space group: P M M A
;
_chemical_formula_sum "Si O2"
_cell_formula_units_Z 48
_cell_length_a 19.819254
_cell_length_b 10.359681
_cell_length_c 12.532192
_cell_angle_alpha 90.000000
_cell_angle_beta 90.000000
_cell_angle_gamma 90.000000
_cell_volume 2573.124062
_symmetry_space_group_name_H-M "P M M A"
_symmetry_group_IT_number 51
_symmetry_cell_setting 'orthorhombic'
loop_
_space_group_symop_operation_xyz
x,y,z
1/2-x,-y,z
1/2+x,-y,-z
-x,y,-z
-x,-y,-z
1/2+x,y,-z
1/2-x,y,z
x,-y,z
loop_
_atom_site_type_symbol
_atom_site_label
_atom_site_fract_x
_atom_site_fract_y
_atom_site_fract_z
Si Si1 0.822591 0.351268 0.573607
Si Si2 0.929525 0.651861 0.961236
Si Si3 0.469979 0.857834 0.615229
Si Si4 0.326265 0.648042 0.868247
Si Si5 0.942289 0.653308 0.718972
Si Si6 0.825941 0.223631 0.357915
O O1 0.750000 0.290103 0.608407
O O2 0.821882 0.500000 0.602487
O O3 0.883887 0.291822 0.641125
O O4 0.831806 0.335706 0.446767
O O5 0.930799 0.500000 0.978594
O O6 0.916714 0.683878 0.837853
O O7 0.871100 0.709946 0.036916
O O8 0.000000 0.712926 0.000000
O O9 0.500000 0.822294 0.500000
O O10 0.492336 0.741904 0.694661
O O11 0.388074 0.871225 0.615336
O O12 0.497061 0.000000 0.650163
O O13 0.250000 0.662224 0.907772
O O14 0.345599 0.500000 0.847062
O O15 0.338739 0.721273 0.758718
O O16 0.959486 0.500000 0.703737
O O17 0.750000 0.159961 0.363672
#
# Coordination Sequence:
#
# PCOD8209268 Si02
#       6
#     8   8   8   8   8   8
#     4   9  17  29  47  76 109 136 168 214 265 314
#     4   9  17  29  46  71 104 138 174 214 255 305
#     4  11  23  38  54  78 111 141 175 222 272 326
#     4   9  17  29  49  79 111 142 176 218 267 313
#     4  10  20  34  55  80 107 144 182 219 265 317
#     4  10  19  33  53  75 103 140 177 216 264 322
#
# _framework density 18.654368000000002
#
# number of rings (size 3 to 8) (size 9 to 14) (size 15 to 20)
#    0.000    2.333    1.667    1.500    0.000    6.000 
#    0.000    3.333    0.000    5.000    0.000    0.000 
#    0.000    0.000    0.000    0.000    0.000    0.000 
#
# Total GULP energy -594674.014405 kJ/mol
# GULP energy per Si atom -12389.041967 kJ/mol
# Density = 1.861191 g / cm^3
# Si number density = 18.654368 Si / 1000 Ang^3
#
#
#
# Elastic Constant Matrix: (Units=GPa)
#
#
# Indices 1 2 3 4 5 6 
#
# 1 123.5500 27.9683 63.0628 0.0000 0.0000 0.0000
# 2 27.9683 50.3587 26.1761 0.0000 0.0000 0.0000
# 3 63.0628 26.1761 123.0020 0.0000 0.0000 0.0000
# 4 0.0000 0.0000 0.0000 6.3113 0.0000 0.0000
# 5 0.0000 0.0000 0.0000 0.0000 36.6382 0.0000
# 6 0.0000 0.0000 0.0000 0.0000 0.0000 6.0591
#
#
#
# Elastic Compliance Matrix: (Units=1/GPa)
#
#
# Indices 1 2 3 4 5 6 
#
# 1 0.011562 -0.003755 -0.005128 0.000000 0.000000 0.000000
# 2 -0.003755 0.023547 -0.003086 0.000000 0.000000 0.000000
# 3 -0.005128 -0.003086 0.011416 0.000000 0.000000 0.000000
# 4 0.000000 0.000000 0.000000 0.158447 0.000000 0.000000
# 5 0.000000 0.000000 0.000000 0.000000 0.027294 0.000000
# 6 0.000000 0.000000 0.000000 0.000000 0.000000 0.165041
#
#
# Mechanical properties :
#
#
# Convention : Reuss Voigt Hill
#
# Bulk Modulus (GPa) = 44.27583 59.03612 51.65598
# Shear Modulus (GPa) = 11.66115 21.78195 16.72155
#
# Velocity S-wave (km/s) = 2.50295 3.42081 2.99722
# Velocity P-wave (km/s) = 5.66916 6.87885 6.30309
#
# Compressibility (1/GPa) = 0.02258569
#
# Stress axis : x y z
#
# Youngs Moduli (GPa) = 86.49251 42.46798 87.59661
#
# Poissons Ratio (x) = 0.15948 0.44924
# Poissons Ratio (y) = 0.32481 0.27030
# Poissons Ratio (z) = 0.44357 0.13104
#
# Static dielectric constant tensor:
#      x y z
#    x 3.886220 0.000000 0.000000 
#    y 0.000000 2.895890 0.000000 
#    z 0.000000 0.000000 3.450250 
# 
# 
# High freq. dielectric constant tensor:
#      x y z
#    x 1.743090 0.000000 0.000000 
#    y 0.000000 1.665600 0.000000 
#    z 0.000000 0.000000 1.724690 
# 
# From -- ./inp_files/17315.got.cif
#   From: 2010.03.12/outbox.cif.g09.slc.cpg/sg51_9_cif.got.tgz:17315.got - 2010.04.16 13:43:02.
