data_PCOD8209092
_publ_section_title
;
Structure prediction by ZEFSAII (Michael W. Deem and Ramdas Pophale) SiO2 
 PCOD8209092
Probable space group: P M M A
;
_chemical_formula_sum "Si O2"
_cell_formula_units_Z 44
_cell_length_a 9.044190
_cell_length_b 17.168267
_cell_length_c 15.060121
_cell_angle_alpha 90.000000
_cell_angle_beta 90.000000
_cell_angle_gamma 90.000000
_cell_volume 2338.431203
_symmetry_space_group_name_H-M "P M M A"
_symmetry_group_IT_number 51
_symmetry_cell_setting 'orthorhombic'
loop_
_space_group_symop_operation_xyz
x,y,z
1/2-x,-y,z
1/2+x,-y,-z
-x,y,-z
-x,-y,-z
1/2+x,y,-z
1/2-x,y,z
x,-y,z
loop_
_atom_site_type_symbol
_atom_site_label
_atom_site_fract_x
_atom_site_fract_y
_atom_site_fract_z
Si Si1 0.079199 0.411131 0.592712
Si Si2 0.577823 0.873983 0.736764
Si Si3 0.923261 0.000000 0.594943
Si Si4 0.084293 0.877759 0.913982
Si Si5 0.416901 0.692616 0.914086
Si Si6 0.923780 0.694001 0.736230
O O1 0.250000 0.387149 0.583555
O O2 0.063045 0.500000 0.625311
O O3 0.000000 0.398644 0.500000
O O4 0.998814 0.355237 0.660346
O O5 0.750000 0.885391 0.756987
O O6 0.493810 0.905713 0.823610
O O7 0.539248 0.784274 0.717606
O O8 0.528936 0.923620 0.650850
O O9 0.000000 0.000000 0.500000
O O10 0.750000 0.000000 0.576962
O O11 0.250000 0.911136 0.914545
O O12 0.085058 0.785156 0.918859
O O13 0.000000 0.911849 0.000000
O O14 0.250000 0.659603 0.910058
O O15 0.507434 0.664953 0.828539
O O16 0.500000 0.658052 0.000000
O O17 0.750000 0.678332 0.738396
#
# Coordination Sequence:
#
# PCOD8209092 Si02
#       6
#     8   8   4   8   8   8
#     4  10  21  37  56  78 105 136 169 208 257 311
#     4   9  19  35  53  75 103 135 173 215 256 301
#     4  10  22  40  57  72  97 134 173 216 264 308
#     4   9  16  27  47  74 103 134 167 207 254 304
#     4   9  16  27  45  72 105 139 174 211 252 299
#     4  10  19  32  53  80 107 136 172 213 256 304
#
# _framework density 18.816034999999999
#
# number of rings (size 3 to 8) (size 9 to 14) (size 15 to 20)
#    0.000    2.545    0.000    2.182    0.000    7.636 
#    0.000    2.273    0.000    0.545    0.000    0.000 
#    0.000    0.000    0.000    0.000    0.000    0.000 
#
# Total GULP energy -545612.014977 kJ/mol
# GULP energy per Si atom -12400.273068 kJ/mol
# Density = 1.877321 g / cm^3
# Si number density = 18.816035 Si / 1000 Ang^3
#
#
#
# Elastic Constant Matrix: (Units=GPa)
#
#
# Indices 1 2 3 4 5 6 
#
# 1 144.3278 49.0842 90.9666 0.0000 0.0000 0.0000
# 2 49.0842 60.5885 60.2362 0.0000 0.0000 0.0000
# 3 90.9666 60.2362 163.6713 0.0000 0.0000 0.0000
# 4 0.0000 0.0000 0.0000 -98.3279 0.0000 0.0000
# 5 0.0000 0.0000 0.0000 0.0000 45.6179 0.0000
# 6 0.0000 0.0000 0.0000 0.0000 0.0000 17.0622
#
#
#
# Elastic Compliance Matrix: (Units=1/GPa)
#
#
# Indices 1 2 3 4 5 6 
#
# 1 0.011438 -0.004646 -0.004647 0.000000 0.000000 0.000000
# 2 -0.004646 0.027915 -0.007692 0.000000 0.000000 0.000000
# 3 -0.004647 -0.007692 0.011523 0.000000 0.000000 0.000000
# 4 0.000000 0.000000 0.000000 -0.010170 0.000000 0.000000
# 5 0.000000 0.000000 0.000000 0.000000 0.021921 0.000000
# 6 0.000000 0.000000 0.000000 0.000000 0.000000 0.058609
#
#
# Mechanical properties :
#
#
# Convention : Reuss Voigt Hill
#
# Bulk Modulus (GPa) = 59.14611 85.46240 72.30425
# Shear Modulus (GPa) = 31.08651 4.09049 17.58850
#
# Velocity S-wave (km/s) = 4.06905 1.47603 3.06070
# Velocity P-wave (km/s) = 7.31972 6.95870 7.14149
#
# Compressibility (1/GPa) = 0.01690728
#
# Stress axis : x y z
#
# Youngs Moduli (GPa) = 87.43077 35.82246 86.78014
#
# Poissons Ratio (x) = 0.16643 0.40327
# Poissons Ratio (y) = 0.40619 0.66748
# Poissons Ratio (z) = 0.40630 0.27553
#
# Static dielectric constant tensor:
#      x y z
#    x 3.566380 0.000000 0.000000 
#    y 0.000000 3.221050 0.000000 
#    z 0.000000 0.000000 3.517110 
# 
# 
# High freq. dielectric constant tensor:
#      x y z
#    x 1.744110 0.000000 0.000000 
#    y 0.000000 1.700350 0.000000 
#    z 0.000000 0.000000 1.738100 
# 
# From -- ./inp_files/20906.got.cif
#   From: 2010.03.12/outbox.cif.g09.slc.cpg/sg51_11_cif.got.tgz:20906.got - 2010.04.16 13:43:02.
