data_PCOD8209245
_publ_section_title
;
Structure prediction by ZEFSAII (Michael W. Deem and Ramdas Pophale) SiO2 
 PCOD8209245
Probable space group: P M M A
;
_chemical_formula_sum "Si O2"
_cell_formula_units_Z 64
_cell_length_a 8.921574
_cell_length_b 20.369118
_cell_length_c 19.588784
_cell_angle_alpha 90.000000
_cell_angle_beta 90.000000
_cell_angle_gamma 90.000000
_cell_volume 3559.763811
_symmetry_space_group_name_H-M "P M M A"
_symmetry_group_IT_number 51
_symmetry_cell_setting 'orthorhombic'
loop_
_space_group_symop_operation_xyz
x,y,z
1/2-x,-y,z
1/2+x,-y,-z
-x,y,-z
-x,-y,-z
1/2+x,y,-z
1/2-x,y,z
x,-y,z
loop_
_atom_site_type_symbol
_atom_site_label
_atom_site_fract_x
_atom_site_fract_y
_atom_site_fract_z
Si Si1 0.923578 0.727183 0.570386
Si Si2 0.921770 0.074831 0.295831
Si Si3 0.072851 0.692825 0.706010
Si Si4 0.926256 0.380353 0.931525
Si Si5 0.578814 0.426683 0.200183
Si Si6 0.923836 0.118981 0.570345
Si Si7 0.572906 0.186850 0.785321
Si Si8 0.424490 0.769179 0.067441
O O1 0.750000 0.708039 0.567404
O O2 0.946248 0.804147 0.584199
O O3 0.000000 0.705633 0.500000
O O4 0.003792 0.687826 0.630755
O O5 0.750000 0.099017 0.299647
O O6 0.994784 0.079614 0.370163
O O7 0.012827 0.117869 0.241684
O O8 0.931539 0.000000 0.270656
O O9 0.250000 0.702368 0.700641
O O10 0.026359 0.625424 0.743207
O O11 0.004359 0.753617 0.746458
O O12 0.750000 0.386394 0.938585
O O13 0.980209 0.305287 0.920996
O O14 0.978607 0.422011 0.867099
O O15 0.000000 0.409611 0.000000
O O16 0.750000 0.412450 0.179207
O O17 0.559991 0.500000 0.230657
O O18 0.750000 0.099589 0.568020
O O19 0.000000 0.097304 0.500000
O O20 0.750000 0.192296 0.772334
O O21 0.532541 0.189411 0.865538
O O22 0.250000 0.770446 0.053709
O O23 0.500000 0.800354 0.000000
#
# Coordination Sequence:
#
# PCOD8209245 Si02
#       8
#     8   8   8   8   8   8   8   8
#     4  10  20  34  55  83 113 142 177 224 271 323
#     4  11  24  39  55  79 111 147 186 226 269 322
#     4  11  21  34  57  83 109 144 182 226 275 321
#     4  10  19  33  52  77 109 145 185 225 270 324
#     4  10  22  38  54  77 110 148 188 227 272 326
#     4  10  20  34  54  79 110 148 184 222 267 319
#     4  11  21  36  57  83 111 142 181 227 273 323
#     4   9  19  33  53  81 111 139 175 223 272 322
#
# _framework density 17.978722000000001
#
# number of rings (size 3 to 8) (size 9 to 14) (size 15 to 20)
#    0.000    1.750    2.500    2.250    0.000    4.750 
#    0.000    0.000    0.000    0.750    0.000    0.000 
#    0.000    0.000    0.000    0.000    0.000    0.000 
#
# Total GULP energy -793843.818831 kJ/mol
# GULP energy per Si atom -12403.809669 kJ/mol
# Density = 1.793780 g / cm^3
# Si number density = 17.978722 Si / 1000 Ang^3
#
#
#
# Elastic Constant Matrix: (Units=GPa)
#
#
# Indices 1 2 3 4 5 6 
#
# 1 96.7453 36.4754 60.7414 0.0000 0.0000 0.0000
# 2 36.4754 80.0544 54.5717 0.0000 0.0000 0.0000
# 3 60.7414 54.5717 135.7267 0.0000 0.0000 0.0000
# 4 0.0000 0.0000 0.0000 22.4367 0.0000 0.0000
# 5 0.0000 0.0000 0.0000 0.0000 37.5279 0.0000
# 6 0.0000 0.0000 0.0000 0.0000 0.0000 14.3840
#
#
#
# Elastic Compliance Matrix: (Units=1/GPa)
#
#
# Indices 1 2 3 4 5 6 
#
# 1 0.014912 -0.003093 -0.005430 0.000000 0.000000 0.000000
# 2 -0.003093 0.017849 -0.005793 0.000000 0.000000 0.000000
# 3 -0.005430 -0.005793 0.012127 0.000000 0.000000 0.000000
# 4 0.000000 0.000000 0.000000 0.044570 0.000000 0.000000
# 5 0.000000 0.000000 0.000000 0.000000 0.026647 0.000000
# 6 0.000000 0.000000 0.000000 0.000000 0.000000 0.069522
#
#
# Mechanical properties :
#
#
# Convention : Reuss Voigt Hill
#
# Bulk Modulus (GPa) = 61.51071 68.45592 64.98332
# Shear Modulus (GPa) = 22.76083 25.58558 24.17321
#
# Velocity S-wave (km/s) = 3.56193 3.77650 3.67078
# Velocity P-wave (km/s) = 7.15568 7.56139 7.36133
#
# Compressibility (1/GPa) = 0.01625733
#
# Stress axis : x y z
#
# Youngs Moduli (GPa) = 67.06194 56.02430 82.46217
#
# Poissons Ratio (x) = 0.17327 0.44776
# Poissons Ratio (y) = 0.20741 0.47767
# Poissons Ratio (z) = 0.36413 0.32453
#
# Static dielectric constant tensor:
#      x y z
#    x 3.434230 0.000000 0.000000 
#    y 0.000000 3.148800 0.000000 
#    z 0.000000 0.000000 3.472750 
# 
# 
# High freq. dielectric constant tensor:
#      x y z
#    x 1.710570 0.000000 0.000000 
#    y 0.000000 1.668660 0.000000 
#    z 0.000000 0.000000 1.700260 
# 
# From -- ./inp_files/28385.got.cif
#   From: 2010.03.12/outbox.cif.g09.slc.cpg/sg51_15_cif.got.tgz:28385.got - 2010.04.16 13:43:02.
