data_PCOD8209313
_publ_section_title
;
Structure prediction by ZEFSAII (Michael W. Deem and Ramdas Pophale) SiO2 
 PCOD8209313
Probable space group: P M M A
;
_chemical_formula_sum "Si O2"
_cell_formula_units_Z 48
_cell_length_a 8.862777
_cell_length_b 30.723525
_cell_length_c 9.253182
_cell_angle_alpha 90.000000
_cell_angle_beta 90.000000
_cell_angle_gamma 90.000000
_cell_volume 2519.602139
_symmetry_space_group_name_H-M "P M M A"
_symmetry_group_IT_number 51
_symmetry_cell_setting 'orthorhombic'
loop_
_space_group_symop_operation_xyz
x,y,z
1/2-x,-y,z
1/2+x,-y,-z
-x,y,-z
-x,-y,-z
1/2+x,y,-z
1/2-x,y,z
x,-y,z
loop_
_atom_site_type_symbol
_atom_site_label
_atom_site_fract_x
_atom_site_fract_y
_atom_site_fract_z
Si Si1 0.576657 0.000000 0.152333
Si Si2 0.928114 0.341545 0.843222
Si Si3 0.572660 0.906667 0.155657
Si Si4 0.927997 0.164486 0.649133
Si Si5 0.573334 0.500000 0.156462
Si Si6 0.425441 0.262614 0.352330
Si Si7 0.570509 0.416900 0.342769
O O1 0.540340 0.954030 0.234446
O O2 0.750000 0.000000 0.112034
O O3 0.500000 0.000000 0.000000
O O4 0.750000 0.350168 0.853788
O O5 0.966003 0.293512 0.782454
O O6 0.002023 0.374622 0.731616
O O7 0.000000 0.347051 0.000000
O O8 0.750000 0.896454 0.147891
O O9 0.489469 0.867323 0.231019
O O10 0.500000 0.909559 0.000000
O O11 0.750000 0.160391 0.638451
O O12 0.979459 0.213806 0.686869
O O13 0.000000 0.149225 0.500000
O O14 0.750000 0.500000 0.131361
O O15 0.521893 0.457886 0.245835
O O16 0.500000 0.500000 0.000000
O O17 0.500000 0.279737 0.500000
O O18 0.250000 0.263429 0.384825
O O19 0.500000 0.423104 0.500000
O O20 0.750000 0.412382 0.356351
#
# Coordination Sequence:
#
# PCOD8209313 Si02
#       7
#     4   8   8   8   4   8   8
#     4   8  16  30  49  72 101 134 172 214 262 316
#     4  11  23  39  58  84 115 148 184 228 276 325
#     4  10  19  33  53  78 105 137 175 219 266 318
#     4  10  20  36  55  78 107 141 178 220 268 321
#     4  10  23  40  60  86 118 152 189 232 281 328
#     4   9  20  37  57  79 106 140 180 221 268 323
#     4  11  23  40  61  87 116 151 191 232 276 329
#
# _framework density 19.050626000000001
#
# number of rings (size 3 to 8) (size 9 to 14) (size 15 to 20)
#    0.000    2.000    0.000    3.250    0.000    7.333 
#    0.000    2.083    0.000    0.000    0.000    0.000 
#    0.000    0.000    0.000    0.000    0.000    0.000 
#
# Total GULP energy -595005.869346 kJ/mol
# GULP energy per Si atom -12395.955611 kJ/mol
# Density = 1.900727 g / cm^3
# Si number density = 19.050626 Si / 1000 Ang^3
#
#
#
# Elastic Constant Matrix: (Units=GPa)
#
#
# Indices 1 2 3 4 5 6 
#
# 1 78.4018 47.0915 44.8881 0.0000 0.0000 0.0000
# 2 47.0915 120.4844 62.1682 0.0000 0.0000 0.0000
# 3 44.8881 62.1682 119.5345 0.0000 0.0000 0.0000
# 4 0.0000 0.0000 0.0000 19.9925 0.0000 0.0000
# 5 0.0000 0.0000 0.0000 0.0000 37.7340 0.0000
# 6 0.0000 0.0000 0.0000 0.0000 0.0000 30.7724
#
#
#
# Elastic Compliance Matrix: (Units=1/GPa)
#
#
# Indices 1 2 3 4 5 6 
#
# 1 0.018133 -0.004885 -0.004269 0.000000 0.000000 0.000000
# 2 -0.004885 0.012660 -0.004750 0.000000 0.000000 0.000000
# 3 -0.004269 -0.004750 0.012439 0.000000 0.000000 0.000000
# 4 0.000000 0.000000 0.000000 0.050019 0.000000 0.000000
# 5 0.000000 0.000000 0.000000 0.000000 0.026501 0.000000
# 6 0.000000 0.000000 0.000000 0.000000 0.000000 0.032497
#
#
# Mechanical properties :
#
#
# Convention : Reuss Voigt Hill
#
# Bulk Modulus (GPa) = 64.82946 69.63516 67.23231
# Shear Modulus (GPa) = 26.99826 28.65131 27.82479
#
# Velocity S-wave (km/s) = 3.76864 3.88230 3.82589
# Velocity P-wave (km/s) = 7.28291 7.53182 7.40841
#
# Compressibility (1/GPa) = 0.01542508
#
# Stress axis : x y z
#
# Youngs Moduli (GPa) = 55.14872 78.98980 80.39064
#
# Poissons Ratio (x) = 0.38583 0.34318
# Poissons Ratio (y) = 0.26938 0.38185
# Poissons Ratio (z) = 0.23543 0.37520
#
# Static dielectric constant tensor:
#      x y z
#    x 3.599850 0.000000 0.000000 
#    y 0.000000 4.085190 0.000000 
#    z 0.000000 0.000000 3.330840 
# 
# 
# High freq. dielectric constant tensor:
#      x y z
#    x 1.751350 0.000000 0.000000 
#    y 0.000000 1.763200 0.000000 
#    z 0.000000 0.000000 1.726740 
# 
# From -- ./inp_files/6101.got.cif
#   From: 2010.03.12/outbox.cif.g09.slc.cpg/sg51_4_cif.got.tgz:6101.got - 2010.04.16 13:43:02.
