data_PCOD8209714
_publ_section_title
;
Structure prediction by ZEFSAII (Michael W. Deem and Ramdas Pophale) SiO2 
 PCOD8209714
Probable space group: P M M A
;
_chemical_formula_sum "Si O2"
_cell_formula_units_Z 48
_cell_length_a 18.786540
_cell_length_b 8.562733
_cell_length_c 14.786554
_cell_angle_alpha 90.000000
_cell_angle_beta 90.000000
_cell_angle_gamma 90.000000
_cell_volume 2378.626086
_symmetry_space_group_name_H-M "P M M A"
_symmetry_group_IT_number 51
_symmetry_cell_setting 'orthorhombic'
loop_
_space_group_symop_operation_xyz
x,y,z
1/2-x,-y,z
1/2+x,-y,-z
-x,y,-z
-x,-y,-z
1/2+x,y,-z
1/2-x,y,z
x,-y,z
loop_
_atom_site_type_symbol
_atom_site_label
_atom_site_fract_x
_atom_site_fract_y
_atom_site_fract_z
Si Si1 0.169691 0.180605 0.277777
Si Si2 0.954405 0.319189 0.376535
Si Si3 0.095140 0.179120 0.453799
Si Si4 0.832015 0.683782 0.040319
Si Si5 0.429903 0.818198 0.814480
Si Si6 0.074690 0.318539 0.129331
O O1 0.250000 0.224117 0.251400
O O2 0.159654 0.212858 0.384742
O O3 0.116676 0.289708 0.222093
O O4 0.152387 0.000000 0.255740
O O5 0.975324 0.500000 0.377583
O O6 0.896528 0.283869 0.455722
O O7 0.923874 0.275129 0.279139
O O8 0.023069 0.215968 0.399027
O O9 0.094125 0.000000 0.484466
O O10 0.750000 0.730008 0.024593
O O11 0.840775 0.500000 0.055914
O O12 0.860648 0.774297 0.127643
O O13 0.876744 0.740149 0.953331
O O14 0.500390 0.773131 0.870907
O O15 0.430499 0.000000 0.792706
O O16 0.056463 0.500000 0.120660
#
# Coordination Sequence:
#
# PCOD8209714 Si02
#       6
#     8   8   8   8   8   8
#     4  10  21  36  56  85 123 162 197 240 297 356
#     4  11  21  35  58  85 114 150 196 247 293 345
#     4  10  19  34  56  83 118 155 193 240 293 352
#     4  10  23  43  63  86 119 157 196 243 300 359
#     4  12  24  39  61  90 120 155 200 250 298 353
#     4  11  22  38  62  90 119 155 199 246 297 355
#
# _framework density 20.179718000000001
#
# number of rings (size 3 to 8) (size 9 to 14) (size 15 to 20)
#    0.000    1.333    1.667    6.000    0.000    5.333 
#    0.000    0.833    0.000    3.000    0.000    0.000 
#    0.000    0.000    0.000    0.000    0.000    0.000 
#
# Total GULP energy -595375.685273 kJ/mol
# GULP energy per Si atom -12403.660110 kJ/mol
# Density = 2.013379 g / cm^3
# Si number density = 20.179718 Si / 1000 Ang^3
#
#
#
# Elastic Constant Matrix: (Units=GPa)
#
#
# Indices 1 2 3 4 5 6 
#
# 1 64.7090 15.4525 30.2184 0.0000 0.0000 0.0000
# 2 15.4525 60.8329 23.6279 0.0000 0.0000 0.0000
# 3 30.2184 23.6279 119.5447 0.0000 0.0000 0.0000
# 4 0.0000 0.0000 0.0000 33.1980 0.0000 0.0000
# 5 0.0000 0.0000 0.0000 0.0000 26.0209 0.0000
# 6 0.0000 0.0000 0.0000 0.0000 0.0000 25.3668
#
#
#
# Elastic Compliance Matrix: (Units=1/GPa)
#
#
# Indices 1 2 3 4 5 6 
#
# 1 0.018028 -0.003043 -0.003956 0.000000 0.000000 0.000000
# 2 -0.003043 0.018319 -0.002852 0.000000 0.000000 0.000000
# 3 -0.003956 -0.002852 0.009929 0.000000 0.000000 0.000000
# 4 0.000000 0.000000 0.000000 0.030122 0.000000 0.000000
# 5 0.000000 0.000000 0.000000 0.000000 0.038431 0.000000
# 6 0.000000 0.000000 0.000000 0.000000 0.000000 0.039422
#
#
# Mechanical properties :
#
#
# Convention : Reuss Voigt Hill
#
# Bulk Modulus (GPa) = 37.62922 42.63159 40.13040
# Shear Modulus (GPa) = 27.35107 28.63634 27.99370
#
# Velocity S-wave (km/s) = 3.68553 3.77113 3.72858
# Velocity P-wave (km/s) = 6.06617 6.33512 6.20210
#
# Compressibility (1/GPa) = 0.02657509
#
# Stress axis : x y z
#
# Youngs Moduli (GPa) = 55.47029 54.58816 100.71952
#
# Poissons Ratio (x) = 0.16611 0.39840
# Poissons Ratio (y) = 0.16879 0.28720
# Poissons Ratio (z) = 0.21942 0.15566
#
# Static dielectric constant tensor:
#      x y z
#    x 3.564660 0.000000 0.000000 
#    y 0.000000 3.593530 0.000000 
#    z 0.000000 0.000000 3.888370 
# 
# 
# High freq. dielectric constant tensor:
#      x y z
#    x 1.766370 0.000000 0.000000 
#    y 0.000000 1.788770 0.000000 
#    z 0.000000 0.000000 1.799930 
# 
# From -- ./inp_files/24825.got.cif
#   From: 2010.03.12/outbox.cif.g09.slc.cpg/sg51_13_cif.got.tgz:24825.got - 2010.04.16 13:43:02.
