data_PCOD8209138
_publ_section_title
;
Structure prediction by ZEFSAII (Michael W. Deem and Ramdas Pophale) SiO2 
 PCOD8209138
Probable space group: P M M A
;
_chemical_formula_sum "Si O2"
_cell_formula_units_Z 30
_cell_length_a 14.455863
_cell_length_b 7.853493
_cell_length_c 13.934758
_cell_angle_alpha 90.000000
_cell_angle_beta 90.000000
_cell_angle_gamma 90.000000
_cell_volume 1581.999404
_symmetry_space_group_name_H-M "P M M A"
_symmetry_group_IT_number 51
_symmetry_cell_setting 'orthorhombic'
loop_
_space_group_symop_operation_xyz
x,y,z
1/2-x,-y,z
1/2+x,-y,-z
-x,y,-z
-x,-y,-z
1/2+x,y,-z
1/2-x,y,z
x,-y,z
loop_
_atom_site_type_symbol
_atom_site_label
_atom_site_fract_x
_atom_site_fract_y
_atom_site_fract_z
Si Si1 0.061208 0.500000 0.356494
Si Si2 0.049774 0.808315 0.700904
Si Si3 0.852627 0.500000 0.843625
Si Si4 0.549254 0.186825 0.899088
Si Si5 0.750000 0.500000 0.522557
Si Si6 0.750000 0.689073 0.338812
O O1 0.080703 0.500000 0.245396
O O2 0.155607 0.500000 0.416310
O O3 0.999710 0.671861 0.371841
O O4 0.160055 0.790390 0.695137
O O5 0.021844 0.778743 0.811862
O O6 0.022092 0.000000 0.668195
O O7 0.750000 0.500000 0.804691
O O8 0.870825 0.671239 0.903799
O O9 0.594845 0.000000 0.885968
O O10 0.500000 0.198478 0.000000
O O11 0.750000 0.668627 0.455457
O O12 0.750000 0.500000 0.291537
#
# Coordination Sequence:
#
# PCOD8209138 Si02
#       6
#     4   8   4   8   2   4
#     4  10  19  39  59  80 110 144 186 224 289 325
#     4  10  20  37  60  82 112 149 186 227 277 331
#     4  10  19  32  54  81 105 142 178 226 270 323
#     4   9  19  36  55  78 111 147 181 222 268 321
#     4  10  22  38  62  80 112 150 178 234 280 340
#     4  10  21  37  58  82 110 148 181 226 281 335
#
# _framework density 18.963345
#
# number of rings (size 3 to 8) (size 9 to 14) (size 15 to 20)
#    0.400    1.867    2.000    0.800    0.000    2.667 
#    2.400    4.667    0.000    0.000    0.000    0.000 
#    0.000    0.000    0.000    0.000    0.000    0.000 
#
# Total GULP energy -371684.670416 kJ/mol
# GULP energy per Si atom -12389.489014 kJ/mol
# Density = 1.892018 g / cm^3
# Si number density = 18.963345 Si / 1000 Ang^3
#
#
#
# Elastic Constant Matrix: (Units=GPa)
#
#
# Indices 1 2 3 4 5 6 
#
# 1 116.0320 62.3438 22.0133 0.0000 0.0000 0.0000
# 2 62.3438 158.1767 33.8364 0.0000 0.0000 0.0000
# 3 22.0133 33.8364 54.6955 0.0000 0.0000 0.0000
# 4 0.0000 0.0000 0.0000 -90.1110 0.0000 0.0000
# 5 0.0000 0.0000 0.0000 0.0000 21.8115 0.0000
# 6 0.0000 0.0000 0.0000 0.0000 0.0000 -11.6756
#
#
#
# Elastic Compliance Matrix: (Units=1/GPa)
#
#
# Indices 1 2 3 4 5 6 
#
# 1 0.011127 -0.003950 -0.002034 0.000000 0.000000 0.000000
# 2 -0.003950 0.008689 -0.003785 0.000000 0.000000 0.000000
# 3 -0.002034 -0.003785 0.021443 0.000000 0.000000 0.000000
# 4 0.000000 0.000000 0.000000 -0.011097 0.000000 0.000000
# 5 0.000000 0.000000 0.000000 0.000000 0.045847 0.000000
# 6 0.000000 0.000000 0.000000 0.000000 0.000000 -0.085649
#
#
# Mechanical properties :
#
#
# Convention : Reuss Voigt Hill
#
# Bulk Modulus (GPa) = 46.04248 62.81015 54.42632
# Shear Modulus (GPa) = 291.71580 -1.94764 144.88408
#
# Velocity S-wave (km/s) = 12.41633 -1.01454 8.75032
# Velocity P-wave (km/s) = 15.16200 5.64105 11.43914
#
# Compressibility (1/GPa) = 0.02171907
#
# Stress axis : x y z
#
# Youngs Moduli (GPa) = 89.87331 115.09142 46.63419
#
# Poissons Ratio (x) = 0.45465 0.09487
# Poissons Ratio (y) = 0.35503 0.17652
# Poissons Ratio (z) = 0.18284 0.43565
#
# Static dielectric constant tensor:
#      x y z
#    x 3.229450 0.000000 0.000000 
#    y 0.000000 4.110220 0.000000 
#    z 0.000000 0.000000 3.302440 
# 
# 
# High freq. dielectric constant tensor:
#      x y z
#    x 1.724830 0.000000 0.000000 
#    y 0.000000 1.753430 0.000000 
#    z 0.000000 0.000000 1.719730 
# 
# From -- ./inp_files/22778.got.cif
#   From: 2010.03.12/outbox.cif.g09.slc.cpg/sg51_12_cif.got.tgz:22778.got - 2010.04.16 13:43:02.
