data_PCOD8209870
_publ_section_title
;
Structure prediction by ZEFSAII (Michael W. Deem and Ramdas Pophale) SiO2 
 PCOD8209870
Probable space group: P M M A
;
_chemical_formula_sum "Si O2"
_cell_formula_units_Z 44
_cell_length_a 8.917746
_cell_length_b 16.655042
_cell_length_c 15.539775
_cell_angle_alpha 90.000000
_cell_angle_beta 90.000000
_cell_angle_gamma 90.000000
_cell_volume 2308.051829
_symmetry_space_group_name_H-M "P M M A"
_symmetry_group_IT_number 51
_symmetry_cell_setting 'orthorhombic'
loop_
_space_group_symop_operation_xyz
x,y,z
1/2-x,-y,z
1/2+x,-y,-z
-x,y,-z
-x,-y,-z
1/2+x,y,-z
1/2-x,y,z
x,-y,z
loop_
_atom_site_type_symbol
_atom_site_label
_atom_site_fract_x
_atom_site_fract_y
_atom_site_fract_z
Si Si1 0.075617 0.500000 0.410537
Si Si2 0.424941 0.248209 0.083842
Si Si3 0.428574 0.202719 0.273786
Si Si4 0.417279 0.409816 0.882958
Si Si5 0.917859 0.635207 0.311749
Si Si6 0.423052 0.094979 0.588651
O O1 0.250000 0.500000 0.421206
O O2 0.000000 0.500000 0.500000
O O3 0.027523 0.580517 0.364735
O O4 0.250000 0.242041 0.071922
O O5 0.474020 0.202404 0.171832
O O6 0.469626 0.342513 0.082392
O O7 0.500000 0.206197 0.000000
O O8 0.250000 0.208024 0.283292
O O9 0.508307 0.277967 0.316823
O O10 0.491617 0.126534 0.325850
O O11 0.250000 0.394716 0.920490
O O12 0.473484 0.500000 0.907721
O O13 0.409964 0.403169 0.781374
O O14 0.750000 0.639254 0.351186
O O15 0.500000 0.126257 0.500000
O O16 0.250000 0.123083 0.589095
O O17 0.436338 0.000000 0.593750
#
# Coordination Sequence:
#
# PCOD8209870 Si02
#       6
#     4   8   8   8   8   8
#     4  12  24  36  50  70  99 136 181 232 282 332
#     4  10  21  35  52  77 108 145 188 234 281 332
#     4  10  21  37  58  86 115 148 188 230 281 335
#     4   9  17  31  51  72  97 133 176 225 280 333
#     4  10  19  35  54  74 101 137 182 228 276 330
#     4  10  21  38  62  92 122 151 182 221 273 333
#
# _framework density 19.063696
#
# number of rings (size 3 to 8) (size 9 to 14) (size 15 to 20)
#    0.000    2.000    0.909    3.000    0.000    5.455 
#    0.000    3.636    0.000    0.545    0.000    0.000 
#    0.000    0.000    0.000    0.000    0.000    0.000 
#
# Total GULP energy -545390.134108 kJ/mol
# GULP energy per Si atom -12395.230321 kJ/mol
# Density = 1.902031 g / cm^3
# Si number density = 19.063696 Si / 1000 Ang^3
#
#
#
# Elastic Constant Matrix: (Units=GPa)
#
#
# Indices 1 2 3 4 5 6 
#
# 1 132.3994 29.8206 57.9498 0.0000 0.0000 0.0000
# 2 29.8206 44.4725 35.0481 0.0000 0.0000 0.0000
# 3 57.9498 35.0481 112.1332 0.0000 0.0000 0.0000
# 4 0.0000 0.0000 0.0000 3.1434 0.0000 0.0000
# 5 0.0000 0.0000 0.0000 0.0000 35.1629 0.0000
# 6 0.0000 0.0000 0.0000 0.0000 0.0000 23.5593
#
#
#
# Elastic Compliance Matrix: (Units=1/GPa)
#
#
# Indices 1 2 3 4 5 6 
#
# 1 0.010167 -0.003551 -0.004144 0.000000 0.000000 0.000000
# 2 -0.003551 0.031075 -0.007878 0.000000 0.000000 0.000000
# 3 -0.004144 -0.007878 0.013522 0.000000 0.000000 0.000000
# 4 0.000000 0.000000 0.000000 0.318129 0.000000 0.000000
# 5 0.000000 0.000000 0.000000 0.000000 0.028439 0.000000
# 6 0.000000 0.000000 0.000000 0.000000 0.000000 0.042446
#
#
# Mechanical properties :
#
#
# Convention : Reuss Voigt Hill
#
# Bulk Modulus (GPa) = 42.34074 59.40470 50.87272
# Shear Modulus (GPa) = 10.35633 23.45221 16.90427
#
# Velocity S-wave (km/s) = 2.33330 3.51123 2.98102
# Velocity P-wave (km/s) = 5.43299 6.90414 6.21227
#
# Compressibility (1/GPa) = 0.02361791
#
# Stress axis : x y z
#
# Youngs Moduli (GPa) = 98.36165 32.17992 73.95471
#
# Poissons Ratio (x) = 0.11428 0.30647
# Poissons Ratio (y) = 0.34930 0.58258
# Poissons Ratio (z) = 0.40762 0.25350
#
# Static dielectric constant tensor:
#      x y z
#    x 3.487160 0.000000 0.000000 
#    y 0.000000 3.247200 0.000000 
#    z 0.000000 0.000000 3.686970 
# 
# 
# High freq. dielectric constant tensor:
#      x y z
#    x 1.755730 0.000000 0.000000 
#    y 0.000000 1.710830 0.000000 
#    z 0.000000 0.000000 1.749710 
# 
# From -- ./inp_files/20866.got.cif
#   From: 2010.03.12/outbox.cif.g09.slc.cpg/sg51_11_cif.got.tgz:20866.got - 2010.04.16 13:43:02.
