data_PCOD8209109
_publ_section_title
;
Structure prediction by ZEFSAII (Michael W. Deem and Ramdas Pophale) SiO2 
 PCOD8209109
Probable space group: P M M A
;
_chemical_formula_sum "Si O2"
_cell_formula_units_Z 64
_cell_length_a 9.175919
_cell_length_b 15.011129
_cell_length_c 25.161620
_cell_angle_alpha 90.000000
_cell_angle_beta 90.000000
_cell_angle_gamma 90.000000
_cell_volume 3465.784280
_symmetry_space_group_name_H-M "P M M A"
_symmetry_group_IT_number 51
_symmetry_cell_setting 'orthorhombic'
loop_
_space_group_symop_operation_xyz
x,y,z
1/2-x,-y,z
1/2+x,-y,-z
-x,y,-z
-x,-y,-z
1/2+x,y,-z
1/2-x,y,z
x,-y,z
loop_
_atom_site_type_symbol
_atom_site_label
_atom_site_fract_x
_atom_site_fract_y
_atom_site_fract_z
Si Si1 0.579508 0.897985 0.446828
Si Si2 0.077238 0.212044 0.654639
Si Si3 0.915634 0.900541 0.144834
Si Si4 0.081080 0.400028 0.094698
Si Si5 0.423253 0.232870 0.947167
Si Si6 0.584047 0.835557 0.758911
Si Si7 0.086105 0.633768 0.213308
Si Si8 0.919872 0.404264 0.316003
O O1 0.500000 0.865685 0.500000
O O2 0.750000 0.886893 0.456456
O O3 0.524653 0.834969 0.399265
O O4 0.538812 0.000000 0.433029
O O5 0.250000 0.202841 0.661932
O O6 0.025238 0.316427 0.652116
O O7 0.001146 0.161250 0.703208
O O8 0.750000 0.875900 0.160161
O O9 0.973468 0.831022 0.100968
O O10 0.010211 0.900499 0.198559
O O11 0.925493 0.000000 0.120655
O O12 0.250000 0.370254 0.089413
O O13 0.058211 0.500000 0.072426
O O14 0.032249 0.398950 0.156142
O O15 0.979275 0.333310 0.062059
O O16 0.250000 0.233243 0.954552
O O17 0.500000 0.195070 0.000000
O O18 0.750000 0.865465 0.748518
O O19 0.574292 0.739425 0.785269
O O20 0.250000 0.601290 0.224209
O O21 0.986612 0.589853 0.257684
O O22 0.750000 0.393278 0.307681
O O23 0.955470 0.500000 0.344899
#
# Coordination Sequence:
#
# PCOD8209109 Si02
#       8
#     8   8   8   8   8   8   8   8
#     4   9  18  33  53  75  99 132 174 219 265 310
#     4   9  18  32  50  74 107 143 176 212 259 313
#     4  10  22  40  60  81 106 138 173 210 260 321
#     4  10  20  35  56  80 107 139 173 211 259 314
#     4  11  24  41  61  80 103 134 172 219 266 314
#     4  10  19  32  53  81 111 140 172 212 257 305
#     4   9  17  30  49  73 104 138 170 206 253 304
#     4   9  17  28  44  69 101 137 176 213 248 294
#
# _framework density 18.466239999999999
#
# number of rings (size 3 to 8) (size 9 to 14) (size 15 to 20)
#    0.000    2.375    1.250    1.125    0.000    4.250 
#    0.000    1.250    0.000    0.375    0.000    0.000 
#    0.000    0.000    0.000    0.000    0.000    0.000 
#
# Total GULP energy -793455.769369 kJ/mol
# GULP energy per Si atom -12397.746396 kJ/mol
# Density = 1.842421 g / cm^3
# Si number density = 18.466240 Si / 1000 Ang^3
#
#
#
# Elastic Constant Matrix: (Units=GPa)
#
#
# Indices 1 2 3 4 5 6 
#
# 1 53.0332 32.6561 45.1408 0.0000 0.0000 0.0000
# 2 32.6561 89.4659 57.0526 0.0000 0.0000 0.0000
# 3 45.1408 57.0526 120.1872 0.0000 0.0000 0.0000
# 4 0.0000 0.0000 0.0000 8.4511 0.0000 0.0000
# 5 0.0000 0.0000 0.0000 0.0000 31.3374 0.0000
# 6 0.0000 0.0000 0.0000 0.0000 0.0000 18.0195
#
#
#
# Elastic Compliance Matrix: (Units=1/GPa)
#
#
# Indices 1 2 3 4 5 6 
#
# 1 0.029362 -0.005285 -0.008519 0.000000 0.000000 0.000000
# 2 -0.005285 0.016981 -0.006076 0.000000 0.000000 0.000000
# 3 -0.008519 -0.006076 0.014404 0.000000 0.000000 0.000000
# 4 0.000000 0.000000 0.000000 0.118327 0.000000 0.000000
# 5 0.000000 0.000000 0.000000 0.000000 0.031911 0.000000
# 6 0.000000 0.000000 0.000000 0.000000 0.000000 0.055496
#
#
# Mechanical properties :
#
#
# Convention : Reuss Voigt Hill
#
# Bulk Modulus (GPa) = 47.64794 59.15391 53.40092
# Shear Modulus (GPa) = 15.96240 20.08406 18.02323
#
# Velocity S-wave (km/s) = 2.94327 3.30147 3.12750
# Velocity P-wave (km/s) = 6.11631 6.82906 6.48249
#
# Compressibility (1/GPa) = 0.02098727
#
# Stress axis : x y z
#
# Youngs Moduli (GPa) = 34.05800 58.88901 69.42325
#
# Poissons Ratio (x) = 0.31120 0.59144
# Poissons Ratio (y) = 0.17998 0.42182
# Poissons Ratio (z) = 0.29015 0.35781
#
# Static dielectric constant tensor:
#      x y z
#    x 3.359290 0.000000 0.000000 
#    y 0.000000 3.593920 0.000000 
#    z 0.000000 0.000000 3.238360 
# 
# 
# High freq. dielectric constant tensor:
#      x y z
#    x 1.711570 0.000000 0.000000 
#    y 0.000000 1.722890 0.000000 
#    z 0.000000 0.000000 1.693740 
# 
# From -- ./inp_files/34851.got.cif
#   From: 2010.03.12/outbox.cif.g09.slc.cpg/sg51_18_cif.got.tgz:34851.got - 2010.04.16 13:43:02.
