data_PCOD8209099
_publ_section_title
;
Structure prediction by ZEFSAII (Michael W. Deem and Ramdas Pophale) SiO2 
 PCOD8209099
Probable space group: P M M A
;
_chemical_formula_sum "Si O2"
_cell_formula_units_Z 64
_cell_length_a 18.785315
_cell_length_b 9.171421
_cell_length_c 19.564938
_cell_angle_alpha 90.000000
_cell_angle_beta 90.000000
_cell_angle_gamma 90.000000
_cell_volume 3370.804674
_symmetry_space_group_name_H-M "P M M A"
_symmetry_group_IT_number 51
_symmetry_cell_setting 'orthorhombic'
loop_
_space_group_symop_operation_xyz
x,y,z
1/2-x,-y,z
1/2+x,-y,-z
-x,y,-z
-x,-y,-z
1/2+x,y,-z
1/2-x,y,z
x,-y,z
loop_
_atom_site_type_symbol
_atom_site_label
_atom_site_fract_x
_atom_site_fract_y
_atom_site_fract_z
Si Si1 0.555931 0.826956 0.368063
Si Si2 0.171112 0.326871 0.285645
Si Si3 0.586670 0.327192 0.845591
Si Si4 0.545030 0.169188 0.211422
Si Si5 0.579904 0.328614 0.587137
Si Si6 0.669840 0.831468 0.113922
Si Si7 0.332592 0.670006 0.547970
Si Si8 0.831507 0.671542 0.979158
O O1 0.544059 0.777926 0.289738
O O2 0.494783 0.756674 0.415708
O O3 0.632047 0.764313 0.391784
O O4 0.555709 0.000000 0.376261
O O5 0.250000 0.260119 0.293154
O O6 0.175244 0.500000 0.288586
O O7 0.138742 0.272615 0.214388
O O8 0.122401 0.269647 0.347124
O O9 0.578445 0.500000 0.843961
O O10 0.509896 0.257611 0.834868
O O11 0.619678 0.272836 0.916923
O O12 0.622765 0.201765 0.180483
O O13 0.525176 0.000000 0.206743
O O14 0.562919 0.500000 0.591353
O O15 0.627883 0.290361 0.522269
O O16 0.750000 0.781493 0.131963
O O17 0.666914 0.000000 0.093839
O O18 0.640298 0.744343 0.048539
O O19 0.250000 0.713776 0.541144
O O20 0.340915 0.500000 0.565317
O O21 0.750000 0.717142 0.964150
O O22 0.838423 0.500000 0.987891
#
# Coordination Sequence:
#
# PCOD8209099 Si02
#       8
#     8   8   8   8   8   8   8   8
#     4  11  23  38  57  81 112 149 185 225 276 330
#     4   9  16  28  51  81 108 139 180 219 258 310
#     4  10  19  32  53  80 110 143 178 218 265 323
#     4  10  22  38  55  77 107 142 182 228 269 316
#     4  10  19  35  59  84 110 144 182 224 269 321
#     4   9  19  37  58  76  97 135 185 228 268 318
#     4  10  22  39  59  85 113 141 181 231 276 323
#     4   9  18  33  53  80 112 141 173 219 272 321
#
# _framework density 18.986563
#
# number of rings (size 3 to 8) (size 9 to 14) (size 15 to 20)
#    0.000    2.250    1.250    1.500    0.000    7.750 
#    0.000    3.750    0.000    4.500    0.000    0.000 
#    0.000    0.000    0.000    0.000    0.000    0.000 
#
# Total GULP energy -793758.690622 kJ/mol
# GULP energy per Si atom -12402.479541 kJ/mol
# Density = 1.894335 g / cm^3
# Si number density = 18.986563 Si / 1000 Ang^3
#
#
#
# Elastic Constant Matrix: (Units=GPa)
#
#
# Indices 1 2 3 4 5 6 
#
# 1 124.1576 39.2259 55.3825 0.0000 0.0000 0.0000
# 2 39.2259 40.3405 35.5132 0.0000 0.0000 0.0000
# 3 55.3825 35.5132 90.5280 0.0000 0.0000 0.0000
# 4 0.0000 0.0000 0.0000 27.6258 0.0000 0.0000
# 5 0.0000 0.0000 0.0000 0.0000 37.2529 0.0000
# 6 0.0000 0.0000 0.0000 0.0000 0.0000 22.7106
#
#
#
# Elastic Compliance Matrix: (Units=1/GPa)
#
#
# Indices 1 2 3 4 5 6 
#
# 1 0.012710 -0.008422 -0.004472 0.000000 0.000000 0.000000
# 2 -0.008422 0.043447 -0.011891 0.000000 0.000000 0.000000
# 3 -0.004472 -0.011891 0.018447 0.000000 0.000000 0.000000
# 4 0.000000 0.000000 0.000000 0.036198 0.000000 0.000000
# 5 0.000000 0.000000 0.000000 0.000000 0.026844 0.000000
# 6 0.000000 0.000000 0.000000 0.000000 0.000000 0.044032
#
#
# Mechanical properties :
#
#
# Convention : Reuss Voigt Hill
#
# Bulk Modulus (GPa) = 39.94685 57.25213 48.59949
# Shear Modulus (GPa) = 20.86885 25.84482 23.35683
#
# Velocity S-wave (km/s) = 3.31892 3.69347 3.51119
# Velocity P-wave (km/s) = 5.98099 6.95762 6.48771
#
# Compressibility (1/GPa) = 0.02503326
#
# Stress axis : x y z
#
# Youngs Moduli (GPa) = 78.67988 23.01669 54.21007
#
# Poissons Ratio (x) = 0.19385 0.24240
# Poissons Ratio (y) = 0.66265 0.64463
# Poissons Ratio (z) = 0.35182 0.27370
#
# Static dielectric constant tensor:
#      x y z
#    x 3.593310 0.000000 0.000000 
#    y 0.000000 3.230190 0.000000 
#    z 0.000000 0.000000 3.580650 
# 
# 
# High freq. dielectric constant tensor:
#      x y z
#    x 1.745060 0.000000 0.000000 
#    y 0.000000 1.712830 0.000000 
#    z 0.000000 0.000000 1.744270 
# 
# From -- ./inp_files/33975.got.cif
#   From: 2010.03.12/outbox.cif.g09.slc.cpg/sg51_17_cif.got.tgz:33975.got - 2010.04.16 13:43:02.
