data_PCOD8209766
_publ_section_title
;
Structure prediction by ZEFSAII (Michael W. Deem and Ramdas Pophale) SiO2 
 PCOD8209766
Probable space group: P M M A
;
_chemical_formula_sum "Si O2"
_cell_formula_units_Z 40
_cell_length_a 18.532593
_cell_length_b 8.954811
_cell_length_c 12.581943
_cell_angle_alpha 90.000000
_cell_angle_beta 90.000000
_cell_angle_gamma 90.000000
_cell_volume 2088.047267
_symmetry_space_group_name_H-M "P M M A"
_symmetry_group_IT_number 51
_symmetry_cell_setting 'orthorhombic'
loop_
_space_group_symop_operation_xyz
x,y,z
1/2-x,-y,z
1/2+x,-y,-z
-x,y,-z
-x,-y,-z
1/2+x,y,-z
1/2-x,y,z
x,-y,z
loop_
_atom_site_type_symbol
_atom_site_label
_atom_site_fract_x
_atom_site_fract_y
_atom_site_fract_z
Si Si1 0.426592 0.177601 0.450033
Si Si2 0.080005 0.824413 0.210765
Si Si3 0.167242 0.323897 0.032698
Si Si4 0.082901 0.175263 0.842524
Si Si5 0.330124 0.177531 0.638746
O O1 0.500000 0.242916 0.500000
O O2 0.415106 0.238055 0.331040
O O3 0.361459 0.231804 0.525629
O O4 0.432392 0.000000 0.445388
O O5 0.001647 0.788111 0.162172
O O6 0.095484 0.000000 0.206563
O O7 0.141412 0.740643 0.145105
O O8 0.250000 0.275605 0.013346
O O9 0.158860 0.500000 0.034823
O O10 0.117197 0.259523 0.940890
O O11 0.119994 0.235099 0.734704
O O12 0.096485 0.000000 0.857810
O O13 0.250000 0.244409 0.652065
O O14 0.328574 0.000000 0.640914
#
# Coordination Sequence:
#
# PCOD8209766 Si02
#       5
#     8   8   8   8   8
#     4   9  15  28  49  77 114 144 167 209 265 319
#     4  10  20  34  58  86 111 141 179 222 271 326
#     4  11  25  41  54  73 107 148 186 228 276 321
#     4  10  19  34  57  84 110 138 177 227 276 324
#     4   9  16  26  46  78 111 142 175 214 265 318
#
# _framework density 19.156654
#
# number of rings (size 3 to 8) (size 9 to 14) (size 15 to 20)
#    0.000    2.200    2.000    1.800    0.000    6.400 
#    0.000    2.000    0.000    1.800    0.000    2.800 
#    0.000    0.000    0.000    0.000    0.000    0.000 
#
# Total GULP energy -496007.434096 kJ/mol
# GULP energy per Si atom -12400.185852 kJ/mol
# Density = 1.911305 g / cm^3
# Si number density = 19.156654 Si / 1000 Ang^3
#
#
#
# Elastic Constant Matrix: (Units=GPa)
#
#
# Indices 1 2 3 4 5 6 
#
# 1 70.7431 23.6242 28.0519 0.0000 0.0000 0.0000
# 2 23.6242 29.3190 26.6111 0.0000 0.0000 0.0000
# 3 28.0519 26.6111 139.0298 0.0000 0.0000 0.0000
# 4 0.0000 0.0000 0.0000 -5.6986 0.0000 0.0000
# 5 0.0000 0.0000 0.0000 0.0000 33.2834 0.0000
# 6 0.0000 0.0000 0.0000 0.0000 0.0000 18.9875
#
#
#
# Elastic Compliance Matrix: (Units=1/GPa)
#
#
# Indices 1 2 3 4 5 6 
#
# 1 0.019483 -0.014681 -0.001121 0.000000 0.000000 0.000000
# 2 -0.014681 0.052342 -0.007056 0.000000 0.000000 0.000000
# 3 -0.001121 -0.007056 0.008769 0.000000 0.000000 0.000000
# 4 0.000000 0.000000 0.000000 -0.175481 0.000000 0.000000
# 5 0.000000 0.000000 0.000000 0.000000 0.030045 0.000000
# 6 0.000000 0.000000 0.000000 0.000000 0.000000 0.052666
#
#
# Mechanical properties :
#
#
# Convention : Reuss Voigt Hill
#
# Bulk Modulus (GPa) = 28.67202 43.96291 36.31746
# Shear Modulus (GPa) = 110.70227 20.03478 65.36853
#
# Velocity S-wave (km/s) = 7.61008 3.23745 5.84784
# Velocity P-wave (km/s) = 9.60299 6.08061 8.03714
#
# Compressibility (1/GPa) = 0.03487721
#
# Stress axis : x y z
#
# Youngs Moduli (GPa) = 51.32730 19.10523 114.03165
#
# Poissons Ratio (x) = 0.28049 0.12783
# Poissons Ratio (y) = 0.75354 0.80464
# Poissons Ratio (z) = 0.05754 0.13481
#
# Static dielectric constant tensor:
#      x y z
#    x 3.712060 0.000000 0.000000 
#    y 0.000000 2.973130 0.000000 
#    z 0.000000 0.000000 3.738330 
# 
# 
# High freq. dielectric constant tensor:
#      x y z
#    x 1.754290 0.000000 0.000000 
#    y 0.000000 1.688060 0.000000 
#    z 0.000000 0.000000 1.763740 
# 
# From -- ./inp_files/17080.got.cif
#   From: 2010.03.12/outbox.cif.g09.slc.cpg/sg51_9_cif.got.tgz:17080.got - 2010.04.16 13:43:02.
