data_PCOD8209702
_publ_section_title
;
Structure prediction by ZEFSAII (Michael W. Deem and Ramdas Pophale) SiO2 
 PCOD8209702
Probable space group: P M M A
;
_chemical_formula_sum "Si O2"
_cell_formula_units_Z 48
_cell_length_a 8.803258
_cell_length_b 30.673237
_cell_length_c 9.344611
_cell_angle_alpha 90.000000
_cell_angle_beta 90.000000
_cell_angle_gamma 90.000000
_cell_volume 2523.273156
_symmetry_space_group_name_H-M "P M M A"
_symmetry_group_IT_number 51
_symmetry_cell_setting 'orthorhombic'
loop_
_space_group_symop_operation_xyz
x,y,z
1/2-x,-y,z
1/2+x,-y,-z
-x,y,-z
-x,-y,-z
1/2+x,y,-z
1/2-x,y,z
x,-y,z
loop_
_atom_site_type_symbol
_atom_site_label
_atom_site_fract_x
_atom_site_fract_y
_atom_site_fract_z
Si Si1 0.928702 0.251382 0.346006
Si Si2 0.075538 0.000000 0.349777
Si Si3 0.070446 0.572443 0.848412
Si Si4 0.570425 0.094719 0.657835
Si Si5 0.569180 0.500000 0.655292
Si Si6 0.570249 0.830385 0.155550
Si Si7 0.427578 0.671897 0.850831
O O1 0.750000 0.252365 0.365866
O O2 0.980062 0.211479 0.246865
O O3 0.987776 0.296342 0.274107
O O4 0.000000 0.245436 0.500000
O O5 0.034287 0.953787 0.274810
O O6 0.000000 0.000000 0.500000
O O7 0.250000 0.000000 0.385593
O O8 0.250000 0.563647 0.851428
O O9 0.030501 0.622370 0.810097
O O10 0.990178 0.543441 0.730372
O O11 0.000000 0.559238 0.000000
O O12 0.500000 0.100690 0.500000
O O13 0.750000 0.103739 0.647602
O O14 0.493952 0.127033 0.768478
O O15 0.750000 0.500000 0.650552
O O16 0.500000 0.500000 0.500000
O O17 0.750000 0.834313 0.142370
O O18 0.500000 0.825393 0.000000
O O19 0.250000 0.677787 0.871822
O O20 0.500000 0.686169 0.000000
#
# Coordination Sequence:
#
# PCOD8209702 Si02
#       7
#     8   4   8   8   4   8   8
#     4  10  22  38  56  81 111 143 180 221 268 322
#     4   8  16  30  51  78 107 140 176 218 266 318
#     4  10  20  37  60  85 113 146 186 227 270 323
#     4  10  19  34  56  82 111 142 180 223 269 321
#     4  12  25  40  57  80 112 148 186 230 281 328
#     4  11  23  38  56  79 108 143 183 226 274 325
#     4   9  19  36  58  84 112 143 180 222 267 318
#
# _framework density 19.022911000000001
#
# number of rings (size 3 to 8) (size 9 to 14) (size 15 to 20)
#    0.000    2.000    0.000    3.500    0.000    5.333 
#    0.000    2.083    0.000    0.000    0.000    0.000 
#    0.000    0.000    0.000    0.000    0.000    0.000 
#
# Total GULP energy -595089.996776 kJ/mol
# GULP energy per Si atom -12397.708266 kJ/mol
# Density = 1.897961 g / cm^3
# Si number density = 19.022911 Si / 1000 Ang^3
#
#
#
# Elastic Constant Matrix: (Units=GPa)
#
#
# Indices 1 2 3 4 5 6 
#
# 1 80.3402 60.0089 63.1562 0.0000 0.0000 0.0000
# 2 60.0089 155.7235 100.0053 0.0000 0.0000 0.0000
# 3 63.1562 100.0053 163.9459 0.0000 0.0000 0.0000
# 4 0.0000 0.0000 0.0000 35.7604 0.0000 0.0000
# 5 0.0000 0.0000 0.0000 0.0000 36.6829 0.0000
# 6 0.0000 0.0000 0.0000 0.0000 0.0000 61.2058
#
#
#
# Elastic Compliance Matrix: (Units=1/GPa)
#
#
# Indices 1 2 3 4 5 6 
#
# 1 0.019555 -0.004435 -0.004828 0.000000 0.000000 0.000000
# 2 -0.004435 0.011563 -0.005345 0.000000 0.000000 0.000000
# 3 -0.004828 -0.005345 0.011220 0.000000 0.000000 0.000000
# 4 0.000000 0.000000 0.000000 0.027964 0.000000 0.000000
# 5 0.000000 0.000000 0.000000 0.000000 0.027261 0.000000
# 6 0.000000 0.000000 0.000000 0.000000 0.000000 0.016338
#
#
# Mechanical properties :
#
#
# Convention : Reuss Voigt Hill
#
# Bulk Modulus (GPa) = 76.20630 94.03894 85.12262
# Shear Modulus (GPa) = 33.90050 38.51910 36.20980
#
# Velocity S-wave (km/s) = 4.22606 4.50475 4.36763
# Velocity P-wave (km/s) = 7.99750 8.75208 8.38328
#
# Compressibility (1/GPa) = 0.01312227
#
# Stress axis : x y z
#
# Youngs Moduli (GPa) = 51.13782 86.48053 89.12978
#
# Poissons Ratio (x) = 0.38357 0.43028
# Poissons Ratio (y) = 0.22682 0.47639
# Poissons Ratio (z) = 0.24687 0.46223
#
# Static dielectric constant tensor:
#      x y z
#    x 4.523520 0.000000 0.000000 
#    y 0.000000 3.956190 0.000000 
#    z 0.000000 0.000000 3.491810 
# 
# 
# High freq. dielectric constant tensor:
#      x y z
#    x 1.747110 0.000000 0.000000 
#    y 0.000000 1.762690 0.000000 
#    z 0.000000 0.000000 1.727590 
# 
# From -- ./inp_files/6295.got.cif
#   From: 2010.03.12/outbox.cif.g09.slc.cpg/sg51_4_cif.got.tgz:6295.got - 2010.04.16 13:43:02.
