data_PCOD8209659
_publ_section_title
;
Structure prediction by ZEFSAII (Michael W. Deem and Ramdas Pophale) SiO2 
 PCOD8209659
Probable space group: P M M A
;
_chemical_formula_sum "Si O2"
_cell_formula_units_Z 64
_cell_length_a 17.261309
_cell_length_b 8.945633
_cell_length_c 22.597490
_cell_angle_alpha 90.000000
_cell_angle_beta 90.000000
_cell_angle_gamma 90.000000
_cell_volume 3489.353803
_symmetry_space_group_name_H-M "P M M A"
_symmetry_group_IT_number 51
_symmetry_cell_setting 'orthorhombic'
loop_
_space_group_symop_operation_xyz
x,y,z
1/2-x,-y,z
1/2+x,-y,-z
-x,y,-z
-x,-y,-z
1/2+x,y,-z
1/2-x,y,z
x,-y,z
loop_
_atom_site_type_symbol
_atom_site_label
_atom_site_fract_x
_atom_site_fract_y
_atom_site_fract_z
Si Si1 0.927663 0.832461 0.543292
Si Si2 0.662154 0.674328 0.804534
Si Si3 0.337812 0.673013 0.551967
Si Si4 0.523511 0.675926 0.362965
Si Si5 0.015406 0.176970 0.242558
Si Si6 0.056621 0.330333 0.868454
Si Si7 0.160218 0.827802 0.956516
Si Si8 0.602266 0.331751 0.930582
O O1 0.854991 0.763007 0.508343
O O2 0.000000 0.833356 0.500000
O O3 0.949132 0.732506 0.599998
O O4 0.906605 0.000000 0.564160
O O5 0.750000 0.709681 0.785035
O O6 0.641377 0.500000 0.797240
O O7 0.604034 0.766179 0.762860
O O8 0.650947 0.719681 0.873047
O O9 0.250000 0.707580 0.572428
O O10 0.349929 0.500000 0.536590
O O11 0.395998 0.719578 0.604605
O O12 0.515490 0.500000 0.353366
O O13 0.524868 0.758592 0.300693
O O14 0.963845 0.230789 0.187891
O O15 0.015692 0.000000 0.245289
O O16 0.071639 0.500000 0.847492
O O17 0.132532 0.265744 0.899824
O O18 0.988444 0.324423 0.916546
O O19 0.250000 0.795759 0.964839
O O20 0.141400 0.000000 0.944532
O O21 0.118081 0.780741 0.016595
O O22 0.626296 0.500000 0.949349
#
# Coordination Sequence:
#
# PCOD8209659 Si02
#       8
#     8   8   8   8   8   8   8   8
#     4   9  17  30  50  77 107 136 166 203 250 300
#     4   9  18  34  55  78 105 136 171 213 260 313
#     4   9  18  33  54  81 110 139 174 216 259 303
#     4  10  19  34  56  78 104 141 182 218 253 304
#     4  11  22  36  55  78 106 139 176 220 266 312
#     4  10  21  38  57  75  98 134 179 220 260 313
#     4  11  23  35  49  75 108 136 166 211 267 321
#     4   9  18  33  54  78 101 129 168 210 255 315
#
# _framework density 18.341505000000002
#
# number of rings (size 3 to 8) (size 9 to 14) (size 15 to 20)
#    0.000    2.250    0.000    4.125    0.000    8.000 
#    0.000    1.250    0.000    6.000    0.000    0.000 
#    0.000    0.000    0.000    0.000    0.000    0.000 
#
# Total GULP energy -793739.916276 kJ/mol
# GULP energy per Si atom -12402.186192 kJ/mol
# Density = 1.829976 g / cm^3
# Si number density = 18.341505 Si / 1000 Ang^3
#
#
#
# Elastic Constant Matrix: (Units=GPa)
#
#
# Indices 1 2 3 4 5 6 
#
# 1 64.8295 41.4246 46.1556 0.0000 0.0000 0.0000
# 2 41.4246 109.4566 50.8858 0.0000 0.0000 0.0000
# 3 46.1556 50.8858 95.4867 0.0000 0.0000 0.0000
# 4 0.0000 0.0000 0.0000 31.7855 0.0000 0.0000
# 5 0.0000 0.0000 0.0000 0.0000 18.7297 0.0000
# 6 0.0000 0.0000 0.0000 0.0000 0.0000 25.2372
#
#
#
# Elastic Compliance Matrix: (Units=1/GPa)
#
#
# Indices 1 2 3 4 5 6 
#
# 1 0.025589 -0.005230 -0.009582 0.000000 0.000000 0.000000
# 2 -0.005230 0.013214 -0.004514 0.000000 0.000000 0.000000
# 3 -0.009582 -0.004514 0.017510 0.000000 0.000000 0.000000
# 4 0.000000 0.000000 0.000000 0.031461 0.000000 0.000000
# 5 0.000000 0.000000 0.000000 0.000000 0.053391 0.000000
# 6 0.000000 0.000000 0.000000 0.000000 0.000000 0.039624
#
#
# Mechanical properties :
#
#
# Convention : Reuss Voigt Hill
#
# Bulk Modulus (GPa) = 56.62096 60.74498 58.68297
# Shear Modulus (GPa) = 22.19006 23.90424 23.04715
#
# Velocity S-wave (km/s) = 3.48203 3.61402 3.54864
# Velocity P-wave (km/s) = 6.86320 7.11376 6.98960
#
# Compressibility (1/GPa) = 0.01766130
#
# Stress axis : x y z
#
# Youngs Moduli (GPa) = 39.08000 75.67906 57.11093
#
# Poissons Ratio (x) = 0.39577 0.54723
# Poissons Ratio (y) = 0.20437 0.25779
# Poissons Ratio (z) = 0.37446 0.34161
#
# Static dielectric constant tensor:
#      x y z
#    x 3.341470 0.000000 0.000000 
#    y 0.000000 3.463010 0.000000 
#    z 0.000000 0.000000 3.268840 
# 
# 
# High freq. dielectric constant tensor:
#      x y z
#    x 1.700100 0.000000 0.000000 
#    y 0.000000 1.718050 0.000000 
#    z 0.000000 0.000000 1.699470 
# 
# From -- ./inp_files/33818.got.cif
#   From: 2010.03.12/outbox.cif.g09.slc.cpg/sg51_17_cif.got.tgz:33818.got - 2010.04.16 13:43:02.
