data_PCOD8209523
_publ_section_title
;
Structure prediction by ZEFSAII (Michael W. Deem and Ramdas Pophale) SiO2 
 PCOD8209523
Probable space group: P M M A
;
_chemical_formula_sum "Si O2"
_cell_formula_units_Z 64
_cell_length_a 17.378299
_cell_length_b 14.751128
_cell_length_c 12.504117
_cell_angle_alpha 90.000000
_cell_angle_beta 90.000000
_cell_angle_gamma 90.000000
_cell_volume 3205.424303
_symmetry_space_group_name_H-M "P M M A"
_symmetry_group_IT_number 51
_symmetry_cell_setting 'orthorhombic'
loop_
_space_group_symop_operation_xyz
x,y,z
1/2-x,-y,z
1/2+x,-y,-z
-x,y,-z
-x,-y,-z
1/2+x,y,-z
1/2-x,y,z
x,-y,z
loop_
_atom_site_type_symbol
_atom_site_label
_atom_site_fract_x
_atom_site_fract_y
_atom_site_fract_z
Si Si1 0.036844 0.400919 0.610290
Si Si2 0.464210 0.098773 0.395484
Si Si3 0.074324 0.648865 0.219254
Si Si4 0.334547 0.228916 0.367103
Si Si5 0.334503 0.737813 0.614085
Si Si6 0.606627 0.897245 0.252203
Si Si7 0.340806 0.602311 0.007307
Si Si8 0.552644 0.753156 0.097863
O O1 0.074280 0.500000 0.589148
O O2 0.100795 0.331406 0.656952
O O3 0.000000 0.362677 0.500000
O O4 0.969968 0.416209 0.698096
O O5 0.500000 0.150523 0.500000
O O6 0.389884 0.145292 0.348772
O O7 0.521738 0.092233 0.297595
O O8 0.438258 0.000000 0.436374
O O9 0.143698 0.693912 0.283786
O O10 0.114968 0.598431 0.120950
O O11 0.008173 0.719340 0.185042
O O12 0.250000 0.194239 0.339275
O O13 0.340023 0.264663 0.487091
O O14 0.250000 0.703377 0.649949
O O15 0.344354 0.839472 0.661521
O O16 0.601108 0.839433 0.142067
O O17 0.640881 0.000000 0.233734
O O18 0.250000 0.628831 0.018559
O O19 0.347722 0.500000 0.959512
O O20 0.385665 0.674195 0.932635
O O21 0.500000 0.786084 0.000000
#
# Coordination Sequence:
#
# PCOD8209523 Si02
#       8
#     8   8   8   8   8   8   8   8
#     4  11  22  37  61  89 121 162 208 250 292 356
#     4  10  19  33  56  83 115 156 206 256 299 356
#     4  11  20  38  63  88 121 157 202 243 298 361
#     4  11  21  33  56  86 122 164 199 246 304 355
#     4  11  23  38  57  87 127 164 203 251 301 358
#     4  11  22  39  63  90 121 161 205 252 307 370
#     4  10  23  43  65  92 124 154 196 257 319 372
#     4  10  22  38  64  92 114 153 201 256 309 372
#
# _framework density 19.966156000000002
#
# number of rings (size 3 to 8) (size 9 to 14) (size 15 to 20)
#    0.000    1.375    5.000    0.750    0.000    4.250 
#    0.000    1.250    0.000    0.000    0.000    0.000 
#    0.000    0.000    0.000    0.000    0.000    0.000 
#
# Total GULP energy -793075.645416 kJ/mol
# GULP energy per Si atom -12391.806960 kJ/mol
# Density = 1.992071 g / cm^3
# Si number density = 19.966156 Si / 1000 Ang^3
#
#
#
# Elastic Constant Matrix: (Units=GPa)
#
#
# Indices 1 2 3 4 5 6 
#
# 1 114.2751 41.3846 21.7909 0.0000 0.0000 0.0000
# 2 41.3846 115.6373 28.9743 0.0000 0.0000 0.0000
# 3 21.7909 28.9743 79.7275 0.0000 0.0000 0.0000
# 4 0.0000 0.0000 0.0000 25.4862 0.0000 0.0000
# 5 0.0000 0.0000 0.0000 0.0000 18.5524 0.0000
# 6 0.0000 0.0000 0.0000 0.0000 0.0000 15.4522
#
#
#
# Elastic Compliance Matrix: (Units=1/GPa)
#
#
# Indices 1 2 3 4 5 6 
#
# 1 0.010239 -0.003260 -0.001614 0.000000 0.000000 0.000000
# 2 -0.003260 0.010552 -0.002944 0.000000 0.000000 0.000000
# 3 -0.001614 -0.002944 0.014054 0.000000 0.000000 0.000000
# 4 0.000000 0.000000 0.000000 0.039237 0.000000 0.000000
# 5 0.000000 0.000000 0.000000 0.000000 0.053901 0.000000
# 6 0.000000 0.000000 0.000000 0.000000 0.000000 0.064716
#
#
# Mechanical properties :
#
#
# Convention : Reuss Voigt Hill
#
# Bulk Modulus (GPa) = 52.05727 54.88216 53.46971
# Shear Modulus (GPa) = 23.28429 26.39752 24.84090
#
# Velocity S-wave (km/s) = 3.41865 3.64003 3.53108
# Velocity P-wave (km/s) = 6.45850 6.72411 6.59265
#
# Compressibility (1/GPa) = 0.01920961
#
# Stress axis : x y z
#
# Youngs Moduli (GPa) = 97.66412 94.76841 71.15615
#
# Poissons Ratio (x) = 0.30895 0.11483
# Poissons Ratio (y) = 0.31839 0.20947
# Poissons Ratio (z) = 0.15761 0.27897
#
# Static dielectric constant tensor:
#      x y z
#    x 3.727050 0.000000 0.000000 
#    y 0.000000 3.597530 0.000000 
#    z 0.000000 0.000000 3.655590 
# 
# 
# High freq. dielectric constant tensor:
#      x y z
#    x 1.777080 0.000000 0.000000 
#    y 0.000000 1.769570 0.000000 
#    z 0.000000 0.000000 1.773550 
# 
# From -- ./inp_files/17620.got.cif
#   From: 2010.03.12/outbox.cif.g09.slc.cpg/sg51_9_cif.got.tgz:17620.got - 2010.04.16 13:43:02.
