data_PCOD8209768
_publ_section_title
;
Structure prediction by ZEFSAII (Michael W. Deem and Ramdas Pophale) SiO2 
 PCOD8209768
Probable space group: P M M A
;
_chemical_formula_sum "Si O2"
_cell_formula_units_Z 64
_cell_length_a 9.002239
_cell_length_b 25.271108
_cell_length_c 14.525415
_cell_angle_alpha 90.000000
_cell_angle_beta 90.000000
_cell_angle_gamma 90.000000
_cell_volume 3304.481858
_symmetry_space_group_name_H-M "P M M A"
_symmetry_group_IT_number 51
_symmetry_cell_setting 'orthorhombic'
loop_
_space_group_symop_operation_xyz
x,y,z
1/2-x,-y,z
1/2+x,-y,-z
-x,y,-z
-x,-y,-z
1/2+x,y,-z
1/2-x,y,z
x,-y,z
loop_
_atom_site_type_symbol
_atom_site_label
_atom_site_fract_x
_atom_site_fract_y
_atom_site_fract_z
Si Si1 0.927321 0.645037 0.099147
Si Si2 0.416547 0.936982 0.411100
Si Si3 0.922742 0.406849 0.406736
Si Si4 0.920416 0.282199 0.408604
Si Si5 0.579821 0.439459 0.775840
Si Si6 0.923643 0.059897 0.228049
Si Si7 0.575272 0.847091 0.097672
Si Si8 0.926409 0.252655 0.211931
O O1 0.750000 0.641765 0.090903
O O2 0.981180 0.696434 0.155479
O O3 0.986753 0.593305 0.150052
O O4 0.000000 0.648934 0.000000
O O5 0.500000 0.913299 0.500000
O O6 0.250000 0.914884 0.411497
O O7 0.496209 0.917595 0.318481
O O8 0.419525 0.000000 0.414989
O O9 0.750000 0.422811 0.407702
O O10 0.943641 0.344398 0.395274
O O11 0.000000 0.426919 0.500000
O O12 0.004615 0.435479 0.323576
O O13 0.750000 0.267358 0.421057
O O14 0.987724 0.254590 0.316854
O O15 0.000000 0.260619 0.500000
O O16 0.750000 0.419121 0.770845
O O17 0.574810 0.500000 0.808555
O O18 0.750000 0.062616 0.249323
O O19 0.967681 0.096575 0.142215
O O20 0.973860 0.000000 0.204281
O O21 0.750000 0.841504 0.083685
O O22 0.514287 0.800352 0.163007
O O23 0.500000 0.842404 0.000000
O O24 0.750000 0.253376 0.216269
#
# Coordination Sequence:
#
# PCOD8209768 Si02
#       8
#     8   8   8   8   8   8   8   8
#     4  11  22  39  61  84 108 140 182 230 282 337
#     4   9  16  27  47  75 105 139 179 223 268 316
#     4  10  19  34  57  84 114 149 186 227 273 326
#     4   9  17  32  54  82 111 141 175 214 263 321
#     4  11  24  40  57  81 113 148 188 231 274 327
#     4   9  18  33  52  76 108 148 189 225 270 327
#     4  10  21  37  57  79 108 144 181 231 283 328
#     4   9  18  36  59  82 111 143 178 221 275 330
#
# _framework density 19.367636000000001
#
# number of rings (size 3 to 8) (size 9 to 14) (size 15 to 20)
#    0.000    2.250    1.250    1.875    0.000    4.250 
#    0.000    1.875    0.000    1.500    0.000    0.000 
#    0.000    0.000    0.000    0.000    0.000    0.000 
#
# Total GULP energy -793660.254259 kJ/mol
# GULP energy per Si atom -12400.941473 kJ/mol
# Density = 1.932355 g / cm^3
# Si number density = 19.367636 Si / 1000 Ang^3
#
#
#
# Elastic Constant Matrix: (Units=GPa)
#
#
# Indices 1 2 3 4 5 6 
#
# 1 82.2306 37.9998 56.5317 0.0000 0.0000 0.0000
# 2 37.9998 86.9311 67.4767 0.0000 0.0000 0.0000
# 3 56.5317 67.4767 179.6329 0.0000 0.0000 0.0000
# 4 0.0000 0.0000 0.0000 22.5264 0.0000 0.0000
# 5 0.0000 0.0000 0.0000 0.0000 40.8474 0.0000
# 6 0.0000 0.0000 0.0000 0.0000 0.0000 15.1229
#
#
#
# Elastic Compliance Matrix: (Units=1/GPa)
#
#
# Indices 1 2 3 4 5 6 
#
# 1 0.016701 -0.004546 -0.003548 0.000000 0.000000 0.000000
# 2 -0.004546 0.017475 -0.005134 0.000000 0.000000 0.000000
# 3 -0.003548 -0.005134 0.008612 0.000000 0.000000 0.000000
# 4 0.000000 0.000000 0.000000 0.044392 0.000000 0.000000
# 5 0.000000 0.000000 0.000000 0.000000 0.024481 0.000000
# 6 0.000000 0.000000 0.000000 0.000000 0.000000 0.066125
#
#
# Mechanical properties :
#
#
# Convention : Reuss Voigt Hill
#
# Bulk Modulus (GPa) = 61.22890 74.75678 67.99284
# Shear Modulus (GPa) = 23.84498 28.15176 25.99837
#
# Velocity S-wave (km/s) = 3.51262 3.81668 3.66780
# Velocity P-wave (km/s) = 6.93787 7.62268 7.28832
#
# Compressibility (1/GPa) = 0.01633216
#
# Stress axis : x y z
#
# Youngs Moduli (GPa) = 59.87613 57.22301 116.11785
#
# Poissons Ratio (x) = 0.26016 0.41201
# Poissons Ratio (y) = 0.27222 0.59611
# Poissons Ratio (z) = 0.21245 0.29376
#
# Static dielectric constant tensor:
#      x y z
#    x 3.530360 0.000000 0.000000 
#    y 0.000000 3.468750 0.000000 
#    z 0.000000 0.000000 3.738390 
# 
# 
# High freq. dielectric constant tensor:
#      x y z
#    x 1.744900 0.000000 0.000000 
#    y 0.000000 1.737150 0.000000 
#    z 0.000000 0.000000 1.766040 
# 
# From -- ./inp_files/22204.got.cif
#   From: 2010.03.12/outbox.cif.g09.slc.cpg/sg51_12_cif.got.tgz:22204.got - 2010.04.16 13:43:02.
