data_PCOD8209045
_publ_section_title
;
Structure prediction by ZEFSAII (Michael W. Deem and Ramdas Pophale) SiO2 
 PCOD8209045
Probable space group: P M M A
;
_chemical_formula_sum "Si O2"
_cell_formula_units_Z 48
_cell_length_a 17.426817
_cell_length_b 16.807196
_cell_length_c 9.248084
_cell_angle_alpha 90.000000
_cell_angle_beta 90.000000
_cell_angle_gamma 90.000000
_cell_volume 2708.726154
_symmetry_space_group_name_H-M "P M M A"
_symmetry_group_IT_number 51
_symmetry_cell_setting 'orthorhombic'
loop_
_space_group_symop_operation_xyz
x,y,z
1/2-x,-y,z
1/2+x,-y,-z
-x,y,-z
-x,-y,-z
1/2+x,y,-z
1/2-x,y,z
x,-y,z
loop_
_atom_site_type_symbol
_atom_site_label
_atom_site_fract_x
_atom_site_fract_y
_atom_site_fract_z
Si Si1 0.837762 0.710706 0.037155
Si Si2 0.393496 0.719073 0.389253
Si Si3 0.833871 0.843884 0.812328
Si Si4 0.659691 0.588185 0.793081
Si Si5 0.940557 0.757773 0.295735
Si Si6 0.993957 0.089699 0.832930
O O1 0.750000 0.694325 0.086046
O O2 0.893563 0.710685 0.174473
O O3 0.843690 0.797086 0.963132
O O4 0.867672 0.642098 0.928463
O O5 0.334053 0.779535 0.316076
O O6 0.364624 0.629185 0.359393
O O7 0.395354 0.743837 0.555855
O O8 0.475196 0.721933 0.308836
O O9 0.750000 0.886835 0.809294
O O10 0.903728 0.905219 0.790143
O O11 0.750000 0.581032 0.796615
O O12 0.622664 0.500000 0.802925
O O13 0.951605 0.851881 0.260372
O O14 0.022520 0.000000 0.803139
O O15 0.000000 0.113221 0.000000
#
# Coordination Sequence:
#
# PCOD8209045 Si02
#       6
#     8   8   8   8   8   8
#     4   9  17  30  51  73  97 131 172 214 254 301
#     4   9  19  32  51  74 103 139 172 205 252 309
#     4   9  17  31  50  74  99 131 175 215 250 303
#     4   9  18  34  54  77 104 133 167 208 255 304
#     4  10  19  34  50  76 104 133 175 214 248 306
#     4  10  19  32  53  77 102 134 171 216 268 305
#
# _framework density 17.720506
#
# number of rings (size 3 to 8) (size 9 to 14) (size 15 to 20)
#    0.000    2.667    1.667    1.500    0.000    1.667 
#    0.000   10.833    0.000    2.500    0.000    0.000 
#    0.000    0.000    0.000    0.000    0.000    0.000 
#
# Total GULP energy -594882.187909 kJ/mol
# GULP energy per Si atom -12393.378915 kJ/mol
# Density = 1.768017 g / cm^3
# Si number density = 17.720506 Si / 1000 Ang^3
#
#
#
# Elastic Constant Matrix: (Units=GPa)
#
#
# Indices 1 2 3 4 5 6 
#
# 1 46.7211 19.4897 38.7853 0.0000 0.0000 0.0000
# 2 19.4897 92.2576 47.5238 0.0000 0.0000 0.0000
# 3 38.7853 47.5238 114.7468 0.0000 0.0000 0.0000
# 4 0.0000 0.0000 0.0000 17.1800 0.0000 0.0000
# 5 0.0000 0.0000 0.0000 0.0000 23.2933 0.0000
# 6 0.0000 0.0000 0.0000 0.0000 0.0000 19.3687
#
#
#
# Elastic Compliance Matrix: (Units=1/GPa)
#
#
# Indices 1 2 3 4 5 6 
#
# 1 0.029896 -0.001411 -0.009520 0.000000 0.000000 0.000000
# 2 -0.001411 0.013845 -0.005257 0.000000 0.000000 0.000000
# 3 -0.009520 -0.005257 0.014110 0.000000 0.000000 0.000000
# 4 0.000000 0.000000 0.000000 0.058207 0.000000 0.000000
# 5 0.000000 0.000000 0.000000 0.000000 0.042931 0.000000
# 6 0.000000 0.000000 0.000000 0.000000 0.000000 0.051630
#
#
# Mechanical properties :
#
#
# Convention : Reuss Voigt Hill
#
# Bulk Modulus (GPa) = 39.25686 51.70260 45.47973
# Shear Modulus (GPa) = 19.88164 21.83017 20.85591
#
# Velocity S-wave (km/s) = 3.35320 3.51367 3.43437
# Velocity P-wave (km/s) = 6.09863 6.76027 6.43796
#
# Compressibility (1/GPa) = 0.02547326
#
# Stress axis : x y z
#
# Youngs Moduli (GPa) = 33.44961 72.22576 70.87090
#
# Poissons Ratio (x) = 0.10194 0.67472
# Poissons Ratio (y) = 0.04721 0.37258
# Poissons Ratio (z) = 0.31846 0.37971
#
# Static dielectric constant tensor:
#      x y z
#    x 3.295240 0.000000 0.000000 
#    y 0.000000 3.281550 0.000000 
#    z 0.000000 0.000000 3.212530 
# 
# 
# High freq. dielectric constant tensor:
#      x y z
#    x 1.684860 0.000000 0.000000 
#    y 0.000000 1.665270 0.000000 
#    z 0.000000 0.000000 1.671670 
# 
# From -- ./inp_files/9801.got.cif
#   From: 2010.03.12/outbox.cif.g09.slc.cpg/sg51_5_cif.got.tgz:9801.got - 2010.04.16 13:43:02.
