data_PCOD8209821
_publ_section_title
;
Structure prediction by ZEFSAII (Michael W. Deem and Ramdas Pophale) SiO2 
 PCOD8209821
Probable space group: P M M A
;
_chemical_formula_sum "Si O2"
_cell_formula_units_Z 48
_cell_length_a 31.061322
_cell_length_b 8.292558
_cell_length_c 8.884241
_cell_angle_alpha 90.000000
_cell_angle_beta 90.000000
_cell_angle_gamma 90.000000
_cell_volume 2288.383378
_symmetry_space_group_name_H-M "P M M A"
_symmetry_group_IT_number 51
_symmetry_cell_setting 'orthorhombic'
loop_
_space_group_symop_operation_xyz
x,y,z
1/2-x,-y,z
1/2+x,-y,-z
-x,y,-z
-x,-y,-z
1/2+x,y,-z
1/2-x,y,z
x,-y,z
loop_
_atom_site_type_symbol
_atom_site_label
_atom_site_fract_x
_atom_site_fract_y
_atom_site_fract_z
Si Si1 0.500428 0.691670 0.169211
Si Si2 0.330882 0.185736 0.152926
Si Si3 0.750000 0.182929 0.350955
Si Si4 0.084691 0.308719 0.667374
Si Si5 0.750000 0.313816 0.673504
Si Si6 0.328918 0.686553 0.825980
Si Si7 0.087545 0.308720 0.325110
O O1 0.503363 0.500000 0.165495
O O2 0.541718 0.763978 0.256486
O O3 0.457610 0.746753 0.254880
O O4 0.500000 0.761213 0.000000
O O5 0.292242 0.228512 0.263863
O O6 0.375325 0.218310 0.236447
O O7 0.327959 0.000000 0.105655
O O8 0.327889 0.294231 0.004790
O O9 0.750000 0.300861 0.493374
O O10 0.791538 0.210464 0.248777
O O11 0.750000 0.000000 0.409506
O O12 0.081638 0.500000 0.669211
O O13 0.125741 0.248964 0.761935
O O14 0.088579 0.247776 0.496676
O O15 0.750000 0.500000 0.720300
O O16 0.321909 0.500000 0.784990
O O17 0.094643 0.500000 0.312111
#
# Coordination Sequence:
#
# PCOD8209821 Si02
#       7
#     8   8   4   8   4   8   8
#     4   9  16  28  51  85 120 152 191 243 298 349
#     4  12  25  41  60  86 120 155 195 247 308 361
#     4  12  25  42  63  92 128 160 192 236 295 352
#     4   9  18  32  55  87 117 148 193 248 297 345
#     4  12  25  44  67  90 116 152 200 244 289 350
#     4  11  22  39  62  87 117 157 205 249 293 351
#     4  10  19  34  58  86 117 154 197 243 294 358
#
# _framework density 20.975505999999999
#
# number of rings (size 3 to 8) (size 9 to 14) (size 15 to 20)
#    0.000    1.500    0.000    6.500    0.000    6.000 
#    0.000    0.833    0.000    7.500    0.000    0.000 
#    0.000    0.000    0.000    0.000    0.000    0.000 
#
# Total GULP energy -595470.732322 kJ/mol
# GULP energy per Si atom -12405.640257 kJ/mol
# Density = 2.092776 g / cm^3
# Si number density = 20.975506 Si / 1000 Ang^3
#
#
#
# Elastic Constant Matrix: (Units=GPa)
#
#
# Indices 1 2 3 4 5 6 
#
# 1 168.5589 21.5911 60.3779 0.0000 0.0000 0.0000
# 2 21.5911 54.8300 2.4794 0.0000 0.0000 0.0000
# 3 60.3779 2.4794 146.9324 0.0000 0.0000 0.0000
# 4 0.0000 0.0000 0.0000 17.6314 0.0000 0.0000
# 5 0.0000 0.0000 0.0000 0.0000 43.2561 0.0000
# 6 0.0000 0.0000 0.0000 0.0000 0.0000 0.7679
#
#
#
# Elastic Compliance Matrix: (Units=1/GPa)
#
#
# Indices 1 2 3 4 5 6 
#
# 1 0.007352 -0.002760 -0.002974 0.000000 0.000000 0.000000
# 2 -0.002760 0.019289 0.000809 0.000000 0.000000 0.000000
# 3 -0.002974 0.000809 0.008014 0.000000 0.000000 0.000000
# 4 0.000000 0.000000 0.000000 0.056717 0.000000 0.000000
# 5 0.000000 0.000000 0.000000 0.000000 0.023118 0.000000
# 6 0.000000 0.000000 0.000000 0.000000 0.000000 1.302224
#
#
# Mechanical properties :
#
#
# Convention : Reuss Voigt Hill
#
# Bulk Modulus (GPa) = 40.31812 59.91312 50.11562
# Shear Modulus (GPa) = 3.48472 31.38929 17.43701
#
# Velocity S-wave (km/s) = 1.29032 3.87263 2.88636
# Velocity P-wave (km/s) = 4.63499 6.97292 5.92051
#
# Compressibility (1/GPa) = 0.02480274
#
# Stress axis : x y z
#
# Youngs Moduli (GPa) = 136.02360 51.84406 124.77469
#
# Poissons Ratio (x) = 0.14311 0.37113
# Poissons Ratio (y) = 0.37549 -0.10092
# Poissons Ratio (z) = 0.40459 -0.04193
#
# Static dielectric constant tensor:
#      x y z
#    x 3.937960 0.000000 0.000000 
#    y 0.000000 3.356920 0.000000 
#    z 0.000000 0.000000 3.910920 
# 
# 
# High freq. dielectric constant tensor:
#      x y z
#    x 1.841490 0.000000 0.000000 
#    y 0.000000 1.786460 0.000000 
#    z 0.000000 0.000000 1.837810 
# 
# From -- ./inp_files/12932.got.cif
#   From: 2010.03.12/outbox.cif.g09.slc.cpg/sg51_7_cif.got.tgz:12932.got - 2010.04.16 13:43:02.
