data_PCOD8209163
_publ_section_title
;
Structure prediction by ZEFSAII (Michael W. Deem and Ramdas Pophale) SiO2 
 PCOD8209163
Probable space group: P M M A
;
_chemical_formula_sum "Si O2"
_cell_formula_units_Z 64
_cell_length_a 17.331055
_cell_length_b 13.663447
_cell_length_c 14.833569
_cell_angle_alpha 90.000000
_cell_angle_beta 90.000000
_cell_angle_gamma 90.000000
_cell_volume 3512.618086
_symmetry_space_group_name_H-M "P M M A"
_symmetry_group_IT_number 51
_symmetry_cell_setting 'orthorhombic'
loop_
_space_group_symop_operation_xyz
x,y,z
1/2-x,-y,z
1/2+x,-y,-z
-x,y,-z
-x,-y,-z
1/2+x,y,-z
1/2-x,y,z
x,-y,z
loop_
_atom_site_type_symbol
_atom_site_label
_atom_site_fract_x
_atom_site_fract_y
_atom_site_fract_z
Si Si1 0.589570 0.792551 0.302282
Si Si2 0.910939 0.271750 0.017605
Si Si3 0.838890 0.112769 0.132731
Si Si4 0.068812 0.389144 0.808304
Si Si5 0.391284 0.390201 0.152872
Si Si6 0.162222 0.888501 0.531164
Si Si7 0.052834 0.228408 0.417294
Si Si8 0.663928 0.388138 0.657519
O O1 0.606614 0.862637 0.217717
O O2 0.602303 0.679804 0.271362
O O3 0.647099 0.818102 0.383618
O O4 0.500705 0.807621 0.334355
O O5 0.865739 0.173792 0.045434
O O6 0.900470 0.353426 0.094906
O O7 0.873261 0.314416 0.926885
O O8 0.000000 0.246125 0.000000
O O9 0.750000 0.137281 0.156762
O O10 0.849235 0.000000 0.107469
O O11 0.096886 0.500000 0.790940
O O12 0.977047 0.380205 0.807761
O O13 0.378560 0.500000 0.115385
O O14 0.334890 0.365983 0.235466
O O15 0.250000 0.875291 0.499757
O O16 0.107530 0.861475 0.447068
O O17 0.144825 0.000000 0.560113
O O18 0.104305 0.321207 0.394506
O O19 0.000000 0.262857 0.500000
O O20 0.750000 0.368490 0.620651
O O21 0.638529 0.500000 0.640841
#
# Coordination Sequence:
#
# PCOD8209163 Si02
#       8
#     8   8   8   8   8   8   8   8
#     4  10  19  32  55  81 103 133 176 219 261 310
#     4   9  18  31  52  79 107 138 181 222 259 298
#     4  10  21  36  54  76 106 144 180 219 271 323
#     4   9  16  29  50  78 110 139 171 210 252 305
#     4   9  16  29  51  77 106 139 176 212 251 301
#     4  10  21  37  56  76 102 136 173 217 269 323
#     4  10  21  35  55  80 104 132 171 219 270 316
#     4  10  20  34  53  78 109 142 174 211 256 311
#
# _framework density 18.220029
#
# number of rings (size 3 to 8) (size 9 to 14) (size 15 to 20)
#    0.000    2.375    1.250    1.500    0.000    6.250 
#    0.000    1.875    0.000   13.125    0.000    1.750 
#    0.000    0.000    0.000    0.000    0.000    0.000 
#
# Total GULP energy -793527.581932 kJ/mol
# GULP energy per Si atom -12398.868468 kJ/mol
# Density = 1.817856 g / cm^3
# Si number density = 18.220029 Si / 1000 Ang^3
#
#
#
# Elastic Constant Matrix: (Units=GPa)
#
#
# Indices 1 2 3 4 5 6 
#
# 1 90.5499 59.8394 46.6289 0.0000 0.0000 0.0000
# 2 59.8394 127.7224 59.6776 0.0000 0.0000 0.0000
# 3 46.6289 59.6776 81.5028 0.0000 0.0000 0.0000
# 4 0.0000 0.0000 0.0000 28.7492 0.0000 0.0000
# 5 0.0000 0.0000 0.0000 0.0000 17.8337 0.0000
# 6 0.0000 0.0000 0.0000 0.0000 0.0000 27.7931
#
#
#
# Elastic Compliance Matrix: (Units=1/GPa)
#
#
# Indices 1 2 3 4 5 6 
#
# 1 0.017853 -0.005460 -0.006216 0.000000 0.000000 0.000000
# 2 -0.005460 0.013571 -0.006813 0.000000 0.000000 0.000000
# 3 -0.006216 -0.006813 0.020815 0.000000 0.000000 0.000000
# 4 0.000000 0.000000 0.000000 0.034784 0.000000 0.000000
# 5 0.000000 0.000000 0.000000 0.000000 0.056073 0.000000
# 6 0.000000 0.000000 0.000000 0.000000 0.000000 0.035980
#
#
# Mechanical properties :
#
#
# Convention : Reuss Voigt Hill
#
# Bulk Modulus (GPa) = 65.53050 70.22965 67.88008
# Shear Modulus (GPa) = 22.61012 23.78382 23.19697
#
# Velocity S-wave (km/s) = 3.52653 3.61691 3.57200
# Velocity P-wave (km/s) = 7.25439 7.48810 7.37217
#
# Compressibility (1/GPa) = 0.01526007
#
# Stress axis : x y z
#
# Youngs Moduli (GPa) = 56.01410 73.68728 48.04338
#
# Poissons Ratio (x) = 0.40231 0.29864
# Poissons Ratio (y) = 0.30582 0.32733
# Poissons Ratio (z) = 0.34819 0.50205
#
# Static dielectric constant tensor:
#      x y z
#    x 3.357060 0.000000 0.000000 
#    y 0.000000 3.349320 0.000000 
#    z 0.000000 0.000000 3.322510 
# 
# 
# High freq. dielectric constant tensor:
#      x y z
#    x 1.699840 0.000000 0.000000 
#    y 0.000000 1.700050 0.000000 
#    z 0.000000 0.000000 1.698840 
# 
# From -- ./inp_files/25223.got.cif
#   From: 2010.03.12/outbox.cif.g09.slc.cpg/sg51_13_cif.got.tgz:25223.got - 2010.04.16 13:43:02.
