data_PCOD8209950
_publ_section_title
;
Structure prediction by ZEFSAII (Michael W. Deem and Ramdas Pophale) SiO2 
 PCOD8209950
Probable space group: P M M A
;
_chemical_formula_sum "Si O2"
_cell_formula_units_Z 64
_cell_length_a 30.492044
_cell_length_b 9.527827
_cell_length_c 11.850388
_cell_angle_alpha 90.000000
_cell_angle_beta 90.000000
_cell_angle_gamma 90.000000
_cell_volume 3442.809326
_symmetry_space_group_name_H-M "P M M A"
_symmetry_group_IT_number 51
_symmetry_cell_setting 'orthorhombic'
loop_
_space_group_symop_operation_xyz
x,y,z
1/2-x,-y,z
1/2+x,-y,-z
-x,y,-z
-x,-y,-z
1/2+x,y,-z
1/2-x,y,z
x,-y,z
loop_
_atom_site_type_symbol
_atom_site_label
_atom_site_fract_x
_atom_site_fract_y
_atom_site_fract_z
Si Si1 0.452361 0.663302 0.954910
Si Si2 0.679640 0.159938 0.257272
Si Si3 0.701306 0.840447 0.010350
Si Si4 0.379681 0.665376 0.369777
Si Si5 0.078500 0.160459 0.752848
Si Si6 0.050818 0.164112 0.505004
Si Si7 0.700789 0.662460 0.474331
Si Si8 0.627967 0.335357 0.889977
O O1 0.447195 0.500000 0.928256
O O2 0.448317 0.744582 0.838248
O O3 0.500000 0.701023 0.000000
O O4 0.416275 0.712591 0.046202
O O5 0.704839 0.198638 0.142735
O O6 0.629345 0.185568 0.226905
O O7 0.696084 0.256946 0.357306
O O8 0.688218 0.000000 0.295344
O O9 0.750000 0.824454 0.958888
O O10 0.683927 0.000000 0.998059
O O11 0.669710 0.738654 0.943375
O O12 0.387920 0.500000 0.383376
O O13 0.422105 0.746622 0.414763
O O14 0.335355 0.713608 0.434922
O O15 0.374957 0.709213 0.239997
O O16 0.067814 0.208837 0.627060
O O17 0.064375 0.000000 0.772483
O O18 0.000000 0.204491 0.500000
O O19 0.058580 0.000000 0.480028
O O20 0.750000 0.688426 0.522978
O O21 0.693294 0.500000 0.446941
O O22 0.635583 0.500000 0.902494
#
# Coordination Sequence:
#
# PCOD8209950 Si02
#       8
#     8   8   8   8   8   8   8   8
#     4  10  22  38  57  83 115 148 186 233 279 327
#     4  10  19  35  58  83 113 145 181 226 276 330
#     4  10  21  37  57  82 111 143 181 227 278 329
#     4  10  22  39  58  81 111 147 188 230 274 328
#     4  10  20  36  59  85 112 145 184 226 277 332
#     4  10  22  39  58  84 116 147 184 231 278 328
#     4  10  21  36  55  81 111 143 181 226 275 326
#     4  10  22  39  57  80 111 148 188 229 276 329
#
# _framework density 18.589471
#
# number of rings (size 3 to 8) (size 9 to 14) (size 15 to 20)
#    0.000    2.000    2.500    0.375    1.750    4.000 
#    0.000    1.250    0.000    0.000    0.000    0.000 
#    0.000    0.000    0.000    0.000    0.000    0.000 
#
# Total GULP energy -793744.707500 kJ/mol
# GULP energy per Si atom -12402.261055 kJ/mol
# Density = 1.854716 g / cm^3
# Si number density = 18.589471 Si / 1000 Ang^3
#
#
#
# Elastic Constant Matrix: (Units=GPa)
#
#
# Indices 1 2 3 4 5 6 
#
# 1 101.1094 37.9920 48.9891 0.0000 0.0000 0.0000
# 2 37.9920 41.8649 38.3969 0.0000 0.0000 0.0000
# 3 48.9891 38.3969 91.2429 0.0000 0.0000 0.0000
# 4 0.0000 0.0000 0.0000 13.8412 0.0000 0.0000
# 5 0.0000 0.0000 0.0000 0.0000 25.3223 0.0000
# 6 0.0000 0.0000 0.0000 0.0000 0.0000 17.7625
#
#
#
# Elastic Compliance Matrix: (Units=1/GPa)
#
#
# Indices 1 2 3 4 5 6 
#
# 1 0.015858 -0.010719 -0.004003 0.000000 0.000000 0.000000
# 2 -0.010719 0.046146 -0.013664 0.000000 0.000000 0.000000
# 3 -0.004003 -0.013664 0.018859 0.000000 0.000000 0.000000
# 4 0.000000 0.000000 0.000000 0.072248 0.000000 0.000000
# 5 0.000000 0.000000 0.000000 0.000000 0.039491 0.000000
# 6 0.000000 0.000000 0.000000 0.000000 0.000000 0.056298
#
#
# Mechanical properties :
#
#
# Convention : Reuss Voigt Hill
#
# Bulk Modulus (GPa) = 41.51075 53.88591 47.69833
# Shear Modulus (GPa) = 15.93866 18.64115 17.28991
#
# Velocity S-wave (km/s) = 2.93132 3.17011 3.05305
# Velocity P-wave (km/s) = 5.81684 6.51534 6.17597
#
# Compressibility (1/GPa) = 0.02409014
#
# Stress axis : x y z
#
# Youngs Moduli (GPa) = 63.06112 21.67040 53.02424
#
# Poissons Ratio (x) = 0.23228 0.21227
# Poissons Ratio (y) = 0.67595 0.72453
# Poissons Ratio (z) = 0.25246 0.29611
#
# Static dielectric constant tensor:
#      x y z
#    x 3.590020 0.000000 0.000000 
#    y 0.000000 3.331160 0.000000 
#    z 0.000000 0.000000 3.383470 
# 
# 
# High freq. dielectric constant tensor:
#      x y z
#    x 1.735450 0.000000 0.000000 
#    y 0.000000 1.713790 0.000000 
#    z 0.000000 0.000000 1.721390 
# 
# From -- ./inp_files/19646.got.cif
#   From: 2010.03.12/outbox.cif.g09.slc.cpg/sg51_10_cif.got.tgz:19646.got - 2010.04.16 13:43:02.
