data_PCOD8209295
_publ_section_title
;
Structure prediction by ZEFSAII (Michael W. Deem and Ramdas Pophale) SiO2 
 PCOD8209295
Probable space group: P M M A
;
_chemical_formula_sum "Si O2"
_cell_formula_units_Z 52
_cell_length_a 8.864235
_cell_length_b 13.353375
_cell_length_c 24.749543
_cell_angle_alpha 90.000000
_cell_angle_beta 90.000000
_cell_angle_gamma 90.000000
_cell_volume 2929.540394
_symmetry_space_group_name_H-M "P M M A"
_symmetry_group_IT_number 51
_symmetry_cell_setting 'orthorhombic'
loop_
_space_group_symop_operation_xyz
x,y,z
1/2-x,-y,z
1/2+x,-y,-z
-x,y,-z
-x,-y,-z
1/2+x,y,-z
1/2-x,y,z
x,-y,z
loop_
_atom_site_type_symbol
_atom_site_label
_atom_site_fract_x
_atom_site_fract_y
_atom_site_fract_z
Si Si1 0.425088 0.175408 0.637085
Si Si2 0.072495 0.885181 0.055764
Si Si3 0.426924 0.000000 0.557976
Si Si4 0.575574 0.385775 0.784063
Si Si5 0.583051 0.883606 0.745922
Si Si6 0.075483 0.387393 0.671154
Si Si7 0.073270 0.781845 0.843302
O O1 0.250000 0.154633 0.649232
O O2 0.520992 0.142796 0.687771
O O3 0.451710 0.296571 0.627488
O O4 0.477786 0.103356 0.587992
O O5 0.250000 0.871788 0.051668
O O6 0.010687 0.817623 0.103485
O O7 0.026848 0.000000 0.067286
O O8 0.000000 0.847698 0.000000
O O9 0.500000 0.000000 0.500000
O O10 0.250000 0.000000 0.550082
O O11 0.750000 0.356869 0.788224
O O12 0.544766 0.500000 0.796132
O O13 0.519921 0.357727 0.723898
O O14 0.480421 0.330184 0.830084
O O15 0.750000 0.834984 0.753399
O O16 0.469775 0.847926 0.791814
O O17 0.598212 0.000000 0.752145
O O18 0.250000 0.388903 0.688297
O O19 0.029917 0.500000 0.649348
O O20 0.250000 0.786897 0.853635
#
# Coordination Sequence:
#
# PCOD8209295 Si02
#       7
#     8   8   4   8   8   8   8
#     4  10  19  33  53  77 106 140 175 221 270 321
#     4  10  21  38  58  79 105 138 179 225 271 322
#     4  10  22  38  56  78 106 144 191 228 273 326
#     4  10  20  33  50  75 108 142 177 220 269 321
#     4  11  22  33  48  75 109 142 174 214 270 327
#     4   9  17  30  50  77 107 140 176 214 267 330
#     4  12  23  34  52  77 107 144 182 220 266 323
#
# _framework density 17.750223999999999
#
# number of rings (size 3 to 8) (size 9 to 14) (size 15 to 20)
#    0.000    1.692    2.308    3.231    0.000    5.231 
#    0.000    0.000    0.000    0.923    0.000    0.000 
#    0.000    0.000    0.000    0.000    0.000    0.000 
#
# Total GULP energy -644517.956766 kJ/mol
# GULP energy per Si atom -12394.576092 kJ/mol
# Density = 1.770982 g / cm^3
# Si number density = 17.750224 Si / 1000 Ang^3
#
#
#
# Elastic Constant Matrix: (Units=GPa)
#
#
# Indices 1 2 3 4 5 6 
#
# 1 59.8625 19.3415 31.6527 0.0000 0.0000 0.0000
# 2 19.3415 197.4337 65.4554 0.0000 0.0000 0.0000
# 3 31.6527 65.4554 100.9423 0.0000 0.0000 0.0000
# 4 0.0000 0.0000 0.0000 -204.8751 0.0000 0.0000
# 5 0.0000 0.0000 0.0000 0.0000 31.4039 0.0000
# 6 0.0000 0.0000 0.0000 0.0000 0.0000 18.0304
#
#
#
# Elastic Compliance Matrix: (Units=1/GPa)
#
#
# Indices 1 2 3 4 5 6 
#
# 1 0.020029 0.000153 -0.006380 0.000000 0.000000 0.000000
# 2 0.000153 0.006453 -0.004233 0.000000 0.000000 0.000000
# 3 -0.006380 -0.004233 0.014652 0.000000 0.000000 0.000000
# 4 0.000000 0.000000 0.000000 -0.004881 0.000000 0.000000
# 5 0.000000 0.000000 0.000000 0.000000 0.031843 0.000000
# 6 0.000000 0.000000 0.000000 0.000000 0.000000 0.055462
#
#
# Mechanical properties :
#
#
# Convention : Reuss Voigt Hill
#
# Bulk Modulus (GPa) = 49.46754 65.68196 57.57475
# Shear Modulus (GPa) = 33.06556 -14.96890 9.04833
#
# Velocity S-wave (km/s) = 4.32073 -2.90713 2.26023
# Velocity P-wave (km/s) = 7.26779 5.08087 6.27041
#
# Compressibility (1/GPa) = 0.02021528
#
# Stress axis : x y z
#
# Youngs Moduli (GPa) = 49.92801 154.96151 68.25157
#
# Poissons Ratio (x) = -0.02370 0.43542
# Poissons Ratio (y) = -0.00764 0.28888
# Poissons Ratio (z) = 0.31852 0.65588
#
# Static dielectric constant tensor:
#      x y z
#    x 3.230840 0.000000 0.000000 
#    y 0.000000 3.791960 0.000000 
#    z 0.000000 0.000000 2.939990 
# 
# 
# High freq. dielectric constant tensor:
#      x y z
#    x 1.697710 0.000000 0.000000 
#    y 0.000000 1.703040 0.000000 
#    z 0.000000 0.000000 1.650660 
# 
# From -- ./inp_files/31691.got.cif
#   From: 2010.03.12/outbox.cif.g09.slc.cpg/sg51_16_cif.got.tgz:31691.got - 2010.04.16 13:43:02.
