data_PCOD8209641
_publ_section_title
;
Structure prediction by ZEFSAII (Michael W. Deem and Ramdas Pophale) SiO2 
 PCOD8209641
Probable space group: P M M A
;
_chemical_formula_sum "Si O2"
_cell_formula_units_Z 48
_cell_length_a 8.865649
_cell_length_b 20.381018
_cell_length_c 14.410992
_cell_angle_alpha 90.000000
_cell_angle_beta 90.000000
_cell_angle_gamma 90.000000
_cell_volume 2603.935862
_symmetry_space_group_name_H-M "P M M A"
_symmetry_group_IT_number 51
_symmetry_cell_setting 'orthorhombic'
loop_
_space_group_symop_operation_xyz
x,y,z
1/2-x,-y,z
1/2+x,-y,-z
-x,y,-z
-x,-y,-z
1/2+x,y,-z
1/2-x,y,z
x,-y,z
loop_
_atom_site_type_symbol
_atom_site_label
_atom_site_fract_x
_atom_site_fract_y
_atom_site_fract_z
Si Si1 0.426944 0.925388 0.405005
Si Si2 0.076643 0.573568 0.728030
Si Si3 0.427732 0.690917 0.600018
Si Si4 0.074063 0.236029 0.908016
Si Si5 0.928784 0.376191 0.905097
Si Si6 0.575996 0.181301 0.288007
O O1 0.500000 0.898955 0.500000
O O2 0.250000 0.919730 0.416279
O O3 0.480435 0.881032 0.319971
O O4 0.478349 0.000000 0.385244
O O5 0.250000 0.590208 0.753325
O O6 0.060828 0.500000 0.687559
O O7 0.016629 0.624612 0.651005
O O8 0.977375 0.577581 0.820684
O O9 0.500000 0.695500 0.500000
O O10 0.250000 0.690249 0.587696
O O11 0.481025 0.752955 0.660870
O O12 0.250000 0.250561 0.925080
O O13 0.050185 0.187257 0.822118
O O14 0.991341 0.303766 0.885242
O O15 0.000000 0.203725 0.000000
O O16 0.750000 0.374768 0.914301
O O17 0.000000 0.404454 0.000000
O O18 0.750000 0.168638 0.311686
#
# Coordination Sequence:
#
# PCOD8209641 Si02
#       6
#     8   8   8   8   8   8
#     4  10  21  36  55  82 116 150 186 225 267 320
#     4  10  21  39  58  74 102 143 181 224 276 326
#     4  10  21  37  54  78 107 137 178 224 270 320
#     4  10  19  34  55  82 113 143 179 221 268 321
#     4  11  21  34  55  80 108 139 175 221 272 327
#     4  10  20  35  57  82 112 145 180 224 269 319
#
# _framework density 18.433631999999999
#
# number of rings (size 3 to 8) (size 9 to 14) (size 15 to 20)
#    0.000    1.833    1.667    4.000    0.000    6.000 
#    0.000    0.000    0.000    0.500    0.000    0.000 
#    0.000    0.000    0.000    0.000    0.000    0.000 
#
# Total GULP energy -595336.747972 kJ/mol
# GULP energy per Si atom -12402.848916 kJ/mol
# Density = 1.839168 g / cm^3
# Si number density = 18.433632 Si / 1000 Ang^3
#
#
#
# Elastic Constant Matrix: (Units=GPa)
#
#
# Indices 1 2 3 4 5 6 
#
# 1 87.9346 36.2152 43.5877 0.0000 0.0000 0.0000
# 2 36.2152 91.1936 51.3409 0.0000 0.0000 0.0000
# 3 43.5877 51.3409 120.7520 0.0000 0.0000 0.0000
# 4 0.0000 0.0000 0.0000 26.6213 0.0000 0.0000
# 5 0.0000 0.0000 0.0000 0.0000 33.8974 0.0000
# 6 0.0000 0.0000 0.0000 0.0000 0.0000 24.4483
#
#
#
# Elastic Compliance Matrix: (Units=1/GPa)
#
#
# Indices 1 2 3 4 5 6 
#
# 1 0.014773 -0.003766 -0.003731 0.000000 0.000000 0.000000
# 2 -0.003766 0.015377 -0.005178 0.000000 0.000000 0.000000
# 3 -0.003731 -0.005178 0.011830 0.000000 0.000000 0.000000
# 4 0.000000 0.000000 0.000000 0.037564 0.000000 0.000000
# 5 0.000000 0.000000 0.000000 0.000000 0.029501 0.000000
# 6 0.000000 0.000000 0.000000 0.000000 0.000000 0.040903
#
#
# Mechanical properties :
#
#
# Convention : Reuss Voigt Hill
#
# Bulk Modulus (GPa) = 60.13920 62.46309 61.30114
# Shear Modulus (GPa) = 27.64871 28.24250 27.94561
#
# Velocity S-wave (km/s) = 3.87706 3.91847 3.89782
# Velocity P-wave (km/s) = 7.26207 7.37777 7.32015
#
# Compressibility (1/GPa) = 0.01662809
#
# Stress axis : x y z
#
# Youngs Moduli (GPa) = 67.69307 65.03399 84.53058
#
# Poissons Ratio (x) = 0.24491 0.31541
# Poissons Ratio (y) = 0.25492 0.43773
# Poissons Ratio (z) = 0.25258 0.33677
#
# Static dielectric constant tensor:
#      x y z
#    x 3.403760 0.000000 0.000000 
#    y 0.000000 3.289330 0.000000 
#    z 0.000000 0.000000 3.506670 
# 
# 
# High freq. dielectric constant tensor:
#      x y z
#    x 1.717390 0.000000 0.000000 
#    y 0.000000 1.698070 0.000000 
#    z 0.000000 0.000000 1.717780 
# 
# From -- ./inp_files/21089.got.cif
#   From: 2010.03.12/outbox.cif.g09.slc.cpg/sg51_11_cif.got.tgz:21089.got - 2010.04.16 13:43:02.
