data_PCOD8209751
_publ_section_title
;
Structure prediction by ZEFSAII (Michael W. Deem and Ramdas Pophale) SiO2 
 PCOD8209751
Probable space group: P M M A
;
_chemical_formula_sum "Si O2"
_cell_formula_units_Z 56
_cell_length_a 15.973707
_cell_length_b 9.325917
_cell_length_c 19.242790
_cell_angle_alpha 90.000000
_cell_angle_beta 90.000000
_cell_angle_gamma 90.000000
_cell_volume 2866.588144
_symmetry_space_group_name_H-M "P M M A"
_symmetry_group_IT_number 51
_symmetry_cell_setting 'orthorhombic'
loop_
_space_group_symop_operation_xyz
x,y,z
1/2-x,-y,z
1/2+x,-y,-z
-x,y,-z
-x,-y,-z
1/2+x,y,-z
1/2-x,y,z
x,-y,z
loop_
_atom_site_type_symbol
_atom_site_label
_atom_site_fract_x
_atom_site_fract_y
_atom_site_fract_z
Si Si1 0.505329 0.669880 0.423167
Si Si2 0.511959 0.341441 0.168904
Si Si3 0.100290 0.335034 0.295200
Si Si4 0.750000 0.830270 0.774792
Si Si5 0.157664 0.663391 0.664748
Si Si6 0.414098 0.334915 0.038374
Si Si7 0.250000 0.170502 0.061999
Si Si8 0.341959 0.163954 0.805717
O O1 0.500000 0.739741 0.500000
O O2 0.507200 0.500000 0.429527
O O3 0.427139 0.712761 0.373131
O O4 0.592550 0.724996 0.391139
O O5 0.548074 0.500000 0.156415
O O6 0.483309 0.319457 0.248339
O O7 0.431434 0.316764 0.120488
O O8 0.586877 0.234791 0.146179
O O9 0.132265 0.500000 0.293608
O O10 0.170126 0.230962 0.265392
O O11 0.750000 0.787904 0.856208
O O12 0.750000 0.000000 0.766659
O O13 0.250000 0.670868 0.630801
O O14 0.134984 0.500000 0.686168
O O15 0.154991 0.758851 0.732525
O O16 0.393414 0.500000 0.018621
O O17 0.332604 0.236326 0.024004
O O18 0.500000 0.284482 0.000000
O O19 0.250000 0.000000 0.050496
O O20 0.250000 0.181309 0.840264
O O21 0.365098 0.000000 0.794058
#
# Coordination Sequence:
#
# PCOD8209751 Si02
#       8
#     8   8   8   4   8   8   4   8
#     4   9  17  31  50  77 109 137 175 228 282 335
#     4  10  19  34  58  84 108 139 184 234 281 332
#     4  10  19  34  57  83 108 141 183 232 288 335
#     4  11  23  37  57  87 117 146 187 234 284 338
#     4   9  16  29  50  73  98 132 174 217 262 314
#     4  10  22  41  64  88 117 154 197 244 291 343
#     4  11  23  39  63  93 123 160 197 238 296 354
#     4  10  20  32  49  76 108 142 178 219 269 324
#
# _framework density 19.535416999999999
#
# number of rings (size 3 to 8) (size 9 to 14) (size 15 to 20)
#    0.000    2.143    2.857    0.857    0.000    2.857 
#    2.571    0.000    0.000    1.714    0.000    0.000 
#    0.000    0.000    0.000    0.000    0.000    0.000 
#
# Total GULP energy -694076.568334 kJ/mol
# GULP energy per Si atom -12394.224435 kJ/mol
# Density = 1.949095 g / cm^3
# Si number density = 19.535417 Si / 1000 Ang^3
#
#
#
# Elastic Constant Matrix: (Units=GPa)
#
#
# Indices 1 2 3 4 5 6 
#
# 1 129.1234 62.8507 21.7869 0.0000 0.0000 0.0000
# 2 62.8507 90.0063 14.4569 0.0000 0.0000 0.0000
# 3 21.7869 14.4569 50.5616 0.0000 0.0000 0.0000
# 4 0.0000 0.0000 0.0000 4.4724 0.0000 0.0000
# 5 0.0000 0.0000 0.0000 0.0000 25.0205 0.0000
# 6 0.0000 0.0000 0.0000 0.0000 0.0000 27.0448
#
#
#
# Elastic Compliance Matrix: (Units=1/GPa)
#
#
# Indices 1 2 3 4 5 6 
#
# 1 0.012136 -0.008002 -0.002941 0.000000 0.000000 0.000000
# 2 -0.008002 0.016921 -0.001390 0.000000 0.000000 0.000000
# 3 -0.002941 -0.001390 0.021443 0.000000 0.000000 0.000000
# 4 0.000000 0.000000 0.000000 0.223592 0.000000 0.000000
# 5 0.000000 0.000000 0.000000 0.000000 0.039967 0.000000
# 6 0.000000 0.000000 0.000000 0.000000 0.000000 0.036976
#
#
# Mechanical properties :
#
#
# Convention : Reuss Voigt Hill
#
# Bulk Modulus (GPa) = 38.71031 51.98672 45.34852
# Shear Modulus (GPa) = 13.01023 22.68065 17.84544
#
# Velocity S-wave (km/s) = 2.58346 3.41104 3.02568
# Velocity P-wave (km/s) = 5.36260 6.49484 5.95569
#
# Compressibility (1/GPa) = 0.02583291
#
# Stress axis : x y z
#
# Youngs Moduli (GPa) = 82.40151 59.09731 46.63573
#
# Poissons Ratio (x) = 0.47289 0.13717
# Poissons Ratio (y) = 0.65936 0.06484
# Poissons Ratio (z) = 0.24237 0.08216
#
# Static dielectric constant tensor:
#      x y z
#    x 3.844860 0.000000 0.000000 
#    y 0.000000 3.391740 0.000000 
#    z 0.000000 0.000000 3.620440 
# 
# 
# High freq. dielectric constant tensor:
#      x y z
#    x 1.771870 0.000000 0.000000 
#    y 0.000000 1.734020 0.000000 
#    z 0.000000 0.000000 1.745270 
# 
# From -- ./inp_files/33609.got.cif
#   From: 2010.03.12/outbox.cif.g09.slc.cpg/sg51_17_cif.got.tgz:33609.got - 2010.04.16 13:43:02.
