data_PCOD8209158
_publ_section_title
;
Structure prediction by ZEFSAII (Michael W. Deem and Ramdas Pophale) SiO2 
 PCOD8209158
Probable space group: P M M A
;
_chemical_formula_sum "Si O2"
_cell_formula_units_Z 28
_cell_length_a 8.836442
_cell_length_b 7.596625
_cell_length_c 19.672689
_cell_angle_alpha 90.000000
_cell_angle_beta 90.000000
_cell_angle_gamma 90.000000
_cell_volume 1320.571274
_symmetry_space_group_name_H-M "P M M A"
_symmetry_group_IT_number 51
_symmetry_cell_setting 'orthorhombic'
loop_
_space_group_symop_operation_xyz
x,y,z
1/2-x,-y,z
1/2+x,-y,-z
-x,y,-z
-x,-y,-z
1/2+x,y,-z
1/2-x,y,z
x,-y,z
loop_
_atom_site_type_symbol
_atom_site_label
_atom_site_fract_x
_atom_site_fract_y
_atom_site_fract_z
Si Si1 0.423381 0.301221 0.340546
Si Si2 0.576708 0.791573 0.204624
Si Si3 0.420324 0.790498 0.067479
Si Si4 0.571535 0.000000 0.426365
O O1 0.250000 0.237098 0.342974
O O2 0.438621 0.500000 0.368537
O O3 0.479864 0.298541 0.263317
O O4 0.523624 0.174930 0.386817
O O5 0.750000 0.731282 0.210775
O O6 0.512494 0.723705 0.132862
O O7 0.560930 0.000000 0.211796
O O8 0.250000 0.716917 0.071100
O O9 0.419850 0.000000 0.065298
O O10 0.500000 0.714617 0.000000
O O11 0.500000 0.000000 0.500000
O O12 0.750000 0.000000 0.433495
#
# Coordination Sequence:
#
# PCOD8209158 Si02
#       4
#     8   8   8   4
#     4  11  24  42  66  96 130 168 210 257 309 368
#     4  10  19  32  54  84 118 160 207 257 312 370
#     4   9  16  26  43  71 109 153 202 258 313 370
#     4  12  26  46  72 100 131 168 205 252 306 366
#
# _framework density 21.202945
#
# number of rings (size 3 to 8) (size 9 to 14) (size 15 to 20)
#    0.000    1.714    1.429    3.857    0.000    7.429 
#    0.000    0.000    0.000    0.857    0.000    0.000 
#    0.000    0.000    0.000    0.000    0.000    0.000 
#
# Total GULP energy -347308.419947 kJ/mol
# GULP energy per Si atom -12403.872141 kJ/mol
# Density = 2.115469 g / cm^3
# Si number density = 21.202945 Si / 1000 Ang^3
#
#
#
# Elastic Constant Matrix: (Units=GPa)
#
#
# Indices 1 2 3 4 5 6 
#
# 1 180.1325 41.4594 64.3983 0.0000 0.0000 0.0000
# 2 41.4594 72.0377 38.7724 0.0000 0.0000 0.0000
# 3 64.3983 38.7724 154.3773 0.0000 0.0000 0.0000
# 4 0.0000 0.0000 0.0000 -6.0920 0.0000 0.0000
# 5 0.0000 0.0000 0.0000 0.0000 47.8407 0.0000
# 6 0.0000 0.0000 0.0000 0.0000 0.0000 11.7981
#
#
#
# Elastic Compliance Matrix: (Units=1/GPa)
#
#
# Indices 1 2 3 4 5 6 
#
# 1 0.006993 -0.002838 -0.002204 0.000000 0.000000 0.000000
# 2 -0.002838 0.017203 -0.003137 0.000000 0.000000 0.000000
# 3 -0.002204 -0.003137 0.008185 0.000000 0.000000 0.000000
# 4 0.000000 0.000000 0.000000 -0.164149 0.000000 0.000000
# 5 0.000000 0.000000 0.000000 0.000000 0.020903 0.000000
# 6 0.000000 0.000000 0.000000 0.000000 0.000000 0.084760
#
#
# Mechanical properties :
#
#
# Convention : Reuss Voigt Hill
#
# Bulk Modulus (GPa) = 62.41106 77.31196 69.86151
# Shear Modulus (GPa) = -1134.58134 28.17051 -553.20541
#
# Velocity S-wave (km/s) = -23.15744 3.64897 -16.17022
# Velocity P-wave (km/s) = 26.18251 7.36853 17.76554
#
# Compressibility (1/GPa) = 0.01602280
#
# Stress axis : x y z
#
# Youngs Moduli (GPa) = 143.00629 58.12835 122.17585
#
# Poissons Ratio (x) = 0.16497 0.26930
# Poissons Ratio (y) = 0.40587 0.38324
# Poissons Ratio (z) = 0.31521 0.18233
#
# Static dielectric constant tensor:
#      x y z
#    x 4.334790 0.000000 0.000000 
#    y 0.000000 3.598250 0.000000 
#    z 0.000000 0.000000 4.016430 
# 
# 
# High freq. dielectric constant tensor:
#      x y z
#    x 1.847750 0.000000 0.000000 
#    y 0.000000 1.813950 0.000000 
#    z 0.000000 0.000000 1.834250 
# 
# From -- ./inp_files/26858.got.cif
#   From: 2010.03.12/outbox.cif.g09.slc.cpg/sg51_14_cif.got.tgz:26858.got - 2010.04.16 13:43:02.
