data_PCOD8209221
_publ_section_title
;
Structure prediction by ZEFSAII (Michael W. Deem and Ramdas Pophale) SiO2 
 PCOD8209221
Probable space group: P M M A
;
_chemical_formula_sum "Si O2"
_cell_formula_units_Z 40
_cell_length_a 14.421266
_cell_length_b 8.638159
_cell_length_c 17.393583
_cell_angle_alpha 90.000000
_cell_angle_beta 90.000000
_cell_angle_gamma 90.000000
_cell_volume 2166.774097
_symmetry_space_group_name_H-M "P M M A"
_symmetry_group_IT_number 51
_symmetry_cell_setting 'orthorhombic'
loop_
_space_group_symop_operation_xyz
x,y,z
1/2-x,-y,z
1/2+x,-y,-z
-x,y,-z
-x,-y,-z
1/2+x,y,-z
1/2-x,y,z
x,-y,z
loop_
_atom_site_type_symbol
_atom_site_label
_atom_site_fract_x
_atom_site_fract_y
_atom_site_fract_z
Si Si1 0.515046 0.316198 0.380033
Si Si2 0.439947 0.817221 0.072267
Si Si3 0.945309 0.684403 0.209926
Si Si4 0.353449 0.315682 0.486686
Si Si5 0.750000 0.683046 0.147435
Si Si6 0.750000 0.316728 0.974647
O O1 0.518403 0.500000 0.378613
O O2 0.528308 0.251948 0.294244
O O3 0.415976 0.260422 0.414288
O O4 0.598542 0.256165 0.434588
O O5 0.486036 0.764432 0.150933
O O6 0.339185 0.742177 0.070506
O O7 0.430306 0.000000 0.069795
O O8 0.500000 0.756004 0.000000
O O9 0.954925 0.500000 0.203165
O O10 0.840745 0.740519 0.192547
O O11 0.250000 0.244696 0.479708
O O12 0.348457 0.500000 0.487785
O O13 0.750000 0.500000 0.142115
O O14 0.750000 0.752187 0.061249
O O15 0.750000 0.500000 0.975697
#
# Coordination Sequence:
#
# PCOD8209221 Si02
#       6
#     8   8   8   8   4   4
#     4   8  15  25  40  65  97 131 167 209 260 314
#     4  11  23  38  55  76 106 142 176 213 264 321
#     4  10  19  33  51  76 105 135 176 224 268 312
#     4   8  13  23  39  62  95 132 164 203 260 318
#     4   9  18  29  49  77 102 127 168 224 271 305
#     4  11  21  37  59  79 100 135 180 224 267 309
#
# _framework density 18.460622999999998
#
# number of rings (size 3 to 8) (size 9 to 14) (size 15 to 20)
#    0.000    2.600    2.000    2.100    1.400    0.800 
#    1.800    0.500    0.000    0.000    0.000    2.800 
#    0.000    1.600    0.000    0.000    0.000    0.000 
#
# Total GULP energy -495908.159860 kJ/mol
# GULP energy per Si atom -12397.703996 kJ/mol
# Density = 1.841861 g / cm^3
# Si number density = 18.460623 Si / 1000 Ang^3
#
#
#
# Elastic Constant Matrix: (Units=GPa)
#
#
# Indices 1 2 3 4 5 6 
#
# 1 190.4150 23.0646 92.6110 0.0000 0.0000 0.0000
# 2 23.0646 27.8738 18.5627 0.0000 0.0000 0.0000
# 3 92.6110 18.5627 167.5514 0.0000 0.0000 0.0000
# 4 0.0000 0.0000 0.0000 10.0302 0.0000 0.0000
# 5 0.0000 0.0000 0.0000 0.0000 27.0500 0.0000
# 6 0.0000 0.0000 0.0000 0.0000 0.0000 10.0816
#
#
#
# Elastic Compliance Matrix: (Units=1/GPa)
#
#
# Indices 1 2 3 4 5 6 
#
# 1 0.007526 -0.003733 -0.003746 0.000000 0.000000 0.000000
# 2 -0.003733 0.040585 -0.002433 0.000000 0.000000 0.000000
# 3 -0.003746 -0.002433 0.008309 0.000000 0.000000 0.000000
# 4 0.000000 0.000000 0.000000 0.099699 0.000000 0.000000
# 5 0.000000 0.000000 0.000000 0.000000 0.036969 0.000000
# 6 0.000000 0.000000 0.000000 0.000000 0.000000 0.099191
#
#
# Mechanical properties :
#
#
# Convention : Reuss Voigt Hill
#
# Bulk Modulus (GPa) = 27.32591 72.70184 50.01388
# Shear Modulus (GPa) = 15.41784 26.20582 20.81183
#
# Velocity S-wave (km/s) = 2.89307 3.77178 3.36127
# Velocity P-wave (km/s) = 5.09845 7.64435 6.49732
#
# Compressibility (1/GPa) = 0.03659530
#
# Stress axis : x y z
#
# Youngs Moduli (GPa) = 132.87545 24.63969 120.35776
#
# Poissons Ratio (x) = 0.09197 0.45089
# Poissons Ratio (y) = 0.49596 0.29286
# Poissons Ratio (z) = 0.49778 0.05995
#
# Static dielectric constant tensor:
#      x y z
#    x 3.639440 0.000000 0.000000 
#    y 0.000000 2.852250 0.000000 
#    z 0.000000 0.000000 3.613100 
# 
# 
# High freq. dielectric constant tensor:
#      x y z
#    x 1.728480 0.000000 0.000000 
#    y 0.000000 1.663700 0.000000 
#    z 0.000000 0.000000 1.718290 
# 
# From -- ./inp_files/23816.got.cif
#   From: 2010.03.12/outbox.cif.g09.slc.cpg/sg51_12_cif.got.tgz:23816.got - 2010.04.16 13:43:02.
