data_PCOD8209606
_publ_section_title
;
Structure prediction by ZEFSAII (Michael W. Deem and Ramdas Pophale) SiO2 
 PCOD8209606
Probable space group: P M M A
;
_chemical_formula_sum "Si O2"
_cell_formula_units_Z 64
_cell_length_a 9.264582
_cell_length_b 19.258837
_cell_length_c 20.696920
_cell_angle_alpha 90.000000
_cell_angle_beta 90.000000
_cell_angle_gamma 90.000000
_cell_volume 3692.849495
_symmetry_space_group_name_H-M "P M M A"
_symmetry_group_IT_number 51
_symmetry_cell_setting 'orthorhombic'
loop_
_space_group_symop_operation_xyz
x,y,z
1/2-x,-y,z
1/2+x,-y,-z
-x,y,-z
-x,-y,-z
1/2+x,y,-z
1/2-x,y,z
x,-y,z
loop_
_atom_site_type_symbol
_atom_site_label
_atom_site_fract_x
_atom_site_fract_y
_atom_site_fract_z
Si Si1 0.420131 0.294774 0.562771
Si Si2 0.419076 0.795869 0.686890
Si Si3 0.083710 0.420892 0.384020
Si Si4 0.418641 0.920996 0.265582
Si Si5 0.917104 0.787613 0.063531
Si Si6 0.917098 0.578147 0.765486
Si Si7 0.085344 0.077679 0.865146
Si Si8 0.580014 0.293748 0.190397
O O1 0.500000 0.263521 0.500000
O O2 0.250000 0.298712 0.550742
O O3 0.459912 0.245684 0.622585
O O4 0.479137 0.372249 0.574694
O O5 0.250000 0.811647 0.690961
O O6 0.503657 0.868971 0.684647
O O7 0.472544 0.751904 0.748730
O O8 0.250000 0.399391 0.395419
O O9 0.058224 0.500000 0.406327
O O10 0.041916 0.412622 0.309247
O O11 0.250000 0.904601 0.263757
O O12 0.481055 0.908105 0.194478
O O13 0.448952 0.000000 0.288135
O O14 0.750000 0.774845 0.050293
O O15 0.950878 0.868645 0.077776
O O16 0.970269 0.743117 0.124688
O O17 0.000000 0.763048 0.000000
O O18 0.750000 0.594490 0.776393
O O19 0.953779 0.500000 0.788038
O O20 0.009268 0.630541 0.808563
O O21 0.250000 0.089863 0.840900
O O22 0.064162 0.000000 0.892684
O O23 0.750000 0.303477 0.193504
#
# Coordination Sequence:
#
# PCOD8209606 Si02
#       8
#     8   8   8   8   8   8   8   8
#     4  11  23  37  54  77 106 140 178 218 261 311
#     4  10  20  36  56  78 104 138 177 215 259 312
#     4   9  18  33  52  76 108 143 177 212 254 307
#     4  10  20  32  51  82 111 134 169 218 264 305
#     4  10  21  35  50  73 105 139 176 217 259 308
#     4   9  18  32  52  80 109 135 168 213 264 312
#     4   9  17  32  52  72 102 144 179 209 252 305
#     4  10  19  34  54  78 105 134 175 220 258 306
#
# _framework density 17.330791000000001
#
# number of rings (size 3 to 8) (size 9 to 14) (size 15 to 20)
#    0.000    2.250    2.500    1.500    0.000    4.250 
#    0.000    1.250    0.000    0.750    0.000    0.000 
#    0.000    0.000    0.000    0.000    0.000    0.000 
#
# Total GULP energy -793686.871355 kJ/mol
# GULP energy per Si atom -12401.357365 kJ/mol
# Density = 1.729135 g / cm^3
# Si number density = 17.330791 Si / 1000 Ang^3
#
#
#
# Elastic Constant Matrix: (Units=GPa)
#
#
# Indices 1 2 3 4 5 6 
#
# 1 65.5616 49.5027 49.6999 0.0000 0.0000 0.0000
# 2 49.5027 101.7605 58.1386 0.0000 0.0000 0.0000
# 3 49.6999 58.1386 114.6116 0.0000 0.0000 0.0000
# 4 0.0000 0.0000 0.0000 21.6079 0.0000 0.0000
# 5 0.0000 0.0000 0.0000 0.0000 28.2493 0.0000
# 6 0.0000 0.0000 0.0000 0.0000 0.0000 32.8209
#
#
#
# Elastic Compliance Matrix: (Units=1/GPa)
#
#
# Indices 1 2 3 4 5 6 
#
# 1 0.027898 -0.009377 -0.007341 0.000000 0.000000 0.000000
# 2 -0.009377 0.016989 -0.004552 0.000000 0.000000 0.000000
# 3 -0.007341 -0.004552 0.014217 0.000000 0.000000 0.000000
# 4 0.000000 0.000000 0.000000 0.046279 0.000000 0.000000
# 5 0.000000 0.000000 0.000000 0.000000 0.035399 0.000000
# 6 0.000000 0.000000 0.000000 0.000000 0.000000 0.030468
#
#
# Mechanical properties :
#
#
# Convention : Reuss Voigt Hill
#
# Bulk Modulus (GPa) = 60.36879 66.29069 63.32974
# Shear Modulus (GPa) = 22.79845 24.84177 23.82011
#
# Velocity S-wave (km/s) = 3.63090 3.79012 3.71136
# Velocity P-wave (km/s) = 7.24478 7.58199 7.41530
#
# Compressibility (1/GPa) = 0.01656485
#
# Stress axis : x y z
#
# Youngs Moduli (GPa) = 35.84466 58.86072 70.33678
#
# Poissons Ratio (x) = 0.55196 0.51633
# Poissons Ratio (y) = 0.33613 0.32015
# Poissons Ratio (z) = 0.26313 0.26792
#
# Static dielectric constant tensor:
#      x y z
#    x 3.164470 0.000000 0.000000 
#    y 0.000000 3.315460 0.000000 
#    z 0.000000 0.000000 3.028370 
# 
# 
# High freq. dielectric constant tensor:
#      x y z
#    x 1.669140 0.000000 0.000000 
#    y 0.000000 1.671420 0.000000 
#    z 0.000000 0.000000 1.644710 
# 
# From -- ./inp_files/32440.got.cif
#   From: 2010.03.12/outbox.cif.g09.slc.cpg/sg51_17_cif.got.tgz:32440.got - 2010.04.16 13:43:02.
