data_PCOD8209961
_publ_section_title
;
Structure prediction by ZEFSAII (Michael W. Deem and Ramdas Pophale) SiO2 
 PCOD8209961
Probable space group: P M M A
;
_chemical_formula_sum "Si O2"
_cell_formula_units_Z 48
_cell_length_a 8.626433
_cell_length_b 30.986089
_cell_length_c 8.988464
_cell_angle_alpha 90.000000
_cell_angle_beta 90.000000
_cell_angle_gamma 90.000000
_cell_volume 2402.611220
_symmetry_space_group_name_H-M "P M M A"
_symmetry_group_IT_number 51
_symmetry_cell_setting 'orthorhombic'
loop_
_space_group_symop_operation_xyz
x,y,z
1/2-x,-y,z
1/2+x,-y,-z
-x,y,-z
-x,-y,-z
1/2+x,y,-z
1/2-x,y,z
x,-y,z
loop_
_atom_site_type_symbol
_atom_site_label
_atom_site_fract_x
_atom_site_fract_y
_atom_site_fract_z
Si Si1 0.429416 0.000000 0.159225
Si Si2 0.565808 0.748782 0.838152
Si Si3 0.566094 0.580743 0.836376
Si Si4 0.566680 0.172267 0.337764
Si Si5 0.433696 0.500000 0.663535
Si Si6 0.932438 0.334796 0.662007
Si Si7 0.066253 0.093715 0.166219
O O1 0.475143 0.045817 0.234701
O O2 0.250000 0.000000 0.131461
O O3 0.500000 0.000000 0.000000
O O4 0.750000 0.752299 0.844654
O O5 0.496489 0.792991 0.777774
O O6 0.508379 0.709753 0.733720
O O7 0.500000 0.739453 0.000000
O O8 0.750000 0.575663 0.838847
O O9 0.492687 0.542236 0.745002
O O10 0.511787 0.625570 0.763280
O O11 0.500000 0.579215 0.000000
O O12 0.500000 0.181920 0.500000
O O13 0.750000 0.174827 0.345313
O O14 0.514358 0.125609 0.281240
O O15 0.250000 0.500000 0.659060
O O16 0.500000 0.500000 0.500000
O O17 0.750000 0.334401 0.648520
O O18 0.000000 0.340579 0.500000
O O19 0.250000 0.102198 0.161521
O O20 0.000000 0.099929 0.000000
#
# Coordination Sequence:
#
# PCOD8209961 Si02
#       7
#     4   8   8   8   4   8   8
#     4   8  16  30  53  82 113 146 186 232 282 336
#     4  11  23  41  63  90 119 153 194 240 289 344
#     4  11  23  41  63  91 123 160 202 248 297 351
#     4  12  25  41  59  83 114 152 193 239 290 346
#     4  12  25  42  63  90 122 160 202 250 301 356
#     4  10  23  40  62  90 122 157 197 241 293 349
#     4  10  19  35  58  86 116 150 190 236 285 340
#
# _framework density 19.978263999999999
#
# number of rings (size 3 to 8) (size 9 to 14) (size 15 to 20)
#    0.000    1.333    0.000    6.000    0.000    6.000 
#    0.000    0.417    0.000    0.000    0.000    0.000 
#    0.000    0.000    0.000    0.000    0.000    0.000 
#
# Total GULP energy -595212.565040 kJ/mol
# GULP energy per Si atom -12400.261772 kJ/mol
# Density = 1.993279 g / cm^3
# Si number density = 19.978264 Si / 1000 Ang^3
#
#
#
# Elastic Constant Matrix: (Units=GPa)
#
#
# Indices 1 2 3 4 5 6 
#
# 1 106.5880 53.1661 45.8587 0.0000 0.0000 0.0000
# 2 53.1661 148.2987 52.7178 0.0000 0.0000 0.0000
# 3 45.8587 52.7178 131.8293 0.0000 0.0000 0.0000
# 4 0.0000 0.0000 0.0000 40.8208 0.0000 0.0000
# 5 0.0000 0.0000 0.0000 0.0000 40.0582 0.0000
# 6 0.0000 0.0000 0.0000 0.0000 0.0000 570.4585
#
#
#
# Elastic Compliance Matrix: (Units=1/GPa)
#
#
# Indices 1 2 3 4 5 6 
#
# 1 0.012330 -0.003376 -0.002939 0.000000 0.000000 0.000000
# 2 -0.003376 0.008785 -0.002339 0.000000 0.000000 0.000000
# 3 -0.002939 -0.002339 0.009543 0.000000 0.000000 0.000000
# 4 0.000000 0.000000 0.000000 0.024497 0.000000 0.000000
# 5 0.000000 0.000000 0.000000 0.000000 0.024964 0.000000
# 6 0.000000 0.000000 0.000000 0.000000 0.000000 0.001753
#
#
# Mechanical properties :
#
#
# Convention : Reuss Voigt Hill
#
# Bulk Modulus (GPa) = 74.90109 76.68902 75.79506
# Shear Modulus (GPa) = 48.24860 145.93240 97.09050
#
# Velocity S-wave (km/s) = 4.91965 8.55594 6.97879
# Velocity P-wave (km/s) = 8.35723 11.66512 10.14688
#
# Compressibility (1/GPa) = 0.01335094
#
# Stress axis : x y z
#
# Youngs Moduli (GPa) = 81.10095 113.83442 104.78548
#
# Poissons Ratio (x) = 0.38426 0.30801
# Poissons Ratio (y) = 0.27376 0.24506
# Poissons Ratio (z) = 0.23839 0.26622
#
# Static dielectric constant tensor:
#      x y z
#    x 3.751020 0.000000 0.000000 
#    y 0.000000 4.223300 0.000000 
#    z 0.000000 0.000000 3.588540 
# 
# 
# High freq. dielectric constant tensor:
#      x y z
#    x 1.791120 0.000000 0.000000 
#    y 0.000000 1.806390 0.000000 
#    z 0.000000 0.000000 1.778200 
# 
# From -- ./inp_files/6162.got.cif
#   From: 2010.03.12/outbox.cif.g09.slc.cpg/sg51_4_cif.got.tgz:6162.got - 2010.04.16 13:43:02.
