data_PCOD8209513
_publ_section_title
;
Structure prediction by ZEFSAII (Michael W. Deem and Ramdas Pophale) SiO2 
 PCOD8209513
Probable space group: P M M A
;
_chemical_formula_sum "Si O2"
_cell_formula_units_Z 64
_cell_length_a 18.318242
_cell_length_b 9.426269
_cell_length_c 19.875969
_cell_angle_alpha 90.000000
_cell_angle_beta 90.000000
_cell_angle_gamma 90.000000
_cell_volume 3432.036769
_symmetry_space_group_name_H-M "P M M A"
_symmetry_group_IT_number 51
_symmetry_cell_setting 'orthorhombic'
loop_
_space_group_symop_operation_xyz
x,y,z
1/2-x,-y,z
1/2+x,-y,-z
-x,y,-z
-x,-y,-z
1/2+x,y,-z
1/2-x,y,z
x,-y,z
loop_
_atom_site_type_symbol
_atom_site_label
_atom_site_fract_x
_atom_site_fract_y
_atom_site_fract_z
Si Si1 0.835840 0.666921 0.893523
Si Si2 0.168584 0.842014 0.354310
Si Si3 0.448454 0.335061 0.601813
Si Si4 0.074091 0.836084 0.735305
Si Si5 0.331730 0.167934 0.857520
Si Si6 0.602914 0.664148 0.540775
Si Si7 0.085020 0.833013 0.990637
Si Si8 0.912444 0.164530 0.776229
O O1 0.750000 0.696552 0.886744
O O2 0.852694 0.500000 0.896945
O O3 0.877479 0.733714 0.830775
O O4 0.865505 0.742722 0.959600
O O5 0.250000 0.838795 0.325203
O O6 0.166326 0.749520 0.422014
O O7 0.116332 0.782902 0.296062
O O8 0.143937 0.000000 0.373960
O O9 0.447711 0.500000 0.620781
O O10 0.421566 0.249142 0.666098
O O11 0.394853 0.303413 0.538835
O O12 0.527872 0.287302 0.576426
O O13 0.136669 0.779044 0.785846
O O14 0.999008 0.814950 0.775920
O O15 0.085266 0.000000 0.716447
O O16 0.250000 0.231384 0.868157
O O17 0.387040 0.213104 0.916850
O O18 0.327501 0.000000 0.856137
O O19 0.615901 0.500000 0.553497
O O20 0.097101 0.000000 0.004600
O O21 0.000000 0.793413 0.000000
O O22 0.890963 0.000000 0.790265
#
# Coordination Sequence:
#
# PCOD8209513 Si02
#       8
#     8   8   8   8   8   8   8   8
#     4  11  24  38  53  79 114 148 182 222 271 327
#     4  10  20  33  50  75 107 140 176 224 278 322
#     4   9  18  33  53  77 104 135 174 220 268 318
#     4  10  19  33  56  83 106 136 179 225 268 317
#     4   9  18  33  54  81 111 140 173 217 271 328
#     4   9  18  33  52  74 103 139 177 217 265 324
#     4  10  20  37  62  86 107 140 185 230 275 329
#     4  10  20  35  54  77 106 142 184 227 269 319
#
# _framework density 18.647819999999999
#
# number of rings (size 3 to 8) (size 9 to 14) (size 15 to 20)
#    0.000    2.250    1.250    2.625    0.000    6.000 
#    0.000    2.500    0.000    3.375    0.000    0.000 
#    0.000    0.000    0.000    0.000    0.000    0.000 
#
# Total GULP energy -793475.980126 kJ/mol
# GULP energy per Si atom -12398.062189 kJ/mol
# Density = 1.860538 g / cm^3
# Si number density = 18.647820 Si / 1000 Ang^3
#
#
#
# Elastic Constant Matrix: (Units=GPa)
#
#
# Indices 1 2 3 4 5 6 
#
# 1 83.6522 24.0074 53.5207 0.0000 0.0000 0.0000
# 2 24.0074 54.9474 56.9534 0.0000 0.0000 0.0000
# 3 53.5207 56.9534 143.3778 0.0000 0.0000 0.0000
# 4 0.0000 0.0000 0.0000 -318.3420 0.0000 0.0000
# 5 0.0000 0.0000 0.0000 0.0000 13.8474 0.0000
# 6 0.0000 0.0000 0.0000 0.0000 0.0000 22.1267
#
#
#
# Elastic Compliance Matrix: (Units=1/GPa)
#
#
# Indices 1 2 3 4 5 6 
#
# 1 0.015763 -0.001340 -0.005352 0.000000 0.000000 0.000000
# 2 -0.001340 0.031051 -0.011834 0.000000 0.000000 0.000000
# 3 -0.005352 -0.011834 0.013673 0.000000 0.000000 0.000000
# 4 0.000000 0.000000 0.000000 -0.003141 0.000000 0.000000
# 5 0.000000 0.000000 0.000000 0.000000 0.072216 0.000000
# 6 0.000000 0.000000 0.000000 0.000000 0.000000 0.045194
#
#
# Mechanical properties :
#
#
# Convention : Reuss Voigt Hill
#
# Bulk Modulus (GPa) = 42.67062 61.21559 51.94310
# Shear Modulus (GPa) = 22.76676 -46.64052 -11.93688
#
# Velocity S-wave (km/s) = 3.49790 -5.00655 -2.53281
# Velocity P-wave (km/s) = 6.26465 0.72267 4.40020
#
# Compressibility (1/GPa) = 0.02343533
#
# Stress axis : x y z
#
# Youngs Moduli (GPa) = 63.44018 32.20544 73.13631
#
# Poissons Ratio (x) = 0.04315 0.39141
# Poissons Ratio (y) = 0.08500 0.86549
# Poissons Ratio (z) = 0.33952 0.38112
#
# Static dielectric constant tensor:
#      x y z
#    x 3.493580 0.000000 0.000000 
#    y 0.000000 3.240070 0.000000 
#    z 0.000000 0.000000 3.571930 
# 
# 
# High freq. dielectric constant tensor:
#      x y z
#    x 1.719080 0.000000 0.000000 
#    y 0.000000 1.703030 0.000000 
#    z 0.000000 0.000000 1.732840 
# 
# From -- ./inp_files/30537.got.cif
#   From: 2010.03.12/outbox.cif.g09.slc.cpg/sg51_16_cif.got.tgz:30537.got - 2010.04.16 13:43:02.
