data_PCOD8209927
_publ_section_title
;
Structure prediction by ZEFSAII (Michael W. Deem and Ramdas Pophale) SiO2 
 PCOD8209927
Probable space group: P M M A
;
_chemical_formula_sum "Si O2"
_cell_formula_units_Z 48
_cell_length_a 8.929972
_cell_length_b 20.096924
_cell_length_c 14.507843
_cell_angle_alpha 90.000000
_cell_angle_beta 90.000000
_cell_angle_gamma 90.000000
_cell_volume 2603.649589
_symmetry_space_group_name_H-M "P M M A"
_symmetry_group_IT_number 51
_symmetry_cell_setting 'orthorhombic'
loop_
_space_group_symop_operation_xyz
x,y,z
1/2-x,-y,z
1/2+x,-y,-z
-x,y,-z
-x,-y,-z
1/2+x,y,-z
1/2-x,y,z
x,-y,z
loop_
_atom_site_type_symbol
_atom_site_label
_atom_site_fract_x
_atom_site_fract_y
_atom_site_fract_z
Si Si1 0.074371 0.316256 0.713043
Si Si2 0.427231 0.814723 0.599241
Si Si3 0.578470 0.924744 0.721869
Si Si4 0.924227 0.267502 0.091100
Si Si5 0.427110 0.113890 0.906103
Si Si6 0.925278 0.576261 0.594269
O O1 0.250000 0.329949 0.704131
O O2 0.029437 0.250444 0.657151
O O3 0.024091 0.307744 0.818937
O O4 0.985164 0.379968 0.677849
O O5 0.500000 0.807095 0.500000
O O6 0.250000 0.823161 0.590044
O O7 0.491548 0.879201 0.649557
O O8 0.750000 0.900429 0.731364
O O9 0.499040 0.924364 0.820906
O O10 0.571930 0.000000 0.683994
O O11 0.750000 0.274157 0.075805
O O12 0.969696 0.191070 0.105653
O O13 0.000000 0.298064 0.000000
O O14 0.250000 0.101581 0.907706
O O15 0.500000 0.085817 0.000000
O O16 0.750000 0.586214 0.583366
O O17 0.968665 0.500000 0.614729
O O18 0.000000 0.601390 0.500000
#
# Coordination Sequence:
#
# PCOD8209927 Si02
#       6
#     8   8   8   8   8   8
#     4  10  20  36  58  85 115 145 183 226 272 325
#     4  11  23  40  59  82 110 141 182 231 279 333
#     4  11  24  40  57  79 107 143 187 231 280 337
#     4   9  18  33  53  82 113 142 178 222 270 324
#     4  10  19  35  57  82 111 143 180 226 279 334
#     4  10  21  36  55  83 117 152 189 226 270 324
#
# _framework density 18.435659999999999
#
# number of rings (size 3 to 8) (size 9 to 14) (size 15 to 20)
#    0.000    1.833    1.667    2.500    0.000    7.000 
#    0.000    0.000    0.000    0.500    0.000    0.000 
#    0.000    0.000    0.000    0.000    0.000    0.000 
#
# Total GULP energy -595378.333525 kJ/mol
# GULP energy per Si atom -12403.715282 kJ/mol
# Density = 1.839370 g / cm^3
# Si number density = 18.435660 Si / 1000 Ang^3
#
#
#
# Elastic Constant Matrix: (Units=GPa)
#
#
# Indices 1 2 3 4 5 6 
#
# 1 83.9235 42.7786 52.4776 0.0000 0.0000 0.0000
# 2 42.7786 82.9476 55.4637 0.0000 0.0000 0.0000
# 3 52.4776 55.4637 137.8709 0.0000 0.0000 0.0000
# 4 0.0000 0.0000 0.0000 23.9911 0.0000 0.0000
# 5 0.0000 0.0000 0.0000 0.0000 39.6981 0.0000
# 6 0.0000 0.0000 0.0000 0.0000 0.0000 28.9227
#
#
#
# Elastic Compliance Matrix: (Units=1/GPa)
#
#
# Indices 1 2 3 4 5 6 
#
# 1 0.017792 -0.006358 -0.004214 0.000000 0.000000 0.000000
# 2 -0.006358 0.018764 -0.005129 0.000000 0.000000 0.000000
# 3 -0.004214 -0.005129 0.010920 0.000000 0.000000 0.000000
# 4 0.000000 0.000000 0.000000 0.041682 0.000000 0.000000
# 5 0.000000 0.000000 0.000000 0.000000 0.025190 0.000000
# 6 0.000000 0.000000 0.000000 0.000000 0.000000 0.034575
#
#
# Mechanical properties :
#
#
# Convention : Reuss Voigt Hill
#
# Bulk Modulus (GPa) = 62.20959 67.35352 64.78156
# Shear Modulus (GPa) = 26.92768 28.79053 27.85910
#
# Velocity S-wave (km/s) = 3.82597 3.95609 3.89157
# Velocity P-wave (km/s) = 7.30307 7.58164 7.44365
#
# Compressibility (1/GPa) = 0.01607469
#
# Stress axis : x y z
#
# Youngs Moduli (GPa) = 56.20630 53.29373 91.57151
#
# Poissons Ratio (x) = 0.33883 0.38592
# Poissons Ratio (y) = 0.35734 0.46963
# Poissons Ratio (z) = 0.23687 0.27332
#
# Static dielectric constant tensor:
#      x y z
#    x 3.465630 0.000000 0.000000 
#    y 0.000000 3.265170 0.000000 
#    z 0.000000 0.000000 3.299160 
# 
# 
# High freq. dielectric constant tensor:
#      x y z
#    x 1.725010 0.000000 0.000000 
#    y 0.000000 1.698620 0.000000 
#    z 0.000000 0.000000 1.721770 
# 
# From -- ./inp_files/21059.got.cif
#   From: 2010.03.12/outbox.cif.g09.slc.cpg/sg51_11_cif.got.tgz:21059.got - 2010.04.16 13:43:02.
