data_PCOD8209132
_publ_section_title
;
Structure prediction by ZEFSAII (Michael W. Deem and Ramdas Pophale) SiO2 
 PCOD8209132
Probable space group: P M M A
;
_chemical_formula_sum "Si O2"
_cell_formula_units_Z 64
_cell_length_a 24.941549
_cell_length_b 9.697123
_cell_length_c 14.771255
_cell_angle_alpha 90.000000
_cell_angle_beta 90.000000
_cell_angle_gamma 90.000000
_cell_volume 3572.594471
_symmetry_space_group_name_H-M "P M M A"
_symmetry_group_IT_number 51
_symmetry_cell_setting 'orthorhombic'
loop_
_space_group_symop_operation_xyz
x,y,z
1/2-x,-y,z
1/2+x,-y,-z
-x,y,-z
-x,-y,-z
1/2+x,y,-z
1/2-x,y,z
x,-y,z
loop_
_atom_site_type_symbol
_atom_site_label
_atom_site_fract_x
_atom_site_fract_y
_atom_site_fract_z
Si Si1 0.310914 0.341227 0.860393
Si Si2 0.122806 0.842038 0.533033
Si Si3 0.307986 0.841053 0.371200
Si Si4 0.689005 0.658958 0.928705
Si Si5 0.622543 0.840696 0.795219
Si Si6 0.887304 0.158053 0.260030
Si Si7 0.043395 0.649011 0.428114
Si Si8 0.508934 0.156161 0.726412
O O1 0.250000 0.302711 0.833509
O O2 0.322331 0.500000 0.837041
O O3 0.351949 0.248980 0.805524
O O4 0.320126 0.313141 0.965823
O O5 0.178619 0.825755 0.478340
O O6 0.125022 0.793067 0.636854
O O7 0.086042 0.746240 0.473599
O O8 0.101816 0.000000 0.529657
O O9 0.250000 0.768639 0.354450
O O10 0.353381 0.784180 0.301216
O O11 0.302712 0.000000 0.346947
O O12 0.750000 0.697498 0.901589
O O13 0.677638 0.500000 0.905187
O O14 0.647249 0.753319 0.876020
O O15 0.557908 0.820412 0.796731
O O16 0.637152 0.000000 0.811708
O O17 0.949726 0.176298 0.231099
O O18 0.869452 0.000000 0.248875
O O19 0.067552 0.500000 0.394399
O O20 0.013344 0.730432 0.349908
O O21 0.000000 0.608571 0.500000
O O22 0.513351 0.000000 0.686484
#
# Coordination Sequence:
#
# PCOD8209132 Si02
#       8
#     8   8   8   8   8   8   8   8
#     4   9  20  40  62  80 104 140 176 215 269 327
#     4  10  19  33  52  73 103 144 180 218 266 316
#     4   9  17  29  47  74 106 138 175 217 263 315
#     4   9  19  37  59  81 105 137 177 219 267 323
#     4  10  19  32  54  80 106 141 179 218 267 318
#     4  10  21  34  55  83 107 139 182 226 268 311
#     4  11  21  31  48  75 103 137 184 231 263 298
#     4  10  20  35  53  76 109 145 181 218 264 322
#
# _framework density 17.914152000000001
#
# number of rings (size 3 to 8) (size 9 to 14) (size 15 to 20)
#    0.000    2.250    2.500    1.500    0.000    4.000 
#    0.000    3.125    0.000    4.125    0.000    0.000 
#    0.000    0.000    0.000    0.000    0.000    0.000 
#
# Total GULP energy -793004.129466 kJ/mol
# GULP energy per Si atom -12390.689523 kJ/mol
# Density = 1.787338 g / cm^3
# Si number density = 17.914152 Si / 1000 Ang^3
#
#
#
# Elastic Constant Matrix: (Units=GPa)
#
#
# Indices 1 2 3 4 5 6 
#
# 1 123.5101 48.8557 58.4731 0.0000 0.0000 0.0000
# 2 48.8557 82.8014 47.2714 0.0000 0.0000 0.0000
# 3 58.4731 47.2714 77.5755 0.0000 0.0000 0.0000
# 4 0.0000 0.0000 0.0000 17.7291 0.0000 0.0000
# 5 0.0000 0.0000 0.0000 0.0000 32.0996 0.0000
# 6 0.0000 0.0000 0.0000 0.0000 0.0000 18.9248
#
#
#
# Elastic Compliance Matrix: (Units=1/GPa)
#
#
# Indices 1 2 3 4 5 6 
#
# 1 0.013124 -0.003214 -0.007934 0.000000 0.000000 0.000000
# 2 -0.003214 0.019307 -0.009342 0.000000 0.000000 0.000000
# 3 -0.007934 -0.009342 0.024563 0.000000 0.000000 0.000000
# 4 0.000000 0.000000 0.000000 0.056404 0.000000 0.000000
# 5 0.000000 0.000000 0.000000 0.000000 0.031153 0.000000
# 6 0.000000 0.000000 0.000000 0.000000 0.000000 0.052841
#
#
# Mechanical properties :
#
#
# Convention : Reuss Voigt Hill
#
# Bulk Modulus (GPa) = 62.44409 65.89857 64.17133
# Shear Modulus (GPa) = 20.51611 22.36982 21.44296
#
# Velocity S-wave (km/s) = 3.38782 3.53756 3.46350
# Velocity P-wave (km/s) = 7.08775 7.31788 7.20373
#
# Compressibility (1/GPa) = 0.01601433
#
# Stress axis : x y z
#
# Youngs Moduli (GPa) = 76.19674 51.79446 40.71097
#
# Poissons Ratio (x) = 0.16648 0.32298
# Poissons Ratio (y) = 0.24492 0.38033
# Poissons Ratio (z) = 0.60451 0.48387
#
# Static dielectric constant tensor:
#      x y z
#    x 3.450230 0.000000 0.000000 
#    y 0.000000 3.311350 0.000000 
#    z 0.000000 0.000000 3.028250 
# 
# 
# High freq. dielectric constant tensor:
#      x y z
#    x 1.696050 0.000000 0.000000 
#    y 0.000000 1.686340 0.000000 
#    z 0.000000 0.000000 1.675070 
# 
# From -- ./inp_files/26181.got.cif
#   From: 2010.03.12/outbox.cif.g09.slc.cpg/sg51_14_cif.got.tgz:26181.got - 2010.04.16 13:43:02.
