data_PCOD8209424
_publ_section_title
;
Structure prediction by ZEFSAII (Michael W. Deem and Ramdas Pophale) SiO2 
 PCOD8209424
Probable space group: P M M A
;
_chemical_formula_sum "Si O2"
_cell_formula_units_Z 64
_cell_length_a 13.794167
_cell_length_b 9.141259
_cell_length_c 26.513767
_cell_angle_alpha 90.000000
_cell_angle_beta 90.000000
_cell_angle_gamma 90.000000
_cell_volume 3343.281375
_symmetry_space_group_name_H-M "P M M A"
_symmetry_group_IT_number 51
_symmetry_cell_setting 'orthorhombic'
loop_
_space_group_symop_operation_xyz
x,y,z
1/2-x,-y,z
1/2+x,-y,-z
-x,y,-z
-x,-y,-z
1/2+x,y,-z
1/2-x,y,z
x,-y,z
loop_
_atom_site_type_symbol
_atom_site_label
_atom_site_fract_x
_atom_site_fract_y
_atom_site_fract_z
Si Si1 0.359444 0.326215 0.775201
Si Si2 0.364689 0.836015 0.969794
Si Si3 0.358890 0.668673 0.067822
Si Si4 0.465227 0.326395 0.674898
Si Si5 0.546194 0.330281 0.122587
Si Si6 0.139064 0.825779 0.365889
Si Si7 0.635474 0.833771 0.524613
Si Si8 0.865352 0.831821 0.415657
O O1 0.250000 0.263449 0.777837
O O2 0.356775 0.500000 0.774455
O O3 0.411092 0.268465 0.724775
O O4 0.421016 0.268738 0.823093
O O5 0.250000 0.835020 0.972222
O O6 0.394944 0.751791 0.920105
O O7 0.406465 0.000000 0.968232
O O8 0.402994 0.758599 0.020758
O O9 0.250000 0.719147 0.083082
O O10 0.358614 0.500000 0.051253
O O11 0.430454 0.694655 0.115306
O O12 0.474437 0.500000 0.674224
O O13 0.572336 0.255053 0.675044
O O14 0.404690 0.273822 0.627006
O O15 0.573510 0.500000 0.118061
O O16 0.250000 0.777868 0.356744
O O17 0.099288 0.769959 0.421387
O O18 0.129426 0.000000 0.361283
O O19 0.750000 0.819139 0.526315
O O20 0.596493 0.770135 0.470867
O O21 0.603375 0.000000 0.523336
O O22 0.750000 0.825361 0.415204
O O23 0.899515 0.000000 0.406690
#
# Coordination Sequence:
#
# PCOD8209424 Si02
#       8
#     8   8   8   8   8   8   8   8
#     4   9  19  36  55  74  99 132 168 206 250 299
#     4  10  20  32  48  75 110 142 168 199 248 305
#     4   9  18  32  50  75 106 135 165 204 247 292
#     4  11  22  34  50  74 104 136 169 207 257 313
#     4  10  19  33  55  77  96 129 178 220 250 285
#     4   9  18  35  57  76  97 129 169 211 253 300
#     4   7  12  26  49  74  97 125 164 207 248 294
#     4   9  17  31  52  76 101 131 170 212 251 298
#
# _framework density 19.142869000000001
#
# number of rings (size 3 to 8) (size 9 to 14) (size 15 to 20)
#    0.000    2.750    0.000    3.375    0.000    4.750 
#    0.000    5.000    0.000    7.500    0.000    1.750 
#    0.000    0.000    0.000    0.000    0.000    0.000 
#
# Total GULP energy -793090.180082 kJ/mol
# GULP energy per Si atom -12392.034064 kJ/mol
# Density = 1.909930 g / cm^3
# Si number density = 19.142869 Si / 1000 Ang^3
#
#
#
# Elastic Constant Matrix: (Units=GPa)
#
#
# Indices 1 2 3 4 5 6 
#
# 1 93.6839 29.5186 72.8241 0.0000 0.0000 0.0000
# 2 29.5186 49.6193 39.0236 0.0000 0.0000 0.0000
# 3 72.8241 39.0236 150.1818 0.0000 0.0000 0.0000
# 4 0.0000 0.0000 0.0000 -5.8363 0.0000 0.0000
# 5 0.0000 0.0000 0.0000 0.0000 35.2813 0.0000
# 6 0.0000 0.0000 0.0000 0.0000 0.0000 24.7365
#
#
#
# Elastic Compliance Matrix: (Units=1/GPa)
#
#
# Indices 1 2 3 4 5 6 
#
# 1 0.018009 -0.004833 -0.007477 0.000000 0.000000 0.000000
# 2 -0.004833 0.026627 -0.004575 0.000000 0.000000 0.000000
# 3 -0.007477 -0.004575 0.011473 0.000000 0.000000 0.000000
# 4 0.000000 0.000000 0.000000 -0.171341 0.000000 0.000000
# 5 0.000000 0.000000 0.000000 0.000000 0.028344 0.000000
# 6 0.000000 0.000000 0.000000 0.000000 0.000000 0.040426
#
#
# Mechanical properties :
#
#
# Convention : Reuss Voigt Hill
#
# Bulk Modulus (GPa) = 44.76590 64.02418 54.39504
# Shear Modulus (GPa) = -953.16153 20.97754 -466.09200
#
# Velocity S-wave (km/s) = -22.33833 3.31394 -15.62080
# Velocity P-wave (km/s) = 25.33572 6.93981 17.22988
#
# Compressibility (1/GPa) = 0.02233843
#
# Stress axis : x y z
#
# Youngs Moduli (GPa) = 55.52720 37.55592 87.16151
#
# Poissons Ratio (x) = 0.18153 0.65169
# Poissons Ratio (y) = 0.26839 0.39877
# Poissons Ratio (z) = 0.41517 0.17182
#
# Static dielectric constant tensor:
#      x y z
#    x 3.707720 0.000000 0.000000 
#    y 0.000000 3.224650 0.000000 
#    z 0.000000 0.000000 3.652530 
# 
# 
# High freq. dielectric constant tensor:
#      x y z
#    x 1.761150 0.000000 0.000000 
#    y 0.000000 1.704740 0.000000 
#    z 0.000000 0.000000 1.736510 
# 
# From -- ./inp_files/35595.got.cif
#   From: 2010.03.12/outbox.cif.g09.slc.cpg/sg51_18_cif.got.tgz:35595.got - 2010.04.16 13:43:02.
