data_PCOD8209435
_publ_section_title
;
Structure prediction by ZEFSAII (Michael W. Deem and Ramdas Pophale) SiO2 
 PCOD8209435
Probable space group: P M M A
;
_chemical_formula_sum "Si O2"
_cell_formula_units_Z 64
_cell_length_a 20.433013
_cell_length_b 9.058894
_cell_length_c 19.446976
_cell_angle_alpha 90.000000
_cell_angle_beta 90.000000
_cell_angle_gamma 90.000000
_cell_volume 3599.644959
_symmetry_space_group_name_H-M "P M M A"
_symmetry_group_IT_number 51
_symmetry_cell_setting 'orthorhombic'
loop_
_space_group_symop_operation_xyz
x,y,z
1/2-x,-y,z
1/2+x,-y,-z
-x,y,-z
-x,-y,-z
1/2+x,y,-z
1/2-x,y,z
x,-y,z
loop_
_atom_site_type_symbol
_atom_site_label
_atom_site_fract_x
_atom_site_fract_y
_atom_site_fract_z
Si Si1 0.675408 0.330292 0.964309
Si Si2 0.872225 0.330608 0.816642
Si Si3 0.129714 0.828055 0.318753
Si Si4 0.521770 0.173607 0.318372
Si Si5 0.976761 0.326672 0.179296
Si Si6 0.561398 0.673028 0.453021
Si Si7 0.676613 0.331941 0.550720
Si Si8 0.063016 0.825765 0.955825
O O1 0.750000 0.304265 0.987858
O O2 0.653725 0.500000 0.976940
O O3 0.670267 0.293188 0.883509
O O4 0.629238 0.221201 0.006254
O O5 0.865951 0.500000 0.794689
O O6 0.844572 0.235821 0.753458
O O7 0.947231 0.289562 0.832833
O O8 0.171439 0.762489 0.380508
O O9 0.054049 0.785927 0.329740
O O10 0.141823 0.000000 0.317250
O O11 0.548131 0.253329 0.249955
O O12 0.561644 0.235228 0.382910
O O13 0.533155 0.000000 0.310971
O O14 0.962569 0.500000 0.181964
O O15 0.936692 0.255296 0.117176
O O16 0.500000 0.717799 0.500000
O O17 0.560302 0.500000 0.435322
O O18 0.627037 0.723185 0.492212
O O19 0.750000 0.316757 0.521373
O O20 0.659235 0.500000 0.570166
O O21 0.063053 0.000000 0.943954
O O22 0.000000 0.775705 0.000000
#
# Coordination Sequence:
#
# PCOD8209435 Si02
#       8
#     8   8   8   8   8   8   8   8
#     4  10  21  37  56  79 108 144 186 227 268 319
#     4   9  18  32  51  76 107 143 182 220 260 311
#     4  10  20  32  49  75 108 142 177 215 258 314
#     4  10  20  33  52  80 112 139 170 217 271 318
#     4  10  19  33  56  81 108 141 180 224 268 315
#     4  10  19  33  55  79 102 134 178 220 259 309
#     4  10  21  36  53  74 103 139 177 218 262 309
#     4  11  22  35  55  82 112 144 180 224 275 325
#
# _framework density 17.779532
#
# number of rings (size 3 to 8) (size 9 to 14) (size 15 to 20)
#    0.000    2.000    2.500    1.500    0.000    4.250 
#    0.000    1.250    0.000    0.750    0.000    1.750 
#    0.000    0.000    0.000    0.000    0.000    0.000 
#
# Total GULP energy -793877.629097 kJ/mol
# GULP energy per Si atom -12404.337955 kJ/mol
# Density = 1.773906 g / cm^3
# Si number density = 17.779532 Si / 1000 Ang^3
#
#
#
# Elastic Constant Matrix: (Units=GPa)
#
#
# Indices 1 2 3 4 5 6 
#
# 1 79.9082 33.6920 46.8263 0.0000 0.0000 0.0000
# 2 33.6920 75.6239 54.4410 0.0000 0.0000 0.0000
# 3 46.8263 54.4410 119.1156 0.0000 0.0000 0.0000
# 4 0.0000 0.0000 0.0000 24.3782 0.0000 0.0000
# 5 0.0000 0.0000 0.0000 0.0000 23.7944 0.0000
# 6 0.0000 0.0000 0.0000 0.0000 0.0000 19.7989
#
#
#
# Elastic Compliance Matrix: (Units=1/GPa)
#
#
# Indices 1 2 3 4 5 6 
#
# 1 0.017087 -0.004139 -0.004826 0.000000 0.000000 0.000000
# 2 -0.004139 0.020710 -0.007838 0.000000 0.000000 0.000000
# 3 -0.004826 -0.007838 0.013875 0.000000 0.000000 0.000000
# 4 0.000000 0.000000 0.000000 0.041020 0.000000 0.000000
# 5 0.000000 0.000000 0.000000 0.000000 0.042027 0.000000
# 6 0.000000 0.000000 0.000000 0.000000 0.000000 0.050508
#
#
# Mechanical properties :
#
#
# Convention : Reuss Voigt Hill
#
# Bulk Modulus (GPa) = 55.35142 60.50739 57.92940
# Shear Modulus (GPa) = 22.23660 22.90686 22.57173
#
# Velocity S-wave (km/s) = 3.54034 3.59330 3.56692
# Velocity P-wave (km/s) = 6.92183 7.16391 7.04391
#
# Compressibility (1/GPa) = 0.01806638
#
# Stress axis : x y z
#
# Youngs Moduli (GPa) = 58.52312 48.28582 72.07344
#
# Poissons Ratio (x) = 0.19984 0.34780
# Poissons Ratio (y) = 0.24221 0.56494
# Poissons Ratio (z) = 0.28241 0.37848
#
# Static dielectric constant tensor:
#      x y z
#    x 3.097280 0.000000 0.000000 
#    y 0.000000 3.254630 0.000000 
#    z 0.000000 0.000000 3.283420 
# 
# 
# High freq. dielectric constant tensor:
#      x y z
#    x 1.661990 0.000000 0.000000 
#    y 0.000000 1.691400 0.000000 
#    z 0.000000 0.000000 1.689580 
# 
# From -- ./inp_files/30530.got.cif
#   From: 2010.03.12/outbox.cif.g09.slc.cpg/sg51_16_cif.got.tgz:30530.got - 2010.04.16 13:43:02.
