data_PCOD8209668
_publ_section_title
;
Structure prediction by ZEFSAII (Michael W. Deem and Ramdas Pophale) SiO2 
 PCOD8209668
Probable space group: P M M A
;
_chemical_formula_sum "Si O2"
_cell_formula_units_Z 48
_cell_length_a 20.416703
_cell_length_b 9.572588
_cell_length_c 14.009109
_cell_angle_alpha 90.000000
_cell_angle_beta 90.000000
_cell_angle_gamma 90.000000
_cell_volume 2737.949875
_symmetry_space_group_name_H-M "P M M A"
_symmetry_group_IT_number 51
_symmetry_cell_setting 'orthorhombic'
loop_
_space_group_symop_operation_xyz
x,y,z
1/2-x,-y,z
1/2+x,-y,-z
-x,y,-z
-x,-y,-z
1/2+x,y,-z
1/2-x,y,z
x,-y,z
loop_
_atom_site_type_symbol
_atom_site_label
_atom_site_fract_x
_atom_site_fract_y
_atom_site_fract_z
Si Si1 0.873346 0.837220 0.718220
Si Si2 0.750000 0.342785 0.407010
Si Si3 0.826585 0.337707 0.887266
Si Si4 0.881800 0.338718 0.291647
Si Si5 0.322340 0.334828 0.900128
Si Si6 0.506207 0.836905 0.390696
Si Si7 0.750000 0.163946 0.594119
O O1 0.871149 0.752469 0.816610
O O2 0.813786 0.788030 0.651785
O O3 0.939513 0.800386 0.663336
O O4 0.867833 0.000000 0.742971
O O5 0.750000 0.500000 0.447889
O O6 0.813074 0.315653 0.343039
O O7 0.750000 0.236284 0.492979
O O8 0.750000 0.303445 0.872595
O O9 0.840305 0.500000 0.867509
O O10 0.848609 0.295160 0.994560
O O11 0.904023 0.500000 0.295651
O O12 0.872651 0.285398 0.182096
O O13 0.935922 0.245879 0.341329
O O14 0.250000 0.268410 0.884610
O O15 0.314381 0.500000 0.892485
O O16 0.500000 0.787816 0.500000
O O17 0.523136 0.000000 0.385495
O O18 0.750000 0.000000 0.574994
#
# Coordination Sequence:
#
# PCOD8209668 Si02
#       7
#     8   4   8   8   8   8   4
#     4  10  20  35  54  75 101 137 177 217 260 305
#     4  10  20  32  51  80 106 128 165 218 267 304
#     4   9  17  30  53  82 107 134 168 210 259 311
#     4  10  19  34  56  80 105 135 172 216 261 308
#     4   8  14  29  53  79 107 137 168 205 258 316
#     4  10  22  39  55  72 102 144 182 215 258 313
#     4  10  20  34  53  74  98 134 177 216 259 310
#
# _framework density 17.531365999999998
#
# number of rings (size 3 to 8) (size 9 to 14) (size 15 to 20)
#    0.000    2.500    1.667    2.000    0.000    3.667 
#    0.000    1.667    0.000    6.000    0.000    0.000 
#    0.000    0.000    0.000    0.000    0.000    0.000 
#
# Total GULP energy -595151.878994 kJ/mol
# GULP energy per Si atom -12398.997479 kJ/mol
# Density = 1.749146 g / cm^3
# Si number density = 17.531366 Si / 1000 Ang^3
#
#
#
# Elastic Constant Matrix: (Units=GPa)
#
#
# Indices 1 2 3 4 5 6 
#
# 1 112.0662 46.3491 68.4140 0.0000 0.0000 0.0000
# 2 46.3491 47.1122 59.2685 0.0000 0.0000 0.0000
# 3 68.4140 59.2685 166.4460 0.0000 0.0000 0.0000
# 4 0.0000 0.0000 0.0000 9.6854 0.0000 0.0000
# 5 0.0000 0.0000 0.0000 0.0000 29.5909 0.0000
# 6 0.0000 0.0000 0.0000 0.0000 0.0000 48.2217
#
#
#
# Elastic Compliance Matrix: (Units=1/GPa)
#
#
# Indices 1 2 3 4 5 6 
#
# 1 0.015301 -0.012936 -0.001683 0.000000 0.000000 0.000000
# 2 -0.012936 0.049387 -0.012269 0.000000 0.000000 0.000000
# 3 -0.001683 -0.012269 0.011068 0.000000 0.000000 0.000000
# 4 0.000000 0.000000 0.000000 0.103248 0.000000 0.000000
# 5 0.000000 0.000000 0.000000 0.000000 0.033794 0.000000
# 6 0.000000 0.000000 0.000000 0.000000 0.000000 0.020738
#
#
# Mechanical properties :
#
#
# Convention : Reuss Voigt Hill
#
# Bulk Modulus (GPa) = 45.49401 74.85416 60.17409
# Shear Modulus (GPa) = 16.97004 27.60580 22.28792
#
# Velocity S-wave (km/s) = 3.11462 3.97249 3.56942
# Velocity P-wave (km/s) = 6.24026 7.98942 7.16839
#
# Compressibility (1/GPa) = 0.02198092
#
# Stress axis : x y z
#
# Youngs Moduli (GPa) = 65.35651 20.24839 90.34812
#
# Poissons Ratio (x) = 0.26193 0.15204
# Poissons Ratio (y) = 0.84544 1.10846
# Poissons Ratio (z) = 0.10998 0.24842
#
# Static dielectric constant tensor:
#      x y z
#    x 3.139260 0.000000 0.000000 
#    y 0.000000 3.038760 0.000000 
#    z 0.000000 0.000000 3.550370 
# 
# 
# High freq. dielectric constant tensor:
#      x y z
#    x 1.666990 0.000000 0.000000 
#    y 0.000000 1.655330 0.000000 
#    z 0.000000 0.000000 1.693690 
# 
# From -- ./inp_files/24984.got.cif
#   From: 2010.03.12/outbox.cif.g09.slc.cpg/sg51_13_cif.got.tgz:24984.got - 2010.04.16 13:43:02.
