data_PCOD8209540
_publ_section_title
;
Structure prediction by ZEFSAII (Michael W. Deem and Ramdas Pophale) SiO2 
 PCOD8209540
Probable space group: P M M A
;
_chemical_formula_sum "Si O2"
_cell_formula_units_Z 64
_cell_length_a 15.200312
_cell_length_b 18.387832
_cell_length_c 11.667801
_cell_angle_alpha 90.000000
_cell_angle_beta 90.000000
_cell_angle_gamma 90.000000
_cell_volume 3261.159520
_symmetry_space_group_name_H-M "P M M A"
_symmetry_group_IT_number 51
_symmetry_cell_setting 'orthorhombic'
loop_
_space_group_symop_operation_xyz
x,y,z
1/2-x,-y,z
1/2+x,-y,-z
-x,y,-z
-x,-y,-z
1/2+x,y,-z
1/2-x,y,z
x,-y,z
loop_
_atom_site_type_symbol
_atom_site_label
_atom_site_fract_x
_atom_site_fract_y
_atom_site_fract_z
Si Si1 0.652374 0.160238 0.723099
Si Si2 0.995418 0.652181 0.874301
Si Si3 0.849466 0.805473 0.309757
Si Si4 0.599896 0.334207 0.463323
Si Si5 0.153060 0.329068 0.289930
Si Si6 0.602213 0.914896 0.495010
Si Si7 0.999674 0.819042 0.873294
Si Si8 0.148226 0.583075 0.745064
O O1 0.750000 0.151046 0.777163
O O2 0.629997 0.244111 0.700092
O O3 0.650027 0.114768 0.607230
O O4 0.575664 0.133810 0.808713
O O5 0.917318 0.625233 0.787892
O O6 0.970981 0.735952 0.890406
O O7 0.090989 0.638178 0.821159
O O8 0.000000 0.614266 0.000000
O O9 0.750000 0.793979 0.266070
O O10 0.875734 0.737673 0.390523
O O11 0.854929 0.878318 0.384359
O O12 0.909220 0.818159 0.197182
O O13 0.500000 0.326364 0.500000
O O14 0.654758 0.351942 0.577246
O O15 0.619991 0.404495 0.385973
O O16 0.250000 0.343206 0.237238
O O17 0.500000 0.894571 0.500000
O O18 0.619080 0.000000 0.485298
O O19 0.000000 0.854930 0.000000
O O20 0.250000 0.602491 0.765471
O O21 0.127879 0.500000 0.778497
#
# Coordination Sequence:
#
# PCOD8209540 Si02
#       8
#     8   8   8   8   8   8   8   8
#     4  10  19  34  56  81 115 151 187 232 288 346
#     4  10  21  38  59  83 112 151 193 239 286 338
#     4  12  22  35  61  91 120 154 191 237 291 347
#     4  12  20  36  61  85 117 152 186 234 289 353
#     4  10  19  33  56  88 115 145 184 234 290 341
#     4  11  22  36  57  87 122 154 188 237 294 346
#     4  10  21  37  57  85 117 148 192 242 286 335
#     4  11  24  40  58  83 116 154 195 240 291 348
#
# _framework density 19.624921000000001
#
# number of rings (size 3 to 8) (size 9 to 14) (size 15 to 20)
#    0.000    1.250    5.000    2.625    0.000    2.500 
#    0.000    2.500    0.000    1.875    0.000    1.750 
#    0.000    0.000    0.000    0.000    0.000    0.000 
#
# Total GULP energy -793193.591387 kJ/mol
# GULP energy per Si atom -12393.649865 kJ/mol
# Density = 1.958025 g / cm^3
# Si number density = 19.624921 Si / 1000 Ang^3
#
#
#
# Elastic Constant Matrix: (Units=GPa)
#
#
# Indices 1 2 3 4 5 6 
#
# 1 141.5207 15.5183 50.9245 0.0000 0.0000 0.0000
# 2 15.5183 37.2487 12.0801 0.0000 0.0000 0.0000
# 3 50.9245 12.0801 141.5085 0.0000 0.0000 0.0000
# 4 0.0000 0.0000 0.0000 6.6357 0.0000 0.0000
# 5 0.0000 0.0000 0.0000 0.0000 15.5379 0.0000
# 6 0.0000 0.0000 0.0000 0.0000 0.0000 21.2059
#
#
#
# Elastic Compliance Matrix: (Units=1/GPa)
#
#
# Indices 1 2 3 4 5 6 
#
# 1 0.008351 -0.002576 -0.002785 0.000000 0.000000 0.000000
# 2 -0.002576 0.028405 -0.001498 0.000000 0.000000 0.000000
# 3 -0.002785 -0.001498 0.008197 0.000000 0.000000 0.000000
# 4 0.000000 0.000000 0.000000 0.150700 0.000000 0.000000
# 5 0.000000 0.000000 0.000000 0.000000 0.064359 0.000000
# 6 0.000000 0.000000 0.000000 0.000000 0.000000 0.047157
#
#
# Mechanical properties :
#
#
# Convention : Reuss Voigt Hill
#
# Bulk Modulus (GPa) = 32.01519 53.03597 42.52558
# Shear Modulus (GPa) = 15.09213 24.79289 19.94251
#
# Velocity S-wave (km/s) = 2.77615 3.55820 3.19122
# Velocity P-wave (km/s) = 5.15994 6.63058 5.94094
#
# Compressibility (1/GPa) = 0.03123517
#
# Stress axis : x y z
#
# Youngs Moduli (GPa) = 119.74888 35.20452 121.99679
#
# Poissons Ratio (x) = 0.09068 0.33980
# Poissons Ratio (y) = 0.30844 0.18274
# Poissons Ratio (z) = 0.33354 0.05273
#
# Static dielectric constant tensor:
#      x y z
#    x 3.781860 0.000000 0.000000 
#    y 0.000000 3.243970 0.000000 
#    z 0.000000 0.000000 3.880370 
# 
# 
# High freq. dielectric constant tensor:
#      x y z
#    x 1.781440 0.000000 0.000000 
#    y 0.000000 1.722280 0.000000 
#    z 0.000000 0.000000 1.762040 
# 
# From -- ./inp_files/16883.got.cif
#   From: 2010.03.12/outbox.cif.g09.slc.cpg/sg51_9_cif.got.tgz:16883.got - 2010.04.16 13:43:02.
