data_PCOD8209487
_publ_section_title
;
Structure prediction by ZEFSAII (Michael W. Deem and Ramdas Pophale) SiO2 
 PCOD8209487
Probable space group: P M M A
;
_chemical_formula_sum "Si O2"
_cell_formula_units_Z 64
_cell_length_a 8.955719
_cell_length_b 15.030456
_cell_length_c 25.094559
_cell_angle_alpha 90.000000
_cell_angle_beta 90.000000
_cell_angle_gamma 90.000000
_cell_volume 3377.941958
_symmetry_space_group_name_H-M "P M M A"
_symmetry_group_IT_number 51
_symmetry_cell_setting 'orthorhombic'
loop_
_space_group_symop_operation_xyz
x,y,z
1/2-x,-y,z
1/2+x,-y,-z
-x,y,-z
-x,-y,-z
1/2+x,y,-z
1/2-x,y,z
x,-y,z
loop_
_atom_site_type_symbol
_atom_site_label
_atom_site_fract_x
_atom_site_fract_y
_atom_site_fract_z
Si Si1 0.423530 0.099668 0.096744
Si Si2 0.419620 0.665669 0.244490
Si Si3 0.418078 0.866431 0.215108
Si Si4 0.072267 0.712530 0.648783
Si Si5 0.926777 0.269144 0.054020
Si Si6 0.579900 0.599392 0.146066
Si Si7 0.075257 0.602101 0.443973
Si Si8 0.424760 0.904288 0.679604
O O1 0.250000 0.127757 0.092987
O O2 0.477632 0.102038 0.157998
O O3 0.521445 0.167654 0.062627
O O4 0.448961 0.000000 0.074386
O O5 0.250000 0.638387 0.258785
O O6 0.428212 0.760865 0.217020
O O7 0.516804 0.662327 0.298282
O O8 0.486132 0.599300 0.200723
O O9 0.250000 0.900105 0.224314
O O10 0.517756 0.910158 0.260349
O O11 0.250000 0.704707 0.644908
O O12 0.014738 0.816224 0.649210
O O13 0.998317 0.667027 0.598398
O O14 0.750000 0.272513 0.048228
O O15 0.983432 0.331884 0.102219
O O16 0.000000 0.306091 0.000000
O O17 0.750000 0.625103 0.160097
O O18 0.569529 0.500000 0.122102
O O19 0.250000 0.622271 0.448221
O O20 0.045159 0.500000 0.427324
O O21 0.000000 0.623859 0.500000
O O22 0.250000 0.892758 0.683249
O O23 0.466351 0.000000 0.651628
#
# Coordination Sequence:
#
# PCOD8209487 Si02
#       8
#     8   8   8   8   8   8   8   8
#     4  10  20  35  56  81 109 140 175 217 267 323
#     4  10  19  33  55  82 113 146 181 222 268 321
#     4   9  17  30  50  76 107 141 177 217 264 317
#     4  10  20  34  55  83 117 155 191 229 275 325
#     4  11  24  41  61  80 104 136 175 223 273 327
#     4  10  22  40  60  82 108 139 175 218 272 332
#     4  10  21  38  60  85 113 146 188 237 286 335
#     4   9  18  31  48  75 112 151 189 227 267 315
#
# _framework density 18.946448
#
# number of rings (size 3 to 8) (size 9 to 14) (size 15 to 20)
#    0.000    2.125    1.250    1.875    0.000    5.000 
#    0.000    0.000    0.000    0.375    0.000    0.000 
#    0.000    0.000    0.000    0.000    0.000    0.000 
#
# Total GULP energy -793498.021637 kJ/mol
# GULP energy per Si atom -12398.406588 kJ/mol
# Density = 1.890333 g / cm^3
# Si number density = 18.946448 Si / 1000 Ang^3
#
#
#
# Elastic Constant Matrix: (Units=GPa)
#
#
# Indices 1 2 3 4 5 6 
#
# 1 68.3627 41.8302 48.0275 0.0000 0.0000 0.0000
# 2 41.8302 94.8145 57.7297 0.0000 0.0000 0.0000
# 3 48.0275 57.7297 111.2978 0.0000 0.0000 0.0000
# 4 0.0000 0.0000 0.0000 6.1028 0.0000 0.0000
# 5 0.0000 0.0000 0.0000 0.0000 34.3384 0.0000
# 6 0.0000 0.0000 0.0000 0.0000 0.0000 22.3249
#
#
#
# Elastic Compliance Matrix: (Units=1/GPa)
#
#
# Indices 1 2 3 4 5 6 
#
# 1 0.023135 -0.006034 -0.006853 0.000000 0.000000 0.000000
# 2 -0.006034 0.016989 -0.006208 0.000000 0.000000 0.000000
# 3 -0.006853 -0.006208 0.015163 0.000000 0.000000 0.000000
# 4 0.000000 0.000000 0.000000 0.163859 0.000000 0.000000
# 5 0.000000 0.000000 0.000000 0.000000 0.029122 0.000000
# 6 0.000000 0.000000 0.000000 0.000000 0.000000 0.044793
#
#
# Mechanical properties :
#
#
# Convention : Reuss Voigt Hill
#
# Bulk Modulus (GPa) = 58.49642 63.29441 60.89542
# Shear Modulus (GPa) = 14.83901 21.01239 17.92570
#
# Velocity S-wave (km/s) = 2.80162 3.33384 3.07925
# Velocity P-wave (km/s) = 6.43483 6.94974 6.69724
#
# Compressibility (1/GPa) = 0.01709506
#
# Stress axis : x y z
#
# Youngs Moduli (GPa) = 43.22531 58.86170 65.95168
#
# Poissons Ratio (x) = 0.35515 0.45200
# Poissons Ratio (y) = 0.26081 0.40946
# Poissons Ratio (z) = 0.29624 0.36544
#
# Static dielectric constant tensor:
#      x y z
#    x 3.480990 0.000000 0.000000 
#    y 0.000000 3.695080 0.000000 
#    z 0.000000 0.000000 3.321870 
# 
# 
# High freq. dielectric constant tensor:
#      x y z
#    x 1.736790 0.000000 0.000000 
#    y 0.000000 1.743010 0.000000 
#    z 0.000000 0.000000 1.715830 
# 
# From -- ./inp_files/35034.got.cif
#   From: 2010.03.12/outbox.cif.g09.slc.cpg/sg51_18_cif.got.tgz:35034.got - 2010.04.16 13:43:02.
