data_PCOD8209974
_publ_section_title
;
Structure prediction by ZEFSAII (Michael W. Deem and Ramdas Pophale) SiO2 
 PCOD8209974
Probable space group: P M M A
;
_chemical_formula_sum "Si O2"
_cell_formula_units_Z 64
_cell_length_a 15.532077
_cell_length_b 23.373617
_cell_length_c 9.185991
_cell_angle_alpha 90.000000
_cell_angle_beta 90.000000
_cell_angle_gamma 90.000000
_cell_volume 3334.889696
_symmetry_space_group_name_H-M "P M M A"
_symmetry_group_IT_number 51
_symmetry_cell_setting 'orthorhombic'
loop_
_space_group_symop_operation_xyz
x,y,z
1/2-x,-y,z
1/2+x,-y,-z
-x,y,-z
-x,-y,-z
1/2+x,y,-z
1/2-x,y,z
x,-y,z
loop_
_atom_site_type_symbol
_atom_site_label
_atom_site_fract_x
_atom_site_fract_y
_atom_site_fract_z
Si Si1 0.919707 0.344734 0.593013
Si Si2 0.036140 0.372944 0.851134
Si Si3 0.582928 0.154604 0.090426
Si Si4 0.466409 0.130129 0.341511
Si Si5 0.848818 0.064909 0.864597
Si Si6 0.349316 0.565352 0.626623
Si Si7 0.652669 0.762400 0.710995
Si Si8 0.347519 0.270558 0.961181
O O1 0.874635 0.398189 0.515037
O O2 0.853729 0.291920 0.603192
O O3 0.000000 0.322615 0.500000
O O4 0.952425 0.361975 0.752572
O O5 0.098942 0.416979 0.770693
O O6 0.087113 0.314577 0.886711
O O7 0.000000 0.400719 0.000000
O O8 0.553454 0.132270 0.246926
O O9 0.644533 0.208919 0.116837
O O10 0.500000 0.175516 0.000000
O O11 0.631086 0.104634 0.002883
O O12 0.500000 0.113422 0.500000
O O13 0.404653 0.081163 0.276911
O O14 0.414412 0.189713 0.339292
O O15 0.750000 0.072546 0.820322
O O16 0.870168 0.000000 0.909779
O O17 0.250000 0.574411 0.663140
O O18 0.370947 0.500000 0.588188
O O19 0.750000 0.786883 0.706437
O O20 0.628565 0.739821 0.870819
O O21 0.250000 0.293419 0.943135
#
# Coordination Sequence:
#
# PCOD8209974 Si02
#       8
#     8   8   8   8   8   8   8   8
#     4  10  21  36  59  84 114 153 195 236 282 346
#     4  11  21  36  59  89 117 147 188 240 294 346
#     4  10  19  35  59  83 114 153 199 242 286 340
#     4  11  23  37  56  87 123 158 190 241 298 354
#     4  10  21  40  64  86 112 154 206 248 287 342
#     4  10  23  44  63  82 115 156 197 240 288 346
#     4  11  20  34  57  84 120 157 195 238 290 352
#     4  11  20  33  57  86 120 153 190 239 297 349
#
# _framework density 19.191039
#
# number of rings (size 3 to 8) (size 9 to 14) (size 15 to 20)
#    0.000    1.500    3.750    3.000    0.000    6.000 
#    0.000    5.000    0.000    3.000    0.000    0.000 
#    0.000    0.000    0.000    0.000    0.000    0.000 
#
# Total GULP energy -793594.283246 kJ/mol
# GULP energy per Si atom -12399.910676 kJ/mol
# Density = 1.914736 g / cm^3
# Si number density = 19.191039 Si / 1000 Ang^3
#
#
#
# Elastic Constant Matrix: (Units=GPa)
#
#
# Indices 1 2 3 4 5 6 
#
# 1 81.7412 47.0466 38.1538 0.0000 0.0000 0.0000
# 2 47.0466 115.1271 31.3016 0.0000 0.0000 0.0000
# 3 38.1538 31.3016 107.8516 0.0000 0.0000 0.0000
# 4 0.0000 0.0000 0.0000 28.6798 0.0000 0.0000
# 5 0.0000 0.0000 0.0000 0.0000 22.7912 0.0000
# 6 0.0000 0.0000 0.0000 0.0000 0.0000 32.6932
#
#
#
# Elastic Compliance Matrix: (Units=1/GPa)
#
#
# Indices 1 2 3 4 5 6 
#
# 1 0.017844 -0.006053 -0.004556 0.000000 0.000000 0.000000
# 2 -0.006053 0.011484 -0.001191 0.000000 0.000000 0.000000
# 3 -0.004556 -0.001191 0.011229 0.000000 0.000000 0.000000
# 4 0.000000 0.000000 0.000000 0.034868 0.000000 0.000000
# 5 0.000000 0.000000 0.000000 0.000000 0.043877 0.000000
# 6 0.000000 0.000000 0.000000 0.000000 0.000000 0.030587
#
#
# Mechanical properties :
#
#
# Convention : Reuss Voigt Hill
#
# Bulk Modulus (GPa) = 58.97536 59.74711 59.36124
# Shear Modulus (GPa) = 27.91076 29.38070 28.64573
#
# Velocity S-wave (km/s) = 3.81775 3.91699 3.86769
# Velocity P-wave (km/s) = 7.08738 7.18732 7.13752
#
# Compressibility (1/GPa) = 0.01695623
#
# Stress axis : x y z
#
# Youngs Moduli (GPa) = 56.04043 87.07996 89.05160
#
# Poissons Ratio (x) = 0.52713 0.40570
# Poissons Ratio (y) = 0.33923 0.10610
# Poissons Ratio (z) = 0.25531 0.10375
#
# Static dielectric constant tensor:
#      x y z
#    x 3.659730 0.000000 0.000000 
#    y 0.000000 3.448430 0.000000 
#    z 0.000000 0.000000 3.541280 
# 
# 
# High freq. dielectric constant tensor:
#      x y z
#    x 1.756100 0.000000 0.000000 
#    y 0.000000 1.738620 0.000000 
#    z 0.000000 0.000000 1.737230 
# 
# From -- ./inp_files/8716.got.cif
#   From: 2010.03.12/outbox.cif.g09.slc.cpg/sg51_5_cif.got.tgz:8716.got - 2010.04.16 13:43:02.
