data_PCOD8209064
_publ_section_title
;
Structure prediction by ZEFSAII (Michael W. Deem and Ramdas Pophale) SiO2 
 PCOD8209064
Probable space group: P M M A
;
_chemical_formula_sum "Si O2"
_cell_formula_units_Z 48
_cell_length_a 14.891541
_cell_length_b 9.363386
_cell_length_c 18.628437
_cell_angle_alpha 90.000000
_cell_angle_beta 90.000000
_cell_angle_gamma 90.000000
_cell_volume 2597.460705
_symmetry_space_group_name_H-M "P M M A"
_symmetry_group_IT_number 51
_symmetry_cell_setting 'orthorhombic'
loop_
_space_group_symop_operation_xyz
x,y,z
1/2-x,-y,z
1/2+x,-y,-z
-x,y,-z
-x,-y,-z
1/2+x,y,-z
1/2-x,y,z
x,-y,z
loop_
_atom_site_type_symbol
_atom_site_label
_atom_site_fract_x
_atom_site_fract_y
_atom_site_fract_z
Si Si1 0.568813 0.166545 0.435757
Si Si2 0.250000 0.659412 0.740562
Si Si3 0.996193 0.335031 0.083236
Si Si4 0.851382 0.665806 0.804311
Si Si5 0.042181 0.843940 0.299098
Si Si6 0.750000 0.662330 0.428304
Si Si7 0.605662 0.155674 0.185210
O O1 0.500000 0.191559 0.500000
O O2 0.517784 0.221761 0.363795
O O3 0.659657 0.254772 0.452649
O O4 0.595363 0.000000 0.426828
O O5 0.250000 0.500000 0.773098
O O6 0.250000 0.654066 0.656201
O O7 0.164428 0.744809 0.765321
O O8 0.971219 0.500000 0.095268
O O9 0.087922 0.296679 0.125913
O O10 0.914467 0.238035 0.111492
O O11 0.000000 0.297064 0.000000
O O12 0.750000 0.711488 0.824001
O O13 0.858813 0.500000 0.786839
O O14 0.878633 0.740897 0.728631
O O15 0.984806 0.867635 0.228148
O O16 0.080187 0.000000 0.323640
O O17 0.750000 0.500000 0.460006
O O18 0.649740 0.000000 0.169076
#
# Coordination Sequence:
#
# PCOD8209064 Si02
#       7
#     8   4   8   8   8   4   8
#     4  10  21  39  61  83 112 151 191 230 279 339
#     4  11  21  33  53  81 109 138 177 220 269 329
#     4   9  18  34  53  75 106 143 182 223 272 327
#     4   9  18  33  53  75 102 141 183 223 271 328
#     4   9  18  33  54  79 103 134 176 224 270 314
#     4  11  23  37  59  87 115 148 185 232 289 343
#     4  10  19  32  53  78 105 137 174 222 271 315
#
# _framework density 18.479586000000001
#
# number of rings (size 3 to 8) (size 9 to 14) (size 15 to 20)
#    0.000    2.333    1.667    1.000    0.000    3.000 
#    3.000    0.000    0.000    0.000    0.000    0.000 
#    0.000    0.000    0.000    0.000    0.000    0.000 
#
# Total GULP energy -594810.982703 kJ/mol
# GULP energy per Si atom -12391.895473 kJ/mol
# Density = 1.843753 g / cm^3
# Si number density = 18.479586 Si / 1000 Ang^3
#
#
#
# Elastic Constant Matrix: (Units=GPa)
#
#
# Indices 1 2 3 4 5 6 
#
# 1 91.3310 47.6484 32.4997 0.0000 0.0000 0.0000
# 2 47.6484 98.0077 33.3689 0.0000 0.0000 0.0000
# 3 32.4997 33.3689 85.3079 0.0000 0.0000 0.0000
# 4 0.0000 0.0000 0.0000 25.4211 0.0000 0.0000
# 5 0.0000 0.0000 0.0000 0.0000 25.5472 0.0000
# 6 0.0000 0.0000 0.0000 0.0000 0.0000 -19.5429
#
#
#
# Elastic Compliance Matrix: (Units=1/GPa)
#
#
# Indices 1 2 3 4 5 6 
#
# 1 0.015484 -0.006367 -0.003408 0.000000 0.000000 0.000000
# 2 -0.006367 0.014389 -0.003203 0.000000 0.000000 0.000000
# 3 -0.003408 -0.003203 0.014273 0.000000 0.000000 0.000000
# 4 0.000000 0.000000 0.000000 0.039337 0.000000 0.000000
# 5 0.000000 0.000000 0.000000 0.000000 0.039143 0.000000
# 6 0.000000 0.000000 0.000000 0.000000 0.000000 -0.051170
#
#
# Mechanical properties :
#
#
# Convention : Reuss Voigt Hill
#
# Bulk Modulus (GPa) = 54.97529 55.74228 55.35878
# Shear Modulus (GPa) = 48.31952 17.02707 32.67330
#
# Velocity S-wave (km/s) = 5.11901 3.03875 4.20941
# Velocity P-wave (km/s) = 8.04691 6.52240 7.32443
#
# Compressibility (1/GPa) = 0.01818999
#
# Stress axis : x y z
#
# Youngs Moduli (GPa) = 64.58309 69.49577 70.06017
#
# Poissons Ratio (x) = 0.44251 0.23878
# Poissons Ratio (y) = 0.41123 0.22438
# Poissons Ratio (z) = 0.22011 0.22258
#
# Static dielectric constant tensor:
#      x y z
#    x 3.425280 0.000000 0.000000 
#    y 0.000000 3.837440 0.000000 
#    z 0.000000 0.000000 3.256680 
# 
# 
# High freq. dielectric constant tensor:
#      x y z
#    x 1.705370 0.000000 0.000000 
#    y 0.000000 1.722110 0.000000 
#    z 0.000000 0.000000 1.703820 
# 
# From -- ./inp_files/29619.got.cif
#   From: 2010.03.12/outbox.cif.g09.slc.cpg/sg51_15_cif.got.tgz:29619.got - 2010.04.16 13:43:02.
