data_PCOD8209495
_publ_section_title
;
Structure prediction by ZEFSAII (Michael W. Deem and Ramdas Pophale) SiO2 
 PCOD8209495
Probable space group: P M M A
;
_chemical_formula_sum "Si O2"
_cell_formula_units_Z 48
_cell_length_a 8.747356
_cell_length_b 14.405723
_cell_length_c 20.299376
_cell_angle_alpha 90.000000
_cell_angle_beta 90.000000
_cell_angle_gamma 90.000000
_cell_volume 2557.964715
_symmetry_space_group_name_H-M "P M M A"
_symmetry_group_IT_number 51
_symmetry_cell_setting 'orthorhombic'
loop_
_space_group_symop_operation_xyz
x,y,z
1/2-x,-y,z
1/2+x,-y,-z
-x,y,-z
-x,-y,-z
1/2+x,y,-z
1/2-x,y,z
x,-y,z
loop_
_atom_site_type_symbol
_atom_site_label
_atom_site_fract_x
_atom_site_fract_y
_atom_site_fract_z
Si Si1 0.426730 0.698957 0.816613
Si Si2 0.070366 0.000000 0.883150
Si Si3 0.930224 0.189680 0.931970
Si Si4 0.423871 0.000000 0.255691
Si Si5 0.924955 0.500000 0.234067
Si Si6 0.926446 0.800288 0.696216
Si Si7 0.570345 0.308247 0.568562
Si Si8 0.069455 0.500000 0.374535
O O1 0.250000 0.719449 0.832547
O O2 0.530162 0.737373 0.875167
O O3 0.460213 0.589607 0.810481
O O4 0.468056 0.749180 0.748747
O O5 0.999263 0.089603 0.916775
O O6 0.037849 0.000000 0.805546
O O7 0.250000 0.000000 0.895254
O O8 0.750000 0.180491 0.937953
O O9 0.000000 0.227588 0.000000
O O10 0.454017 0.910469 0.300800
O O11 0.250000 0.000000 0.228137
O O12 0.750000 0.500000 0.258292
O O13 0.029671 0.500000 0.297960
O O14 0.750000 0.774356 0.710879
O O15 0.975214 0.767036 0.623705
O O16 0.500000 0.275039 0.500000
O O17 0.750000 0.314696 0.559883
O O18 0.502388 0.408654 0.589743
O O19 0.250000 0.500000 0.379056
#
# Coordination Sequence:
#
# PCOD8209495 Si02
#       8
#     8   4   8   4   4   8   8   4
#     4  11  22  38  60  88 119 153 194 241 291 349
#     4  12  23  37  60  93 126 155 193 242 294 351
#     4  12  25  42  62  88 122 160 198 241 294 347
#     4  10  20  35  58  87 117 151 195 240 293 347
#     4  10  22  37  58  89 121 151 189 241 296 347
#     4  10  20  36  58  83 114 152 195 243 291 347
#     4  10  21  35  53  80 114 153 194 241 297 353
#     4  10  19  33  55  83 113 145 190 243 294 357
#
# _framework density 18.764918999999999
#
# number of rings (size 3 to 8) (size 9 to 14) (size 15 to 20)
#    0.000    1.333    3.333    3.250    0.000    2.000 
#    0.000    0.833    0.000    0.000    0.000    0.000 
#    0.000    0.000    0.000    0.000    0.000    0.000 
#
# Total GULP energy -595420.365755 kJ/mol
# GULP energy per Si atom -12404.590953 kJ/mol
# Density = 1.872221 g / cm^3
# Si number density = 18.764919 Si / 1000 Ang^3
#
#
#
# Elastic Constant Matrix: (Units=GPa)
#
#
# Indices 1 2 3 4 5 6 
#
# 1 88.9634 40.0140 46.1199 0.0000 0.0000 0.0000
# 2 40.0140 124.1870 52.2519 0.0000 0.0000 0.0000
# 3 46.1199 52.2519 133.8801 0.0000 0.0000 0.0000
# 4 0.0000 0.0000 0.0000 33.3203 0.0000 0.0000
# 5 0.0000 0.0000 0.0000 0.0000 35.2307 0.0000
# 6 0.0000 0.0000 0.0000 0.0000 0.0000 1.8014
#
#
#
# Elastic Compliance Matrix: (Units=1/GPa)
#
#
# Indices 1 2 3 4 5 6 
#
# 1 0.014618 -0.003100 -0.003826 0.000000 0.000000 0.000000
# 2 -0.003100 0.010292 -0.002949 0.000000 0.000000 0.000000
# 3 -0.003826 -0.002949 0.009938 0.000000 0.000000 0.000000
# 4 0.000000 0.000000 0.000000 0.030012 0.000000 0.000000
# 5 0.000000 0.000000 0.000000 0.000000 0.028384 0.000000
# 6 0.000000 0.000000 0.000000 0.000000 0.000000 0.555109
#
#
# Mechanical properties :
#
#
# Convention : Reuss Voigt Hill
#
# Bulk Modulus (GPa) = 66.23135 69.31135 67.77135
# Shear Modulus (GPa) = 7.42791 27.98014 17.70402
#
# Velocity S-wave (km/s) = 1.99173 3.86565 3.07492
# Velocity P-wave (km/s) = 6.37662 7.54594 6.98579
#
# Compressibility (1/GPa) = 0.01509859
#
# Stress axis : x y z
#
# Youngs Moduli (GPa) = 68.40670 97.16199 100.62190
#
# Poissons Ratio (x) = 0.30125 0.38496
# Poissons Ratio (y) = 0.21209 0.29672
# Poissons Ratio (z) = 0.26171 0.28651
#
# Static dielectric constant tensor:
#      x y z
#    x 3.458120 0.000000 0.000000 
#    y 0.000000 3.665320 0.000000 
#    z 0.000000 0.000000 3.457610 
# 
# 
# High freq. dielectric constant tensor:
#      x y z
#    x 1.729560 0.000000 0.000000 
#    y 0.000000 1.732940 0.000000 
#    z 0.000000 0.000000 1.725450 
# 
# From -- ./inp_files/27702.got.cif
#   From: 2010.03.12/outbox.cif.g09.slc.cpg/sg51_14_cif.got.tgz:27702.got - 2010.04.16 13:43:02.
