data_PCOD8209043
_publ_section_title
;
Structure prediction by ZEFSAII (Michael W. Deem and Ramdas Pophale) SiO2 
 PCOD8209043
Probable space group: P M M A
;
_chemical_formula_sum "Si O2"
_cell_formula_units_Z 64
_cell_length_a 33.281675
_cell_length_b 9.098677
_cell_length_c 11.065529
_cell_angle_alpha 90.000000
_cell_angle_beta 90.000000
_cell_angle_gamma 90.000000
_cell_volume 3350.854759
_symmetry_space_group_name_H-M "P M M A"
_symmetry_group_IT_number 51
_symmetry_cell_setting 'orthorhombic'
loop_
_space_group_symop_operation_xyz
x,y,z
1/2-x,-y,z
1/2+x,-y,-z
-x,y,-z
-x,-y,-z
1/2+x,y,-z
1/2-x,y,z
x,-y,z
loop_
_atom_site_type_symbol
_atom_site_label
_atom_site_fract_x
_atom_site_fract_y
_atom_site_fract_z
Si Si1 0.635664 0.829977 0.343932
Si Si2 0.092737 0.170796 0.902982
Si Si3 0.631108 0.171090 0.847917
Si Si4 0.703691 0.332947 0.456741
Si Si5 0.204779 0.326770 0.267689
Si Si6 0.979025 0.669831 0.211265
Si Si7 0.434709 0.330230 0.538141
Si Si8 0.447484 0.172345 0.297228
O O1 0.623502 0.800044 0.206172
O O2 0.680819 0.774324 0.364359
O O3 0.608749 0.737581 0.436591
O O4 0.631375 0.000000 0.377912
O O5 0.051935 0.262111 0.884739
O O6 0.080820 0.000000 0.913006
O O7 0.114587 0.227281 0.023387
O O8 0.672564 0.252059 0.819475
O O9 0.597644 0.205430 0.746931
O O10 0.640947 0.000000 0.854387
O O11 0.750000 0.320964 0.421882
O O12 0.688579 0.500000 0.440341
O O13 0.696539 0.279895 0.594146
O O14 0.250000 0.277798 0.230308
O O15 0.200578 0.500000 0.254445
O O16 0.985581 0.500000 0.178839
O O17 0.962714 0.691639 0.346411
O O18 0.021209 0.755778 0.202548
O O19 0.429984 0.500000 0.502679
O O20 0.454730 0.245355 0.427093
O O21 0.456318 0.000000 0.304743
#
# Coordination Sequence:
#
# PCOD8209043 Si02
#       8
#     8   8   8   8   8   8   8   8
#     4  10  19  32  53  77 100 132 173 214 258 307
#     4   9  20  39  56  71 100 140 178 217 259 303
#     4  10  22  38  55  77 104 138 179 217 257 305
#     4   9  18  33  53  78 109 140 166 201 257 318
#     4   9  19  36  57  81 108 137 168 205 254 308
#     4  10  21  36  54  77 104 137 176 215 261 313
#     4  10  20  34  52  75 105 137 170 212 261 315
#     4  11  22  34  52  79 108 137 173 217 262 310
#
# _framework density 19.099603999999999
#
# number of rings (size 3 to 8) (size 9 to 14) (size 15 to 20)
#    0.000    2.250    0.000    3.375    0.000    8.500 
#    0.000    4.375    0.000    3.750    0.000    0.000 
#    0.000    0.000    0.000    0.000    0.000    0.000 
#
# Total GULP energy -793787.847249 kJ/mol
# GULP energy per Si atom -12402.935113 kJ/mol
# Density = 1.905613 g / cm^3
# Si number density = 19.099604 Si / 1000 Ang^3
#
#
#
# Elastic Constant Matrix: (Units=GPa)
#
#
# Indices 1 2 3 4 5 6 
#
# 1 86.3986 43.9818 13.1936 0.0000 0.0000 0.0000
# 2 43.9818 87.2471 25.6726 0.0000 0.0000 0.0000
# 3 13.1936 25.6726 44.2279 0.0000 0.0000 0.0000
# 4 0.0000 0.0000 0.0000 24.5565 0.0000 0.0000
# 5 0.0000 0.0000 0.0000 0.0000 22.9378 0.0000
# 6 0.0000 0.0000 0.0000 0.0000 0.0000 39.3053
#
#
#
# Elastic Compliance Matrix: (Units=1/GPa)
#
#
# Indices 1 2 3 4 5 6 
#
# 1 0.015570 -0.007818 -0.000107 0.000000 0.000000 0.000000
# 2 -0.007818 0.017748 -0.007970 0.000000 0.000000 0.000000
# 3 -0.000107 -0.007970 0.027268 0.000000 0.000000 0.000000
# 4 0.000000 0.000000 0.000000 0.040722 0.000000 0.000000
# 5 0.000000 0.000000 0.000000 0.000000 0.043596 0.000000
# 6 0.000000 0.000000 0.000000 0.000000 0.000000 0.025442
#
#
# Mechanical properties :
#
#
# Convention : Reuss Voigt Hill
#
# Bulk Modulus (GPa) = 34.72522 42.61884 38.67203
# Shear Modulus (GPa) = 23.61450 26.36163 24.98807
#
# Velocity S-wave (km/s) = 3.52004 3.71916 3.62097
# Velocity P-wave (km/s) = 5.89420 6.38790 6.14601
#
# Compressibility (1/GPa) = 0.02879751
#
# Stress axis : x y z
#
# Youngs Moduli (GPa) = 64.22535 56.34528 36.67269
#
# Poissons Ratio (x) = 0.44048 0.00392
# Poissons Ratio (y) = 0.50209 0.29227
# Poissons Ratio (z) = 0.00687 0.44906
#
# Static dielectric constant tensor:
#      x y z
#    x 3.494960 0.000000 0.000000 
#    y 0.000000 3.451520 0.000000 
#    z 0.000000 0.000000 3.376470 
# 
# 
# High freq. dielectric constant tensor:
#      x y z
#    x 1.746670 0.000000 0.000000 
#    y 0.000000 1.744260 0.000000 
#    z 0.000000 0.000000 1.730200 
# 
# From -- ./inp_files/19576.got.cif
#   From: 2010.03.12/outbox.cif.g09.slc.cpg/sg51_10_cif.got.tgz:19576.got - 2010.04.16 13:43:02.
