data_PCOD8209436
_publ_section_title
;
Structure prediction by ZEFSAII (Michael W. Deem and Ramdas Pophale) SiO2 
 PCOD8209436
Probable space group: P M M A
;
_chemical_formula_sum "Si O2"
_cell_formula_units_Z 64
_cell_length_a 20.106337
_cell_length_b 8.778594
_cell_length_c 19.871751
_cell_angle_alpha 90.000000
_cell_angle_beta 90.000000
_cell_angle_gamma 90.000000
_cell_volume 3507.470750
_symmetry_space_group_name_H-M "P M M A"
_symmetry_group_IT_number 51
_symmetry_cell_setting 'orthorhombic'
loop_
_space_group_symop_operation_xyz
x,y,z
1/2-x,-y,z
1/2+x,-y,-z
-x,y,-z
-x,-y,-z
1/2+x,y,-z
1/2-x,y,z
x,-y,z
loop_
_atom_site_type_symbol
_atom_site_label
_atom_site_fract_x
_atom_site_fract_y
_atom_site_fract_z
Si Si1 0.823489 0.180665 0.567817
Si Si2 0.099440 0.177742 0.307101
Si Si3 0.928431 0.674839 0.473915
Si Si4 0.433980 0.322603 0.821201
Si Si5 0.965825 0.327422 0.327979
Si Si6 0.673823 0.823394 0.087061
Si Si7 0.673382 0.677825 0.945516
Si Si8 0.424972 0.180946 0.160299
O O1 0.750000 0.245510 0.554325
O O2 0.847745 0.247952 0.640169
O O3 0.870303 0.229197 0.507101
O O4 0.823602 0.000000 0.570822
O O5 0.106310 0.241613 0.231041
O O6 0.026748 0.212844 0.335646
O O7 0.110207 0.000000 0.304066
O O8 0.919809 0.500000 0.495444
O O9 0.919883 0.696824 0.393420
O O10 0.000000 0.734118 0.500000
O O11 0.429449 0.500000 0.839646
O O12 0.426487 0.294185 0.741050
O O13 0.372768 0.232630 0.853025
O O14 0.503411 0.258737 0.850361
O O15 0.993916 0.500000 0.326677
O O16 0.750000 0.796141 0.109177
O O17 0.660378 0.000000 0.071315
O O18 0.656511 0.726193 0.021174
O O19 0.750000 0.717075 0.928216
O O20 0.658669 0.500000 0.936821
O O21 0.625795 0.773044 0.897386
O O22 0.435396 0.000000 0.160312
#
# Coordination Sequence:
#
# PCOD8209436 Si02
#       8
#     8   8   8   8   8   8   8   8
#     4  10  21  35  50  74 108 142 178 220 265 315
#     4   9  18  32  51  74 102 138 176 214 259 312
#     4  10  19  33  55  79 102 135 178 222 265 314
#     4  10  20  35  56  81 110 141 175 221 271 320
#     4   9  18  33  53  78 105 133 171 218 264 313
#     4  10  21  38  59  81 106 138 178 223 270 322
#     4  10  21  37  56  79 108 142 181 222 265 319
#     4  10  20  34  54  81 111 143 179 220 266 315
#
# _framework density 18.246765
#
# number of rings (size 3 to 8) (size 9 to 14) (size 15 to 20)
#    0.000    2.250    1.250    1.500    0.000    4.500 
#    0.000    4.375    0.000    3.750    0.000    0.000 
#    0.000    0.000    0.000    0.000    0.000    0.000 
#
# Total GULP energy -793510.950301 kJ/mol
# GULP energy per Si atom -12398.608598 kJ/mol
# Density = 1.820523 g / cm^3
# Si number density = 18.246765 Si / 1000 Ang^3
#
#
#
# Elastic Constant Matrix: (Units=GPa)
#
#
# Indices 1 2 3 4 5 6 
#
# 1 108.2623 22.9520 65.4674 0.0000 0.0000 0.0000
# 2 22.9520 34.0592 19.0825 0.0000 0.0000 0.0000
# 3 65.4674 19.0825 104.7959 0.0000 0.0000 0.0000
# 4 0.0000 0.0000 0.0000 27.2404 0.0000 0.0000
# 5 0.0000 0.0000 0.0000 0.0000 29.6751 0.0000
# 6 0.0000 0.0000 0.0000 0.0000 0.0000 23.5817
#
#
#
# Elastic Compliance Matrix: (Units=1/GPa)
#
#
# Indices 1 2 3 4 5 6 
#
# 1 0.015777 -0.005690 -0.008820 0.000000 0.000000 0.000000
# 2 -0.005690 0.034749 -0.002773 0.000000 0.000000 0.000000
# 3 -0.008820 -0.002773 0.015557 0.000000 0.000000 0.000000
# 4 0.000000 0.000000 0.000000 0.036710 0.000000 0.000000
# 5 0.000000 0.000000 0.000000 0.000000 0.033698 0.000000
# 6 0.000000 0.000000 0.000000 0.000000 0.000000 0.042406
#
#
# Mechanical properties :
#
#
# Convention : Reuss Voigt Hill
#
# Bulk Modulus (GPa) = 31.72884 51.34681 41.53782
# Shear Modulus (GPa) = 22.32471 25.40715 23.86593
#
# Velocity S-wave (km/s) = 3.50163 3.73556 3.62049
# Velocity P-wave (km/s) = 5.81163 6.84158 6.34753
#
# Compressibility (1/GPa) = 0.03151707
#
# Stress axis : x y z
#
# Youngs Moduli (GPa) = 63.38534 28.77810 64.27967
#
# Poissons Ratio (x) = 0.16375 0.56693
# Poissons Ratio (y) = 0.36067 0.17823
# Poissons Ratio (z) = 0.55904 0.07979
#
# Static dielectric constant tensor:
#      x y z
#    x 3.298170 0.000000 0.000000 
#    y 0.000000 3.357140 0.000000 
#    z 0.000000 0.000000 3.549740 
# 
# 
# High freq. dielectric constant tensor:
#      x y z
#    x 1.691040 0.000000 0.000000 
#    y 0.000000 1.707950 0.000000 
#    z 0.000000 0.000000 1.716480 
# 
# From -- ./inp_files/30524.got.cif
#   From: 2010.03.12/outbox.cif.g09.slc.cpg/sg51_16_cif.got.tgz:30524.got - 2010.04.16 13:43:02.
