data_PCOD8209180
_publ_section_title
;
Structure prediction by ZEFSAII (Michael W. Deem and Ramdas Pophale) SiO2 
 PCOD8209180
Probable space group: P M M A
;
_chemical_formula_sum "Si O2"
_cell_formula_units_Z 48
_cell_length_a 15.841094
_cell_length_b 13.581786
_cell_length_c 13.606518
_cell_angle_alpha 90.000000
_cell_angle_beta 90.000000
_cell_angle_gamma 90.000000
_cell_volume 2927.447092
_symmetry_space_group_name_H-M "P M M A"
_symmetry_group_IT_number 51
_symmetry_cell_setting 'orthorhombic'
loop_
_space_group_symop_operation_xyz
x,y,z
1/2-x,-y,z
1/2+x,-y,-z
-x,y,-z
-x,-y,-z
1/2+x,y,-z
1/2-x,y,z
x,-y,z
loop_
_atom_site_type_symbol
_atom_site_label
_atom_site_fract_x
_atom_site_fract_y
_atom_site_fract_z
Si Si1 0.488102 0.108167 0.385182
Si Si2 0.928991 0.614137 0.714377
Si Si3 0.750000 0.617036 0.259025
Si Si4 0.845443 0.249143 0.579833
Si Si5 0.750000 0.385248 0.028198
Si Si6 0.591585 0.290099 0.365483
Si Si7 0.577882 0.382593 0.936595
O O1 0.500000 0.095095 0.500000
O O2 0.396258 0.157693 0.372929
O O3 0.561087 0.178438 0.338520
O O4 0.491243 0.000000 0.334258
O O5 0.910476 0.500000 0.715822
O O6 0.849713 0.663654 0.659610
O O7 0.935160 0.654549 0.825486
O O8 0.014468 0.636241 0.654569
O O9 0.750000 0.500000 0.285585
O O10 0.750000 0.634421 0.143656
O O11 0.830842 0.672795 0.301266
O O12 0.750000 0.215565 0.560706
O O13 0.886072 0.291460 0.480211
O O14 0.750000 0.500000 0.005332
O O15 0.665699 0.339102 0.979684
O O16 0.578110 0.500000 0.943046
O O17 0.500000 0.340177 0.000000
#
# Coordination Sequence:
#
# PCOD8209180 Si02
#       7
#     8   8   4   8   4   8   8
#     4   8  16  32  52  68  90 124 157 198 252 290
#     4  10  20  31  46  64  94 136 169 196 238 281
#     4  11  20  30  48  70 100 137 168 196 238 283
#     4  10  20  32  45  69 101 128 160 203 233 282
#     4   9  18  30  45  66  92 123 165 212 251 287
#     4  10  19  33  47  68  99 129 167 205 230 280
#     4   9  17  30  46  64  87 120 165 211 249 285
#
# _framework density 16.396539000000001
#
# number of rings (size 3 to 8) (size 9 to 14) (size 15 to 20)
#    0.000    2.500    0.833    3.000    1.167    5.333 
#    0.000    0.417    0.000    0.000    0.000    0.000 
#    0.000   48.000    0.000    0.000    0.000    0.000 
#
# Total GULP energy -594889.941151 kJ/mol
# GULP energy per Si atom -12393.540441 kJ/mol
# Density = 1.635922 g / cm^3
# Si number density = 16.396539 Si / 1000 Ang^3
#
#
#
# Elastic Constant Matrix: (Units=GPa)
#
#
# Indices 1 2 3 4 5 6 
#
# 1 124.3133 36.9764 44.6170 0.0000 0.0000 0.0000
# 2 36.9764 83.0933 39.2883 0.0000 0.0000 0.0000
# 3 44.6170 39.2883 81.8058 0.0000 0.0000 0.0000
# 4 0.0000 0.0000 0.0000 1.6654 0.0000 0.0000
# 5 0.0000 0.0000 0.0000 0.0000 24.6166 0.0000
# 6 0.0000 0.0000 0.0000 0.0000 0.0000 14.5124
#
#
#
# Elastic Compliance Matrix: (Units=1/GPa)
#
#
# Indices 1 2 3 4 5 6 
#
# 1 0.010393 -0.002516 -0.004460 0.000000 0.000000 0.000000
# 2 -0.002516 0.016180 -0.006398 0.000000 0.000000 0.000000
# 3 -0.004460 -0.006398 0.017729 0.000000 0.000000 0.000000
# 4 0.000000 0.000000 0.000000 0.600473 0.000000 0.000000
# 5 0.000000 0.000000 0.000000 0.000000 0.040623 0.000000
# 6 0.000000 0.000000 0.000000 0.000000 0.000000 0.068906
#
#
# Mechanical properties :
#
#
# Convention : Reuss Voigt Hill
#
# Bulk Modulus (GPa) = 56.96877 58.99732 57.98305
# Shear Modulus (GPa) = 6.35401 19.38092 12.86746
#
# Velocity S-wave (km/s) = 1.97069 3.44177 2.80441
# Velocity P-wave (km/s) = 6.32440 7.20098 6.77687
#
# Compressibility (1/GPa) = 0.01755348
#
# Stress axis : x y z
#
# Youngs Moduli (GPa) = 96.21489 61.80653 56.40347
#
# Poissons Ratio (x) = 0.15552 0.25157
# Poissons Ratio (y) = 0.24210 0.36087
# Poissons Ratio (z) = 0.42913 0.39544
#
# Static dielectric constant tensor:
#      x y z
#    x 3.284590 0.000000 0.000000 
#    y 0.000000 3.084810 0.000000 
#    z 0.000000 0.000000 3.096670 
# 
# 
# High freq. dielectric constant tensor:
#      x y z
#    x 1.643160 0.000000 0.000000 
#    y 0.000000 1.592340 0.000000 
#    z 0.000000 0.000000 1.621400 
# 
# From -- ./inp_files/16528.got.cif
#   From: 2010.03.12/outbox.cif.g09.slc.cpg/sg51_9_cif.got.tgz:16528.got - 2010.04.16 13:43:02.
