data_PCOD8209139
_publ_section_title
;
Structure prediction by ZEFSAII (Michael W. Deem and Ramdas Pophale) SiO2 
 PCOD8209139
Probable space group: P M M A
;
_chemical_formula_sum "Si O2"
_cell_formula_units_Z 64
_cell_length_a 24.941650
_cell_length_b 9.462190
_cell_length_c 14.622456
_cell_angle_alpha 90.000000
_cell_angle_beta 90.000000
_cell_angle_gamma 90.000000
_cell_volume 3450.938091
_symmetry_space_group_name_H-M "P M M A"
_symmetry_group_IT_number 51
_symmetry_cell_setting 'orthorhombic'
loop_
_space_group_symop_operation_xyz
x,y,z
1/2-x,-y,z
1/2+x,-y,-z
-x,y,-z
-x,-y,-z
1/2+x,y,-z
1/2-x,y,z
x,-y,z
loop_
_atom_site_type_symbol
_atom_site_label
_atom_site_fract_x
_atom_site_fract_y
_atom_site_fract_z
Si Si1 0.911703 0.834597 0.718214
Si Si2 0.334980 0.160110 0.975483
Si Si3 0.546143 0.841718 0.067285
Si Si4 0.489061 0.340434 0.776954
Si Si5 0.189151 0.337713 0.796656
Si Si6 0.605295 0.659723 0.354359
Si Si7 0.191403 0.167151 0.174545
Si Si8 0.938570 0.835433 0.510925
O O1 0.957254 0.750182 0.771468
O O2 0.854599 0.777825 0.756409
O O3 0.916104 0.802070 0.611204
O O4 0.920226 0.000000 0.738071
O O5 0.398703 0.161764 0.987216
O O6 0.315607 0.251303 0.890115
O O7 0.314053 0.000000 0.960068
O O8 0.313518 0.225801 0.070734
O O9 0.549901 0.730002 0.148782
O O10 0.534357 0.000000 0.104826
O O11 0.500000 0.790178 0.000000
O O12 0.503880 0.500000 0.805041
O O13 0.455111 0.337693 0.684315
O O14 0.250000 0.324456 0.760087
O O15 0.173869 0.500000 0.818077
O O16 0.149050 0.279497 0.717877
O O17 0.621519 0.500000 0.381671
O O18 0.602923 0.756233 0.444138
O O19 0.250000 0.212175 0.213115
O O20 0.185904 0.000000 0.168319
O O21 0.000000 0.781895 0.500000
O O22 0.935983 0.000000 0.486526
#
# Coordination Sequence:
#
# PCOD8209139 Si02
#       8
#     8   8   8   8   8   8   8   8
#     4  10  20  36  57  80 109 142 179 221 272 331
#     4  10  19  32  54  81 106 135 179 227 264 308
#     4  10  20  33  50  75 108 147 183 217 268 327
#     4  11  21  33  52  79 110 141 176 220 270 320
#     4  10  21  38  57  77 107 147 185 219 264 323
#     4  10  21  36  54  78 108 141 177 218 268 322
#     4   9  18  34  56  80 106 139 180 223 265 315
#     4  10  20  34  55  83 110 139 176 220 269 321
#
# _framework density 18.545680999999998
#
# number of rings (size 3 to 8) (size 9 to 14) (size 15 to 20)
#    0.000    2.000    2.500    1.500    0.000    4.750 
#    0.000    2.500    0.000    1.875    0.000    0.000 
#    0.000    0.000    0.000    0.000    0.000    0.000 
#
# Total GULP energy -793528.625503 kJ/mol
# GULP energy per Si atom -12398.884773 kJ/mol
# Density = 1.850347 g / cm^3
# Si number density = 18.545681 Si / 1000 Ang^3
#
#
#
# Elastic Constant Matrix: (Units=GPa)
#
#
# Indices 1 2 3 4 5 6 
#
# 1 116.9111 24.2274 47.6927 0.0000 0.0000 0.0000
# 2 24.2274 55.9060 38.2105 0.0000 0.0000 0.0000
# 3 47.6927 38.2105 98.5572 0.0000 0.0000 0.0000
# 4 0.0000 0.0000 0.0000 17.7362 0.0000 0.0000
# 5 0.0000 0.0000 0.0000 0.0000 21.8250 0.0000
# 6 0.0000 0.0000 0.0000 0.0000 0.0000 18.6137
#
#
#
# Elastic Compliance Matrix: (Units=1/GPa)
#
#
# Indices 1 2 3 4 5 6 
#
# 1 0.010749 -0.001501 -0.004620 0.000000 0.000000 0.000000
# 2 -0.001501 0.024545 -0.008790 0.000000 0.000000 0.000000
# 3 -0.004620 -0.008790 0.015790 0.000000 0.000000 0.000000
# 4 0.000000 0.000000 0.000000 0.056382 0.000000 0.000000
# 5 0.000000 0.000000 0.000000 0.000000 0.045819 0.000000
# 6 0.000000 0.000000 0.000000 0.000000 0.000000 0.053724
#
#
# Mechanical properties :
#
#
# Convention : Reuss Voigt Hill
#
# Bulk Modulus (GPa) = 47.02941 54.62614 50.82778
# Shear Modulus (GPa) = 20.49872 22.38455 21.44163
#
# Velocity S-wave (km/s) = 3.32823 3.47795 3.40391
# Velocity P-wave (km/s) = 6.33902 6.75626 6.55096
#
# Compressibility (1/GPa) = 0.02126329
#
# Stress axis : x y z
#
# Youngs Moduli (GPa) = 93.03125 40.74102 63.33207
#
# Poissons Ratio (x) = 0.06114 0.29258
# Poissons Ratio (y) = 0.13961 0.55669
# Poissons Ratio (z) = 0.42978 0.35811
#
# Static dielectric constant tensor:
#      x y z
#    x 3.533790 0.000000 0.000000 
#    y 0.000000 3.273120 0.000000 
#    z 0.000000 0.000000 3.325000 
# 
# 
# High freq. dielectric constant tensor:
#      x y z
#    x 1.723880 0.000000 0.000000 
#    y 0.000000 1.699090 0.000000 
#    z 0.000000 0.000000 1.710630 
# 
# From -- ./inp_files/26185.got.cif
#   From: 2010.03.12/outbox.cif.g09.slc.cpg/sg51_14_cif.got.tgz:26185.got - 2010.04.16 13:43:02.
