data_PCOD8209661
_publ_section_title
;
Structure prediction by ZEFSAII (Michael W. Deem and Ramdas Pophale) SiO2 
 PCOD8209661
Probable space group: P M M A
;
_chemical_formula_sum "Si O2"
_cell_formula_units_Z 52
_cell_length_a 8.901718
_cell_length_b 23.336295
_cell_length_c 14.539108
_cell_angle_alpha 90.000000
_cell_angle_beta 90.000000
_cell_angle_gamma 90.000000
_cell_volume 3020.254227
_symmetry_space_group_name_H-M "P M M A"
_symmetry_group_IT_number 51
_symmetry_cell_setting 'orthorhombic'
loop_
_space_group_symop_operation_xyz
x,y,z
1/2-x,-y,z
1/2+x,-y,-z
-x,y,-z
-x,-y,-z
1/2+x,y,-z
1/2-x,y,z
x,-y,z
loop_
_atom_site_type_symbol
_atom_site_label
_atom_site_fract_x
_atom_site_fract_y
_atom_site_fract_z
Si Si1 0.078048 0.565193 0.777434
Si Si2 0.076632 0.734003 0.407973
Si Si3 0.428675 0.340855 0.099619
Si Si4 0.072630 0.123658 0.099622
Si Si5 0.075718 0.000000 0.096947
Si Si6 0.574644 0.400346 0.593884
Si Si7 0.928751 0.230700 0.787050
O O1 0.250000 0.586838 0.773257
O O2 0.070436 0.500000 0.812638
O O3 0.983785 0.602782 0.848425
O O4 0.005816 0.567624 0.676799
O O5 0.250000 0.747802 0.419195
O O6 0.046642 0.667013 0.394374
O O7 0.009648 0.765369 0.317510
O O8 0.000000 0.758112 0.500000
O O9 0.250000 0.342972 0.091778
O O10 0.485439 0.284907 0.154470
O O11 0.500000 0.338426 0.000000
O O12 0.250000 0.131279 0.087136
O O13 0.032651 0.060816 0.145186
O O14 0.008704 0.172249 0.167699
O O15 0.000000 0.131302 0.000000
O O16 0.250000 0.000000 0.077000
O O17 0.000000 0.000000 0.000000
O O18 0.500000 0.422717 0.500000
O O19 0.750000 0.415657 0.593568
O O20 0.750000 0.231614 0.784243
#
# Coordination Sequence:
#
# PCOD8209661 Si02
#       7
#     8   8   8   8   4   8   8
#     4  11  24  40  56  75  98 127 165 204 245 296
#     4   9  17  31  49  72  97 124 155 191 239 289
#     4  11  22  38  56  75  98 127 162 202 250 297
#     4   9  16  27  44  67  99 133 165 200 235 279
#     4   8  14  24  40  64  93 130 168 198 233 274
#     4  10  19  34  56  79 103 129 159 197 246 299
#     4   9  17  31  50  72 100 129 158 197 244 288
#
# _framework density 17.217092999999998
#
# number of rings (size 3 to 8) (size 9 to 14) (size 15 to 20)
#    0.000    2.308    1.538    1.846    0.000    2.462 
#    0.000    1.538    0.000    0.000    0.000    0.538 
#    0.000    0.000    0.000    0.000    0.000    0.000 
#
# Total GULP energy -644564.364152 kJ/mol
# GULP energy per Si atom -12395.468541 kJ/mol
# Density = 1.717791 g / cm^3
# Si number density = 17.217093 Si / 1000 Ang^3
#
#
#
# Elastic Constant Matrix: (Units=GPa)
#
#
# Indices 1 2 3 4 5 6 
#
# 1 55.3752 36.0629 34.9153 0.0000 0.0000 0.0000
# 2 36.0629 115.4757 66.5321 0.0000 0.0000 0.0000
# 3 34.9153 66.5321 136.1166 0.0000 0.0000 0.0000
# 4 0.0000 0.0000 0.0000 22.8185 0.0000 0.0000
# 5 0.0000 0.0000 0.0000 0.0000 30.0360 0.0000
# 6 0.0000 0.0000 0.0000 0.0000 0.0000 15.2614
#
#
#
# Elastic Compliance Matrix: (Units=1/GPa)
#
#
# Indices 1 2 3 4 5 6 
#
# 1 0.023771 -0.005443 -0.003437 0.000000 0.000000 0.000000
# 2 -0.005443 0.013301 -0.005105 0.000000 0.000000 0.000000
# 3 -0.003437 -0.005105 0.010724 0.000000 0.000000 0.000000
# 4 0.000000 0.000000 0.000000 0.043824 0.000000 0.000000
# 5 0.000000 0.000000 0.000000 0.000000 0.033293 0.000000
# 6 0.000000 0.000000 0.000000 0.000000 0.000000 0.065525
#
#
# Mechanical properties :
#
#
# Convention : Reuss Voigt Hill
#
# Bulk Modulus (GPa) = 50.44216 64.66533 57.55375
# Shear Modulus (GPa) = 22.22060 24.92033 23.57047
#
# Velocity S-wave (km/s) = 3.59641 3.80862 3.70403
# Velocity P-wave (km/s) = 6.82692 7.54858 7.19680
#
# Compressibility (1/GPa) = 0.01982469
#
# Stress axis : x y z
#
# Youngs Moduli (GPa) = 42.06883 75.18134 93.25291
#
# Poissons Ratio (x) = 0.40924 0.32048
# Poissons Ratio (y) = 0.22900 0.47607
# Poissons Ratio (z) = 0.14458 0.38381
#
# Static dielectric constant tensor:
#      x y z
#    x 3.090700 0.000000 0.000000 
#    y 0.000000 3.541760 0.000000 
#    z 0.000000 0.000000 11.614930 
# 
# 
# High freq. dielectric constant tensor:
#      x y z
#    x 1.658690 0.000000 0.000000 
#    y 0.000000 1.657400 0.000000 
#    z 0.000000 0.000000 1.656240 
# 
# From -- ./inp_files/22020.got.cif
#   From: 2010.03.12/outbox.cif.g09.slc.cpg/sg51_12_cif.got.tgz:22020.got - 2010.04.16 13:43:02.
