data_PCOD8209704
_publ_section_title
;
Structure prediction by ZEFSAII (Michael W. Deem and Ramdas Pophale) SiO2 
 PCOD8209704
Probable space group: P M M A
;
_chemical_formula_sum "Si O2"
_cell_formula_units_Z 48
_cell_length_a 30.983943
_cell_length_b 8.735520
_cell_length_c 9.057992
_cell_angle_alpha 90.000000
_cell_angle_beta 90.000000
_cell_angle_gamma 90.000000
_cell_volume 2451.643848
_symmetry_space_group_name_H-M "P M M A"
_symmetry_group_IT_number 51
_symmetry_cell_setting 'orthorhombic'
loop_
_space_group_symop_operation_xyz
x,y,z
1/2-x,-y,z
1/2+x,-y,-z
-x,y,-z
-x,-y,-z
1/2+x,y,-z
1/2-x,y,z
x,-y,z
loop_
_atom_site_type_symbol
_atom_site_label
_atom_site_fract_x
_atom_site_fract_y
_atom_site_fract_z
Si Si1 0.497448 0.828395 0.324877
Si Si2 0.332431 0.180183 0.165406
Si Si3 0.750000 0.181202 0.320065
Si Si4 0.084529 0.321854 0.676438
Si Si5 0.750000 0.181164 0.651453
Si Si6 0.330394 0.680142 0.846131
Si Si7 0.089740 0.322023 0.334050
O O1 0.500000 0.824654 0.500000
O O2 0.542434 0.764698 0.261076
O O3 0.457695 0.722291 0.273571
O O4 0.490231 0.000000 0.265481
O O5 0.292443 0.238886 0.263710
O O6 0.376199 0.217325 0.250220
O O7 0.329535 0.000000 0.132426
O O8 0.330710 0.273843 0.015448
O O9 0.750000 0.249465 0.486036
O O10 0.792126 0.236114 0.236544
O O11 0.750000 0.000000 0.322345
O O12 0.075194 0.500000 0.695133
O O13 0.124883 0.266318 0.772645
O O14 0.094061 0.281971 0.506444
O O15 0.750000 0.000000 0.643005
O O16 0.323736 0.500000 0.829772
O O17 0.098394 0.500000 0.301557
#
# Coordination Sequence:
#
# PCOD8209704 Si02
#       7
#     8   8   4   8   4   8   8
#     4   9  17  30  52  82 112 143 183 231 279 328
#     4  11  22  38  58  82 113 149 187 227 275 330
#     4  11  22  39  62  86 110 141 182 227 274 322
#     4   9  19  35  56  81 111 147 187 231 279 331
#     4   9  21  39  60  84 110 141 180 227 274 322
#     4  11  23  39  57  82 115 149 184 224 274 330
#     4  10  19  34  56  82 112 147 186 230 280 331
#
# _framework density 19.578700999999999
#
# number of rings (size 3 to 8) (size 9 to 14) (size 15 to 20)
#    0.000    2.000    0.000    3.750    0.000    4.667 
#    0.000    4.583    0.000    5.000    0.000    0.000 
#    0.000    0.000    0.000    0.000    0.000    0.000 
#
# Total GULP energy -595357.675923 kJ/mol
# GULP energy per Si atom -12403.284915 kJ/mol
# Density = 1.953414 g / cm^3
# Si number density = 19.578701 Si / 1000 Ang^3
#
#
#
# Elastic Constant Matrix: (Units=GPa)
#
#
# Indices 1 2 3 4 5 6 
#
# 1 157.1453 32.9926 56.8364 0.0000 0.0000 0.0000
# 2 32.9926 55.5200 16.7499 0.0000 0.0000 0.0000
# 3 56.8364 16.7499 84.0081 0.0000 0.0000 0.0000
# 4 0.0000 0.0000 0.0000 27.3632 0.0000 0.0000
# 5 0.0000 0.0000 0.0000 0.0000 23.5957 0.0000
# 6 0.0000 0.0000 0.0000 0.0000 0.0000 35.4749
#
#
#
# Elastic Compliance Matrix: (Units=1/GPa)
#
#
# Indices 1 2 3 4 5 6 
#
# 1 0.009116 -0.003784 -0.005413 0.000000 0.000000 0.000000
# 2 -0.003784 0.020735 -0.001574 0.000000 0.000000 0.000000
# 3 -0.005413 -0.001574 0.015880 0.000000 0.000000 0.000000
# 4 0.000000 0.000000 0.000000 0.036545 0.000000 0.000000
# 5 0.000000 0.000000 0.000000 0.000000 0.042381 0.000000
# 6 0.000000 0.000000 0.000000 0.000000 0.000000 0.028189
#
#
# Mechanical properties :
#
#
# Convention : Reuss Voigt Hill
#
# Bulk Modulus (GPa) = 41.34218 56.64793 48.99505
# Shear Modulus (GPa) = 27.40473 29.95970 28.68222
#
# Velocity S-wave (km/s) = 3.74534 3.91605 3.83165
# Velocity P-wave (km/s) = 6.31389 7.03161 6.68239
#
# Compressibility (1/GPa) = 0.02418837
#
# Stress axis : x y z
#
# Youngs Moduli (GPa) = 109.70073 48.22753 62.97388
#
# Poissons Ratio (x) = 0.18249 0.34087
# Poissons Ratio (y) = 0.41511 0.09913
# Poissons Ratio (z) = 0.59379 0.07592
#
# Static dielectric constant tensor:
#      x y z
#    x 3.066130 0.000000 0.000000 
#    y 0.000000 3.535340 0.000000 
#    z 0.000000 0.000000 3.498110 
# 
# 
# High freq. dielectric constant tensor:
#      x y z
#    x 1.781860 0.000000 0.000000 
#    y 0.000000 1.763270 0.000000 
#    z 0.000000 0.000000 1.746120 
# 
# From -- ./inp_files/12929.got.cif
#   From: 2010.03.12/outbox.cif.g09.slc.cpg/sg51_7_cif.got.tgz:12929.got - 2010.04.16 13:43:02.
