data_PCOD8209355
_publ_section_title
;
Structure prediction by ZEFSAII (Michael W. Deem and Ramdas Pophale) SiO2 
 PCOD8209355
Probable space group: P M M A
;
_chemical_formula_sum "Si O2"
_cell_formula_units_Z 44
_cell_length_a 9.011608
_cell_length_b 28.493647
_cell_length_c 9.410766
_cell_angle_alpha 90.000000
_cell_angle_beta 90.000000
_cell_angle_gamma 90.000000
_cell_volume 2416.436051
_symmetry_space_group_name_H-M "P M M A"
_symmetry_group_IT_number 51
_symmetry_cell_setting 'orthorhombic'
loop_
_space_group_symop_operation_xyz
x,y,z
1/2-x,-y,z
1/2+x,-y,-z
-x,y,-z
-x,-y,-z
1/2+x,y,-z
1/2-x,y,z
x,-y,z
loop_
_atom_site_type_symbol
_atom_site_label
_atom_site_fract_x
_atom_site_fract_y
_atom_site_fract_z
Si Si1 0.074526 0.635346 0.651863
Si Si2 0.075590 0.915783 0.152318
Si Si3 0.925887 0.000000 0.651970
Si Si4 0.925144 0.712338 0.845694
Si Si5 0.422975 0.447201 0.857412
Si Si6 0.919684 0.185724 0.853927
O O1 0.250000 0.643058 0.637869
O O2 0.034637 0.586264 0.727330
O O3 0.000000 0.633662 0.500000
O O4 0.004716 0.677488 0.739574
O O5 0.250000 0.922331 0.128498
O O6 0.017153 0.954262 0.263009
O O7 0.035989 0.863940 0.220341
O O8 0.000000 0.923038 0.000000
O O9 0.000000 0.000000 0.500000
O O10 0.750000 0.000000 0.632670
O O11 0.750000 0.700950 0.859218
O O12 0.950817 0.764618 0.775048
O O13 0.000000 0.707795 0.000000
O O14 0.250000 0.445950 0.888617
O O15 0.477025 0.500000 0.820209
O O16 0.500000 0.428290 0.000000
O O17 0.750000 0.182570 0.895111
O O18 0.000000 0.189292 0.000000
#
# Coordination Sequence:
#
# PCOD8209355 Si02
#       6
#     8   8   4   8   8   8
#     4  11  23  37  53  75 105 139 174 212 254 301
#     4   9  17  31  51  75  99 125 161 204 248 294
#     4  10  21  34  48  68  98 132 165 202 244 294
#     4  10  19  33  54  78 104 135 170 209 252 299
#     4   9  19  36  57  80 104 131 166 207 251 300
#     4   8  15  28  48  73 100 127 159 202 248 293
#
# _framework density 18.208634
#
# number of rings (size 3 to 8) (size 9 to 14) (size 15 to 20)
#    0.000    2.545    0.000    1.909    0.000    4.727 
#    0.000    0.909    0.000    2.182    0.000    0.000 
#    0.000    0.000    0.000    0.000    0.000    0.000 
#
# Total GULP energy -545144.290513 kJ/mol
# GULP energy per Si atom -12389.642966 kJ/mol
# Density = 1.816719 g / cm^3
# Si number density = 18.208634 Si / 1000 Ang^3
#
#
#
# Elastic Constant Matrix: (Units=GPa)
#
#
# Indices 1 2 3 4 5 6 
#
# 1 61.7570 59.7555 50.9674 0.0000 0.0000 0.0000
# 2 59.7555 162.4992 89.5544 0.0000 0.0000 0.0000
# 3 50.9674 89.5544 127.0048 0.0000 0.0000 0.0000
# 4 0.0000 0.0000 0.0000 4.9645 0.0000 0.0000
# 5 0.0000 0.0000 0.0000 0.0000 31.2706 0.0000
# 6 0.0000 0.0000 0.0000 0.0000 0.0000 23.8385
#
#
#
# Elastic Compliance Matrix: (Units=1/GPa)
#
#
# Indices 1 2 3 4 5 6 
#
# 1 0.028095 -0.006735 -0.006525 0.000000 0.000000 0.000000
# 2 -0.006735 0.011680 -0.005533 0.000000 0.000000 0.000000
# 3 -0.006525 -0.005533 0.014394 0.000000 0.000000 0.000000
# 4 0.000000 0.000000 0.000000 0.201430 0.000000 0.000000
# 5 0.000000 0.000000 0.000000 0.000000 0.031979 0.000000
# 6 0.000000 0.000000 0.000000 0.000000 0.000000 0.041949
#
#
# Mechanical properties :
#
#
# Convention : Reuss Voigt Hill
#
# Bulk Modulus (GPa) = 60.30831 83.53508 71.92169
# Shear Modulus (GPa) = 13.41779 22.08031 17.74905
#
# Velocity S-wave (km/s) = 2.71752 3.48606 3.12550
# Velocity P-wave (km/s) = 6.56042 7.88541 7.25324
#
# Compressibility (1/GPa) = 0.01658146
#
# Stress axis : x y z
#
# Youngs Moduli (GPa) = 35.59413 85.61829 69.47431
#
# Poissons Ratio (x) = 0.57663 0.45335
# Poissons Ratio (y) = 0.23972 0.38440
# Poissons Ratio (z) = 0.23227 0.47372
#
# Static dielectric constant tensor:
#      x y z
#    x 3.415140 0.000000 0.000000 
#    y 0.000000 4.287380 0.000000 
#    z 0.000000 0.000000 2.997370 
# 
# 
# High freq. dielectric constant tensor:
#      x y z
#    x 1.709760 0.000000 0.000000 
#    y 0.000000 1.735440 0.000000 
#    z 0.000000 0.000000 1.669630 
# 
# From -- ./inp_files/5886.got.cif
#   From: 2010.03.12/outbox.cif.g09.slc.cpg/sg51_3_cif.got.tgz:5886.got - 2010.04.16 13:43:02.
