data_PCOD8209594
_publ_section_title
;
Structure prediction by ZEFSAII (Michael W. Deem and Ramdas Pophale) SiO2 
 PCOD8209594
Probable space group: P M M A
;
_chemical_formula_sum "Si O2"
_cell_formula_units_Z 48
_cell_length_a 31.325948
_cell_length_b 8.355116
_cell_length_c 9.034273
_cell_angle_alpha 90.000000
_cell_angle_beta 90.000000
_cell_angle_gamma 90.000000
_cell_volume 2364.557703
_symmetry_space_group_name_H-M "P M M A"
_symmetry_group_IT_number 51
_symmetry_cell_setting 'orthorhombic'
loop_
_space_group_symop_operation_xyz
x,y,z
1/2-x,-y,z
1/2+x,-y,-z
-x,y,-z
-x,-y,-z
1/2+x,y,-z
1/2-x,y,z
x,-y,z
loop_
_atom_site_type_symbol
_atom_site_label
_atom_site_fract_x
_atom_site_fract_y
_atom_site_fract_z
Si Si1 0.499961 0.809177 0.167175
Si Si2 0.332848 0.189398 0.166043
Si Si3 0.750000 0.810134 0.345729
Si Si4 0.083768 0.190915 0.667147
Si Si5 0.750000 0.313849 0.672689
Si Si6 0.332773 0.809783 0.833794
Si Si7 0.083885 0.190945 0.332745
O O1 0.541732 0.743349 0.250802
O O2 0.458149 0.743454 0.250540
O O3 0.500002 0.000000 0.167268
O O4 0.500000 0.743244 0.000000
O O5 0.291383 0.235693 0.256422
O O6 0.374600 0.258584 0.248283
O O7 0.335903 0.000000 0.158679
O O8 0.330919 0.260396 0.000023
O O9 0.750000 0.718115 0.499188
O O10 0.708821 0.752882 0.254547
O O11 0.750000 0.000000 0.374424
O O12 0.125281 0.257693 0.752059
O O13 0.084220 0.256928 0.499986
O O14 0.083943 0.000000 0.667210
O O15 0.750000 0.500000 0.706393
O O16 0.334263 0.000000 0.839342
O O17 0.084024 0.000000 0.332994
#
# Coordination Sequence:
#
# PCOD8209594 Si02
#       7
#     8   8   4   8   4   8   8
#     4   9  15  22  33  55  93 135 167 199 243 291
#     4  10  19  34  55  76  99 129 167 207 249 297
#     4  10  19  34  54  74  98 128 165 206 248 294
#     4   9  15  23  36  60  97 133 164 201 247 294
#     4  12  25  38  52  74 102 130 163 202 250 302
#     4   9  17  29  49  75  99 129 169 210 249 294
#     4   9  16  25  41  65  93 129 167 201 242 293
#
# _framework density 20.299780999999999
#
# number of rings (size 3 to 8) (size 9 to 14) (size 15 to 20)
#    0.000    2.500    0.000    3.750    0.000   10.000 
#    0.000    1.667    0.000    0.000    0.000    0.000 
#    0.000   16.667    0.000    0.000    0.000    0.167 
#
# Total GULP energy -595219.959785 kJ/mol
# GULP energy per Si atom -12400.415829 kJ/mol
# Density = 2.025358 g / cm^3
# Si number density = 20.299781 Si / 1000 Ang^3
#
#
#
# Elastic Constant Matrix: (Units=GPa)
#
#
# Indices 1 2 3 4 5 6 
#
# 1 222.3503 -1.3738 112.5488 0.0000 0.0000 0.0000
# 2 -1.3738 2.0707 -0.0849 0.0000 0.0000 0.0000
# 3 112.5488 -0.0849 212.7624 0.0000 0.0000 0.0000
# 4 0.0000 0.0000 0.0000 1.2921 0.0000 0.0000
# 5 0.0000 0.0000 0.0000 0.0000 53.9963 0.0000
# 6 0.0000 0.0000 0.0000 0.0000 0.0000 -2.5800
#
#
#
# Elastic Compliance Matrix: (Units=1/GPa)
#
#
# Indices 1 2 3 4 5 6 
#
# 1 0.006174 0.003962 -0.003265 0.000000 0.000000 0.000000
# 2 0.003962 0.485474 -0.001902 0.000000 0.000000 0.000000
# 3 -0.003265 -0.001902 0.006426 0.000000 0.000000 0.000000
# 4 0.000000 0.000000 0.000000 0.773953 0.000000 0.000000
# 5 0.000000 0.000000 0.000000 0.000000 0.018520 0.000000
# 6 0.000000 0.000000 0.000000 0.000000 0.000000 -0.387590
#
#
# Mechanical properties :
#
#
# Convention : Reuss Voigt Hill
#
# Bulk Modulus (GPa) = 2.01749 73.26261 37.64005
# Shear Modulus (GPa) = 4.67033 32.28122 18.47578
#
# Velocity S-wave (km/s) = 1.51844 3.99209 3.02014
# Velocity P-wave (km/s) = 2.01748 7.57745 5.54473
#
# Compressibility (1/GPa) = 0.49566546
#
# Stress axis : x y z
#
# Youngs Moduli (GPa) = 161.96049 2.05984 155.61203
#
# Poissons Ratio (x) = -0.00816 0.50801
# Poissons Ratio (y) = -0.64176 0.29602
# Poissons Ratio (z) = 0.52873 0.00392
#
# Static dielectric constant tensor:
#      x y z
#    x 3.938710 0.000000 0.000000 
#    y 0.000000 2.811220 0.000000 
#    z 0.000000 0.000000 3.994120 
# 
# 
# High freq. dielectric constant tensor:
#      x y z
#    x 1.814200 0.000000 0.000000 
#    y 0.000000 1.710120 0.000000 
#    z 0.000000 0.000000 1.814810 
# 
# From -- ./inp_files/12927.got.cif
#   From: 2010.03.12/outbox.cif.g09.slc.cpg/sg51_7_cif.got.tgz:12927.got - 2010.04.16 13:43:02.
