data_PCOD8209311
_publ_section_title
;
Structure prediction by ZEFSAII (Michael W. Deem and Ramdas Pophale) SiO2 
 PCOD8209311
Probable space group: P M M A
;
_chemical_formula_sum "Si O2"
_cell_formula_units_Z 40
_cell_length_a 8.927387
_cell_length_b 26.133472
_cell_length_c 9.171224
_cell_angle_alpha 90.000000
_cell_angle_beta 90.000000
_cell_angle_gamma 90.000000
_cell_volume 2139.679743
_symmetry_space_group_name_H-M "P M M A"
_symmetry_group_IT_number 51
_symmetry_cell_setting 'orthorhombic'
loop_
_space_group_symop_operation_xyz
x,y,z
1/2-x,-y,z
1/2+x,-y,-z
-x,y,-z
-x,-y,-z
1/2+x,y,-z
1/2-x,y,z
x,-y,z
loop_
_atom_site_type_symbol
_atom_site_label
_atom_site_fract_x
_atom_site_fract_y
_atom_site_fract_z
Si Si1 0.927723 0.402611 0.341300
Si Si2 0.573989 0.500000 0.155939
Si Si3 0.572985 0.096844 0.843975
Si Si4 0.926411 0.000000 0.656629
Si Si5 0.425371 0.303516 0.343433
Si Si6 0.075572 0.191015 0.344264
O O1 0.750000 0.399073 0.356513
O O2 0.979091 0.450130 0.243701
O O3 0.000000 0.409533 0.500000
O O4 0.992116 0.350888 0.262269
O O5 0.750000 0.500000 0.134244
O O6 0.500000 0.500000 0.000000
O O7 0.750000 0.097160 0.864489
O O8 0.514484 0.149159 0.769209
O O9 0.519746 0.049851 0.744249
O O10 0.500000 0.090807 0.000000
O O11 0.000000 0.000000 0.500000
O O12 0.750000 0.000000 0.634792
O O13 0.500000 0.300950 0.500000
O O14 0.250000 0.315739 0.355927
O O15 0.453959 0.247442 0.273038
O O16 0.250000 0.182645 0.373083
O O17 0.000000 0.183610 0.500000
#
# Coordination Sequence:
#
# PCOD8209311 Si02
#       6
#     8   4   8   4   8   8
#     4  10  19  33  53  78 102 128 165 207 248 297
#     4  10  23  38  52  72 100 132 167 204 248 300
#     4  10  21  36  52  75 105 137 171 209 250 299
#     4  10  21  36  56  80 104 130 169 214 256 302
#     4   9  16  28  48  74 101 130 163 205 250 292
#     4   9  18  32  51  75 103 132 168 208 248 295
#
# _framework density 18.694386000000002
#
# number of rings (size 3 to 8) (size 9 to 14) (size 15 to 20)
#    0.000    2.400    0.000    3.600    0.000    4.000 
#    0.000    1.000    0.000    4.800    0.000    0.000 
#    0.000    0.000    0.000    0.000    0.000    0.000 
#
# Total GULP energy -495801.843932 kJ/mol
# GULP energy per Si atom -12395.046098 kJ/mol
# Density = 1.865184 g / cm^3
# Si number density = 18.694386 Si / 1000 Ang^3
#
#
#
# Elastic Constant Matrix: (Units=GPa)
#
#
# Indices 1 2 3 4 5 6 
#
# 1 60.5336 54.4147 39.2905 0.0000 0.0000 0.0000
# 2 54.4147 207.6680 85.8890 0.0000 0.0000 0.0000
# 3 39.2905 85.8890 117.0422 0.0000 0.0000 0.0000
# 4 0.0000 0.0000 0.0000 7.3827 0.0000 0.0000
# 5 0.0000 0.0000 0.0000 0.0000 29.5573 0.0000
# 6 0.0000 0.0000 0.0000 0.0000 0.0000 24.5879
#
#
#
# Elastic Compliance Matrix: (Units=1/GPa)
#
#
# Indices 1 2 3 4 5 6 
#
# 1 0.023354 -0.004131 -0.004809 0.000000 0.000000 0.000000
# 2 -0.004131 0.007644 -0.004223 0.000000 0.000000 0.000000
# 3 -0.004809 -0.004223 0.013257 0.000000 0.000000 0.000000
# 4 0.000000 0.000000 0.000000 0.135453 0.000000 0.000000
# 5 0.000000 0.000000 0.000000 0.000000 0.033833 0.000000
# 6 0.000000 0.000000 0.000000 0.000000 0.000000 0.040670
#
#
# Mechanical properties :
#
#
# Convention : Reuss Voigt Hill
#
# Bulk Modulus (GPa) = 55.76966 82.71471 69.24218
# Shear Modulus (GPa) = 17.45125 26.01554 21.73340
#
# Velocity S-wave (km/s) = 3.05864 3.73449 3.41334
# Velocity P-wave (km/s) = 6.50928 7.93329 7.25630
#
# Compressibility (1/GPa) = 0.01793090
#
# Stress axis : x y z
#
# Youngs Moduli (GPa) = 42.81930 130.81691 75.43119
#
# Poissons Ratio (x) = 0.54035 0.36272
# Poissons Ratio (y) = 0.17687 0.31854
# Poissons Ratio (z) = 0.20590 0.55244
#
# Static dielectric constant tensor:
#      x y z
#    x 3.389520 0.000000 0.000000 
#    y 0.000000 4.509070 0.000000 
#    z 0.000000 0.000000 3.099800 
# 
# 
# High freq. dielectric constant tensor:
#      x y z
#    x 1.725650 0.000000 0.000000 
#    y 0.000000 1.756950 0.000000 
#    z 0.000000 0.000000 1.691240 
# 
# From -- ./inp_files/5596.got.cif
#   From: 2010.03.12/outbox.cif.g09.slc.cpg/sg51_3_cif.got.tgz:5596.got - 2010.04.16 13:43:02.
