data_PCOD8209363
_publ_section_title
;
Structure prediction by ZEFSAII (Michael W. Deem and Ramdas Pophale) SiO2 
 PCOD8209363
Probable space group: P M M A
;
_chemical_formula_sum "Si O2"
_cell_formula_units_Z 64
_cell_length_a 20.726025
_cell_length_b 8.684807
_cell_length_c 19.465478
_cell_angle_alpha 90.000000
_cell_angle_beta 90.000000
_cell_angle_gamma 90.000000
_cell_volume 3503.815764
_symmetry_space_group_name_H-M "P M M A"
_symmetry_group_IT_number 51
_symmetry_cell_setting 'orthorhombic'
loop_
_space_group_symop_operation_xyz
x,y,z
1/2-x,-y,z
1/2+x,-y,-z
-x,y,-z
-x,-y,-z
1/2+x,y,-z
1/2-x,y,z
x,-y,z
loop_
_atom_site_type_symbol
_atom_site_label
_atom_site_fract_x
_atom_site_fract_y
_atom_site_fract_z
Si Si1 0.820544 0.181139 0.545419
Si Si2 0.625558 0.323082 0.675913
Si Si3 0.562288 0.319942 0.044402
Si Si4 0.374888 0.678796 0.169417
Si Si5 0.985427 0.180658 0.176448
Si Si6 0.823516 0.822003 0.960916
Si Si7 0.938083 0.817224 0.456118
Si Si8 0.522395 0.318861 0.317471
O O1 0.750000 0.243376 0.522959
O O2 0.832082 0.223300 0.624563
O O3 0.875341 0.249066 0.495498
O O4 0.822970 0.000000 0.539636
O O5 0.633448 0.500000 0.655183
O O6 0.650267 0.293154 0.753232
O O7 0.551455 0.271523 0.669110
O O8 0.560368 0.500000 0.060975
O O9 0.563267 0.224346 0.115251
O O10 0.500000 0.269725 0.000000
O O11 0.628140 0.281468 0.005023
O O12 0.370688 0.500000 0.149161
O O13 0.448962 0.727597 0.162341
O O14 0.330125 0.777256 0.119104
O O15 0.953596 0.233606 0.248470
O O16 0.999239 0.000000 0.177781
O O17 0.750000 0.790389 0.984305
O O18 0.841810 0.000000 0.970396
O O19 0.936144 0.738645 0.381784
O O20 0.000000 0.764325 0.500000
O O21 0.937285 0.000000 0.446755
O O22 0.530463 0.500000 0.306757
#
# Coordination Sequence:
#
# PCOD8209363 Si02
#       8
#     8   8   8   8   8   8   8   8
#     4  10  21  35  51  74 106 141 177 220 269 319
#     4   9  19  33  50  74 106 142 180 220 261 315
#     4  11  22  37  60  86 113 147 187 232 280 332
#     4  10  20  35  53  78 111 149 189 227 272 326
#     4  11  21  34  57  85 114 144 179 228 280 327
#     4  11  24  39  56  82 114 150 192 234 278 331
#     4  10  19  33  54  79 104 137 181 224 269 320
#     4  10  20  34  54  81 111 140 177 224 274 324
#
# _framework density 18.265801
#
# number of rings (size 3 to 8) (size 9 to 14) (size 15 to 20)
#    0.000    1.750    2.500    3.375    0.000    5.500 
#    0.000    2.500    0.000    0.750    0.000    1.750 
#    0.000    0.000    0.000    0.000    0.000    0.000 
#
# Total GULP energy -793764.979074 kJ/mol
# GULP energy per Si atom -12402.577798 kJ/mol
# Density = 1.822423 g / cm^3
# Si number density = 18.265801 Si / 1000 Ang^3
#
#
#
# Elastic Constant Matrix: (Units=GPa)
#
#
# Indices 1 2 3 4 5 6 
#
# 1 96.5270 23.4053 50.7507 0.0000 0.0000 0.0000
# 2 23.4053 45.4690 28.6383 0.0000 0.0000 0.0000
# 3 50.7507 28.6383 118.2688 0.0000 0.0000 0.0000
# 4 0.0000 0.0000 0.0000 35.3103 0.0000 0.0000
# 5 0.0000 0.0000 0.0000 0.0000 21.4589 0.0000
# 6 0.0000 0.0000 0.0000 0.0000 0.0000 19.6041
#
#
#
# Elastic Compliance Matrix: (Units=1/GPa)
#
#
# Indices 1 2 3 4 5 6 
#
# 1 0.013978 -0.004032 -0.005022 0.000000 0.000000 0.000000
# 2 -0.004032 0.027114 -0.004835 0.000000 0.000000 0.000000
# 3 -0.005022 -0.004835 0.011781 0.000000 0.000000 0.000000
# 4 0.000000 0.000000 0.000000 0.028320 0.000000 0.000000
# 5 0.000000 0.000000 0.000000 0.000000 0.046601 0.000000
# 6 0.000000 0.000000 0.000000 0.000000 0.000000 0.051010
#
#
# Mechanical properties :
#
#
# Convention : Reuss Voigt Hill
#
# Bulk Modulus (GPa) = 39.84938 51.76150 45.80544
# Shear Modulus (GPa) = 23.26160 25.77272 24.51716
#
# Velocity S-wave (km/s) = 3.57249 3.76038 3.66764
# Velocity P-wave (km/s) = 6.23544 6.87411 6.56255
#
# Compressibility (1/GPa) = 0.02509449
#
# Stress axis : x y z
#
# Youngs Moduli (GPa) = 71.54246 36.88124 84.88239
#
# Poissons Ratio (x) = 0.14871 0.42625
# Poissons Ratio (y) = 0.28848 0.41043
# Poissons Ratio (z) = 0.35926 0.17833
#
# Static dielectric constant tensor:
#      x y z
#    x 3.304410 0.000000 0.000000 
#    y 0.000000 3.294920 0.000000 
#    z 0.000000 0.000000 3.516340 
# 
# 
# High freq. dielectric constant tensor:
#      x y z
#    x 1.679390 0.000000 0.000000 
#    y 0.000000 1.712080 0.000000 
#    z 0.000000 0.000000 1.712710 
# 
# From -- ./inp_files/30514.got.cif
#   From: 2010.03.12/outbox.cif.g09.slc.cpg/sg51_16_cif.got.tgz:30514.got - 2010.04.16 13:43:02.
