data_PCOD8209458
_publ_section_title
;
Structure prediction by ZEFSAII (Michael W. Deem and Ramdas Pophale) SiO2 
 PCOD8209458
Probable space group: P M M A
;
_chemical_formula_sum "Si O2"
_cell_formula_units_Z 64
_cell_length_a 14.371765
_cell_length_b 8.884424
_cell_length_c 25.315042
_cell_angle_alpha 90.000000
_cell_angle_beta 90.000000
_cell_angle_gamma 90.000000
_cell_volume 3232.347439
_symmetry_space_group_name_H-M "P M M A"
_symmetry_group_IT_number 51
_symmetry_cell_setting 'orthorhombic'
loop_
_space_group_symop_operation_xyz
x,y,z
1/2-x,-y,z
1/2+x,-y,-z
-x,y,-z
-x,-y,-z
1/2+x,y,-z
1/2-x,y,z
x,-y,z
loop_
_atom_site_type_symbol
_atom_site_label
_atom_site_fract_x
_atom_site_fract_y
_atom_site_fract_z
Si Si1 0.475127 0.322289 0.171576
Si Si2 0.357106 0.825950 0.470651
Si Si3 0.646354 0.674164 0.420049
Si Si4 0.143925 0.679383 0.270941
Si Si5 0.393196 0.670986 0.985217
Si Si6 0.542183 0.675192 0.625503
Si Si7 0.355917 0.825110 0.874087
Si Si8 0.147673 0.170384 0.087410
O O1 0.490354 0.500000 0.174044
O O2 0.414268 0.261924 0.220697
O O3 0.575837 0.241807 0.171090
O O4 0.421203 0.280922 0.118098
O O5 0.250000 0.793373 0.457838
O O6 0.383042 0.767042 0.528503
O O7 0.417408 0.743722 0.427318
O O8 0.381863 0.000000 0.468953
O O9 0.750000 0.720847 0.399864
O O10 0.644993 0.500000 0.436403
O O11 0.569710 0.705826 0.374265
O O12 0.250000 0.741290 0.269215
O O13 0.145038 0.500000 0.270909
O O14 0.091241 0.744779 0.322640
O O15 0.355996 0.500000 0.986485
O O16 0.374245 0.737543 0.927972
O O17 0.500000 0.678439 0.000000
O O18 0.339616 0.772157 0.027703
O O19 0.564437 0.500000 0.624470
O O20 0.250000 0.800194 0.855045
O O21 0.377823 0.000000 0.882881
O O22 0.250000 0.174794 0.113837
O O23 0.108032 0.000000 0.088087
#
# Coordination Sequence:
#
# PCOD8209458 Si02
#       8
#     8   8   8   8   8   8   8   8
#     4  11  22  38  60  84 109 142 185 231 279 327
#     4  10  20  32  48  75 111 147 182 223 273 328
#     4   9  18  32  50  75 108 145 184 224 266 318
#     4   9  19  36  58  84 112 140 174 222 278 330
#     4  11  22  36  57  87 117 148 183 225 274 325
#     4  10  19  33  55  80 106 142 185 227 274 327
#     4  11  24  41  61  84 113 150 187 226 275 330
#     4  11  23  37  56  83 114 149 185 222 271 329
#
# _framework density 19.799851
#
# number of rings (size 3 to 8) (size 9 to 14) (size 15 to 20)
#    0.000    1.750    1.250    3.375    0.000    7.750 
#    0.000    1.875    0.000    5.250    0.000    1.750 
#    0.000    0.000    0.000    0.000    0.000    0.000 
#
# Total GULP energy -793570.681556 kJ/mol
# GULP energy per Si atom -12399.541899 kJ/mol
# Density = 1.975479 g / cm^3
# Si number density = 19.799851 Si / 1000 Ang^3
#
#
#
# Elastic Constant Matrix: (Units=GPa)
#
#
# Indices 1 2 3 4 5 6 
#
# 1 142.7868 39.4974 71.3494 0.0000 0.0000 0.0000
# 2 39.4974 66.1937 20.6494 0.0000 0.0000 0.0000
# 3 71.3494 20.6494 84.4584 0.0000 0.0000 0.0000
# 4 0.0000 0.0000 0.0000 -5.6233 0.0000 0.0000
# 5 0.0000 0.0000 0.0000 0.0000 32.5541 0.0000
# 6 0.0000 0.0000 0.0000 0.0000 0.0000 25.3683
#
#
#
# Elastic Compliance Matrix: (Units=1/GPa)
#
#
# Indices 1 2 3 4 5 6 
#
# 1 0.013412 -0.004837 -0.010148 0.000000 0.000000 0.000000
# 2 -0.004837 0.018099 -0.000339 0.000000 0.000000 0.000000
# 3 -0.010148 -0.000339 0.020496 0.000000 0.000000 0.000000
# 4 0.000000 0.000000 0.000000 -0.177832 0.000000 0.000000
# 5 0.000000 0.000000 0.000000 0.000000 0.030718 0.000000
# 6 0.000000 0.000000 0.000000 0.000000 0.000000 0.039419
#
#
# Mechanical properties :
#
#
# Convention : Reuss Voigt Hill
#
# Bulk Modulus (GPa) = 46.81721 61.82570 54.32145
# Shear Modulus (GPa) = -279.01774 21.25600 -128.88087
#
# Velocity S-wave (km/s) = -11.88381 3.28005 -8.07670
# Velocity P-wave (km/s) = 12.82979 6.75560 7.71250
#
# Compressibility (1/GPa) = 0.02135967
#
# Stress axis : x y z
#
# Youngs Moduli (GPa) = 74.55794 55.25092 48.79062
#
# Poissons Ratio (x) = 0.26727 0.49512
# Poissons Ratio (y) = 0.36067 0.01652
# Poissons Ratio (z) = 0.75661 0.01870
#
# Static dielectric constant tensor:
#      x y z
#    x 4.302070 0.000000 0.000000 
#    y 0.000000 3.521090 0.000000 
#    z 0.000000 0.000000 3.641120 
# 
# 
# High freq. dielectric constant tensor:
#      x y z
#    x 1.793120 0.000000 0.000000 
#    y 0.000000 1.762230 0.000000 
#    z 0.000000 0.000000 1.746270 
# 
# From -- ./inp_files/35694.got.cif
#   From: 2010.03.12/outbox.cif.g09.slc.cpg/sg51_18_cif.got.tgz:35694.got - 2010.04.16 13:43:02.
