data_PCOD8209656
_publ_section_title
;
Structure prediction by ZEFSAII (Michael W. Deem and Ramdas Pophale) SiO2 
 PCOD8209656
Probable space group: P M M A
;
_chemical_formula_sum "Si O2"
_cell_formula_units_Z 48
_cell_length_a 18.020642
_cell_length_b 14.882967
_cell_length_c 9.714925
_cell_angle_alpha 90.000000
_cell_angle_beta 90.000000
_cell_angle_gamma 90.000000
_cell_volume 2605.548910
_symmetry_space_group_name_H-M "P M M A"
_symmetry_group_IT_number 51
_symmetry_cell_setting 'orthorhombic'
loop_
_space_group_symop_operation_xyz
x,y,z
1/2-x,-y,z
1/2+x,-y,-z
-x,y,-z
-x,-y,-z
1/2+x,y,-z
1/2-x,y,z
x,-y,z
loop_
_atom_site_type_symbol
_atom_site_label
_atom_site_fract_x
_atom_site_fract_y
_atom_site_fract_z
Si Si1 0.432063 0.895819 0.101301
Si Si2 0.833727 0.265768 0.850238
Si Si3 0.939749 0.398696 0.383163
Si Si4 0.927354 0.903050 0.586582
Si Si5 0.333497 0.740604 0.475995
Si Si6 0.459384 0.598017 0.140282
O O1 0.361491 0.829253 0.083946
O O2 0.454499 0.877463 0.259641
O O3 0.409243 0.000000 0.074065
O O4 0.500000 0.868581 0.000000
O O5 0.750000 0.280154 0.904967
O O6 0.835074 0.276825 0.686147
O O7 0.888110 0.343597 0.899381
O O8 0.909258 0.500000 0.354274
O O9 0.872583 0.335623 0.431970
O O10 0.000000 0.400661 0.500000
O O11 0.982592 0.358193 0.249497
O O12 0.873384 0.835867 0.506576
O O13 0.000000 0.909348 0.500000
O O14 0.886548 0.000000 0.591508
O O15 0.250000 0.747134 0.531796
O O16 0.434184 0.500000 0.199050
O O17 0.500000 0.582613 0.000000
#
# Coordination Sequence:
#
# PCOD8209656 Si02
#       6
#     8   8   8   8   8   8
#     4   9  18  33  54  78 102 134 176 219 259 304
#     4  10  20  33  52  80 109 138 173 216 267 318
#     4  10  19  34  56  78 101 134 177 219 259 309
#     4   9  18  32  53  77 101 136 178 215 256 310
#     4  10  20  32  51  79 109 139 172 219 269 310
#     4  10  21  37  57  79 103 137 177 218 264 315
#
# _framework density 18.422222000000001
#
# number of rings (size 3 to 8) (size 9 to 14) (size 15 to 20)
#    0.000    2.333    1.667    1.000    2.333    1.333 
#    0.000    5.833    0.000    3.000    0.000    4.667 
#    0.000    0.000    0.000    0.000    0.000    0.000 
#
# Total GULP energy -594656.924159 kJ/mol
# GULP energy per Si atom -12388.685920 kJ/mol
# Density = 1.838029 g / cm^3
# Si number density = 18.422222 Si / 1000 Ang^3
#
#
#
# Elastic Constant Matrix: (Units=GPa)
#
#
# Indices 1 2 3 4 5 6 
#
# 1 131.5258 76.5719 36.4404 0.0000 0.0000 0.0000
# 2 76.5719 115.9477 29.5731 0.0000 0.0000 0.0000
# 3 36.4404 29.5731 60.3204 0.0000 0.0000 0.0000
# 4 0.0000 0.0000 0.0000 21.8678 0.0000 0.0000
# 5 0.0000 0.0000 0.0000 0.0000 22.0110 0.0000
# 6 0.0000 0.0000 0.0000 0.0000 0.0000 36.7020
#
#
#
# Elastic Compliance Matrix: (Units=1/GPa)
#
#
# Indices 1 2 3 4 5 6 
#
# 1 0.013238 -0.007661 -0.004242 0.000000 0.000000 0.000000
# 2 -0.007661 0.014290 -0.002378 0.000000 0.000000 0.000000
# 3 -0.004242 -0.002378 0.020306 0.000000 0.000000 0.000000
# 4 0.000000 0.000000 0.000000 0.045729 0.000000 0.000000
# 5 0.000000 0.000000 0.000000 0.000000 0.045432 0.000000
# 6 0.000000 0.000000 0.000000 0.000000 0.000000 0.027246
#
#
# Mechanical properties :
#
#
# Convention : Reuss Voigt Hill
#
# Bulk Modulus (GPa) = 51.88305 65.88496 58.88400
# Shear Modulus (GPa) = 24.84748 27.13007 25.98877
#
# Velocity S-wave (km/s) = 3.67655 3.84172 3.76004
# Velocity P-wave (km/s) = 6.80053 7.45117 7.13327
#
# Compressibility (1/GPa) = 0.01927412
#
# Stress axis : x y z
#
# Youngs Moduli (GPa) = 75.53952 69.97805 49.24543
#
# Poissons Ratio (x) = 0.53607 0.20888
# Poissons Ratio (y) = 0.57868 0.11711
# Poissons Ratio (z) = 0.32041 0.16642
#
# Static dielectric constant tensor:
#      x y z
#    x 3.212050 0.000000 0.000000 
#    y 0.000000 4.160420 0.000000 
#    z 0.000000 0.000000 3.235130 
# 
# 
# High freq. dielectric constant tensor:
#      x y z
#    x 1.693930 0.000000 0.000000 
#    y 0.000000 1.726820 0.000000 
#    z 0.000000 0.000000 1.702030 
# 
# From -- ./inp_files/9660.got.cif
#   From: 2010.03.12/outbox.cif.g09.slc.cpg/sg51_5_cif.got.tgz:9660.got - 2010.04.16 13:43:02.
