data_PCOD8209954
_publ_section_title
;
Structure prediction by ZEFSAII (Michael W. Deem and Ramdas Pophale) SiO2 
 PCOD8209954
Probable space group: P M M A
;
_chemical_formula_sum "Si O2"
_cell_formula_units_Z 48
_cell_length_a 28.233779
_cell_length_b 9.184622
_cell_length_c 10.132417
_cell_angle_alpha 90.000000
_cell_angle_beta 90.000000
_cell_angle_gamma 90.000000
_cell_volume 2627.503802
_symmetry_space_group_name_H-M "P M M A"
_symmetry_group_IT_number 51
_symmetry_cell_setting 'orthorhombic'
loop_
_space_group_symop_operation_xyz
x,y,z
1/2-x,-y,z
1/2+x,-y,-z
-x,y,-z
-x,-y,-z
1/2+x,y,-z
1/2-x,y,z
x,-y,z
loop_
_atom_site_type_symbol
_atom_site_label
_atom_site_fract_x
_atom_site_fract_y
_atom_site_fract_z
Si Si1 0.695240 0.832834 0.495654
Si Si2 0.447973 0.827881 0.656238
Si Si3 0.696143 0.671665 0.008916
Si Si4 0.552770 0.828146 0.642984
Si Si5 0.641108 0.328302 0.270212
Si Si6 0.352143 0.830460 0.230374
O O1 0.750000 0.797177 0.474465
O O2 0.665020 0.728977 0.403106
O O3 0.682399 0.800842 0.646907
O O4 0.683119 0.000000 0.460446
O O5 0.501369 0.784138 0.701268
O O6 0.440645 0.771494 0.506354
O O7 0.410650 0.743763 0.748266
O O8 0.439737 0.000000 0.669925
O O9 0.750000 0.729519 0.006249
O O10 0.694477 0.500000 0.989677
O O11 0.666250 0.742643 0.893381
O O12 0.673413 0.718641 0.147449
O O13 0.595086 0.770416 0.735545
O O14 0.556226 0.000000 0.632516
O O15 0.635268 0.500000 0.279984
O O16 0.353260 0.000000 0.193293
#
# Coordination Sequence:
#
# PCOD8209954 Si02
#       6
#     8   8   8   8   8   8
#     4  10  20  34  55  82 108 134 174 229 278 322
#     4   9  16  32  57  82 109 142 176 217 268 322
#     4  10  23  41  55  71 105 151 189 220 264 322
#     4   8  15  30  56  84 110 139 171 215 273 324
#     4  11  22  36  54  78 109 146 184 224 268 316
#     4  10  19  35  58  84 108 134 176 226 272 319
#
# _framework density 18.268288999999999
#
# number of rings (size 3 to 8) (size 9 to 14) (size 15 to 20)
#    0.000    2.333    1.667    2.500    0.000    4.000 
#    0.000    3.333    0.000    5.000    0.000    0.000 
#    0.000    0.000    0.000    0.000    0.000    0.000 
#
# Total GULP energy -595156.103053 kJ/mol
# GULP energy per Si atom -12399.085480 kJ/mol
# Density = 1.822671 g / cm^3
# Si number density = 18.268289 Si / 1000 Ang^3
#
#
#
# Elastic Constant Matrix: (Units=GPa)
#
#
# Indices 1 2 3 4 5 6 
#
# 1 144.7696 41.7972 38.2449 0.0000 0.0000 0.0000
# 2 41.7972 38.6873 33.0512 0.0000 0.0000 0.0000
# 3 38.2449 33.0512 58.8803 0.0000 0.0000 0.0000
# 4 0.0000 0.0000 0.0000 21.9405 0.0000 0.0000
# 5 0.0000 0.0000 0.0000 0.0000 34.2486 0.0000
# 6 0.0000 0.0000 0.0000 0.0000 0.0000 20.4940
#
#
#
# Elastic Compliance Matrix: (Units=1/GPa)
#
#
# Indices 1 2 3 4 5 6 
#
# 1 0.010060 -0.010157 -0.000833 0.000000 0.000000 0.000000
# 2 -0.010157 0.059921 -0.027038 0.000000 0.000000 0.000000
# 3 -0.000833 -0.027038 0.032702 0.000000 0.000000 0.000000
# 4 0.000000 0.000000 0.000000 0.045578 0.000000 0.000000
# 5 0.000000 0.000000 0.000000 0.000000 0.029198 0.000000
# 6 0.000000 0.000000 0.000000 0.000000 0.000000 0.048795
#
#
# Mechanical properties :
#
#
# Convention : Reuss Voigt Hill
#
# Bulk Modulus (GPa) = 37.55610 52.05820 44.80715
# Shear Modulus (GPa) = 16.06762 23.95288 20.01025
#
# Velocity S-wave (km/s) = 2.96891 3.62494 3.31320
# Velocity P-wave (km/s) = 5.68817 6.78812 6.26234
#
# Compressibility (1/GPa) = 0.02662683
#
# Stress axis : x y z
#
# Youngs Moduli (GPa) = 99.40249 16.68867 30.57948
#
# Poissons Ratio (x) = 0.16951 0.02547
# Poissons Ratio (y) = 1.00966 0.82680
# Poissons Ratio (z) = 0.08278 0.45122
#
# Static dielectric constant tensor:
#      x y z
#    x 3.975270 0.000000 0.000000 
#    y 0.000000 3.113020 0.000000 
#    z 0.000000 0.000000 3.211030 
# 
# 
# High freq. dielectric constant tensor:
#      x y z
#    x 1.732270 0.000000 0.000000 
#    y 0.000000 1.682790 0.000000 
#    z 0.000000 0.000000 1.689090 
# 
# From -- ./inp_files/12724.got.cif
#   From: 2010.03.12/outbox.cif.g09.slc.cpg/sg51_7_cif.got.tgz:12724.got - 2010.04.16 13:43:02.
