data_PCOD8209493
_publ_section_title
;
Structure prediction by ZEFSAII (Michael W. Deem and Ramdas Pophale) SiO2 
 PCOD8209493
Probable space group: P M M A
;
_chemical_formula_sum "Si O2"
_cell_formula_units_Z 56
_cell_length_a 8.952542
_cell_length_b 13.734260
_cell_length_c 22.111207
_cell_angle_alpha 90.000000
_cell_angle_beta 90.000000
_cell_angle_gamma 90.000000
_cell_volume 2718.717497
_symmetry_space_group_name_H-M "P M M A"
_symmetry_group_IT_number 51
_symmetry_cell_setting 'orthorhombic'
loop_
_space_group_symop_operation_xyz
x,y,z
1/2-x,-y,z
1/2+x,-y,-z
-x,y,-z
-x,-y,-z
1/2+x,y,-z
1/2-x,y,z
x,-y,z
loop_
_atom_site_type_symbol
_atom_site_label
_atom_site_fract_x
_atom_site_fract_y
_atom_site_fract_z
Si Si1 0.920885 0.840268 0.768855
Si Si2 0.577221 0.108429 0.350257
Si Si3 0.921270 0.709145 0.058515
Si Si4 0.926992 0.711264 0.436770
Si Si5 0.083632 0.106141 0.098754
Si Si6 0.578111 0.655349 0.190956
Si Si7 0.579271 0.500000 0.735695
Si Si8 0.074160 0.500000 0.610200
O O1 0.750000 0.802233 0.759336
O O2 0.929097 0.905977 0.828633
O O3 0.974159 0.896203 0.709188
O O4 0.046132 0.759066 0.780474
O O5 0.750000 0.123968 0.332560
O O6 0.525264 0.200652 0.391539
O O7 0.557818 0.000000 0.381136
O O8 0.750000 0.708336 0.043074
O O9 0.956160 0.648973 0.119313
O O10 0.968345 0.820644 0.068456
O O11 0.000000 0.661667 0.000000
O O12 0.750000 0.708716 0.443448
O O13 0.986977 0.602369 0.418092
O O14 0.000000 0.739093 0.500000
O O15 0.250000 0.143351 0.082354
O O16 0.052151 0.000000 0.070953
O O17 0.750000 0.625200 0.204135
O O18 0.455469 0.590769 0.222821
O O19 0.750000 0.500000 0.713981
O O20 0.470204 0.500000 0.679357
O O21 0.250000 0.500000 0.604522
#
# Coordination Sequence:
#
# PCOD8209493 Si02
#       8
#     8   8   8   8   8   8   4   4
#     4  10  19  33  55  83 112 143 185 236 286 335
#     4  10  21  36  54  79 114 156 198 238 287 351
#     4  10  21  36  55  76 101 139 184 227 273 328
#     4  10  22  39  59  83 112 150 194 239 288 339
#     4   9  18  32  50  74 106 141 177 224 280 332
#     4  10  21  38  58  81 112 149 184 223 280 344
#     4  12  24  37  60  93 119 142 178 226 277 328
#     4  10  21  39  63  89 119 152 185 230 290 352
#
# _framework density 20.597947999999999
#
# number of rings (size 3 to 8) (size 9 to 14) (size 15 to 20)
#    0.000    2.000    0.000    3.429    0.000    6.286 
#    0.000    0.357    0.000    0.000    0.000    0.000 
#    0.000    0.000    0.000    0.000    0.000    0.000 
#
# Total GULP energy -693901.902378 kJ/mol
# GULP energy per Si atom -12391.105400 kJ/mol
# Density = 2.055107 g / cm^3
# Si number density = 20.597948 Si / 1000 Ang^3
#
#
#
# Elastic Constant Matrix: (Units=GPa)
#
#
# Indices 1 2 3 4 5 6 
#
# 1 37.3618 9.8317 26.4464 0.0000 0.0000 0.0000
# 2 9.8317 81.8944 24.5175 0.0000 0.0000 0.0000
# 3 26.4464 24.5175 97.5831 0.0000 0.0000 0.0000
# 4 0.0000 0.0000 0.0000 10.4215 0.0000 0.0000
# 5 0.0000 0.0000 0.0000 0.0000 36.5350 0.0000
# 6 0.0000 0.0000 0.0000 0.0000 0.0000 22.9125
#
#
#
# Elastic Compliance Matrix: (Units=1/GPa)
#
#
# Indices 1 2 3 4 5 6 
#
# 1 0.033266 -0.001400 -0.008664 0.000000 0.000000 0.000000
# 2 -0.001400 0.013263 -0.002953 0.000000 0.000000 0.000000
# 3 -0.008664 -0.002953 0.013338 0.000000 0.000000 0.000000
# 4 0.000000 0.000000 0.000000 0.095955 0.000000 0.000000
# 5 0.000000 0.000000 0.000000 0.000000 0.027371 0.000000
# 6 0.000000 0.000000 0.000000 0.000000 0.000000 0.043644
#
#
# Mechanical properties :
#
#
# Convention : Reuss Voigt Hill
#
# Bulk Modulus (GPa) = 29.55651 37.60338 33.57994
# Shear Modulus (GPa) = 18.92869 24.37670 21.65269
#
# Velocity S-wave (km/s) = 3.03472 3.44387 3.24575
# Velocity P-wave (km/s) = 5.16331 5.84030 5.51221
#
# Compressibility (1/GPa) = 0.03383350
#
# Stress axis : x y z
#
# Youngs Moduli (GPa) = 30.06029 75.39803 74.97577
#
# Poissons Ratio (x) = 0.10555 0.64959
# Poissons Ratio (y) = 0.04208 0.22139
# Poissons Ratio (z) = 0.26044 0.22264
#
# Static dielectric constant tensor:
#      x y z
#    x 3.588340 0.000000 0.000000 
#    y 0.000000 3.693100 0.000000 
#    z 0.000000 0.000000 3.736490 
# 
# 
# High freq. dielectric constant tensor:
#      x y z
#    x 1.801200 0.000000 0.000000 
#    y 0.000000 1.802650 0.000000 
#    z 0.000000 0.000000 1.802580 
# 
# From -- ./inp_files/32059.got.cif
#   From: 2010.03.12/outbox.cif.g09.slc.cpg/sg51_17_cif.got.tgz:32059.got - 2010.04.16 13:43:02.
