data_PCOD8209467
_publ_section_title
;
Structure prediction by ZEFSAII (Michael W. Deem and Ramdas Pophale) SiO2 
 PCOD8209467
Probable space group: P M M A
;
_chemical_formula_sum "Si O2"
_cell_formula_units_Z 64
_cell_length_a 19.610029
_cell_length_b 9.085888
_cell_length_c 19.836480
_cell_angle_alpha 90.000000
_cell_angle_beta 90.000000
_cell_angle_gamma 90.000000
_cell_volume 3534.355445
_symmetry_space_group_name_H-M "P M M A"
_symmetry_group_IT_number 51
_symmetry_cell_setting 'orthorhombic'
loop_
_space_group_symop_operation_xyz
x,y,z
1/2-x,-y,z
1/2+x,-y,-z
-x,y,-z
-x,-y,-z
1/2+x,y,-z
1/2-x,y,z
x,-y,z
loop_
_atom_site_type_symbol
_atom_site_label
_atom_site_fract_x
_atom_site_fract_y
_atom_site_fract_z
Si Si1 0.942339 0.167316 0.329961
Si Si2 0.926655 0.172278 0.970830
Si Si3 0.903973 0.172517 0.701337
Si Si4 0.828482 0.830084 0.089903
Si Si5 0.575980 0.170178 0.482620
Si Si6 0.091999 0.328399 0.798263
Si Si7 0.438592 0.326778 0.166044
Si Si8 0.329289 0.670120 0.414672
O O1 0.910534 0.192442 0.403374
O O2 0.901520 0.268737 0.277755
O O3 0.022516 0.206614 0.331647
O O4 0.933232 0.000000 0.305852
O O5 0.910693 0.264534 0.904056
O O6 0.922536 0.000000 0.953418
O O7 0.870562 0.222223 0.024929
O O8 0.000000 0.215582 0.000000
O O9 0.897303 0.248620 0.774094
O O10 0.847442 0.241437 0.652837
O O11 0.890332 0.000000 0.709501
O O12 0.750000 0.799233 0.074110
O O13 0.849742 0.741429 0.155947
O O14 0.843681 0.000000 0.104829
O O15 0.500000 0.223811 0.500000
O O16 0.630335 0.268416 0.521245
O O17 0.584781 0.000000 0.504552
O O18 0.104480 0.500000 0.796107
O O19 0.018347 0.286248 0.828329
O O20 0.425819 0.500000 0.170219
O O21 0.250000 0.691833 0.430014
O O22 0.348398 0.500000 0.404046
#
# Coordination Sequence:
#
# PCOD8209467 Si02
#       8
#     8   8   8   8   8   8   8   8
#     4   9  18  33  56  83 111 139 178 231 278 322
#     4  10  19  33  55  81 107 142 186 230 274 324
#     4  10  19  35  58  82 109 144 187 232 276 327
#     4  10  21  37  56  78 107 143 183 226 274 329
#     4  10  19  36  59  86 113 143 188 237 280 330
#     4  10  20  33  52  80 111 141 178 222 271 329
#     4  10  20  33  53  83 114 141 177 227 280 328
#     4  11  24  39  55  81 118 155 189 229 283 343
#
# _framework density 18.107970000000002
#
# number of rings (size 3 to 8) (size 9 to 14) (size 15 to 20)
#    0.000    2.000    2.500    1.500    0.000    4.250 
#    0.000    1.250    0.000    3.000    0.000    0.000 
#    0.000    0.000    0.000    0.000    0.000    0.000 
#
# Total GULP energy -793914.357479 kJ/mol
# GULP energy per Si atom -12404.911836 kJ/mol
# Density = 1.806676 g / cm^3
# Si number density = 18.107970 Si / 1000 Ang^3
#
#
#
# Elastic Constant Matrix: (Units=GPa)
#
#
# Indices 1 2 3 4 5 6 
#
# 1 84.7570 47.8891 54.9195 0.0000 0.0000 0.0000
# 2 47.8891 90.1011 62.2378 0.0000 0.0000 0.0000
# 3 54.9195 62.2378 127.1051 0.0000 0.0000 0.0000
# 4 0.0000 0.0000 0.0000 21.0026 0.0000 0.0000
# 5 0.0000 0.0000 0.0000 0.0000 28.2372 0.0000
# 6 0.0000 0.0000 0.0000 0.0000 0.0000 23.3426
#
#
#
# Elastic Compliance Matrix: (Units=1/GPa)
#
#
# Indices 1 2 3 4 5 6 
#
# 1 0.018645 -0.006566 -0.004841 0.000000 0.000000 0.000000
# 2 -0.006566 0.019083 -0.006507 0.000000 0.000000 0.000000
# 3 -0.004841 -0.006507 0.013146 0.000000 0.000000 0.000000
# 4 0.000000 0.000000 0.000000 0.047613 0.000000 0.000000
# 5 0.000000 0.000000 0.000000 0.000000 0.035414 0.000000
# 6 0.000000 0.000000 0.000000 0.000000 0.000000 0.042840
#
#
# Mechanical properties :
#
#
# Convention : Reuss Voigt Hill
#
# Bulk Modulus (GPa) = 66.46540 70.22845 68.34693
# Shear Modulus (GPa) = 22.97942 23.64424 23.31183
#
# Velocity S-wave (km/s) = 3.56620 3.61742 3.59190
# Velocity P-wave (km/s) = 7.33088 7.50433 7.41811
#
# Compressibility (1/GPa) = 0.01504542
#
# Stress axis : x y z
#
# Youngs Moduli (GPa) = 53.63312 52.40143 76.07097
#
# Poissons Ratio (x) = 0.34407 0.36827
# Poissons Ratio (y) = 0.35215 0.49502
# Poissons Ratio (z) = 0.25965 0.34099
#
# Static dielectric constant tensor:
#      x y z
#    x 3.110980 0.000000 0.000000 
#    y 0.000000 3.328340 0.000000 
#    z 0.000000 0.000000 3.402900 
# 
# 
# High freq. dielectric constant tensor:
#      x y z
#    x 1.673450 0.000000 0.000000 
#    y 0.000000 1.705080 0.000000 
#    z 0.000000 0.000000 1.713050 
# 
# From -- ./inp_files/33934.got.cif
#   From: 2010.03.12/outbox.cif.g09.slc.cpg/sg51_17_cif.got.tgz:33934.got - 2010.04.16 13:43:02.
