data_PCOD8209106
_publ_section_title
;
Structure prediction by ZEFSAII (Michael W. Deem and Ramdas Pophale) SiO2 
 PCOD8209106
Probable space group: P M M A
;
_chemical_formula_sum "Si O2"
_cell_formula_units_Z 64
_cell_length_a 8.862222
_cell_length_b 24.478576
_cell_length_c 15.386098
_cell_angle_alpha 90.000000
_cell_angle_beta 90.000000
_cell_angle_gamma 90.000000
_cell_volume 3337.776627
_symmetry_space_group_name_H-M "P M M A"
_symmetry_group_IT_number 51
_symmetry_cell_setting 'orthorhombic'
loop_
_space_group_symop_operation_xyz
x,y,z
1/2-x,-y,z
1/2+x,-y,-z
-x,y,-z
-x,-y,-z
1/2+x,y,-z
1/2-x,y,z
x,-y,z
loop_
_atom_site_type_symbol
_atom_site_label
_atom_site_fract_x
_atom_site_fract_y
_atom_site_fract_z
Si Si1 0.074368 0.855190 0.234766
Si Si2 0.423055 0.562880 0.761772
Si Si3 0.078537 0.733073 0.202592
Si Si4 0.072137 0.599898 0.414058
Si Si5 0.572213 0.062322 0.910356
Si Si6 0.924564 0.291638 0.372505
Si Si7 0.576680 0.634253 0.909166
Si Si8 0.073568 0.168299 0.587617
O O1 0.250000 0.863849 0.253352
O O2 0.042230 0.796913 0.188463
O O3 0.011155 0.901104 0.169282
O O4 0.991303 0.861259 0.327020
O O5 0.250000 0.581574 0.752253
O O6 0.435480 0.500000 0.789219
O O7 0.504517 0.571325 0.670217
O O8 0.502240 0.597984 0.835290
O O9 0.250000 0.726284 0.238465
O O10 0.059237 0.698783 0.113818
O O11 0.961044 0.707321 0.270214
O O12 0.250000 0.591793 0.414689
O O13 0.000000 0.572037 0.500000
O O14 0.030422 0.664123 0.418337
O O15 0.750000 0.068920 0.919832
O O16 0.524367 0.000000 0.891316
O O17 0.500000 0.083216 0.000000
O O18 0.750000 0.306708 0.386867
O O19 0.966508 0.232393 0.409700
O O20 0.750000 0.617126 0.916217
O O21 0.500000 0.621804 0.000000
O O22 0.250000 0.157367 0.585055
O O23 0.000000 0.143577 0.500000
#
# Coordination Sequence:
#
# PCOD8209106 Si02
#       8
#     8   8   8   8   8   8   8   8
#     4   9  18  33  53  78 112 150 188 231 278 330
#     4  11  25  45  66  86 110 141 181 232 284 335
#     4   9  18  33  53  79 111 148 184 221 273 329
#     4  12  24  38  59  86 115 148 184 224 272 330
#     4   9  18  33  54  80 110 147 190 236 284 331
#     4  10  19  32  53  80 111 146 183 223 269 322
#     4  11  23  39  61  87 114 147 184 226 277 335
#     4  10  20  32  49  77 111 149 189 229 275 326
#
# _framework density 19.174441000000002
#
# number of rings (size 3 to 8) (size 9 to 14) (size 15 to 20)
#    0.000    1.875    1.250    3.000    0.000    5.500 
#    0.000    0.000    0.000    0.375    0.000    0.000 
#    0.000    0.000    0.000    0.000    0.000    0.000 
#
# Total GULP energy -793663.638062 kJ/mol
# GULP energy per Si atom -12400.994345 kJ/mol
# Density = 1.913080 g / cm^3
# Si number density = 19.174441 Si / 1000 Ang^3
#
#
#
# Elastic Constant Matrix: (Units=GPa)
#
#
# Indices 1 2 3 4 5 6 
#
# 1 111.0761 34.0263 64.7574 0.0000 0.0000 0.0000
# 2 34.0263 71.5978 58.8634 0.0000 0.0000 0.0000
# 3 64.7574 58.8634 157.6314 0.0000 0.0000 0.0000
# 4 0.0000 0.0000 0.0000 10.7222 0.0000 0.0000
# 5 0.0000 0.0000 0.0000 0.0000 37.2705 0.0000
# 6 0.0000 0.0000 0.0000 0.0000 0.0000 20.4555
#
#
#
# Elastic Compliance Matrix: (Units=1/GPa)
#
#
# Indices 1 2 3 4 5 6 
#
# 1 0.012118 -0.002404 -0.004081 0.000000 0.000000 0.000000
# 2 -0.002404 0.020632 -0.006717 0.000000 0.000000 0.000000
# 3 -0.004081 -0.006717 0.010528 0.000000 0.000000 0.000000
# 4 0.000000 0.000000 0.000000 0.093264 0.000000 0.000000
# 5 0.000000 0.000000 0.000000 0.000000 0.026831 0.000000
# 6 0.000000 0.000000 0.000000 0.000000 0.000000 0.048887
#
#
# Mechanical properties :
#
#
# Convention : Reuss Voigt Hill
#
# Bulk Modulus (GPa) = 59.25821 72.84440 66.05131
# Shear Modulus (GPa) = 20.46762 25.86685 23.16724
#
# Velocity S-wave (km/s) = 3.27072 3.67690 3.47974
# Velocity P-wave (km/s) = 6.72572 7.48992 7.11809
#
# Compressibility (1/GPa) = 0.01687530
#
# Stress axis : x y z
#
# Youngs Moduli (GPa) = 82.51959 48.46951 94.98125
#
# Poissons Ratio (x) = 0.11654 0.38758
# Poissons Ratio (y) = 0.19841 0.63795
# Poissons Ratio (z) = 0.33673 0.32555
#
# Static dielectric constant tensor:
#      x y z
#    x 3.546520 0.000000 0.000000 
#    y 0.000000 3.464370 0.000000 
#    z 0.000000 0.000000 3.526980 
# 
# 
# High freq. dielectric constant tensor:
#      x y z
#    x 1.751840 0.000000 0.000000 
#    y 0.000000 1.725010 0.000000 
#    z 0.000000 0.000000 1.748680 
# 
# From -- ./inp_files/22354.got.cif
#   From: 2010.03.12/outbox.cif.g09.slc.cpg/sg51_12_cif.got.tgz:22354.got - 2010.04.16 13:43:02.
