data_PCOD8209941
_publ_section_title
;
Structure prediction by ZEFSAII (Michael W. Deem and Ramdas Pophale) SiO2 
 PCOD8209941
Probable space group: P M M A
;
_chemical_formula_sum "Si O2"
_cell_formula_units_Z 48
_cell_length_a 18.919613
_cell_length_b 9.232255
_cell_length_c 14.855447
_cell_angle_alpha 90.000000
_cell_angle_beta 90.000000
_cell_angle_gamma 90.000000
_cell_volume 2594.811203
_symmetry_space_group_name_H-M "P M M A"
_symmetry_group_IT_number 51
_symmetry_cell_setting 'orthorhombic'
loop_
_space_group_symop_operation_xyz
x,y,z
1/2-x,-y,z
1/2+x,-y,-z
-x,y,-z
-x,-y,-z
1/2+x,y,-z
1/2-x,y,z
x,-y,z
loop_
_atom_site_type_symbol
_atom_site_label
_atom_site_fract_x
_atom_site_fract_y
_atom_site_fract_z
Si Si1 0.056202 0.331710 0.670666
Si Si2 0.102602 0.329153 0.054349
Si Si3 0.170904 0.835026 0.201923
Si Si4 0.547140 0.671285 0.128960
Si Si5 0.417295 0.172298 0.372337
Si Si6 0.168210 0.666547 0.523058
O O1 0.033356 0.500000 0.672127
O O2 0.067952 0.270303 0.772165
O O3 0.129536 0.309282 0.618536
O O4 0.994653 0.242938 0.620279
O O5 0.112314 0.500000 0.061151
O O6 0.165364 0.254358 0.109221
O O7 0.030711 0.275397 0.102303
O O8 0.101859 0.277709 0.949393
O O9 0.250000 0.816418 0.239931
O O10 0.117371 0.778306 0.278107
O O11 0.153930 0.000000 0.178337
O O12 0.547584 0.500000 0.128988
O O13 0.367121 0.229143 0.450838
O O14 0.423449 0.000000 0.380916
O O15 0.250000 0.708991 0.535719
O O16 0.160069 0.500000 0.491527
#
# Coordination Sequence:
#
# PCOD8209941 Si02
#       6
#     8   8   8   8   8   8
#     4  10  19  35  58  81 107 139 174 219 266 312
#     4   9  16  30  52  77 103 134 172 210 253 308
#     4  10  21  35  49  71 107 144 175 215 267 315
#     4   8  15  29  52  79 106 131 163 212 261 301
#     4  11  22  36  55  79 106 139 179 222 268 317
#     4  10  22  38  55  77 105 139 178 217 264 321
#
# _framework density 18.498455
#
# number of rings (size 3 to 8) (size 9 to 14) (size 15 to 20)
#    0.000    2.333    1.667    2.500    0.000    4.667 
#    0.000    3.333    0.000    3.000    0.000    0.000 
#    0.000    0.000    0.000    0.000    0.000    0.000 
#
# Total GULP energy -595062.927424 kJ/mol
# GULP energy per Si atom -12397.144321 kJ/mol
# Density = 1.845635 g / cm^3
# Si number density = 18.498455 Si / 1000 Ang^3
#
#
#
# Elastic Constant Matrix: (Units=GPa)
#
#
# Indices 1 2 3 4 5 6 
#
# 1 91.4305 33.3645 57.0545 0.0000 0.0000 0.0000
# 2 33.3645 53.1814 45.4314 0.0000 0.0000 0.0000
# 3 57.0545 45.4314 129.9497 0.0000 0.0000 0.0000
# 4 0.0000 0.0000 0.0000 16.2283 0.0000 0.0000
# 5 0.0000 0.0000 0.0000 0.0000 25.7481 0.0000
# 6 0.0000 0.0000 0.0000 0.0000 0.0000 19.4302
#
#
#
# Elastic Compliance Matrix: (Units=1/GPa)
#
#
# Indices 1 2 3 4 5 6 
#
# 1 0.016246 -0.005844 -0.005090 0.000000 0.000000 0.000000
# 2 -0.005844 0.028913 -0.007542 0.000000 0.000000 0.000000
# 3 -0.005090 -0.007542 0.012567 0.000000 0.000000 0.000000
# 4 0.000000 0.000000 0.000000 0.061621 0.000000 0.000000
# 5 0.000000 0.000000 0.000000 0.000000 0.038838 0.000000
# 6 0.000000 0.000000 0.000000 0.000000 0.000000 0.051466
#
#
# Mechanical properties :
#
#
# Convention : Reuss Voigt Hill
#
# Bulk Modulus (GPa) = 48.13828 60.69581 54.41705
# Shear Modulus (GPa) = 19.72169 21.52874 20.62521
#
# Velocity S-wave (km/s) = 3.26870 3.41517 3.34274
# Velocity P-wave (km/s) = 6.35022 6.95943 6.66179
#
# Compressibility (1/GPa) = 0.02077349
#
# Stress axis : x y z
#
# Youngs Moduli (GPa) = 61.55368 34.58603 79.57526
#
# Poissons Ratio (x) = 0.20213 0.40500
# Poissons Ratio (y) = 0.35974 0.60018
# Poissons Ratio (z) = 0.31328 0.26086
#
# Static dielectric constant tensor:
#      x y z
#    x 3.279100 0.000000 0.000000 
#    y 0.000000 3.160030 0.000000 
#    z 0.000000 0.000000 3.813130 
# 
# 
# High freq. dielectric constant tensor:
#      x y z
#    x 1.702220 0.000000 0.000000 
#    y 0.000000 1.694680 0.000000 
#    z 0.000000 0.000000 1.728690 
# 
# From -- ./inp_files/24739.got.cif
#   From: 2010.03.12/outbox.cif.g09.slc.cpg/sg51_13_cif.got.tgz:24739.got - 2010.04.16 13:43:02.
