data_PCOD8209586
_publ_section_title
;
Structure prediction by ZEFSAII (Michael W. Deem and Ramdas Pophale) SiO2 
 PCOD8209586
Probable space group: P M M A
;
_chemical_formula_sum "Si O2"
_cell_formula_units_Z 56
_cell_length_a 8.958460
_cell_length_b 25.076116
_cell_length_c 14.430303
_cell_angle_alpha 90.000000
_cell_angle_beta 90.000000
_cell_angle_gamma 90.000000
_cell_volume 3241.672071
_symmetry_space_group_name_H-M "P M M A"
_symmetry_group_IT_number 51
_symmetry_cell_setting 'orthorhombic'
loop_
_space_group_symop_operation_xyz
x,y,z
1/2-x,-y,z
1/2+x,-y,-z
-x,y,-z
-x,-y,-z
1/2+x,y,-z
1/2-x,y,z
x,-y,z
loop_
_atom_site_type_symbol
_atom_site_label
_atom_site_fract_x
_atom_site_fract_y
_atom_site_fract_z
Si Si1 0.075748 0.938558 0.094911
Si Si2 0.076226 0.440262 0.093275
Si Si3 0.426295 0.315037 0.594332
Si Si4 0.924128 0.808486 0.407347
Si Si5 0.073773 0.747361 0.900056
Si Si6 0.573835 0.343987 0.778421
Si Si7 0.575274 0.147039 0.213024
O O1 0.250000 0.928477 0.084151
O O2 0.013279 0.904891 0.180383
O O3 0.037458 0.000000 0.115150
O O4 0.000000 0.919083 0.000000
O O5 0.250000 0.440020 0.072666
O O6 0.020084 0.500000 0.118514
O O7 0.036114 0.401080 0.176927
O O8 0.000000 0.418823 0.000000
O O9 0.500000 0.336436 0.500000
O O10 0.250000 0.325294 0.593205
O O11 0.466130 0.253040 0.608146
O O12 0.502894 0.347284 0.676952
O O13 0.750000 0.815408 0.421038
O O14 0.979950 0.840522 0.317294
O O15 0.000000 0.831653 0.500000
O O16 0.250000 0.737601 0.908097
O O17 0.037029 0.803880 0.853831
O O18 0.004012 0.701928 0.837005
O O19 0.000000 0.745678 0.000000
O O20 0.750000 0.332779 0.773256
O O21 0.750000 0.134537 0.211548
#
# Coordination Sequence:
#
# PCOD8209586 Si02
#       7
#     8   8   8   8   8   8   8
#     4  10  21  36  54  77 103 134 174 216 257 302
#     4   9  19  35  53  74 101 134 175 219 259 304
#     4  10  19  34  53  76 106 137 171 213 256 307
#     4   9  18  33  51  75 103 134 168 207 251 301
#     4  11  22  35  48  71 107 140 170 209 255 309
#     4  11  21  33  52  77 103 137 174 210 260 313
#     4  10  20  35  53  75 104 136 171 209 255 305
#
# _framework density 17.275034999999999
#
# number of rings (size 3 to 8) (size 9 to 14) (size 15 to 20)
#    0.000    2.000    1.429    2.571    0.000    6.571 
#    0.000    0.000    0.000    0.857    0.000    0.000 
#    0.000    0.000    0.000    0.000    0.000    0.000 
#
# Total GULP energy -694557.768066 kJ/mol
# GULP energy per Si atom -12402.817287 kJ/mol
# Density = 1.723572 g / cm^3
# Si number density = 17.275035 Si / 1000 Ang^3
#
#
#
# Elastic Constant Matrix: (Units=GPa)
#
#
# Indices 1 2 3 4 5 6 
#
# 1 74.0840 46.5624 61.8658 0.0000 0.0000 0.0000
# 2 46.5624 77.5058 63.0085 0.0000 0.0000 0.0000
# 3 61.8658 63.0085 165.0140 0.0000 0.0000 0.0000
# 4 0.0000 0.0000 0.0000 24.5056 0.0000 0.0000
# 5 0.0000 0.0000 0.0000 0.0000 36.5847 0.0000
# 6 0.0000 0.0000 0.0000 0.0000 0.0000 23.4692
#
#
#
# Elastic Compliance Matrix: (Units=1/GPa)
#
#
# Indices 1 2 3 4 5 6 
#
# 1 0.024364 -0.010457 -0.005141 0.000000 0.000000 0.000000
# 2 -0.010457 0.023199 -0.004938 0.000000 0.000000 0.000000
# 3 -0.005141 -0.004938 0.009873 0.000000 0.000000 0.000000
# 4 0.000000 0.000000 0.000000 0.040807 0.000000 0.000000
# 5 0.000000 0.000000 0.000000 0.000000 0.027334 0.000000
# 6 0.000000 0.000000 0.000000 0.000000 0.000000 0.042609
#
#
# Mechanical properties :
#
#
# Convention : Reuss Voigt Hill
#
# Bulk Modulus (GPa) = 61.11253 73.27525 67.19389
# Shear Modulus (GPa) = 23.28695 26.58970 24.93833
#
# Velocity S-wave (km/s) = 3.67551 3.92752 3.80360
# Velocity P-wave (km/s) = 7.31201 7.94205 7.63353
#
# Compressibility (1/GPa) = 0.01636326
#
# Stress axis : x y z
#
# Youngs Moduli (GPa) = 41.04386 43.10613 101.28626
#
# Poissons Ratio (x) = 0.45077 0.52076
# Poissons Ratio (y) = 0.42921 0.50010
# Poissons Ratio (z) = 0.21102 0.21284
#
# Static dielectric constant tensor:
#      x y z
#    x 3.283860 0.000000 0.000000 
#    y 0.000000 3.212360 0.000000 
#    z 0.000000 0.000000 3.352110 
# 
# 
# High freq. dielectric constant tensor:
#      x y z
#    x 1.676390 0.000000 0.000000 
#    y 0.000000 1.647690 0.000000 
#    z 0.000000 0.000000 1.673230 
# 
# From -- ./inp_files/21788.got.cif
#   From: 2010.03.12/outbox.cif.g09.slc.cpg/sg51_11_cif.got.tgz:21788.got - 2010.04.16 13:43:02.
