data_PCOD8209039
_publ_section_title
;
Structure prediction by ZEFSAII (Michael W. Deem and Ramdas Pophale) SiO2 
 PCOD8209039
Probable space group: P M M A
;
_chemical_formula_sum "Si O2"
_cell_formula_units_Z 64
_cell_length_a 20.051397
_cell_length_b 8.972153
_cell_length_c 19.853693
_cell_angle_alpha 90.000000
_cell_angle_beta 90.000000
_cell_angle_gamma 90.000000
_cell_volume 3571.762791
_symmetry_space_group_name_H-M "P M M A"
_symmetry_group_IT_number 51
_symmetry_cell_setting 'orthorhombic'
loop_
_space_group_symop_operation_xyz
x,y,z
1/2-x,-y,z
1/2+x,-y,-z
-x,y,-z
-x,-y,-z
1/2+x,y,-z
1/2-x,y,z
x,-y,z
loop_
_atom_site_type_symbol
_atom_site_label
_atom_site_fract_x
_atom_site_fract_y
_atom_site_fract_z
Si Si1 0.568379 0.175833 0.968094
Si Si2 0.176636 0.323695 0.408622
Si Si3 0.107995 0.673382 0.805368
Si Si4 0.042903 0.329055 0.164924
Si Si5 0.557870 0.323189 0.684042
Si Si6 0.825925 0.828902 0.075870
Si Si7 0.418376 0.176256 0.668597
Si Si8 0.172541 0.328199 0.561952
O O1 0.579523 0.235830 0.892803
O O2 0.565882 0.000000 0.963223
O O3 0.500000 0.239342 0.000000
O O4 0.629216 0.231162 0.014450
O O5 0.250000 0.258882 0.389426
O O6 0.179397 0.500000 0.401764
O O7 0.120335 0.260306 0.358472
O O8 0.158620 0.280779 0.484964
O O9 0.119387 0.500000 0.790281
O O10 0.162812 0.731906 0.857415
O O11 0.116157 0.760720 0.735716
O O12 0.035784 0.704205 0.837341
O O13 0.058240 0.500000 0.150163
O O14 0.071239 0.282035 0.237940
O O15 0.547326 0.500000 0.675975
O O16 0.491436 0.244775 0.657078
O O17 0.750000 0.811327 0.052721
O O18 0.844136 0.000000 0.092606
O O19 0.371984 0.219454 0.606350
O O20 0.424443 0.000000 0.674113
O O21 0.250000 0.305123 0.579923
O O22 0.152009 0.500000 0.574204
#
# Coordination Sequence:
#
# PCOD8209039 Si02
#       8
#     8   8   8   8   8   8   8   8
#     4  10  19  32  53  76  97 131 175 209 244 297
#     4   8  15  31  57  82 102 133 178 222 263 311
#     4  10  20  35  54  75 100 131 170 213 258 306
#     4   9  18  31  50  77 103 129 164 209 255 298
#     4   9  18  34  54  79 109 137 172 219 266 310
#     4  10  21  36  52  74 105 137 170 210 255 304
#     4  11  22  34  51  76 108 142 175 212 258 311
#     4   9  18  34  55  77 101 134 178 221 261 310
#
# _framework density 17.918324999999999
#
# number of rings (size 3 to 8) (size 9 to 14) (size 15 to 20)
#    0.000    2.500    1.250    3.000    0.000    4.250 
#    0.000    3.750    0.000    1.875    0.000    0.000 
#    0.000    0.000    0.000    0.000    0.000    0.000 
#
# Total GULP energy -793634.033181 kJ/mol
# GULP energy per Si atom -12400.531768 kJ/mol
# Density = 1.787754 g / cm^3
# Si number density = 17.918325 Si / 1000 Ang^3
#
#
#
# Elastic Constant Matrix: (Units=GPa)
#
#
# Indices 1 2 3 4 5 6 
#
# 1 107.4511 39.4722 77.7724 0.0000 0.0000 0.0000
# 2 39.4722 61.5159 42.3591 0.0000 0.0000 0.0000
# 3 77.7724 42.3591 126.8444 0.0000 0.0000 0.0000
# 4 0.0000 0.0000 0.0000 18.2438 0.0000 0.0000
# 5 0.0000 0.0000 0.0000 0.0000 31.1607 0.0000
# 6 0.0000 0.0000 0.0000 0.0000 0.0000 17.1812
#
#
#
# Elastic Compliance Matrix: (Units=1/GPa)
#
#
# Indices 1 2 3 4 5 6 
#
# 1 0.017883 -0.005097 -0.009263 0.000000 0.000000 0.000000
# 2 -0.005097 0.022563 -0.004410 0.000000 0.000000 0.000000
# 3 -0.009263 -0.004410 0.015036 0.000000 0.000000 0.000000
# 4 0.000000 0.000000 0.000000 0.054813 0.000000 0.000000
# 5 0.000000 0.000000 0.000000 0.000000 0.032092 0.000000
# 6 0.000000 0.000000 0.000000 0.000000 0.000000 0.058203
#
#
# Mechanical properties :
#
#
# Convention : Reuss Voigt Hill
#
# Bulk Modulus (GPa) = 55.73161 68.33543 62.03352
# Shear Modulus (GPa) = 20.48265 22.39765 21.44015
#
# Velocity S-wave (km/s) = 3.38466 3.53935 3.46287
# Velocity P-wave (km/s) = 6.81507 7.41098 7.11926
#
# Compressibility (1/GPa) = 0.01794314
#
# Stress axis : x y z
#
# Youngs Moduli (GPa) = 55.91874 44.32066 66.50892
#
# Poissons Ratio (x) = 0.22589 0.61605
# Poissons Ratio (y) = 0.28500 0.29329
# Poissons Ratio (z) = 0.51796 0.19545
#
# Static dielectric constant tensor:
#      x y z
#    x 3.403760 0.000000 0.000000 
#    y 0.000000 3.089900 0.000000 
#    z 0.000000 0.000000 3.384830 
# 
# 
# High freq. dielectric constant tensor:
#      x y z
#    x 1.683170 0.000000 0.000000 
#    y 0.000000 1.675090 0.000000 
#    z 0.000000 0.000000 1.698860 
# 
# From -- ./inp_files/30654.got.cif
#   From: 2010.03.12/outbox.cif.g09.slc.cpg/sg51_16_cif.got.tgz:30654.got - 2010.04.16 13:43:02.
