data_PCOD8209434
_publ_section_title
;
Structure prediction by ZEFSAII (Michael W. Deem and Ramdas Pophale) SiO2 
 PCOD8209434
Probable space group: P M M A
;
_chemical_formula_sum "Si O2"
_cell_formula_units_Z 64
_cell_length_a 20.047712
_cell_length_b 8.942088
_cell_length_c 19.841296
_cell_angle_alpha 90.000000
_cell_angle_beta 90.000000
_cell_angle_gamma 90.000000
_cell_volume 3556.917485
_symmetry_space_group_name_H-M "P M M A"
_symmetry_group_IT_number 51
_symmetry_cell_setting 'orthorhombic'
loop_
_space_group_symop_operation_xyz
x,y,z
1/2-x,-y,z
1/2+x,-y,-z
-x,y,-z
-x,-y,-z
1/2+x,y,-z
1/2-x,y,z
x,-y,z
loop_
_atom_site_type_symbol
_atom_site_label
_atom_site_fract_x
_atom_site_fract_y
_atom_site_fract_z
Si Si1 0.950458 0.173136 0.331006
Si Si2 0.823744 0.177013 0.947789
Si Si3 0.896916 0.169927 0.690672
Si Si4 0.827686 0.827820 0.100799
Si Si5 0.570132 0.323146 0.467822
Si Si6 0.065655 0.323292 0.809104
Si Si7 0.429169 0.177049 0.160274
Si Si8 0.324201 0.676381 0.424230
O O1 0.916650 0.243065 0.396879
O O2 0.923864 0.257663 0.265334
O O3 0.029375 0.195074 0.338261
O O4 0.930863 0.000000 0.324188
O O5 0.750000 0.241282 0.929397
O O6 0.880296 0.240405 0.897704
O O7 0.820931 0.000000 0.940460
O O8 0.842561 0.220726 0.023925
O O9 0.894570 0.217096 0.768805
O O10 0.845889 0.271013 0.649679
O O11 0.873962 0.000000 0.681835
O O12 0.750000 0.806189 0.117616
O O13 0.869550 0.719322 0.148196
O O14 0.848821 0.000000 0.112464
O O15 0.500000 0.275019 0.500000
O O16 0.573519 0.500000 0.456307
O O17 0.627315 0.262181 0.517681
O O18 0.058452 0.500000 0.804230
O O19 0.000379 0.257096 0.845853
O O20 0.442136 0.000000 0.154715
O O21 0.250000 0.735220 0.439623
O O22 0.327273 0.500000 0.423460
#
# Coordination Sequence:
#
# PCOD8209434 Si02
#       8
#     8   8   8   8   8   8   8   8
#     4  10  20  35  56  80 103 130 173 222 264 306
#     4   8  15  30  54  80 104 137 182 226 268 318
#     4   9  18  31  49  74 102 133 170 214 258 302
#     4   9  18  35  58  80 103 136 180 226 271 322
#     4  10  19  33  55  79 101 135 176 211 255 313
#     4  11  22  35  53  78 110 143 176 218 267 321
#     4   9  18  33  53  79 109 140 176 220 265 310
#     4  10  21  35  50  72 105 140 172 208 252 307
#
# _framework density 17.993106999999998
#
# number of rings (size 3 to 8) (size 9 to 14) (size 15 to 20)
#    0.000    2.500    1.250    3.000    0.000    4.250 
#    0.000    5.000    0.000    3.375    0.000    0.000 
#    0.000    0.000    0.000    0.000    0.000    0.000 
#
# Total GULP energy -793619.119430 kJ/mol
# GULP energy per Si atom -12400.298741 kJ/mol
# Density = 1.795215 g / cm^3
# Si number density = 17.993107 Si / 1000 Ang^3
#
#
#
# Elastic Constant Matrix: (Units=GPa)
#
#
# Indices 1 2 3 4 5 6 
#
# 1 108.4513 38.7905 73.9332 0.0000 0.0000 0.0000
# 2 38.7905 57.6775 43.0341 0.0000 0.0000 0.0000
# 3 73.9332 43.0341 121.4218 0.0000 0.0000 0.0000
# 4 0.0000 0.0000 0.0000 14.3959 0.0000 0.0000
# 5 0.0000 0.0000 0.0000 0.0000 27.3651 0.0000
# 6 0.0000 0.0000 0.0000 0.0000 0.0000 20.7442
#
#
#
# Elastic Compliance Matrix: (Units=1/GPa)
#
#
# Indices 1 2 3 4 5 6 
#
# 1 0.016751 -0.004970 -0.008438 0.000000 0.000000 0.000000
# 2 -0.004970 0.025045 -0.005850 0.000000 0.000000 0.000000
# 3 -0.008438 -0.005850 0.015447 0.000000 0.000000 0.000000
# 4 0.000000 0.000000 0.000000 0.069464 0.000000 0.000000
# 5 0.000000 0.000000 0.000000 0.000000 0.036543 0.000000
# 6 0.000000 0.000000 0.000000 0.000000 0.000000 0.048206
#
#
# Mechanical properties :
#
#
# Convention : Reuss Voigt Hill
#
# Bulk Modulus (GPa) = 53.40000 66.56292 59.98146
# Shear Modulus (GPa) = 19.51486 21.28722 20.40104
#
# Velocity S-wave (km/s) = 3.29686 3.44332 3.37089
# Velocity P-wave (km/s) = 6.65093 7.27203 6.96840
#
# Compressibility (1/GPa) = 0.01872659
#
# Stress axis : x y z
#
# Youngs Moduli (GPa) = 59.69924 39.92776 64.73704
#
# Poissons Ratio (x) = 0.19843 0.54625
# Poissons Ratio (y) = 0.29669 0.37874
# Poissons Ratio (z) = 0.50374 0.23359
#
# Static dielectric constant tensor:
#      x y z
#    x 3.408320 0.000000 0.000000 
#    y 0.000000 3.093280 0.000000 
#    z 0.000000 0.000000 3.410640 
# 
# 
# High freq. dielectric constant tensor:
#      x y z
#    x 1.687380 0.000000 0.000000 
#    y 0.000000 1.677190 0.000000 
#    z 0.000000 0.000000 1.703420 
# 
# From -- ./inp_files/33895.got.cif
#   From: 2010.03.12/outbox.cif.g09.slc.cpg/sg51_17_cif.got.tgz:33895.got - 2010.04.16 13:43:02.
