data_PCOD8209787
_publ_section_title
;
Structure prediction by ZEFSAII (Michael W. Deem and Ramdas Pophale) SiO2 
 PCOD8209787
Probable space group: P M M A
;
_chemical_formula_sum "Si O2"
_cell_formula_units_Z 44
_cell_length_a 13.193446
_cell_length_b 15.729617
_cell_length_c 10.937075
_cell_angle_alpha 90.000000
_cell_angle_beta 90.000000
_cell_angle_gamma 90.000000
_cell_volume 2269.747687
_symmetry_space_group_name_H-M "P M M A"
_symmetry_group_IT_number 51
_symmetry_cell_setting 'orthorhombic'
loop_
_space_group_symop_operation_xyz
x,y,z
1/2-x,-y,z
1/2+x,-y,-z
-x,y,-z
-x,-y,-z
1/2+x,y,-z
1/2-x,y,z
x,-y,z
loop_
_atom_site_type_symbol
_atom_site_label
_atom_site_fract_x
_atom_site_fract_y
_atom_site_fract_z
Si Si1 0.633573 0.406966 0.281275
Si Si2 0.632205 0.092209 0.490317
Si Si3 0.629007 0.241887 0.655993
Si Si4 0.976165 0.259072 0.136411
Si Si5 0.000000 0.635116 0.500000
Si Si6 0.131543 0.903403 0.786207
O O1 0.750000 0.386358 0.317760
O O2 0.628086 0.500000 0.215469
O O3 0.595556 0.330966 0.194935
O O4 0.562681 0.417933 0.400573
O O5 0.750000 0.084929 0.508068
O O6 0.588879 0.154682 0.593278
O O7 0.609040 0.124445 0.353463
O O8 0.582431 0.000000 0.512631
O O9 0.750000 0.247206 0.666959
O O10 0.581447 0.250479 0.790196
O O11 0.588608 0.313691 0.566905
O O12 0.922836 0.166635 0.129907
O O13 0.000000 0.289034 0.000000
O O14 0.250000 0.900532 0.814854
O O15 0.092026 0.000000 0.811678
#
# Coordination Sequence:
#
# PCOD8209787 Si02
#       6
#     8   8   8   8   4   8
#     4  10  21  38  62  88 112 142 180 224 279 340
#     4   8  14  27  49  76 104 133 170 221 277 329
#     4  10  20  33  51  78 110 146 185 224 276 336
#     4  11  24  38  54  76 109 152 197 240 272 309
#     4  10  19  34  57  88 118 138 161 216 284 348
#     4   9  18  34  57  83 109 140 181 230 285 341
#
# _framework density 19.385414999999998
#
# number of rings (size 3 to 8) (size 9 to 14) (size 15 to 20)
#    0.000    2.364    0.000    4.636    0.000    4.364 
#    0.000    2.273    0.000    7.091    0.000    0.000 
#    0.000    0.000    0.000    0.000    0.000    0.000 
#
# Total GULP energy -545215.155807 kJ/mol
# GULP energy per Si atom -12391.253541 kJ/mol
# Density = 1.934129 g / cm^3
# Si number density = 19.385415 Si / 1000 Ang^3
#
#
#
# Elastic Constant Matrix: (Units=GPa)
#
#
# Indices 1 2 3 4 5 6 
#
# 1 81.2042 24.4781 17.8809 0.0000 0.0000 0.0000
# 2 24.4781 102.7612 29.9747 0.0000 0.0000 0.0000
# 3 17.8809 29.9747 84.1746 0.0000 0.0000 0.0000
# 4 0.0000 0.0000 0.0000 10.2836 0.0000 0.0000
# 5 0.0000 0.0000 0.0000 0.0000 19.1342 0.0000
# 6 0.0000 0.0000 0.0000 0.0000 0.0000 39.7489
#
#
#
# Elastic Compliance Matrix: (Units=1/GPa)
#
#
# Indices 1 2 3 4 5 6 
#
# 1 0.013542 -0.002663 -0.001928 0.000000 0.000000 0.000000
# 2 -0.002663 0.011383 -0.003488 0.000000 0.000000 0.000000
# 3 -0.001928 -0.003488 0.013532 0.000000 0.000000 0.000000
# 4 0.000000 0.000000 0.000000 0.097242 0.000000 0.000000
# 5 0.000000 0.000000 0.000000 0.000000 0.052262 0.000000
# 6 0.000000 0.000000 0.000000 0.000000 0.000000 0.025158
#
#
# Mechanical properties :
#
#
# Convention : Reuss Voigt Hill
#
# Bulk Modulus (GPa) = 44.84686 45.86747 45.35716
# Shear Modulus (GPa) = 21.12281 26.88709 24.00495
#
# Velocity S-wave (km/s) = 3.30453 3.72825 3.52277
# Velocity P-wave (km/s) = 6.14365 6.49964 6.32415
#
# Compressibility (1/GPa) = 0.02229811
#
# Stress axis : x y z
#
# Youngs Moduli (GPa) = 73.84401 87.84983 73.90066
#
# Poissons Ratio (x) = 0.23397 0.14250
# Poissons Ratio (y) = 0.19667 0.25775
# Poissons Ratio (z) = 0.14239 0.30640
#
# Static dielectric constant tensor:
#      x y z
#    x 3.541110 0.000000 0.000000 
#    y 0.000000 3.176410 0.000000 
#    z 0.000000 0.000000 3.272640 
# 
# 
# High freq. dielectric constant tensor:
#      x y z
#    x 1.771180 0.000000 0.000000 
#    y 0.000000 1.761800 0.000000 
#    z 0.000000 0.000000 1.719270 
# 
# From -- ./inp_files/16347.got.cif
#   From: 2010.03.12/outbox.cif.g09.slc.cpg/sg51_9_cif.got.tgz:16347.got - 2010.04.16 13:43:02.
