data_PCOD8209786
_publ_section_title
;
Structure prediction by ZEFSAII (Michael W. Deem and Ramdas Pophale) SiO2 
 PCOD8209786
Probable space group: P M M A
;
_chemical_formula_sum "Si O2"
_cell_formula_units_Z 64
_cell_length_a 19.584935
_cell_length_b 19.373525
_cell_length_c 9.192429
_cell_angle_alpha 90.000000
_cell_angle_beta 90.000000
_cell_angle_gamma 90.000000
_cell_volume 3487.876237
_symmetry_space_group_name_H-M "P M M A"
_symmetry_group_IT_number 51
_symmetry_cell_setting 'orthorhombic'
loop_
_space_group_symop_operation_xyz
x,y,z
1/2-x,-y,z
1/2+x,-y,-z
-x,y,-z
-x,-y,-z
1/2+x,y,-z
1/2-x,y,z
x,-y,z
loop_
_atom_site_type_symbol
_atom_site_label
_atom_site_fract_x
_atom_site_fract_y
_atom_site_fract_z
Si Si1 0.099861 0.702952 0.404566
Si Si2 0.828558 0.337925 0.855420
Si Si3 0.938801 0.080499 0.395200
Si Si4 0.074377 0.576828 0.935476
Si Si5 0.560151 0.826318 0.117947
Si Si6 0.326768 0.823469 0.095794
Si Si7 0.670211 0.152509 0.581421
Si Si8 0.047571 0.309557 0.713125
O O1 0.150274 0.652032 0.314527
O O2 0.135596 0.774409 0.443616
O O3 0.082575 0.672980 0.560642
O O4 0.031724 0.710628 0.306423
O O5 0.750000 0.357533 0.878685
O O6 0.843837 0.257365 0.883997
O O7 0.872924 0.386426 0.957068
O O8 0.953681 0.118412 0.243458
O O9 0.867486 0.098615 0.475093
O O10 0.000000 0.103627 0.500000
O O11 0.939578 0.000000 0.361348
O O12 0.102361 0.500000 0.901452
O O13 0.064664 0.619049 0.789269
O O14 0.000000 0.571870 0.000000
O O15 0.578469 0.753224 0.192885
O O16 0.500000 0.818981 0.000000
O O17 0.625600 0.853910 0.029558
O O18 0.250000 0.833285 0.041202
O O19 0.338170 0.865264 0.246936
O O20 0.750000 0.154706 0.538511
#
# Coordination Sequence:
#
# PCOD8209786 Si02
#       8
#     8   8   8   8   8   8   8   8
#     4  10  19  34  57  88 117 144 193 248 292 342
#     4  10  19  36  58  83 116 152 193 241 297 355
#     4  11  24  41  58  84 119 156 198 241 293 356
#     4  11  22  38  57  83 118 157 199 244 294 356
#     4  12  21  34  60  85 114 150 193 244 294 340
#     4   9  19  34  56  86 114 141 185 243 292 343
#     4  10  20  38  61  87 118 153 194 239 294 353
#     4  11  20  34  59  88 118 150 196 248 297 347
#
# _framework density 18.349274000000001
#
# number of rings (size 3 to 8) (size 9 to 14) (size 15 to 20)
#    0.000    1.500    3.750    4.500    0.000    1.250 
#    0.000    3.750    0.000    0.750    0.000    0.000 
#    0.000    0.000    0.000    0.000    0.000    0.000 
#
# Total GULP energy -793315.584826 kJ/mol
# GULP energy per Si atom -12395.556013 kJ/mol
# Density = 1.830751 g / cm^3
# Si number density = 18.349274 Si / 1000 Ang^3
#
#
#
# Elastic Constant Matrix: (Units=GPa)
#
#
# Indices 1 2 3 4 5 6 
#
# 1 91.7553 22.4185 48.0530 0.0000 0.0000 0.0000
# 2 22.4185 66.6094 45.9997 0.0000 0.0000 0.0000
# 3 48.0530 45.9997 119.6515 0.0000 0.0000 0.0000
# 4 0.0000 0.0000 0.0000 28.9203 0.0000 0.0000
# 5 0.0000 0.0000 0.0000 0.0000 33.6345 0.0000
# 6 0.0000 0.0000 0.0000 0.0000 0.0000 17.4611
#
#
#
# Elastic Compliance Matrix: (Units=1/GPa)
#
#
# Indices 1 2 3 4 5 6 
#
# 1 0.013862 -0.001118 -0.005137 0.000000 0.000000 0.000000
# 2 -0.001118 0.020530 -0.007444 0.000000 0.000000 0.000000
# 3 -0.005137 -0.007444 0.013283 0.000000 0.000000 0.000000
# 4 0.000000 0.000000 0.000000 0.034578 0.000000 0.000000
# 5 0.000000 0.000000 0.000000 0.000000 0.029731 0.000000
# 6 0.000000 0.000000 0.000000 0.000000 0.000000 0.057270
#
#
# Mechanical properties :
#
#
# Convention : Reuss Voigt Hill
#
# Bulk Modulus (GPa) = 49.31777 56.77318 53.04548
# Shear Modulus (GPa) = 24.58088 26.77285 25.67687
#
# Velocity S-wave (km/s) = 3.66404 3.82392 3.74483
# Velocity P-wave (km/s) = 6.69596 7.10661 6.90434
#
# Compressibility (1/GPa) = 0.02027667
#
# Stress axis : x y z
#
# Youngs Moduli (GPa) = 72.13884 48.71019 75.28676
#
# Poissons Ratio (x) = 0.05444 0.38678
# Poissons Ratio (y) = 0.08063 0.56041
# Poissons Ratio (z) = 0.37061 0.36258
#
# Static dielectric constant tensor:
#      x y z
#    x 3.456940 0.000000 0.000000 
#    y 0.000000 3.216170 0.000000 
#    z 0.000000 0.000000 3.530910 
# 
# 
# High freq. dielectric constant tensor:
#      x y z
#    x 1.718600 0.000000 0.000000 
#    y 0.000000 1.679010 0.000000 
#    z 0.000000 0.000000 1.723240 
# 
# From -- ./inp_files/11172.got.cif
#   From: 2010.03.12/outbox.cif.g09.slc.cpg/sg51_6_cif.got.tgz:11172.got - 2010.04.16 13:43:02.
