data_PCOD8209851
_publ_section_title
;
Structure prediction by ZEFSAII (Michael W. Deem and Ramdas Pophale) SiO2 
 PCOD8209851
Probable space group: P M M A
;
_chemical_formula_sum "Si O2"
_cell_formula_units_Z 48
_cell_length_a 27.898447
_cell_length_b 9.165416
_cell_length_c 9.901389
_cell_angle_alpha 90.000000
_cell_angle_beta 90.000000
_cell_angle_gamma 90.000000
_cell_volume 2531.793806
_symmetry_space_group_name_H-M "P M M A"
_symmetry_group_IT_number 51
_symmetry_cell_setting 'orthorhombic'
loop_
_space_group_symop_operation_xyz
x,y,z
1/2-x,-y,z
1/2+x,-y,-z
-x,y,-z
-x,-y,-z
1/2+x,y,-z
1/2-x,y,z
x,-y,z
loop_
_atom_site_type_symbol
_atom_site_label
_atom_site_fract_x
_atom_site_fract_y
_atom_site_fract_z
Si Si1 0.250000 0.672958 0.411922
Si Si2 0.998916 0.172692 0.151628
Si Si3 0.159568 0.835273 0.042613
Si Si4 0.750000 0.671764 0.893464
Si Si5 0.906047 0.170194 0.704959
Si Si6 0.648543 0.326629 0.474536
Si Si7 0.605324 0.832331 0.229842
O O1 0.250000 0.500000 0.407143
O O2 0.250000 0.734877 0.259307
O O3 0.202142 0.728892 0.487781
O O4 0.043045 0.231071 0.241440
O O5 0.950335 0.215133 0.230308
O O6 0.003920 0.000000 0.136721
O O7 0.000000 0.240461 0.000000
O O8 0.203862 0.726892 0.025779
O O9 0.133189 0.799917 0.181435
O O10 0.179174 0.000000 0.041765
O O11 0.122626 0.809735 0.922455
O O12 0.750000 0.500000 0.894444
O O13 0.891258 0.260745 0.573890
O O14 0.909316 0.000000 0.666465
O O15 0.645493 0.500000 0.480172
O O16 0.636610 0.270922 0.325220
O O17 0.611345 0.000000 0.276482
#
# Coordination Sequence:
#
# PCOD8209851 Si02
#       7
#     4   8   8   4   8   8   8
#     4   9  20  38  57  76 104 150 195 229 270 331
#     4   9  16  32  60  88 113 147 188 232 283 340
#     4  10  20  35  58  88 116 140 182 242 288 325
#     4  11  21  36  59  84 112 150 193 231 280 343
#     4  10  19  34  60  89 112 144 189 234 284 335
#     4  11  23  40  58  80 116 155 194 234 281 340
#     4  10  21  38  59  86 118 148 186 234 285 338
#
# _framework density 18.95889
#
# number of rings (size 3 to 8) (size 9 to 14) (size 15 to 20)
#    0.000    2.000    3.333    0.750    0.000    2.000 
#    0.000    7.500    0.000    1.000    0.000    0.000 
#    0.000    0.000    0.000    0.000    0.000    0.000 
#
# Total GULP energy -595282.210851 kJ/mol
# GULP energy per Si atom -12401.712726 kJ/mol
# Density = 1.891574 g / cm^3
# Si number density = 18.958890 Si / 1000 Ang^3
#
#
#
# Elastic Constant Matrix: (Units=GPa)
#
#
# Indices 1 2 3 4 5 6 
#
# 1 110.8810 32.8558 10.6391 0.0000 0.0000 0.0000
# 2 32.8558 54.4870 20.5882 0.0000 0.0000 0.0000
# 3 10.6391 20.5882 55.6178 0.0000 0.0000 0.0000
# 4 0.0000 0.0000 0.0000 25.1316 0.0000 0.0000
# 5 0.0000 0.0000 0.0000 0.0000 25.2663 0.0000
# 6 0.0000 0.0000 0.0000 0.0000 0.0000 17.4131
#
#
#
# Elastic Compliance Matrix: (Units=1/GPa)
#
#
# Indices 1 2 3 4 5 6 
#
# 1 0.010989 -0.006780 0.000408 0.000000 0.000000 0.000000
# 2 -0.006780 0.025521 -0.008150 0.000000 0.000000 0.000000
# 3 0.000408 -0.008150 0.020919 0.000000 0.000000 0.000000
# 4 0.000000 0.000000 0.000000 0.039791 0.000000 0.000000
# 5 0.000000 0.000000 0.000000 0.000000 0.039578 0.000000
# 6 0.000000 0.000000 0.000000 0.000000 0.000000 0.057428
#
#
# Mechanical properties :
#
#
# Convention : Reuss Voigt Hill
#
# Bulk Modulus (GPa) = 35.23200 38.79466 37.01333
# Shear Modulus (GPa) = 21.48395 24.02240 22.75317
#
# Velocity S-wave (km/s) = 3.36993 3.56347 3.46805
# Velocity P-wave (km/s) = 5.81082 6.11866 5.96673
#
# Compressibility (1/GPa) = 0.02838329
#
# Stress axis : x y z
#
# Youngs Moduli (GPa) = 91.00305 39.18320 47.80378
#
# Poissons Ratio (x) = 0.26567 -0.01950
# Poissons Ratio (y) = 0.61703 0.38961
# Poissons Ratio (z) = -0.03712 0.31935
#
# Static dielectric constant tensor:
#      x y z
#    x 3.674130 0.000000 0.000000 
#    y 0.000000 3.161090 0.000000 
#    z 0.000000 0.000000 3.378580 
# 
# 
# High freq. dielectric constant tensor:
#      x y z
#    x 1.750910 0.000000 0.000000 
#    y 0.000000 1.703210 0.000000 
#    z 0.000000 0.000000 1.735450 
# 
# From -- ./inp_files/12985.got.cif
#   From: 2010.03.12/outbox.cif.g09.slc.cpg/sg51_7_cif.got.tgz:12985.got - 2010.04.16 13:43:02.
