data_PCOD8209731
_publ_section_title
;
Structure prediction by ZEFSAII (Michael W. Deem and Ramdas Pophale) SiO2 
 PCOD8209731
Probable space group: P M M A
;
_chemical_formula_sum "Si O2"
_cell_formula_units_Z 48
_cell_length_a 19.120412
_cell_length_b 9.181009
_cell_length_c 14.950150
_cell_angle_alpha 90.000000
_cell_angle_beta 90.000000
_cell_angle_gamma 90.000000
_cell_volume 2624.419218
_symmetry_space_group_name_H-M "P M M A"
_symmetry_group_IT_number 51
_symmetry_cell_setting 'orthorhombic'
loop_
_space_group_symop_operation_xyz
x,y,z
1/2-x,-y,z
1/2+x,-y,-z
-x,y,-z
-x,-y,-z
1/2+x,y,-z
1/2-x,y,z
x,-y,z
loop_
_atom_site_type_symbol
_atom_site_label
_atom_site_fract_x
_atom_site_fract_y
_atom_site_fract_z
Si Si1 0.077329 0.667302 0.520255
Si Si2 0.929677 0.171427 0.778507
Si Si3 0.423978 0.670642 0.038095
Si Si4 0.827809 0.672684 0.123237
Si Si5 0.931279 0.667993 0.274960
Si Si6 0.170491 0.170389 0.381721
O O1 0.079975 0.500000 0.489299
O O2 0.095738 0.685349 0.624333
O O3 0.135305 0.753493 0.466149
O O4 0.000000 0.730619 0.500000
O O5 0.908865 0.240962 0.872517
O O6 0.868111 0.211718 0.710012
O O7 0.000626 0.236380 0.739723
O O8 0.939071 0.000000 0.790544
O O9 0.417777 0.500000 0.059091
O O10 0.500000 0.709010 0.000000
O O11 0.367059 0.724268 0.966231
O O12 0.750000 0.741098 0.125113
O O13 0.823370 0.500000 0.124695
O O14 0.870210 0.726533 0.210174
O O15 0.950176 0.500000 0.252762
O O16 0.250000 0.225115 0.373405
O O17 0.166432 0.000000 0.400072
#
# Coordination Sequence:
#
# PCOD8209731 Si02
#       6
#     8   8   8   8   8   8
#     4  10  20  34  58  88 113 140 184 238 282 327
#     4  11  22  35  56  83 110 145 189 231 272 326
#     4  10  19  34  57  81 106 142 183 227 279 332
#     4   9  18  33  54  80 108 139 178 223 275 336
#     4  10  19  35  58  83 112 145 181 226 278 334
#     4  10  23  41  57  78 114 156 191 228 279 335
#
# _framework density 18.289759
#
# number of rings (size 3 to 8) (size 9 to 14) (size 15 to 20)
#    0.000    2.000    3.333    0.500    0.000    3.667 
#    0.000    1.667    0.000    1.500    0.000    0.000 
#    0.000    0.000    0.000    0.000    0.000    0.000 
#
# Total GULP energy -595336.299801 kJ/mol
# GULP energy per Si atom -12402.839579 kJ/mol
# Density = 1.824813 g / cm^3
# Si number density = 18.289759 Si / 1000 Ang^3
#
#
#
# Elastic Constant Matrix: (Units=GPa)
#
#
# Indices 1 2 3 4 5 6 
#
# 1 173.6830 48.2291 83.2220 0.0000 0.0000 0.0000
# 2 48.2291 42.7180 53.1353 0.0000 0.0000 0.0000
# 3 83.2220 53.1353 147.4969 0.0000 0.0000 0.0000
# 4 0.0000 0.0000 0.0000 25.6243 0.0000 0.0000
# 5 0.0000 0.0000 0.0000 0.0000 33.1203 0.0000
# 6 0.0000 0.0000 0.0000 0.0000 0.0000 20.2863
#
#
#
# Elastic Compliance Matrix: (Units=1/GPa)
#
#
# Indices 1 2 3 4 5 6 
#
# 1 0.008881 -0.006874 -0.002534 0.000000 0.000000 0.000000
# 2 -0.006874 0.047736 -0.013318 0.000000 0.000000 0.000000
# 3 -0.002534 -0.013318 0.013008 0.000000 0.000000 0.000000
# 4 0.000000 0.000000 0.000000 0.039026 0.000000 0.000000
# 5 0.000000 0.000000 0.000000 0.000000 0.030193 0.000000
# 6 0.000000 0.000000 0.000000 0.000000 0.000000 0.049294
#
#
# Mechanical properties :
#
#
# Convention : Reuss Voigt Hill
#
# Bulk Modulus (GPa) = 41.37157 81.45229 61.41193
# Shear Modulus (GPa) = 20.69123 27.76028 24.22575
#
# Velocity S-wave (km/s) = 3.36713 3.90013 3.64339
# Velocity P-wave (km/s) = 6.14703 8.05682 7.16583
#
# Compressibility (1/GPa) = 0.02417119
#
# Stress axis : x y z
#
# Youngs Moduli (GPa) = 112.60185 20.94845 76.87745
#
# Poissons Ratio (x) = 0.14400 0.19485
# Poissons Ratio (y) = 0.77402 1.02388
# Poissons Ratio (z) = 0.28539 0.27900
#
# Static dielectric constant tensor:
#      x y z
#    x 3.608560 0.000000 0.000000 
#    y 0.000000 3.153600 0.000000 
#    z 0.000000 0.000000 3.539920 
# 
# 
# High freq. dielectric constant tensor:
#      x y z
#    x 1.710130 0.000000 0.000000 
#    y 0.000000 1.684390 0.000000 
#    z 0.000000 0.000000 1.725110 
# 
# From -- ./inp_files/24716.got.cif
#   From: 2010.03.12/outbox.cif.g09.slc.cpg/sg51_13_cif.got.tgz:24716.got - 2010.04.16 13:43:02.
