data_PCOD8209324
_publ_section_title
;
Structure prediction by ZEFSAII (Michael W. Deem and Ramdas Pophale) SiO2 
 PCOD8209324
Probable space group: P M M A
;
_chemical_formula_sum "Si O2"
_cell_formula_units_Z 52
_cell_length_a 8.866973
_cell_length_b 22.867528
_cell_length_c 14.206997
_cell_angle_alpha 90.000000
_cell_angle_beta 90.000000
_cell_angle_gamma 90.000000
_cell_volume 2880.692450
_symmetry_space_group_name_H-M "P M M A"
_symmetry_group_IT_number 51
_symmetry_cell_setting 'orthorhombic'
loop_
_space_group_symop_operation_xyz
x,y,z
1/2-x,-y,z
1/2+x,-y,-z
-x,y,-z
-x,-y,-z
1/2+x,y,-z
1/2-x,y,z
x,-y,z
loop_
_atom_site_type_symbol
_atom_site_label
_atom_site_fract_x
_atom_site_fract_y
_atom_site_fract_z
Si Si1 0.571101 0.500000 0.602689
Si Si2 0.927167 0.065833 0.597473
Si Si3 0.427529 0.218614 0.904888
Si Si4 0.426105 0.717125 0.398604
Si Si5 0.425495 0.649027 0.906446
Si Si6 0.423835 0.170165 0.274237
Si Si7 0.572262 0.609225 0.295969
O O1 0.750000 0.500000 0.592948
O O2 0.500000 0.500000 0.500000
O O3 0.518489 0.556585 0.658734
O O4 0.750000 0.070367 0.582830
O O5 0.979386 0.109408 0.679873
O O6 0.000000 0.086071 0.500000
O O7 0.977709 0.000000 0.624619
O O8 0.250000 0.215878 0.914297
O O9 0.486139 0.285086 0.888813
O O10 0.477460 0.178974 0.818169
O O11 0.500000 0.192986 0.000000
O O12 0.500000 0.720488 0.500000
O O13 0.250000 0.700240 0.406269
O O14 0.450883 0.779038 0.349642
O O15 0.515220 0.669414 0.338907
O O16 0.250000 0.651288 0.925861
O O17 0.462859 0.609474 0.815739
O O18 0.500000 0.621326 0.000000
O O19 0.250000 0.167499 0.243758
O O20 0.750000 0.602127 0.315639
#
# Coordination Sequence:
#
# PCOD8209324 Si02
#       7
#     4   8   8   8   8   8   8
#     4  12  26  44  63  84 107 144 187 226 270 320
#     4   9  18  33  52  75 106 145 187 228 271 321
#     4  10  19  33  53  80 110 143 177 219 270 325
#     4  11  22  34  51  77 109 142 176 221 271 322
#     4   9  19  34  56  83 111 141 175 216 266 319
#     4  10  20  33  51  78 109 142 180 223 273 324
#     4  11  22  40  60  82 110 143 181 223 268 320
#
# _framework density 18.051214999999999
#
# number of rings (size 3 to 8) (size 9 to 14) (size 15 to 20)
#    0.000    1.846    1.538    3.000    0.000    3.077 
#    0.000    0.385    0.000    0.462    0.000    0.000 
#    0.000    0.000    0.000    0.000    0.000    0.000 
#
# Total GULP energy -644915.757549 kJ/mol
# GULP energy per Si atom -12402.226107 kJ/mol
# Density = 1.801013 g / cm^3
# Si number density = 18.051215 Si / 1000 Ang^3
#
#
#
# Elastic Constant Matrix: (Units=GPa)
#
#
# Indices 1 2 3 4 5 6 
#
# 1 84.2999 39.0935 64.8226 0.0000 0.0000 0.0000
# 2 39.0935 79.6225 48.2869 0.0000 0.0000 0.0000
# 3 64.8226 48.2869 146.1298 0.0000 0.0000 0.0000
# 4 0.0000 0.0000 0.0000 23.5281 0.0000 0.0000
# 5 0.0000 0.0000 0.0000 0.0000 37.4565 0.0000
# 6 0.0000 0.0000 0.0000 0.0000 0.0000 32.4201
#
#
#
# Elastic Compliance Matrix: (Units=1/GPa)
#
#
# Indices 1 2 3 4 5 6 
#
# 1 0.019748 -0.005482 -0.006949 0.000000 0.000000 0.000000
# 2 -0.005482 0.017229 -0.003261 0.000000 0.000000 0.000000
# 3 -0.006949 -0.003261 0.011003 0.000000 0.000000 0.000000
# 4 0.000000 0.000000 0.000000 0.042502 0.000000 0.000000
# 5 0.000000 0.000000 0.000000 0.000000 0.026698 0.000000
# 6 0.000000 0.000000 0.000000 0.000000 0.000000 0.030845
#
#
# Mechanical properties :
#
#
# Convention : Reuss Voigt Hill
#
# Bulk Modulus (GPa) = 60.25511 68.27313 64.26412
# Shear Modulus (GPa) = 27.03579 29.20423 28.12001
#
# Velocity S-wave (km/s) = 3.87425 4.02662 3.95117
# Velocity P-wave (km/s) = 7.31202 7.71506 7.51624
#
# Compressibility (1/GPa) = 0.01659610
#
# Stress axis : x y z
#
# Youngs Moduli (GPa) = 50.63873 58.04312 90.88231
#
# Poissons Ratio (x) = 0.31819 0.63150
# Poissons Ratio (y) = 0.27760 0.29639
# Poissons Ratio (z) = 0.35187 0.18929
#
# Static dielectric constant tensor:
#      x y z
#    x 3.388140 0.000000 0.000000 
#    y 0.000000 3.287980 0.000000 
#    z 0.000000 0.000000 3.437900 
# 
# 
# High freq. dielectric constant tensor:
#      x y z
#    x 1.705910 0.000000 0.000000 
#    y 0.000000 1.682580 0.000000 
#    z 0.000000 0.000000 1.708200 
# 
# From -- ./inp_files/21624.got.cif
#   From: 2010.03.12/outbox.cif.g09.slc.cpg/sg51_11_cif.got.tgz:21624.got - 2010.04.16 13:43:02.
