data_PCOD8209717
_publ_section_title
;
Structure prediction by ZEFSAII (Michael W. Deem and Ramdas Pophale) SiO2 
 PCOD8209717
Probable space group: P M M A
;
_chemical_formula_sum "Si O2"
_cell_formula_units_Z 64
_cell_length_a 9.012683
_cell_length_b 25.276469
_cell_length_c 14.340803
_cell_angle_alpha 90.000000
_cell_angle_beta 90.000000
_cell_angle_gamma 90.000000
_cell_volume 3266.961158
_symmetry_space_group_name_H-M "P M M A"
_symmetry_group_IT_number 51
_symmetry_cell_setting 'orthorhombic'
loop_
_space_group_symop_operation_xyz
x,y,z
1/2-x,-y,z
1/2+x,-y,-z
-x,y,-z
-x,-y,-z
1/2+x,y,-z
1/2-x,y,z
x,-y,z
loop_
_atom_site_type_symbol
_atom_site_label
_atom_site_fract_x
_atom_site_fract_y
_atom_site_fract_z
Si Si1 0.923707 0.844679 0.599031
Si Si2 0.916220 0.936963 0.090056
Si Si3 0.918903 0.440707 0.728409
Si Si4 0.425212 0.248155 0.706932
Si Si5 0.074453 0.344187 0.399931
Si Si6 0.078714 0.718056 0.909515
Si Si7 0.424742 0.597517 0.906810
Si Si8 0.920994 0.940481 0.726311
O O1 0.750000 0.831036 0.590482
O O2 0.950033 0.903967 0.636722
O O3 0.000000 0.839131 0.500000
O O4 0.002357 0.805066 0.669520
O O5 0.750000 0.914776 0.088131
O O6 0.991367 0.917192 0.185227
O O7 0.920291 0.000000 0.086925
O O8 0.000000 0.913491 0.000000
O O9 0.750000 0.429564 0.759490
O O10 0.937641 0.500000 0.688129
O O11 0.965441 0.400113 0.647402
O O12 0.022444 0.435448 0.818160
O O13 0.250000 0.250262 0.684993
O O14 0.504048 0.298161 0.661461
O O15 0.456475 0.248035 0.817596
O O16 0.250000 0.334945 0.409505
O O17 0.000000 0.343169 0.500000
O O18 0.250000 0.717909 0.933374
O O19 0.023592 0.658135 0.892312
O O20 0.000000 0.743433 0.000000
O O21 0.250000 0.591489 0.916397
O O22 0.500000 0.574206 0.000000
O O23 0.750000 0.940285 0.755682
O O24 0.973600 0.000000 0.700527
#
# Coordination Sequence:
#
# PCOD8209717 Si02
#       8
#     8   8   8   8   8   8   8   8
#     4  11  24  41  61  87 116 150 191 238 292 343
#     4   9  16  27  48  79 113 149 190 234 279 329
#     4  10  22  39  57  81 114 151 192 238 287 340
#     4  11  22  40  63  88 118 150 189 236 283 337
#     4  11  23  39  61  85 111 146 189 239 292 346
#     4   9  19  34  57  87 117 148 184 227 276 334
#     4  10  19  34  56  84 115 150 191 233 282 337
#     4   9  19  37  59  83 115 154 195 238 285 340
#
# _framework density 19.590070999999998
#
# number of rings (size 3 to 8) (size 9 to 14) (size 15 to 20)
#    0.000    2.000    1.250    2.250    0.000    5.500 
#    0.000    0.625    0.000    1.500    0.000    0.000 
#    0.000    0.000    0.000    0.000    0.000    0.000 
#
# Total GULP energy -793730.191678 kJ/mol
# GULP energy per Si atom -12402.034245 kJ/mol
# Density = 1.954548 g / cm^3
# Si number density = 19.590071 Si / 1000 Ang^3
#
#
#
# Elastic Constant Matrix: (Units=GPa)
#
#
# Indices 1 2 3 4 5 6 
#
# 1 105.2924 41.9598 61.2770 0.0000 0.0000 0.0000
# 2 41.9598 87.4894 47.4954 0.0000 0.0000 0.0000
# 3 61.2770 47.4954 126.1445 0.0000 0.0000 0.0000
# 4 0.0000 0.0000 0.0000 22.1388 0.0000 0.0000
# 5 0.0000 0.0000 0.0000 0.0000 37.8371 0.0000
# 6 0.0000 0.0000 0.0000 0.0000 0.0000 20.1170
#
#
#
# Elastic Compliance Matrix: (Units=1/GPa)
#
#
# Indices 1 2 3 4 5 6 
#
# 1 0.014204 -0.003854 -0.005449 0.000000 0.000000 0.000000
# 2 -0.003854 0.015412 -0.003931 0.000000 0.000000 0.000000
# 3 -0.005449 -0.003931 0.012054 0.000000 0.000000 0.000000
# 4 0.000000 0.000000 0.000000 0.045170 0.000000 0.000000
# 5 0.000000 0.000000 0.000000 0.000000 0.026429 0.000000
# 6 0.000000 0.000000 0.000000 0.000000 0.000000 0.049709
#
#
# Mechanical properties :
#
#
# Convention : Reuss Voigt Hill
#
# Bulk Modulus (GPa) = 65.77537 68.93230 67.35384
# Shear Modulus (GPa) = 25.70505 27.23151 26.46828
#
# Velocity S-wave (km/s) = 3.62629 3.73241 3.67973
# Velocity P-wave (km/s) = 7.15416 7.33745 7.24639
#
# Compressibility (1/GPa) = 0.01520326
#
# Stress axis : x y z
#
# Youngs Moduli (GPa) = 70.40064 64.88299 82.95854
#
# Poissons Ratio (x) = 0.25009 0.45202
# Poissons Ratio (y) = 0.27135 0.32608
# Poissons Ratio (z) = 0.38360 0.25503
#
# Static dielectric constant tensor:
#      x y z
#    x 3.676340 0.000000 0.000000 
#    y 0.000000 3.511280 0.000000 
#    z 0.000000 0.000000 3.592810 
# 
# 
# High freq. dielectric constant tensor:
#      x y z
#    x 1.771540 0.000000 0.000000 
#    y 0.000000 1.747450 0.000000 
#    z 0.000000 0.000000 1.768440 
# 
# From -- ./inp_files/22324.got.cif
#   From: 2010.03.12/outbox.cif.g09.slc.cpg/sg51_12_cif.got.tgz:22324.got - 2010.04.16 13:43:02.
