data_PCOD8209040
_publ_section_title
;
Structure prediction by ZEFSAII (Michael W. Deem and Ramdas Pophale) SiO2 
 PCOD8209040
Probable space group: P M M A
;
_chemical_formula_sum "Si O2"
_cell_formula_units_Z 64
_cell_length_a 8.954033
_cell_length_b 14.095876
_cell_length_c 31.225535
_cell_angle_alpha 90.000000
_cell_angle_beta 90.000000
_cell_angle_gamma 90.000000
_cell_volume 3941.128991
_symmetry_space_group_name_H-M "P M M A"
_symmetry_group_IT_number 51
_symmetry_cell_setting 'orthorhombic'
loop_
_space_group_symop_operation_xyz
x,y,z
1/2-x,-y,z
1/2+x,-y,-z
-x,y,-z
-x,-y,-z
1/2+x,y,-z
1/2-x,y,z
x,-y,z
loop_
_atom_site_type_symbol
_atom_site_label
_atom_site_fract_x
_atom_site_fract_y
_atom_site_fract_z
Si Si1 0.077845 0.892630 0.168124
Si Si2 0.918339 0.387010 0.626331
Si Si3 0.573232 0.715162 0.957102
Si Si4 0.425528 0.391664 0.711640
Si Si5 0.422296 0.610490 0.879854
Si Si6 0.575243 0.276358 0.205549
Si Si7 0.081762 0.613152 0.542220
Si Si8 0.575473 0.892181 0.078289
O O1 0.250000 0.871282 0.156836
O O2 0.017452 0.821623 0.204359
O O3 0.978238 0.874410 0.126435
O O4 0.058314 0.000000 0.184944
O O5 0.750000 0.349111 0.625464
O O6 0.924893 0.500000 0.625572
O O7 0.996813 0.349167 0.669360
O O8 0.001535 0.346215 0.584545
O O9 0.750000 0.714494 0.961533
O O10 0.525536 0.652090 0.916934
O O11 0.515332 0.823199 0.952822
O O12 0.500000 0.671358 0.000000
O O13 0.250000 0.384965 0.704476
O O14 0.474783 0.500000 0.719839
O O15 0.478408 0.331385 0.752314
O O16 0.250000 0.629547 0.891766
O O17 0.456022 0.500000 0.874671
O O18 0.464990 0.659521 0.835294
O O19 0.750000 0.253152 0.207448
O O20 0.250000 0.651407 0.541836
O O21 0.077875 0.500000 0.542389
O O22 0.000000 0.652670 0.500000
O O23 0.750000 0.867388 0.076115
O O24 0.543018 0.000000 0.063941
#
# Coordination Sequence:
#
# PCOD8209040 Si02
#       8
#     8   8   8   8   8   8   8   8
#     4  10  20  33  51  76 103 128 152 182 223 269
#     4   9  16  25  36  52  77 110 148 191 236 278
#     4  12  25  40  58  78 102 129 157 189 226 271
#     4   9  17  29  44  64  90 121 156 192 232 276
#     4  10  21  38  58  78 100 126 157 194 232 270
#     4  10  19  32  53  76  98 124 155 190 229 273
#     4   9  15  22  33  49  70 100 141 190 239 284
#     4  10  20  36  58  81 104 128 153 183 222 269
#
# _framework density 16.239003
#
# number of rings (size 3 to 8) (size 9 to 14) (size 15 to 20)
#    0.000    2.125    1.250    3.000    0.000    7.250 
#    0.000    0.000    0.000    2.250    0.000    0.000 
#    0.000    0.000    0.000    0.000    0.000    0.625 
#
# Total GULP energy -793708.486201 kJ/mol
# GULP energy per Si atom -12401.695097 kJ/mol
# Density = 1.620204 g / cm^3
# Si number density = 16.239003 Si / 1000 Ang^3
#
#
#
# Elastic Constant Matrix: (Units=GPa)
#
#
# Indices 1 2 3 4 5 6 
#
# 1 102.1192 32.1435 61.6849 0.0000 0.0000 0.0000
# 2 32.1435 61.1404 36.8251 0.0000 0.0000 0.0000
# 3 61.6849 36.8251 133.6553 0.0000 0.0000 0.0000
# 4 0.0000 0.0000 0.0000 7.5906 0.0000 0.0000
# 5 0.0000 0.0000 0.0000 0.0000 29.3690 0.0000
# 6 0.0000 0.0000 0.0000 0.0000 0.0000 20.0597
#
#
#
# Elastic Compliance Matrix: (Units=1/GPa)
#
#
# Indices 1 2 3 4 5 6 
#
# 1 0.014461 -0.004296 -0.005491 0.000000 0.000000 0.000000
# 2 -0.004296 0.020886 -0.003772 0.000000 0.000000 0.000000
# 3 -0.005491 -0.003772 0.011055 0.000000 0.000000 0.000000
# 4 0.000000 0.000000 0.000000 0.131742 0.000000 0.000000
# 5 0.000000 0.000000 0.000000 0.000000 0.034049 0.000000
# 6 0.000000 0.000000 0.000000 0.000000 0.000000 0.049851
#
#
# Mechanical properties :
#
#
# Convention : Reuss Voigt Hill
#
# Bulk Modulus (GPa) = 51.85146 62.02465 56.93806
# Shear Modulus (GPa) = 16.91530 22.48796 19.70163
#
# Velocity S-wave (km/s) = 3.23096 3.72534 3.48692
# Velocity P-wave (km/s) = 6.77630 7.53538 7.16590
#
# Compressibility (1/GPa) = 0.01928586
#
# Stress axis : x y z
#
# Youngs Moduli (GPa) = 69.15056 47.87876 90.45474
#
# Poissons Ratio (x) = 0.20567 0.49665
# Poissons Ratio (y) = 0.29705 0.34120
# Poissons Ratio (z) = 0.37968 0.18060
#
# Static dielectric constant tensor:
#      x y z
#    x 3.133070 0.000000 0.000000 
#    y 0.000000 2.866700 0.000000 
#    z 0.000000 0.000000 3.106470 
# 
# 
# High freq. dielectric constant tensor:
#      x y z
#    x 1.635600 0.000000 0.000000 
#    y 0.000000 1.582790 0.000000 
#    z 0.000000 0.000000 1.619090 
# 
# From -- ./inp_files/37659.got.cif
#   From: 2010.03.12/outbox.cif.g09.slc.cpg/sg51_19_cif.got.tgz:37659.got - 2010.04.16 13:43:02.
