data_PCOD8209875
_publ_section_title
;
Structure prediction by ZEFSAII (Michael W. Deem and Ramdas Pophale) SiO2 
 PCOD8209875
Probable space group: P M M A
;
_chemical_formula_sum "Si O2"
_cell_formula_units_Z 64
_cell_length_a 29.446455
_cell_length_b 8.897442
_cell_length_c 12.957506
_cell_angle_alpha 90.000000
_cell_angle_beta 90.000000
_cell_angle_gamma 90.000000
_cell_volume 3394.842283
_symmetry_space_group_name_H-M "P M M A"
_symmetry_group_IT_number 51
_symmetry_cell_setting 'orthorhombic'
loop_
_space_group_symop_operation_xyz
x,y,z
1/2-x,-y,z
1/2+x,-y,-z
-x,y,-z
-x,-y,-z
1/2+x,y,-z
1/2-x,y,z
x,-y,z
loop_
_atom_site_type_symbol
_atom_site_label
_atom_site_fract_x
_atom_site_fract_y
_atom_site_fract_z
Si Si1 0.473279 0.164391 0.234841
Si Si2 0.302992 0.174695 0.797631
Si Si3 0.458136 0.169602 0.935042
Si Si4 0.038629 0.673513 0.431280
Si Si5 0.362674 0.321850 0.395953
Si Si6 0.864565 0.322991 0.031395
Si Si7 0.303555 0.829815 0.564234
Si Si8 0.373923 0.827361 0.177939
O O1 0.521681 0.163835 0.179602
O O2 0.475700 0.300584 0.313970
O O3 0.428697 0.190769 0.162522
O O4 0.466409 0.000000 0.288405
O O5 0.250000 0.206451 0.814674
O O6 0.317232 0.220766 0.680555
O O7 0.314225 0.000000 0.815582
O O8 0.330315 0.272474 0.879529
O O9 0.445231 0.000000 0.973146
O O10 0.500000 0.237421 0.000000
O O11 0.415088 0.276443 0.935708
O O12 0.039128 0.500000 0.458998
O O13 0.089668 0.736730 0.445650
O O14 0.000000 0.755836 0.500000
O O15 0.362786 0.500000 0.379281
O O16 0.324242 0.277603 0.477218
O O17 0.355781 0.247412 0.283661
O O18 0.861940 0.500000 0.019556
O O19 0.850807 0.250540 0.921339
O O20 0.250000 0.819567 0.552465
O O21 0.320209 0.000000 0.544897
O O22 0.358645 0.000000 0.180241
#
# Coordination Sequence:
#
# PCOD8209875 Si02
#       8
#     8   8   8   8   8   8   8   8
#     4   9  18  32  52  74  98 136 184 230 268 306
#     4   9  20  41  65  85 109 146 190 233 280 336
#     4  10  19  35  54  76 108 145 188 231 270 320
#     4   9  19  34  49  69 105 147 178 212 264 324
#     4  10  20  34  55  84 114 144 181 227 280 333
#     4  12  24  35  54  86 119 150 187 233 291 348
#     4   9  19  38  63  87 110 141 184 231 279 334
#     4  10  19  36  57  77 107 150 193 229 272 327
#
# _framework density 18.852128
#
# number of rings (size 3 to 8) (size 9 to 14) (size 15 to 20)
#    0.000    2.250    1.250    2.625    0.000    4.000 
#    0.000    4.375    0.000    3.750    0.000    0.000 
#    0.000    0.000    0.000    0.000    0.000    0.000 
#
# Total GULP energy -793234.446477 kJ/mol
# GULP energy per Si atom -12394.288226 kJ/mol
# Density = 1.880922 g / cm^3
# Si number density = 18.852128 Si / 1000 Ang^3
#
#
#
# Elastic Constant Matrix: (Units=GPa)
#
#
# Indices 1 2 3 4 5 6 
#
# 1 64.5029 38.7225 54.1259 0.0000 0.0000 0.0000
# 2 38.7225 89.9177 54.0134 0.0000 0.0000 0.0000
# 3 54.1259 54.0134 117.5033 0.0000 0.0000 0.0000
# 4 0.0000 0.0000 0.0000 30.6341 0.0000 0.0000
# 5 0.0000 0.0000 0.0000 0.0000 34.4257 0.0000
# 6 0.0000 0.0000 0.0000 0.0000 0.0000 21.1790
#
#
#
# Elastic Compliance Matrix: (Units=1/GPa)
#
#
# Indices 1 2 3 4 5 6 
#
# 1 0.027302 -0.005806 -0.009907 0.000000 0.000000 0.000000
# 2 -0.005806 0.016598 -0.004955 0.000000 0.000000 0.000000
# 3 -0.009907 -0.004955 0.015352 0.000000 0.000000 0.000000
# 4 0.000000 0.000000 0.000000 0.032643 0.000000 0.000000
# 5 0.000000 0.000000 0.000000 0.000000 0.029048 0.000000
# 6 0.000000 0.000000 0.000000 0.000000 0.000000 0.047217
#
#
# Mechanical properties :
#
#
# Convention : Reuss Voigt Hill
#
# Bulk Modulus (GPa) = 55.81999 62.84972 59.33485
# Shear Modulus (GPa) = 23.20512 25.58525 24.39518
#
# Velocity S-wave (km/s) = 3.51223 3.68795 3.60116
# Velocity P-wave (km/s) = 6.79127 7.17951 6.98808
#
# Compressibility (1/GPa) = 0.01791473
#
# Stress axis : x y z
#
# Youngs Moduli (GPa) = 36.62700 60.24699 65.13866
#
# Poissons Ratio (x) = 0.34981 0.64535
# Poissons Ratio (y) = 0.21266 0.32278
# Poissons Ratio (z) = 0.36288 0.29854
#
# Static dielectric constant tensor:
#      x y z
#    x 3.385360 0.000000 0.000000 
#    y 0.000000 3.352310 0.000000 
#    z 0.000000 0.000000 3.467060 
# 
# 
# High freq. dielectric constant tensor:
#      x y z
#    x 1.717560 0.000000 0.000000 
#    y 0.000000 1.724630 0.000000 
#    z 0.000000 0.000000 1.736130 
# 
# From -- ./inp_files/19639.got.cif
#   From: 2010.03.12/outbox.cif.g09.slc.cpg/sg51_10_cif.got.tgz:19639.got - 2010.04.16 13:43:02.
