data_PCOD8209663
_publ_section_title
;
Structure prediction by ZEFSAII (Michael W. Deem and Ramdas Pophale) SiO2 
 PCOD8209663
Probable space group: P M M A
;
_chemical_formula_sum "Si O2"
_cell_formula_units_Z 48
_cell_length_a 8.691810
_cell_length_b 18.723010
_cell_length_c 15.391566
_cell_angle_alpha 90.000000
_cell_angle_beta 90.000000
_cell_angle_gamma 90.000000
_cell_volume 2504.774899
_symmetry_space_group_name_H-M "P M M A"
_symmetry_group_IT_number 51
_symmetry_cell_setting 'orthorhombic'
loop_
_space_group_symop_operation_xyz
x,y,z
1/2-x,-y,z
1/2+x,-y,-z
-x,y,-z
-x,-y,-z
1/2+x,y,-z
1/2-x,y,z
x,-y,z
loop_
_atom_site_type_symbol
_atom_site_label
_atom_site_fract_x
_atom_site_fract_y
_atom_site_fract_z
Si Si1 0.428413 0.916961 0.253991
Si Si2 0.568580 0.172169 0.910281
Si Si3 0.933066 0.580181 0.744818
Si Si4 0.932070 0.665407 0.910303
Si Si5 0.068481 0.834899 0.592081
Si Si6 0.067085 0.682718 0.407616
O O1 0.250000 0.898692 0.271287
O O2 0.491542 0.875243 0.169693
O O3 0.526733 0.894271 0.337293
O O4 0.454329 0.000000 0.236705
O O5 0.750000 0.167291 0.917381
O O6 0.512450 0.253345 0.894770
O O7 0.500000 0.141756 0.000000
O O8 0.750000 0.579420 0.747143
O O9 0.999308 0.500000 0.738612
O O10 0.997126 0.617225 0.832051
O O11 0.990461 0.624590 0.661746
O O12 0.750000 0.661301 0.914990
O O13 0.000000 0.635008 0.000000
O O14 0.250000 0.826666 0.582777
O O15 0.000000 0.859746 0.500000
O O16 0.996620 0.759511 0.621282
O O17 0.250000 0.687330 0.412657
O O18 0.000000 0.658907 0.500000
#
# Coordination Sequence:
#
# PCOD8209663 Si02
#       6
#     8   8   8   8   8   8
#     4  10  21  37  56  79 109 143 177 215 262 315
#     4   9  18  33  53  77 104 138 178 219 262 307
#     4   9  18  32  51  75 104 140 176 210 256 314
#     4   9  17  31  51  73  99 132 173 216 255 301
#     4  11  22  37  58  81 106 137 176 220 264 313
#     4  10  19  34  56  79 104 135 174 217 260 309
#
# _framework density 19.163398000000001
#
# number of rings (size 3 to 8) (size 9 to 14) (size 15 to 20)
#    0.000    2.333    0.000    4.000    0.000    5.000 
#    0.000    5.000    0.000    3.500    0.000    0.000 
#    0.000    0.000    0.000    0.000    0.000    0.000 
#
# Total GULP energy -595311.062038 kJ/mol
# GULP energy per Si atom -12402.313792 kJ/mol
# Density = 1.911978 g / cm^3
# Si number density = 19.163398 Si / 1000 Ang^3
#
#
#
# Elastic Constant Matrix: (Units=GPa)
#
#
# Indices 1 2 3 4 5 6 
#
# 1 56.8010 22.0230 31.0469 0.0000 0.0000 0.0000
# 2 22.0230 90.5839 68.0735 0.0000 0.0000 0.0000
# 3 31.0469 68.0735 142.8698 0.0000 0.0000 0.0000
# 4 0.0000 0.0000 0.0000 20.2205 0.0000 0.0000
# 5 0.0000 0.0000 0.0000 0.0000 31.7813 0.0000
# 6 0.0000 0.0000 0.0000 0.0000 0.0000 19.2269
#
#
#
# Elastic Compliance Matrix: (Units=1/GPa)
#
#
# Indices 1 2 3 4 5 6 
#
# 1 0.020344 -0.002529 -0.003216 0.000000 0.000000 0.000000
# 2 -0.002529 0.017512 -0.007794 0.000000 0.000000 0.000000
# 3 -0.003216 -0.007794 0.011412 0.000000 0.000000 0.000000
# 4 0.000000 0.000000 0.000000 0.049455 0.000000 0.000000
# 5 0.000000 0.000000 0.000000 0.000000 0.031465 0.000000
# 6 0.000000 0.000000 0.000000 0.000000 0.000000 0.052011
#
#
# Mechanical properties :
#
#
# Convention : Reuss Voigt Hill
#
# Bulk Modulus (GPa) = 45.06792 59.17129 52.11961
# Shear Modulus (GPa) = 23.07630 25.51982 24.29806
#
# Velocity S-wave (km/s) = 3.47390 3.65320 3.56468
# Velocity P-wave (km/s) = 6.29757 6.98132 6.64824
#
# Compressibility (1/GPa) = 0.02218873
#
# Stress axis : x y z
#
# Youngs Moduli (GPa) = 49.15522 57.10445 87.62787
#
# Poissons Ratio (x) = 0.14444 0.28178
# Poissons Ratio (y) = 0.12434 0.68299
# Poissons Ratio (z) = 0.15807 0.44508
#
# Static dielectric constant tensor:
#      x y z
#    x 3.279110 0.000000 0.000000 
#    y 0.000000 3.565540 0.000000 
#    z 0.000000 0.000000 3.688140 
# 
# 
# High freq. dielectric constant tensor:
#      x y z
#    x 1.724380 0.000000 0.000000 
#    y 0.000000 1.739810 0.000000 
#    z 0.000000 0.000000 1.759640 
# 
# From -- ./inp_files/21127.got.cif
#   From: 2010.03.12/outbox.cif.g09.slc.cpg/sg51_11_cif.got.tgz:21127.got - 2010.04.16 13:43:02.
