data_PCOD8209342
_publ_section_title
;
Structure prediction by ZEFSAII (Michael W. Deem and Ramdas Pophale) SiO2 
 PCOD8209342
Probable space group: P M M A
;
_chemical_formula_sum "Si O2"
_cell_formula_units_Z 64
_cell_length_a 17.001104
_cell_length_b 8.987345
_cell_length_c 22.898220
_cell_angle_alpha 90.000000
_cell_angle_beta 90.000000
_cell_angle_gamma 90.000000
_cell_volume 3498.728648
_symmetry_space_group_name_H-M "P M M A"
_symmetry_group_IT_number 51
_symmetry_cell_setting 'orthorhombic'
loop_
_space_group_symop_operation_xyz
x,y,z
1/2-x,-y,z
1/2+x,-y,-z
-x,y,-z
-x,-y,-z
1/2+x,y,-z
1/2-x,y,z
x,-y,z
loop_
_atom_site_type_symbol
_atom_site_label
_atom_site_fract_x
_atom_site_fract_y
_atom_site_fract_z
Si Si1 0.563620 0.329374 0.133135
Si Si2 0.399520 0.669792 0.071711
Si Si3 0.425358 0.167034 0.458315
Si Si4 0.838740 0.671910 0.446348
Si Si5 0.494204 0.825134 0.242436
Si Si6 0.980785 0.675362 0.364522
Si Si7 0.662682 0.829468 0.819478
Si Si8 0.658660 0.828372 0.040473
O O1 0.580804 0.500000 0.149985
O O2 0.489579 0.315981 0.090395
O O3 0.550161 0.235888 0.191686
O O4 0.637670 0.260245 0.099432
O O5 0.376072 0.500000 0.058402
O O6 0.343778 0.729248 0.123093
O O7 0.389770 0.765745 0.013886
O O8 0.500000 0.169185 0.500000
O O9 0.353123 0.238944 0.493591
O O10 0.444996 0.260877 0.400463
O O11 0.402588 0.000000 0.439564
O O12 0.750000 0.703511 0.424681
O O13 0.852437 0.500000 0.461408
O O14 0.898535 0.721194 0.395305
O O15 0.520166 0.745656 0.301109
O O16 0.402897 0.785198 0.228401
O O17 0.507210 0.000000 0.249159
O O18 0.990667 0.500000 0.359506
O O19 0.750000 0.806259 0.792406
O O20 0.649445 0.000000 0.838903
O O21 0.750000 0.806052 0.027336
O O22 0.636181 0.000000 0.049297
#
# Coordination Sequence:
#
# PCOD8209342 Si02
#       8
#     8   8   8   8   8   8   8   8
#     4  10  21  37  55  75 100 132 171 213 257 309
#     4  10  20  33  52  78 103 128 163 206 254 312
#     4   9  17  30  50  76 104 133 165 202 247 298
#     4   9  18  33  53  78 107 137 171 213 259 303
#     4  10  20  35  55  76 101 136 176 217 258 303
#     4  10  19  33  54  77 103 138 178 216 254 303
#     4   9  18  33  52  74 100 130 165 207 257 310
#     4  11  23  36  51  74 103 133 167 209 258 311
#
# _framework density 18.292358
#
# number of rings (size 3 to 8) (size 9 to 14) (size 15 to 20)
#    0.000    2.250    0.000    3.000    0.000    8.500 
#    0.000    1.250    0.000    4.500    0.000    0.000 
#    0.000    0.000    0.000    0.000    0.000    0.000 
#
# Total GULP energy -793734.610027 kJ/mol
# GULP energy per Si atom -12402.103282 kJ/mol
# Density = 1.825072 g / cm^3
# Si number density = 18.292358 Si / 1000 Ang^3
#
#
#
# Elastic Constant Matrix: (Units=GPa)
#
#
# Indices 1 2 3 4 5 6 
#
# 1 57.1538 36.4867 41.7799 0.0000 0.0000 0.0000
# 2 36.4867 100.0665 51.3413 0.0000 0.0000 0.0000
# 3 41.7799 51.3413 114.6466 0.0000 0.0000 0.0000
# 4 0.0000 0.0000 0.0000 38.2151 0.0000 0.0000
# 5 0.0000 0.0000 0.0000 0.0000 16.7539 0.0000
# 6 0.0000 0.0000 0.0000 0.0000 0.0000 22.9869
#
#
#
# Elastic Compliance Matrix: (Units=1/GPa)
#
#
# Indices 1 2 3 4 5 6 
#
# 1 0.026435 -0.006097 -0.006903 0.000000 0.000000 0.000000
# 2 -0.006097 0.014381 -0.004218 0.000000 0.000000 0.000000
# 3 -0.006903 -0.004218 0.013127 0.000000 0.000000 0.000000
# 4 0.000000 0.000000 0.000000 0.026168 0.000000 0.000000
# 5 0.000000 0.000000 0.000000 0.000000 0.059687 0.000000
# 6 0.000000 0.000000 0.000000 0.000000 0.000000 0.043503
#
#
# Mechanical properties :
#
#
# Convention : Reuss Voigt Hill
#
# Bulk Modulus (GPa) = 51.26548 59.00919 55.13734
# Shear Modulus (GPa) = 22.29751 25.07511 23.68631
#
# Velocity S-wave (km/s) = 3.49514 3.70644 3.60234
# Velocity P-wave (km/s) = 6.66142 7.11660 6.89276
#
# Compressibility (1/GPa) = 0.01950630
#
# Stress axis : x y z
#
# Youngs Moduli (GPa) = 37.82813 69.53778 76.17839
#
# Poissons Ratio (x) = 0.42398 0.52588
# Poissons Ratio (y) = 0.23064 0.32132
# Poissons Ratio (z) = 0.26114 0.29331
#
# Static dielectric constant tensor:
#      x y z
#    x 3.308250 0.000000 0.000000 
#    y 0.000000 3.538970 0.000000 
#    z 0.000000 0.000000 3.258240 
# 
# 
# High freq. dielectric constant tensor:
#      x y z
#    x 1.696310 0.000000 0.000000 
#    y 0.000000 1.723040 0.000000 
#    z 0.000000 0.000000 1.696220 
# 
# From -- ./inp_files/33839.got.cif
#   From: 2010.03.12/outbox.cif.g09.slc.cpg/sg51_17_cif.got.tgz:33839.got - 2010.04.16 13:43:02.
