data_PCOD8209728
_publ_section_title
;
Structure prediction by ZEFSAII (Michael W. Deem and Ramdas Pophale) SiO2 
 PCOD8209728
Probable space group: P M M A
;
_chemical_formula_sum "Si O2"
_cell_formula_units_Z 32
_cell_length_a 16.479356
_cell_length_b 19.183253
_cell_length_c 5.015695
_cell_angle_alpha 90.000000
_cell_angle_beta 90.000000
_cell_angle_gamma 90.000000
_cell_volume 1585.599901
_symmetry_space_group_name_H-M "P M M A"
_symmetry_group_IT_number 51
_symmetry_cell_setting 'orthorhombic'
loop_
_space_group_symop_operation_xyz
x,y,z
1/2-x,-y,z
1/2+x,-y,-z
-x,y,-z
-x,-y,-z
1/2+x,y,-z
1/2-x,y,z
x,-y,z
loop_
_atom_site_type_symbol
_atom_site_label
_atom_site_fract_x
_atom_site_fract_y
_atom_site_fract_z
Si Si1 0.057945 0.849659 0.750047
Si Si2 0.556699 0.000000 0.250856
Si Si3 0.442413 0.500000 0.253133
Si Si4 0.591040 0.352369 0.609485
Si Si5 0.656952 0.718468 0.119082
O O1 0.127809 0.792123 0.763079
O O2 0.000000 0.835942 0.500000
O O3 0.104538 0.925779 0.741295
O O4 0.000000 0.845079 0.000000
O O5 0.500000 0.000000 0.500000
O O6 0.500000 0.000000 0.000000
O O7 0.500000 0.500000 0.500000
O O8 0.389039 0.429617 0.272881
O O9 0.500000 0.500000 0.000000
O O10 0.500000 0.343456 0.500000
O O11 0.649138 0.337771 0.358052
O O12 0.604743 0.300394 0.857096
O O13 0.750000 0.723441 0.030667
#
# Coordination Sequence:
#
# PCOD8209728 Si02
#       5
#     8   4   4   8   8
#     4  10  19  34  57  80 106 144 187 228 273 328
#     4   8  16  30  51  80 105 132 181 234 271 316
#     4  10  20  36  61  88 107 134 187 242 275 320
#     4  11  22  40  62  83 109 147 192 235 281 338
#     4  12  24  37  54  85 120 150 185 233 284 338
#
# _framework density 20.181635
#
# number of rings (size 3 to 8) (size 9 to 14) (size 15 to 20)
#    0.000    1.500    0.000    8.250    0.000    0.000 
#    0.000    4.375    0.000    0.000    0.000   14.000 
#    0.000    0.000    0.000    0.000    0.000    0.000 
#
# Total GULP energy -396519.509305 kJ/mol
# GULP energy per Si atom -12391.234666 kJ/mol
# Density = 2.013570 g / cm^3
# Si number density = 20.181635 Si / 1000 Ang^3
#
#
#
# Elastic Constant Matrix: (Units=GPa)
#
#
# Indices 1 2 3 4 5 6 
#
# 1 73.8315 60.1505 28.9595 0.0000 0.0000 0.0000
# 2 60.1505 160.9504 44.4790 0.0000 0.0000 0.0000
# 3 28.9595 44.4790 151.8275 0.0000 0.0000 0.0000
# 4 0.0000 0.0000 0.0000 31.4604 0.0000 0.0000
# 5 0.0000 0.0000 0.0000 0.0000 23.3199 0.0000
# 6 0.0000 0.0000 0.0000 0.0000 0.0000 7.8985
#
#
#
# Elastic Compliance Matrix: (Units=1/GPa)
#
#
# Indices 1 2 3 4 5 6 
#
# 1 0.019896 -0.006949 -0.001759 0.000000 0.000000 0.000000
# 2 -0.006949 0.009188 -0.001366 0.000000 0.000000 0.000000
# 3 -0.001759 -0.001366 0.007322 0.000000 0.000000 0.000000
# 4 0.000000 0.000000 0.000000 0.031786 0.000000 0.000000
# 5 0.000000 0.000000 0.000000 0.000000 0.042882 0.000000
# 6 0.000000 0.000000 0.000000 0.000000 0.000000 0.126607
#
#
# Mechanical properties :
#
#
# Convention : Reuss Voigt Hill
#
# Bulk Modulus (GPa) = 61.51288 72.64305 67.07797
# Shear Modulus (GPa) = 18.99342 29.40376 24.19859
#
# Velocity S-wave (km/s) = 3.07110 3.82115 3.46647
# Velocity P-wave (km/s) = 6.56669 7.45259 7.02362
#
# Compressibility (1/GPa) = 0.01625676
#
# Stress axis : x y z
#
# Youngs Moduli (GPa) = 50.26127 108.84041 136.57184
#
# Poissons Ratio (x) = 0.75638 0.24024
# Poissons Ratio (y) = 0.34929 0.18657
# Poissons Ratio (z) = 0.08841 0.14869
#
# Static dielectric constant tensor:
#      x y z
#    x 3.095680 0.000000 0.000000 
#    y 0.000000 7.827750 0.000000 
#    z 0.000000 0.000000 3.833210 
# 
# 
# High freq. dielectric constant tensor:
#      x y z
#    x 1.723730 0.000000 0.000000 
#    y 0.000000 1.814720 0.000000 
#    z 0.000000 0.000000 1.819230 
# 
# From -- ./inp_files/1332.got.cif
#   From: 2010.03.12/outbox.cif.g09.slc.cpg/sg51_1_cif.got.tgz:1332.got - 2010.04.16 13:43:02.
