data_PCOD8209473
_publ_section_title
;
Structure prediction by ZEFSAII (Michael W. Deem and Ramdas Pophale) SiO2 
 PCOD8209473
Probable space group: P M M A
;
_chemical_formula_sum "Si O2"
_cell_formula_units_Z 64
_cell_length_a 18.631131
_cell_length_b 8.854667
_cell_length_c 20.204607
_cell_angle_alpha 90.000000
_cell_angle_beta 90.000000
_cell_angle_gamma 90.000000
_cell_volume 3333.203737
_symmetry_space_group_name_H-M "P M M A"
_symmetry_group_IT_number 51
_symmetry_cell_setting 'orthorhombic'
loop_
_space_group_symop_operation_xyz
x,y,z
1/2-x,-y,z
1/2+x,-y,-z
-x,y,-z
-x,-y,-z
1/2+x,y,-z
1/2-x,y,z
x,-y,z
loop_
_atom_site_type_symbol
_atom_site_label
_atom_site_fract_x
_atom_site_fract_y
_atom_site_fract_z
Si Si1 0.428360 0.821253 0.841588
Si Si2 0.168762 0.679390 0.474146
Si Si3 0.088330 0.678277 0.602973
Si Si4 0.832899 0.325221 0.896653
Si Si5 0.916104 0.828837 0.012872
Si Si6 0.833584 0.173137 0.278862
Si Si7 0.421228 0.179077 0.213827
Si Si8 0.931739 0.320849 0.644240
O O1 0.404085 0.760620 0.913431
O O2 0.369999 0.768487 0.788356
O O3 0.505657 0.757712 0.819195
O O4 0.434406 0.000000 0.847127
O O5 0.250000 0.745172 0.476003
O O6 0.171575 0.500000 0.479113
O O7 0.121772 0.744998 0.535180
O O8 0.130225 0.729681 0.406579
O O9 0.084853 0.500000 0.597556
O O10 0.141167 0.723534 0.661517
O O11 0.008193 0.740611 0.616616
O O12 0.750000 0.291952 0.909945
O O13 0.848010 0.500000 0.882492
O O14 0.855934 0.231453 0.832106
O O15 0.875710 0.276972 0.961704
O O16 0.886406 0.000000 0.005937
O O17 0.000000 0.827588 0.000000
O O18 0.750000 0.193015 0.268775
O O19 0.855316 0.000000 0.293504
O O20 0.412174 0.246300 0.286515
O O21 0.421654 0.000000 0.219505
O O22 0.934369 0.500000 0.653214
#
# Coordination Sequence:
#
# PCOD8209473 Si02
#       8
#     8   8   8   8   8   8   8   8
#     4   9  18  34  56  82 112 144 183 229 276 331
#     4   9  18  33  53  77 109 148 188 233 286 341
#     4  10  19  33  55  81 109 144 187 232 279 340
#     4  11  25  42  59  86 123 156 190 238 293 344
#     4  10  19  36  62  89 113 146 192 238 281 335
#     4  10  20  34  53  79 112 148 183 224 279 336
#     4  11  21  38  62  85 113 150 193 239 282 336
#     4  10  20  34  55  84 112 144 189 239 290 341
#
# _framework density 19.200745999999999
#
# number of rings (size 3 to 8) (size 9 to 14) (size 15 to 20)
#    0.000    2.000    2.500    1.500    0.000    4.500 
#    0.000    3.750    0.000    2.250    0.000    0.000 
#    0.000    0.000    0.000    0.000    0.000    0.000 
#
# Total GULP energy -793661.342348 kJ/mol
# GULP energy per Si atom -12400.958474 kJ/mol
# Density = 1.915704 g / cm^3
# Si number density = 19.200746 Si / 1000 Ang^3
#
#
#
# Elastic Constant Matrix: (Units=GPa)
#
#
# Indices 1 2 3 4 5 6 
#
# 1 93.9263 25.5199 59.2299 0.0000 0.0000 0.0000
# 2 25.5199 20.0849 26.8645 0.0000 0.0000 0.0000
# 3 59.2299 26.8645 176.4609 0.0000 0.0000 0.0000
# 4 0.0000 0.0000 0.0000 24.8216 0.0000 0.0000
# 5 0.0000 0.0000 0.0000 0.0000 32.3616 0.0000
# 6 0.0000 0.0000 0.0000 0.0000 0.0000 18.8114
#
#
#
# Elastic Compliance Matrix: (Units=1/GPa)
#
#
# Indices 1 2 3 4 5 6 
#
# 1 0.017538 -0.018095 -0.003132 0.000000 0.000000 0.000000
# 2 -0.018095 0.081188 -0.006287 0.000000 0.000000 0.000000
# 3 -0.003132 -0.006287 0.007675 0.000000 0.000000 0.000000
# 4 0.000000 0.000000 0.000000 0.040287 0.000000 0.000000
# 5 0.000000 0.000000 0.000000 0.000000 0.030901 0.000000
# 6 0.000000 0.000000 0.000000 0.000000 0.000000 0.053159
#
#
# Mechanical properties :
#
#
# Convention : Reuss Voigt Hill
#
# Bulk Modulus (GPa) = 19.46464 57.07788 38.27126
# Shear Modulus (GPa) = 16.50705 27.12278 21.81491
#
# Velocity S-wave (km/s) = 2.93526 3.76252 3.37434
# Velocity P-wave (km/s) = 4.65265 6.97616 5.92933
#
# Compressibility (1/GPa) = 0.05137522
#
# Stress axis : x y z
#
# Youngs Moduli (GPa) = 57.01903 12.31703 130.28783
#
# Poissons Ratio (x) = 0.22287 0.40806
# Poissons Ratio (y) = 1.03174 0.81907
# Poissons Ratio (z) = 0.17858 0.07743
#
# Static dielectric constant tensor:
#      x y z
#    x 3.640250 0.000000 0.000000 
#    y 0.000000 3.218130 0.000000 
#    z 0.000000 0.000000 3.758630 
# 
# 
# High freq. dielectric constant tensor:
#      x y z
#    x 1.751170 0.000000 0.000000 
#    y 0.000000 1.712700 0.000000 
#    z 0.000000 0.000000 1.764460 
# 
# From -- ./inp_files/33979.got.cif
#   From: 2010.03.12/outbox.cif.g09.slc.cpg/sg51_17_cif.got.tgz:33979.got - 2010.04.16 13:43:02.
