data_PCOD8209651
_publ_section_title
;
Structure prediction by ZEFSAII (Michael W. Deem and Ramdas Pophale) SiO2 
 PCOD8209651
Probable space group: P M M A
;
_chemical_formula_sum "Si O2"
_cell_formula_units_Z 64
_cell_length_a 18.093370
_cell_length_b 9.122154
_cell_length_c 21.628401
_cell_angle_alpha 90.000000
_cell_angle_beta 90.000000
_cell_angle_gamma 90.000000
_cell_volume 3569.778562
_symmetry_space_group_name_H-M "P M M A"
_symmetry_group_IT_number 51
_symmetry_cell_setting 'orthorhombic'
loop_
_space_group_symop_operation_xyz
x,y,z
1/2-x,-y,z
1/2+x,-y,-z
-x,y,-z
-x,-y,-z
1/2+x,y,-z
1/2-x,y,z
x,-y,z
loop_
_atom_site_type_symbol
_atom_site_label
_atom_site_fract_x
_atom_site_fract_y
_atom_site_fract_z
Si Si1 0.973860 0.171741 0.935560
Si Si2 0.074467 0.826966 0.607123
Si Si3 0.167409 0.171950 0.135946
Si Si4 0.331662 0.172293 0.722383
Si Si5 0.043285 0.170292 0.810327
Si Si6 0.580762 0.330192 0.616752
Si Si7 0.906729 0.330382 0.757416
Si Si8 0.164811 0.831445 0.485993
O O1 0.893165 0.230682 0.913698
O O2 0.034882 0.208477 0.883000
O O3 0.966703 0.000000 0.946644
O O4 0.000000 0.246934 0.000000
O O5 0.121861 0.764386 0.664783
O O6 0.117215 0.784273 0.545061
O O7 0.995277 0.752966 0.605208
O O8 0.062714 0.000000 0.613449
O O9 0.250000 0.206575 0.111479
O O10 0.155382 0.250431 0.201617
O O11 0.155724 0.000000 0.147173
O O12 0.250000 0.244693 0.725323
O O13 0.374191 0.207328 0.786766
O O14 0.323029 0.000000 0.712914
O O15 0.987210 0.264084 0.769781
O O16 0.024003 0.000000 0.798938
O O17 0.566888 0.500000 0.602966
O O18 0.611836 0.306039 0.685721
O O19 0.643375 0.268685 0.571719
O O20 0.907711 0.500000 0.775688
O O21 0.250000 0.805424 0.502785
O O22 0.149483 0.000000 0.468573
#
# Coordination Sequence:
#
# PCOD8209651 Si02
#       8
#     8   8   8   8   8   8   8   8
#     4   8  14  26  46  72 102 135 168 202 243 291
#     4  10  19  34  56  76  97 128 166 208 252 298
#     4   9  18  32  51  75 102 134 173 212 251 297
#     4   9  16  27  48  77 102 124 158 207 255 294
#     4   9  16  29  50  73  99 133 170 205 244 296
#     4  11  23  36  52  75 102 132 166 206 255 308
#     4  10  20  33  50  72  99 130 165 208 255 299
#     4  10  22  38  54  74  99 129 167 208 251 301
#
# _framework density 17.928283
#
# number of rings (size 3 to 8) (size 9 to 14) (size 15 to 20)
#    0.000    2.500    1.250    2.250    0.000    6.000 
#    0.000    3.125    0.000   12.000    0.000    0.000 
#    0.000    0.000    0.000    0.000    0.000    0.000 
#
# Total GULP energy -793446.708465 kJ/mol
# GULP energy per Si atom -12397.604820 kJ/mol
# Density = 1.788748 g / cm^3
# Si number density = 17.928283 Si / 1000 Ang^3
#
#
#
# Elastic Constant Matrix: (Units=GPa)
#
#
# Indices 1 2 3 4 5 6 
#
# 1 96.5268 22.9991 50.0032 0.0000 0.0000 0.0000
# 2 22.9991 42.8600 34.9087 0.0000 0.0000 0.0000
# 3 50.0032 34.9087 126.5235 0.0000 0.0000 0.0000
# 4 0.0000 0.0000 0.0000 13.2557 0.0000 0.0000
# 5 0.0000 0.0000 0.0000 0.0000 22.9385 0.0000
# 6 0.0000 0.0000 0.0000 0.0000 0.0000 2.7313
#
#
#
# Elastic Compliance Matrix: (Units=1/GPa)
#
#
# Indices 1 2 3 4 5 6 
#
# 1 0.013474 -0.003732 -0.004295 0.000000 0.000000 0.000000
# 2 -0.003732 0.031128 -0.007114 0.000000 0.000000 0.000000
# 3 -0.004295 -0.007114 0.011564 0.000000 0.000000 0.000000
# 4 0.000000 0.000000 0.000000 0.075439 0.000000 0.000000
# 5 0.000000 0.000000 0.000000 0.000000 0.043595 0.000000
# 6 0.000000 0.000000 0.000000 0.000000 0.000000 0.366125
#
#
# Mechanical properties :
#
#
# Convention : Reuss Voigt Hill
#
# Bulk Modulus (GPa) = 38.63309 53.52581 46.07945
# Shear Modulus (GPa) = 8.61720 18.31839 13.46779
#
# Velocity S-wave (km/s) = 2.19475 3.19996 2.74378
# Velocity P-wave (km/s) = 5.29320 6.60101 5.98295
#
# Compressibility (1/GPa) = 0.02588455
#
# Stress axis : x y z
#
# Youngs Moduli (GPa) = 74.21626 32.12518 86.47541
#
# Poissons Ratio (x) = 0.11988 0.37145
# Poissons Ratio (y) = 0.27696 0.61516
# Poissons Ratio (z) = 0.31879 0.22853
#
# Static dielectric constant tensor:
#      x y z
#    x 3.426150 0.000000 0.000000 
#    y 0.000000 3.070370 0.000000 
#    z 0.000000 0.000000 3.490250 
# 
# 
# High freq. dielectric constant tensor:
#      x y z
#    x 1.694760 0.000000 0.000000 
#    y 0.000000 1.662450 0.000000 
#    z 0.000000 0.000000 1.693930 
# 
# From -- ./inp_files/33832.got.cif
#   From: 2010.03.12/outbox.cif.g09.slc.cpg/sg51_17_cif.got.tgz:33832.got - 2010.04.16 13:43:02.
