data_PCOD8209083
_publ_section_title
;
Structure prediction by ZEFSAII (Michael W. Deem and Ramdas Pophale) SiO2 
 PCOD8209083
Probable space group: P M M A
;
_chemical_formula_sum "Si O2"
_cell_formula_units_Z 64
_cell_length_a 8.788399
_cell_length_b 18.232535
_cell_length_c 20.495102
_cell_angle_alpha 90.000000
_cell_angle_beta 90.000000
_cell_angle_gamma 90.000000
_cell_volume 3284.028413
_symmetry_space_group_name_H-M "P M M A"
_symmetry_group_IT_number 51
_symmetry_cell_setting 'orthorhombic'
loop_
_space_group_symop_operation_xyz
x,y,z
1/2-x,-y,z
1/2+x,-y,-z
-x,y,-z
-x,-y,-z
1/2+x,y,-z
1/2-x,y,z
x,-y,z
loop_
_atom_site_type_symbol
_atom_site_label
_atom_site_fract_x
_atom_site_fract_y
_atom_site_fract_z
Si Si1 0.925677 0.084153 0.814724
Si Si2 0.576016 0.585405 0.175632
Si Si3 0.070697 0.648041 0.301283
Si Si4 0.929947 0.840153 0.068271
Si Si5 0.421923 0.646036 0.565119
Si Si6 0.571705 0.816770 0.696019
Si Si7 0.919651 0.179385 0.435799
Si Si8 0.930302 0.684366 0.931395
O O1 0.750000 0.102607 0.830409
O O2 0.987365 0.134236 0.755822
O O3 0.027207 0.099806 0.878002
O O4 0.946408 0.000000 0.794312
O O5 0.750000 0.612479 0.169491
O O6 0.563036 0.500000 0.160353
O O7 0.516146 0.600221 0.248060
O O8 0.470325 0.626374 0.123932
O O9 0.250000 0.636200 0.294442
O O10 0.024089 0.732852 0.290743
O O11 0.017150 0.619735 0.372094
O O12 0.750000 0.832443 0.061278
O O13 0.000981 0.762463 0.089261
O O14 0.000000 0.866850 0.000000
O O15 0.500000 0.613437 0.500000
O O16 0.250000 0.616089 0.570048
O O17 0.423450 0.733264 0.561631
O O18 0.750000 0.823742 0.687156
O O19 0.500275 0.848367 0.629770
O O20 0.750000 0.148548 0.435216
O O21 0.000000 0.146662 0.500000
O O22 0.750000 0.691455 0.938163
O O23 0.000000 0.657690 0.000000
#
# Coordination Sequence:
#
# PCOD8209083 Si02
#       8
#     8   8   8   8   8   8   8   8
#     4  10  21  37  56  79 110 147 185 226 273 324
#     4  11  24  40  57  80 112 148 185 225 269 318
#     4  10  19  32  53  79 107 141 182 226 273 326
#     4  11  22  38  61  86 113 143 179 223 270 322
#     4   9  16  27  45  72 105 137 173 219 272 326
#     4   9  18  32  51  76 105 138 176 220 269 320
#     4   9  16  26  44  71 102 134 169 215 267 318
#     4  11  22  39  63  88 114 143 179 222 269 322
#
# _framework density 19.488258999999999
#
# number of rings (size 3 to 8) (size 9 to 14) (size 15 to 20)
#    0.000    2.000    0.000    5.250    0.000    6.750 
#    0.000    0.000    0.000    0.750    0.000    0.000 
#    0.000    0.000    0.000    0.000    0.000    0.000 
#
# Total GULP energy -793811.928213 kJ/mol
# GULP energy per Si atom -12403.311378 kJ/mol
# Density = 1.944390 g / cm^3
# Si number density = 19.488259 Si / 1000 Ang^3
#
#
#
# Elastic Constant Matrix: (Units=GPa)
#
#
# Indices 1 2 3 4 5 6 
#
# 1 114.5386 20.1844 38.2397 0.0000 0.0000 0.0000
# 2 20.1844 30.3289 20.1574 0.0000 0.0000 0.0000
# 3 38.2397 20.1574 111.7219 0.0000 0.0000 0.0000
# 4 0.0000 0.0000 0.0000 4.0736 0.0000 0.0000
# 5 0.0000 0.0000 0.0000 0.0000 40.8078 0.0000
# 6 0.0000 0.0000 0.0000 0.0000 0.0000 19.0338
#
#
#
# Elastic Compliance Matrix: (Units=1/GPa)
#
#
# Indices 1 2 3 4 5 6 
#
# 1 0.010544 -0.005248 -0.002662 0.000000 0.000000 0.000000
# 2 -0.005248 0.040077 -0.005435 0.000000 0.000000 0.000000
# 3 -0.002662 -0.005435 0.010843 0.000000 0.000000 0.000000
# 4 0.000000 0.000000 0.000000 0.245484 0.000000 0.000000
# 5 0.000000 0.000000 0.000000 0.000000 0.024505 0.000000
# 6 0.000000 0.000000 0.000000 0.000000 0.000000 0.052538
#
#
# Mechanical properties :
#
#
# Convention : Reuss Voigt Hill
#
# Bulk Modulus (GPa) = 28.75729 45.97249 37.36489
# Shear Modulus (GPa) = 11.84072 24.65023 18.24547
#
# Velocity S-wave (km/s) = 2.46759 3.56037 3.06311
# Velocity P-wave (km/s) = 4.78612 6.36731 5.63248
#
# Compressibility (1/GPa) = 0.03477380
#
# Stress axis : x y z
#
# Youngs Moduli (GPa) = 94.83793 24.95228 92.22948
#
# Poissons Ratio (x) = 0.13095 0.24553
# Poissons Ratio (y) = 0.49772 0.50122
# Poissons Ratio (z) = 0.25247 0.13560
#
# Static dielectric constant tensor:
#      x y z
#    x 3.659380 0.000000 0.000000 
#    y 0.000000 3.205500 0.000000 
#    z 0.000000 0.000000 3.733630 
# 
# 
# High freq. dielectric constant tensor:
#      x y z
#    x 1.769290 0.000000 0.000000 
#    y 0.000000 1.719120 0.000000 
#    z 0.000000 0.000000 1.774760 
# 
# From -- ./inp_files/32428.got.cif
#   From: 2010.03.12/outbox.cif.g09.slc.cpg/sg51_17_cif.got.tgz:32428.got - 2010.04.16 13:43:02.
