data_PCOD8209805
_publ_section_title
;
Structure prediction by ZEFSAII (Michael W. Deem and Ramdas Pophale) SiO2 
 PCOD8209805
Probable space group: P M M A
;
_chemical_formula_sum "Si O2"
_cell_formula_units_Z 56
_cell_length_a 15.114376
_cell_length_b 9.403909
_cell_length_c 20.940675
_cell_angle_alpha 90.000000
_cell_angle_beta 90.000000
_cell_angle_gamma 90.000000
_cell_volume 2976.386434
_symmetry_space_group_name_H-M "P M M A"
_symmetry_group_IT_number 51
_symmetry_cell_setting 'orthorhombic'
loop_
_space_group_symop_operation_xyz
x,y,z
1/2-x,-y,z
1/2+x,-y,-z
-x,y,-z
-x,-y,-z
1/2+x,y,-z
1/2-x,y,z
x,-y,z
loop_
_atom_site_type_symbol
_atom_site_label
_atom_site_fract_x
_atom_site_fract_y
_atom_site_fract_z
Si Si1 0.396360 0.336553 0.504232
Si Si2 0.000301 0.834962 0.709850
Si Si3 0.851370 0.663640 0.083752
Si Si4 0.848034 0.837140 0.616022
Si Si5 0.993319 0.834194 0.856829
Si Si6 0.648056 0.337172 0.935416
Si Si7 0.149156 0.335960 0.644791
O O1 0.500000 0.312380 0.500000
O O2 0.369289 0.500000 0.494903
O O3 0.348835 0.248599 0.449528
O O4 0.363007 0.279741 0.572578
O O5 0.919233 0.777505 0.666600
O O6 0.974234 0.806927 0.782674
O O7 0.089312 0.751397 0.693456
O O8 0.018523 0.000000 0.697118
O O9 0.750000 0.702637 0.099440
O O10 0.870339 0.500000 0.101466
O O11 0.913417 0.763909 0.125436
O O12 0.871809 0.689598 0.009570
O O13 0.750000 0.821966 0.646312
O O14 0.869727 0.000000 0.599707
O O15 0.912412 0.767156 0.895082
O O16 0.998620 0.000000 0.873504
O O17 0.750000 0.303339 0.919789
O O18 0.625593 0.500000 0.917788
O O19 0.250000 0.315280 0.666658
O O20 0.119804 0.500000 0.648037
#
# Coordination Sequence:
#
# PCOD8209805 Si02
#       7
#     8   8   8   8   8   8   8
#     4  10  19  34  58  84 110 137 168 218 280 330
#     4  10  23  40  54  74 109 149 185 223 265 316
#     4   9  19  37  60  84 111 145 183 225 274 325
#     4  10  21  37  57  79 104 140 184 224 265 318
#     4  11  23  36  54  82 114 149 185 225 276 325
#     4   9  19  37  60  85 112 143 182 226 271 324
#     4  10  21  37  57  81 108 139 178 224 273 324
#
# _framework density 18.814762000000002
#
# number of rings (size 3 to 8) (size 9 to 14) (size 15 to 20)
#    0.000    2.143    1.429    2.143    0.000    7.143 
#    0.000    5.714    0.000    0.000    0.000    0.000 
#    0.000    0.000    0.000    0.000    0.000    0.000 
#
# Total GULP energy -694569.229247 kJ/mol
# GULP energy per Si atom -12403.021951 kJ/mol
# Density = 1.877194 g / cm^3
# Si number density = 18.814762 Si / 1000 Ang^3
#
#
#
# Elastic Constant Matrix: (Units=GPa)
#
#
# Indices 1 2 3 4 5 6 
#
# 1 90.4148 42.7422 29.3759 0.0000 0.0000 0.0000
# 2 42.7422 74.4192 41.1616 0.0000 0.0000 0.0000
# 3 29.3759 41.1616 62.3747 0.0000 0.0000 0.0000
# 4 0.0000 0.0000 0.0000 29.7340 0.0000 0.0000
# 5 0.0000 0.0000 0.0000 0.0000 12.0883 0.0000
# 6 0.0000 0.0000 0.0000 0.0000 0.0000 27.4884
#
#
#
# Elastic Compliance Matrix: (Units=1/GPa)
#
#
# Indices 1 2 3 4 5 6 
#
# 1 0.015376 -0.007600 -0.002226 0.000000 0.000000 0.000000
# 2 -0.007600 0.024917 -0.012864 0.000000 0.000000 0.000000
# 3 -0.002226 -0.012864 0.025570 0.000000 0.000000 0.000000
# 4 0.000000 0.000000 0.000000 0.033632 0.000000 0.000000
# 5 0.000000 0.000000 0.000000 0.000000 0.082725 0.000000
# 6 0.000000 0.000000 0.000000 0.000000 0.000000 0.036379
#
#
# Mechanical properties :
#
#
# Convention : Reuss Voigt Hill
#
# Bulk Modulus (GPa) = 48.82106 50.41867 49.61986
# Shear Modulus (GPa) = 18.46335 21.45741 19.96038
#
# Velocity S-wave (km/s) = 3.13601 3.38073 3.26066
# Velocity P-wave (km/s) = 6.25438 6.48804 6.37228
#
# Compressibility (1/GPa) = 0.02048296
#
# Stress axis : x y z
#
# Youngs Moduli (GPa) = 65.03574 40.13262 39.10870
#
# Poissons Ratio (x) = 0.30500 0.08707
# Poissons Ratio (y) = 0.49426 0.50309
# Poissons Ratio (z) = 0.14480 0.51627
#
# Static dielectric constant tensor:
#      x y z
#    x 3.534790 0.000000 0.000000 
#    y 0.000000 3.388510 0.000000 
#    z 0.000000 0.000000 3.369450 
# 
# 
# High freq. dielectric constant tensor:
#      x y z
#    x 1.744830 0.000000 0.000000 
#    y 0.000000 1.724440 0.000000 
#    z 0.000000 0.000000 1.724700 
# 
# From -- ./inp_files/33316.got.cif
#   From: 2010.03.12/outbox.cif.g09.slc.cpg/sg51_17_cif.got.tgz:33316.got - 2010.04.16 13:43:02.
