data_PCOD8209883
_publ_section_title
;
Structure prediction by ZEFSAII (Michael W. Deem and Ramdas Pophale) SiO2 
 PCOD8209883
Probable space group: P M M A
;
_chemical_formula_sum "Si O2"
_cell_formula_units_Z 40
_cell_length_a 9.585643
_cell_length_b 11.774530
_cell_length_c 20.148161
_cell_angle_alpha 90.000000
_cell_angle_beta 90.000000
_cell_angle_gamma 90.000000
_cell_volume 2274.051226
_symmetry_space_group_name_H-M "P M M A"
_symmetry_group_IT_number 51
_symmetry_cell_setting 'orthorhombic'
loop_
_space_group_symop_operation_xyz
x,y,z
1/2-x,-y,z
1/2+x,-y,-z
-x,y,-z
-x,-y,-z
1/2+x,y,-z
1/2-x,y,z
x,-y,z
loop_
_atom_site_type_symbol
_atom_site_label
_atom_site_fract_x
_atom_site_fract_y
_atom_site_fract_z
Si Si1 0.411439 0.765185 0.563280
Si Si2 0.411584 0.631351 0.063041
Si Si3 0.910992 0.754626 0.804601
Si Si4 0.913641 0.000000 0.371720
Si Si5 0.911537 0.630854 0.305704
Si Si6 0.091993 0.000000 0.240277
O O1 0.500000 0.727670 0.500000
O O2 0.250000 0.764940 0.543015
O O3 0.458790 0.889995 0.586800
O O4 0.443154 0.674617 0.620567
O O5 0.250000 0.652800 0.046799
O O6 0.440997 0.500000 0.079815
O O7 0.462961 0.705171 0.125407
O O8 0.500000 0.671882 0.000000
O O9 0.750000 0.721670 0.793050
O O10 0.934224 0.890028 0.805507
O O11 0.998314 0.701433 0.745497
O O12 0.750000 0.000000 0.355950
O O13 0.989124 0.000000 0.301740
O O14 0.750000 0.649740 0.287802
O O15 0.954777 0.500000 0.301775
O O16 0.250000 0.000000 0.268110
#
# Coordination Sequence:
#
# PCOD8209883 Si02
#       6
#     8   8   8   4   8   4
#     4  10  21  35  52  75 103 135 172 216 264 314
#     4   9  18  33  53  77 106 139 174 212 254 301
#     4  10  20  35  55  80 108 138 174 217 261 308
#     4  10  19  35  55  75 101 135 173 217 265 312
#     4  10  21  36  54  77 105 137 175 218 263 313
#     4  10  20  33  54  81 106 135 172 215 262 310
#
# _framework density 17.589753999999999
#
# number of rings (size 3 to 8) (size 9 to 14) (size 15 to 20)
#    0.000    2.200    2.000    0.900    0.000    4.000 
#    0.000    2.500    0.000    0.000    0.000    0.000 
#    0.000    0.000    0.000    0.000    0.000    0.000 
#
# Total GULP energy -496142.501787 kJ/mol
# GULP energy per Si atom -12403.562545 kJ/mol
# Density = 1.754972 g / cm^3
# Si number density = 17.589754 Si / 1000 Ang^3
#
#
#
# Elastic Constant Matrix: (Units=GPa)
#
#
# Indices 1 2 3 4 5 6 
#
# 1 52.7447 34.8502 53.4818 0.0000 0.0000 0.0000
# 2 34.8502 106.4919 49.4001 0.0000 0.0000 0.0000
# 3 53.4818 49.4001 118.1415 0.0000 0.0000 0.0000
# 4 0.0000 0.0000 0.0000 43.3948 0.0000 0.0000
# 5 0.0000 0.0000 0.0000 0.0000 36.0299 0.0000
# 6 0.0000 0.0000 0.0000 0.0000 0.0000 20.9378
#
#
#
# Elastic Compliance Matrix: (Units=1/GPa)
#
#
# Indices 1 2 3 4 5 6 
#
# 1 0.037429 -0.005445 -0.014667 0.000000 0.000000 0.000000
# 2 -0.005445 0.012442 -0.002738 0.000000 0.000000 0.000000
# 3 -0.014667 -0.002738 0.016249 0.000000 0.000000 0.000000
# 4 0.000000 0.000000 0.000000 0.023044 0.000000 0.000000
# 5 0.000000 0.000000 0.000000 0.000000 0.027755 0.000000
# 6 0.000000 0.000000 0.000000 0.000000 0.000000 0.047761
#
#
# Mechanical properties :
#
#
# Convention : Reuss Voigt Hill
#
# Bulk Modulus (GPa) = 48.97033 61.42691 55.19862
# Shear Modulus (GPa) = 23.02171 29.38222 26.20196
#
# Velocity S-wave (km/s) = 3.62168 4.09151 3.86374
# Velocity P-wave (km/s) = 6.73717 7.57089 7.16616
#
# Compressibility (1/GPa) = 0.02042053
#
# Stress axis : x y z
#
# Youngs Moduli (GPa) = 26.71725 80.37088 61.54277
#
# Poissons Ratio (x) = 0.43762 0.90265
# Poissons Ratio (y) = 0.14548 0.16849
# Poissons Ratio (z) = 0.39186 0.22003
#
# Static dielectric constant tensor:
#      x y z
#    x 3.209710 0.000000 0.000000 
#    y 0.000000 3.479030 0.000000 
#    z 0.000000 0.000000 3.184720 
# 
# 
# High freq. dielectric constant tensor:
#      x y z
#    x 1.678200 0.000000 0.000000 
#    y 0.000000 1.687090 0.000000 
#    z 0.000000 0.000000 1.675310 
# 
# From -- ./inp_files/31395.got.cif
#   From: 2010.03.12/outbox.cif.g09.slc.cpg/sg51_16_cif.got.tgz:31395.got - 2010.04.16 13:43:02.
