data_PCOD8209419
_publ_section_title
;
Structure prediction by ZEFSAII (Michael W. Deem and Ramdas Pophale) SiO2 
 PCOD8209419
Probable space group: P M M A
;
_chemical_formula_sum "Si O2"
_cell_formula_units_Z 48
_cell_length_a 8.526706
_cell_length_b 30.872802
_cell_length_c 9.184954
_cell_angle_alpha 90.000000
_cell_angle_beta 90.000000
_cell_angle_gamma 90.000000
_cell_volume 2417.877657
_symmetry_space_group_name_H-M "P M M A"
_symmetry_group_IT_number 51
_symmetry_cell_setting 'orthorhombic'
loop_
_space_group_symop_operation_xyz
x,y,z
1/2-x,-y,z
1/2+x,-y,-z
-x,y,-z
-x,-y,-z
1/2+x,y,-z
1/2-x,y,z
x,-y,z
loop_
_atom_site_type_symbol
_atom_site_label
_atom_site_fract_x
_atom_site_fract_y
_atom_site_fract_z
Si Si1 0.065391 0.454364 0.340011
Si Si2 0.934500 0.281777 0.159865
Si Si3 0.065160 0.876269 0.839511
Si Si4 0.933193 0.949695 0.655876
Si Si5 0.564169 0.360255 0.662412
Si Si6 0.934851 0.202368 0.660824
O O1 0.250000 0.453763 0.350968
O O2 0.012259 0.500000 0.259225
O O3 0.012829 0.407982 0.273365
O O4 0.000000 0.456096 0.500000
O O5 0.750000 0.282499 0.151249
O O6 0.992897 0.326764 0.225137
O O7 0.987943 0.242611 0.259583
O O8 0.000000 0.274601 0.000000
O O9 0.250000 0.868053 0.837835
O O10 0.024852 0.924052 0.781151
O O11 0.978124 0.842059 0.738579
O O12 0.000000 0.870782 0.000000
O O13 0.750000 0.938572 0.661449
O O14 0.000000 0.935346 0.500000
O O15 0.966144 0.000000 0.685004
O O16 0.500000 0.352374 0.500000
O O17 0.750000 0.354509 0.656835
O O18 0.750000 0.208846 0.658740
O O19 0.000000 0.200278 0.500000
#
# Coordination Sequence:
#
# PCOD8209419 Si02
#       6
#     8   8   8   8   8   8
#     4   8  14  25  44  72 106 142 181 227 277 328
#     4  12  25  42  61  84 114 149 189 234 287 343
#     4  12  25  42  63  90 124 161 200 243 294 349
#     4  10  21  39  63  91 123 161 205 251 298 348
#     4  10  19  33  54  82 114 149 189 233 282 336
#     4  12  25  44  67  92 120 152 192 236 285 340
#
# _framework density 19.852121
#
# number of rings (size 3 to 8) (size 9 to 14) (size 15 to 20)
#    0.000    1.333    0.000    7.000    0.000    2.000 
#    0.000    0.000    0.000    0.500    0.000    0.000 
#    0.000    0.000    0.000    0.000    0.000    0.000 
#
# Total GULP energy -595012.356079 kJ/mol
# GULP energy per Si atom -12396.090752 kJ/mol
# Density = 1.980694 g / cm^3
# Si number density = 19.852121 Si / 1000 Ang^3
#
#
#
# Elastic Constant Matrix: (Units=GPa)
#
#
# Indices 1 2 3 4 5 6 
#
# 1 27.1160 -9.2336 -8.6558 0.0000 0.0000 0.0000
# 2 -9.2336 107.2796 36.6674 0.0000 0.0000 0.0000
# 3 -8.6558 36.6674 101.8951 0.0000 0.0000 0.0000
# 4 0.0000 0.0000 0.0000 -12.1637 0.0000 0.0000
# 5 0.0000 0.0000 0.0000 0.0000 34.7561 0.0000
# 6 0.0000 0.0000 0.0000 0.0000 0.0000 32.4062
#
#
#
# Elastic Compliance Matrix: (Units=1/GPa)
#
#
# Indices 1 2 3 4 5 6 
#
# 1 0.038487 0.002503 0.002369 0.000000 0.000000 0.000000
# 2 0.002503 0.010792 -0.003671 0.000000 0.000000 0.000000
# 3 0.002369 -0.003671 0.011336 0.000000 0.000000 0.000000
# 4 0.000000 0.000000 0.000000 -0.082212 0.000000 0.000000
# 5 0.000000 0.000000 0.000000 0.000000 0.028772 0.000000
# 6 0.000000 0.000000 0.000000 0.000000 0.000000 0.030858
#
#
# Mechanical properties :
#
#
# Convention : Reuss Voigt Hill
#
# Bulk Modulus (GPa) = 15.86884 30.42739 23.14812
# Shear Modulus (GPa) = 88.28190 25.50055 56.89123
#
# Velocity S-wave (km/s) = 6.67580 3.58792 5.35908
# Velocity P-wave (km/s) = 8.21174 5.70302 7.06955
#
# Compressibility (1/GPa) = 0.06301659
#
# Stress axis : x y z
#
# Youngs Moduli (GPa) = 25.98278 92.66550 88.21322
#
# Poissons Ratio (x) = -0.23194 -0.20895
# Poissons Ratio (y) = -0.06503 0.32381
# Poissons Ratio (z) = -0.06155 0.34015
#
# Static dielectric constant tensor:
#      x y z
#    x 3.813310 0.000000 0.000000 
#    y 0.000000 4.296820 0.000000 
#    z 0.000000 0.000000 3.462290 
# 
# 
# High freq. dielectric constant tensor:
#      x y z
#    x 1.791340 0.000000 0.000000 
#    y 0.000000 1.804790 0.000000 
#    z 0.000000 0.000000 1.752630 
# 
# From -- ./inp_files/6051.got.cif
#   From: 2010.03.12/outbox.cif.g09.slc.cpg/sg51_4_cif.got.tgz:6051.got - 2010.04.16 13:43:02.
