data_PCOD8209882
_publ_section_title
;
Structure prediction by ZEFSAII (Michael W. Deem and Ramdas Pophale) SiO2 
 PCOD8209882
Probable space group: P M M A
;
_chemical_formula_sum "Si O2"
_cell_formula_units_Z 40
_cell_length_a 9.816310
_cell_length_b 9.117489
_cell_length_c 24.638818
_cell_angle_alpha 90.000000
_cell_angle_beta 90.000000
_cell_angle_gamma 90.000000
_cell_volume 2205.176637
_symmetry_space_group_name_H-M "P M M A"
_symmetry_group_IT_number 51
_symmetry_cell_setting 'orthorhombic'
loop_
_space_group_symop_operation_xyz
x,y,z
1/2-x,-y,z
1/2+x,-y,-z
-x,y,-z
-x,-y,-z
1/2+x,y,-z
1/2-x,y,z
x,-y,z
loop_
_atom_site_type_symbol
_atom_site_label
_atom_site_fract_x
_atom_site_fract_y
_atom_site_fract_z
Si Si1 0.406445 0.674697 0.450300
Si Si2 0.405239 0.325378 0.645847
Si Si3 0.098294 0.327041 0.764735
Si Si4 0.016696 0.330574 0.879311
Si Si5 0.750000 0.172946 0.057637
Si Si6 0.250000 0.665621 0.053936
O O1 0.500000 0.730798 0.500000
O O2 0.250000 0.735213 0.453517
O O3 0.400696 0.500000 0.450285
O O4 0.483189 0.735775 0.396549
O O5 0.250000 0.272741 0.632321
O O6 0.407080 0.500000 0.643524
O O7 0.449737 0.266083 0.705898
O O8 0.250000 0.269353 0.777600
O O9 0.099553 0.500000 0.758889
O O10 0.005631 0.279502 0.816048
O O11 0.065017 0.500000 0.882437
O O12 0.118472 0.230137 0.912071
O O13 0.874075 0.304885 0.906736
O O14 0.750000 0.000000 0.058036
O O15 0.750000 0.223897 0.995591
O O16 0.250000 0.500000 0.030560
#
# Coordination Sequence:
#
# PCOD8209882 Si02
#       6
#     8   8   8   8   4   4
#     4   9  15  21  28  41  66 104 144 182 222 265
#     4   8  13  21  33  50  70  95 135 184 227 267
#     4   8  13  24  44  64  81 108 146 190 236 280
#     4  10  19  35  55  74  98 128 162 201 246 298
#     4  12  24  36  54  76  98 128 165 202 242 292
#     4  10  22  36  52  76 100 128 161 198 248 298
#
# _framework density 18.139135
#
# number of rings (size 3 to 8) (size 9 to 14) (size 15 to 20)
#    0.000    2.800    1.000    3.300    0.000    5.600 
#    1.800    0.000    0.000    0.000    0.000    0.000 
#    0.000    0.000    0.000    0.000    0.000    1.000 
#
# Total GULP energy -495570.418452 kJ/mol
# GULP energy per Si atom -12389.260461 kJ/mol
# Density = 1.809785 g / cm^3
# Si number density = 18.139135 Si / 1000 Ang^3
#
#
#
# Elastic Constant Matrix: (Units=GPa)
#
#
# Indices 1 2 3 4 5 6 
#
# 1 135.7362 34.6870 89.9212 0.0000 0.0000 0.0000
# 2 34.6870 39.3838 34.2526 0.0000 0.0000 0.0000
# 3 89.9212 34.2526 186.5284 0.0000 0.0000 0.0000
# 4 0.0000 0.0000 0.0000 -1.3355 0.0000 0.0000
# 5 0.0000 0.0000 0.0000 0.0000 12.0974 0.0000
# 6 0.0000 0.0000 0.0000 0.0000 0.0000 -1.2227
#
#
#
# Elastic Compliance Matrix: (Units=1/GPa)
#
#
# Indices 1 2 3 4 5 6 
#
# 1 0.012135 -0.006664 -0.004626 0.000000 0.000000 0.000000
# 2 -0.006664 0.033877 -0.003008 0.000000 0.000000 0.000000
# 3 -0.004626 -0.003008 0.008144 0.000000 0.000000 0.000000
# 4 0.000000 0.000000 0.000000 -0.748806 0.000000 0.000000
# 5 0.000000 0.000000 0.000000 0.000000 0.082663 0.000000
# 6 0.000000 0.000000 0.000000 0.000000 0.000000 -0.817868
#
#
# Mechanical properties :
#
#
# Convention : Reuss Voigt Hill
#
# Bulk Modulus (GPa) = 39.12633 75.48555 57.30594
# Shear Modulus (GPa) = -3.59005 15.42701 5.91848
#
# Velocity S-wave (km/s) = -1.40836 2.91947 1.80829
# Velocity P-wave (km/s) = 4.35572 7.28488 6.00174
#
# Compressibility (1/GPa) = 0.02555823
#
# Stress axis : x y z
#
# Youngs Moduli (GPa) = 82.40606 29.51855 122.79397
#
# Poissons Ratio (x) = 0.19672 0.56807
# Poissons Ratio (y) = 0.54918 0.36939
# Poissons Ratio (z) = 0.38123 0.08880
#
# Static dielectric constant tensor:
#      x y z
#    x 3.399600 0.000000 0.000000 
#    y 0.000000 2.657630 0.000000 
#    z 0.000000 0.000000 3.940400 
# 
# 
# High freq. dielectric constant tensor:
#      x y z
#    x 1.697940 0.000000 0.000000 
#    y 0.000000 1.620940 0.000000 
#    z 0.000000 0.000000 1.728290 
# 
# From -- ./inp_files/35997.got.cif
#   From: 2010.03.12/outbox.cif.g09.slc.cpg/sg51_18_cif.got.tgz:35997.got - 2010.04.16 13:43:02.
