data_PCOD8209804
_publ_section_title
;
Structure prediction by ZEFSAII (Michael W. Deem and Ramdas Pophale) SiO2 
 PCOD8209804
Probable space group: P M M A
;
_chemical_formula_sum "Si O2"
_cell_formula_units_Z 64
_cell_length_a 15.072050
_cell_length_b 9.360486
_cell_length_c 24.035140
_cell_angle_alpha 90.000000
_cell_angle_beta 90.000000
_cell_angle_gamma 90.000000
_cell_volume 3390.918724
_symmetry_space_group_name_H-M "P M M A"
_symmetry_group_IT_number 51
_symmetry_cell_setting 'orthorhombic'
loop_
_space_group_symop_operation_xyz
x,y,z
1/2-x,-y,z
1/2+x,-y,-z
-x,y,-z
-x,-y,-z
1/2+x,y,-z
1/2-x,y,z
x,-y,z
loop_
_atom_site_type_symbol
_atom_site_label
_atom_site_fract_x
_atom_site_fract_y
_atom_site_fract_z
Si Si1 0.649064 0.163621 0.376038
Si Si2 0.854796 0.658201 0.993979
Si Si3 0.354814 0.165659 0.110853
Si Si4 0.651576 0.336556 0.604018
Si Si5 0.002072 0.332235 0.685097
Si Si6 0.848595 0.330566 0.116866
Si Si7 0.396172 0.164431 0.501769
Si Si8 0.984797 0.668521 0.812957
O O1 0.750000 0.178446 0.356181
O O2 0.591361 0.256356 0.334246
O O3 0.639736 0.220504 0.439118
O O4 0.616030 0.000000 0.373687
O O5 0.750000 0.645311 0.991120
O O6 0.896199 0.500000 0.983305
O O7 0.880732 0.717620 0.055140
O O8 0.889502 0.767118 0.947237
O O9 0.250000 0.187740 0.118639
O O10 0.402883 0.246919 0.160865
O O11 0.380937 0.000000 0.111298
O O12 0.750000 0.321646 0.630177
O O13 0.629083 0.500000 0.590050
O O14 0.580927 0.276418 0.648482
O O15 0.650276 0.251436 0.546728
O O16 0.016329 0.500000 0.678371
O O17 0.984128 0.290832 0.748465
O O18 0.750000 0.267638 0.131116
O O19 0.841424 0.500000 0.117265
O O20 0.921509 0.277796 0.161172
O O21 0.500000 0.191220 0.500000
O O22 0.370573 0.000000 0.492950
O O23 0.971055 0.500000 0.822946
#
# Coordination Sequence:
#
# PCOD8209804 Si02
#       8
#     8   8   8   8   8   8   8   8
#     4  10  21  37  57  81 110 143 178 218 265 317
#     4   8  14  28  52  78 103 134 171 213 264 320
#     4  10  21  36  53  76 108 142 175 217 267 318
#     4  10  21  36  54  78 109 143 177 218 270 323
#     4  10  22  38  55  78 108 141 181 226 268 313
#     4   8  15  30  53  80 107 134 171 220 267 313
#     4  10  19  34  58  84 109 139 175 218 265 315
#     4  10  21  36  56  80 104 139 183 224 264 309
#
# _framework density 18.873940000000001
#
# number of rings (size 3 to 8) (size 9 to 14) (size 15 to 20)
#    0.000    2.500    1.250    1.500    0.000    4.500 
#    0.000    5.625    0.000    1.125    0.000    0.000 
#    0.000    0.000    0.000    0.000    0.000    0.000 
#
# Total GULP energy -793564.876209 kJ/mol
# GULP energy per Si atom -12399.451191 kJ/mol
# Density = 1.883098 g / cm^3
# Si number density = 18.873940 Si / 1000 Ang^3
#
#
#
# Elastic Constant Matrix: (Units=GPa)
#
#
# Indices 1 2 3 4 5 6 
#
# 1 77.1416 32.5198 39.3257 0.0000 0.0000 0.0000
# 2 32.5198 54.8613 45.8423 0.0000 0.0000 0.0000
# 3 39.3257 45.8423 114.0642 0.0000 0.0000 0.0000
# 4 0.0000 0.0000 0.0000 5.5978 0.0000 0.0000
# 5 0.0000 0.0000 0.0000 0.0000 34.3812 0.0000
# 6 0.0000 0.0000 0.0000 0.0000 0.0000 25.3815
#
#
#
# Elastic Compliance Matrix: (Units=1/GPa)
#
#
# Indices 1 2 3 4 5 6 
#
# 1 0.017884 -0.008204 -0.002869 0.000000 0.000000 0.000000
# 2 -0.008204 0.031208 -0.009714 0.000000 0.000000 0.000000
# 3 -0.002869 -0.009714 0.013660 0.000000 0.000000 0.000000
# 4 0.000000 0.000000 0.000000 0.178643 0.000000 0.000000
# 5 0.000000 0.000000 0.000000 0.000000 0.029086 0.000000
# 6 0.000000 0.000000 0.000000 0.000000 0.000000 0.039399
#
#
# Mechanical properties :
#
#
# Convention : Reuss Voigt Hill
#
# Bulk Modulus (GPa) = 47.21709 53.49364 50.35537
# Shear Modulus (GPa) = 13.94654 21.63071 17.78862
#
# Velocity S-wave (km/s) = 2.72128 3.38903 3.07334
# Velocity P-wave (km/s) = 5.91145 6.61197 6.27150
#
# Compressibility (1/GPa) = 0.02117877
#
# Stress axis : x y z
#
# Youngs Moduli (GPa) = 55.91575 32.04330 73.20616
#
# Poissons Ratio (x) = 0.26288 0.21001
# Poissons Ratio (y) = 0.45873 0.71112
# Poissons Ratio (z) = 0.16041 0.31127
#
# Static dielectric constant tensor:
#      x y z
#    x 3.543980 0.000000 0.000000 
#    y 0.000000 3.322330 0.000000 
#    z 0.000000 0.000000 3.522610 
# 
# 
# High freq. dielectric constant tensor:
#      x y z
#    x 1.739260 0.000000 0.000000 
#    y 0.000000 1.708420 0.000000 
#    z 0.000000 0.000000 1.731030 
# 
# From -- ./inp_files/35733.got.cif
#   From: 2010.03.12/outbox.cif.g09.slc.cpg/sg51_18_cif.got.tgz:35733.got - 2010.04.16 13:43:02.
