data_PCOD8209671
_publ_section_title
;
Structure prediction by ZEFSAII (Michael W. Deem and Ramdas Pophale) SiO2 
 PCOD8209671
Probable space group: P M M A
;
_chemical_formula_sum "Si O2"
_cell_formula_units_Z 48
_cell_length_a 30.257945
_cell_length_b 9.042834
_cell_length_c 9.430557
_cell_angle_alpha 90.000000
_cell_angle_beta 90.000000
_cell_angle_gamma 90.000000
_cell_volume 2580.366126
_symmetry_space_group_name_H-M "P M M A"
_symmetry_group_IT_number 51
_symmetry_cell_setting 'orthorhombic'
loop_
_space_group_symop_operation_xyz
x,y,z
1/2-x,-y,z
1/2+x,-y,-z
-x,y,-z
-x,-y,-z
1/2+x,y,-z
1/2-x,y,z
x,-y,z
loop_
_atom_site_type_symbol
_atom_site_label
_atom_site_fract_x
_atom_site_fract_y
_atom_site_fract_z
Si Si1 0.171580 0.824916 0.343636
Si Si2 0.426673 0.173210 0.340465
Si Si3 0.177294 0.828836 0.659564
Si Si4 0.750000 0.824099 0.857507
Si Si5 0.001802 0.674293 0.838209
Si Si6 0.425168 0.831546 0.667455
Si Si7 0.250000 0.675104 0.840483
O O1 0.122655 0.769526 0.301134
O O2 0.185368 0.768801 0.499967
O O3 0.206813 0.771195 0.228506
O O4 0.169665 0.000000 0.355500
O O5 0.460383 0.260542 0.244225
O O6 0.436144 0.207966 0.504939
O O7 0.431798 0.000000 0.309763
O O8 0.126285 0.808844 0.701325
O O9 0.206017 0.729507 0.763163
O O10 0.191686 0.000000 0.674618
O O11 0.750000 0.000000 0.881303
O O12 0.750000 0.739814 0.003221
O O13 0.999125 0.500000 0.827647
O O14 0.047698 0.725994 0.770375
O O15 0.000000 0.729183 0.000000
O O16 0.439260 0.000000 0.697624
O O17 0.250000 0.500000 0.847634
#
# Coordination Sequence:
#
# PCOD8209671 Si02
#       7
#     8   8   8   4   8   8   4
#     4   8  16  33  60  86 103 127 172 228 272 309
#     4   9  18  35  58  83 106 130 171 224 271 314
#     4   9  18  37  62  83 103 132 174 222 269 314
#     4  10  19  34  56  80 106 140 179 214 258 314
#     4  11  24  37  49  73 111 150 181 211 255 312
#     4   9  19  36  60  85 104 129 172 225 272 313
#     4  12  25  36  48  76 116 150 177 210 256 308
#
# _framework density 18.602011999999998
#
# number of rings (size 3 to 8) (size 9 to 14) (size 15 to 20)
#    0.000    2.500    0.000    4.250    0.000    7.333 
#    0.000   10.000    0.000    0.000    0.000    0.000 
#    0.000    0.000    0.000    0.000    0.000    0.000 
#
# Total GULP energy -595207.058422 kJ/mol
# GULP energy per Si atom -12400.147050 kJ/mol
# Density = 1.855967 g / cm^3
# Si number density = 18.602012 Si / 1000 Ang^3
#
#
#
# Elastic Constant Matrix: (Units=GPa)
#
#
# Indices 1 2 3 4 5 6 
#
# 1 127.1248 49.4208 87.0310 0.0000 0.0000 0.0000
# 2 49.4208 64.9598 59.4780 0.0000 0.0000 0.0000
# 3 87.0310 59.4780 141.1218 0.0000 0.0000 0.0000
# 4 0.0000 0.0000 0.0000 9.1011 0.0000 0.0000
# 5 0.0000 0.0000 0.0000 0.0000 -1.5426 0.0000
# 6 0.0000 0.0000 0.0000 0.0000 0.0000 5.4566
#
#
#
# Elastic Compliance Matrix: (Units=1/GPa)
#
#
# Indices 1 2 3 4 5 6 
#
# 1 0.014413 -0.004603 -0.006948 0.000000 0.000000 0.000000
# 2 -0.004603 0.026538 -0.008346 0.000000 0.000000 0.000000
# 3 -0.006948 -0.008346 0.014889 0.000000 0.000000 0.000000
# 4 0.000000 0.000000 0.000000 0.109876 0.000000 0.000000
# 5 0.000000 0.000000 0.000000 0.000000 -0.648261 0.000000
# 6 0.000000 0.000000 0.000000 0.000000 0.000000 0.183263
#
#
# Mechanical properties :
#
#
# Convention : Reuss Voigt Hill
#
# Bulk Modulus (GPa) = 62.32721 80.56289 71.44505
# Shear Modulus (GPa) = -19.67428 11.75481 -3.95974
#
# Velocity S-wave (km/s) = -3.25567 2.51651 -1.46058
# Velocity P-wave (km/s) = 4.40975 7.20045 5.97044
#
# Compressibility (1/GPa) = 0.01604436
#
# Stress axis : x y z
#
# Youngs Moduli (GPa) = 69.38327 37.68204 67.16438
#
# Poissons Ratio (x) = 0.17345 0.46669
# Poissons Ratio (y) = 0.31937 0.56056
# Poissons Ratio (z) = 0.48211 0.31450
#
# Static dielectric constant tensor:
#      x y z
#    x 3.701560 0.000000 0.000000 
#    y 0.000000 3.133440 0.000000 
#    z 0.000000 0.000000 3.483280 
# 
# 
# High freq. dielectric constant tensor:
#      x y z
#    x 1.739180 0.000000 0.000000 
#    y 0.000000 1.693640 0.000000 
#    z 0.000000 0.000000 1.723050 
# 
# From -- ./inp_files/12884.got.cif
#   From: 2010.03.12/outbox.cif.g09.slc.cpg/sg51_7_cif.got.tgz:12884.got - 2010.04.16 13:43:02.
