data_PCOD8209294
_publ_section_title
;
Structure prediction by ZEFSAII (Michael W. Deem and Ramdas Pophale) SiO2 
 PCOD8209294
Probable space group: P M M A
;
_chemical_formula_sum "Si O2"
_cell_formula_units_Z 64
_cell_length_a 8.880569
_cell_length_b 19.461611
_cell_length_c 20.775864
_cell_angle_alpha 90.000000
_cell_angle_beta 90.000000
_cell_angle_gamma 90.000000
_cell_volume 3590.696301
_symmetry_space_group_name_H-M "P M M A"
_symmetry_group_IT_number 51
_symmetry_cell_setting 'orthorhombic'
loop_
_space_group_symop_operation_xyz
x,y,z
1/2-x,-y,z
1/2+x,-y,-z
-x,y,-z
-x,-y,-z
1/2+x,y,-z
1/2-x,y,z
x,-y,z
loop_
_atom_site_type_symbol
_atom_site_label
_atom_site_fract_x
_atom_site_fract_y
_atom_site_fract_z
Si Si1 0.072635 0.712725 0.434535
Si Si2 0.075696 0.784134 0.305031
Si Si3 0.574554 0.922061 0.114514
Si Si4 0.579132 0.075968 0.752803
Si Si5 0.577550 0.576252 0.239843
Si Si6 0.424671 0.716519 0.816606
Si Si7 0.427979 0.424707 0.373475
Si Si8 0.927639 0.791231 0.935207
O O1 0.250000 0.715616 0.442730
O O2 0.020173 0.760552 0.375304
O O3 0.014656 0.634617 0.421574
O O4 0.000000 0.740655 0.500000
O O5 0.250000 0.763320 0.294107
O O6 0.053071 0.866693 0.301798
O O7 0.975717 0.748467 0.250833
O O8 0.750000 0.906336 0.105409
O O9 0.533573 0.909255 0.188808
O O10 0.479875 0.870345 0.070652
O O11 0.534073 0.000000 0.094212
O O12 0.750000 0.081076 0.779752
O O13 0.549278 0.000000 0.723256
O O14 0.750000 0.579600 0.262747
O O15 0.538874 0.500000 0.212214
O O16 0.547513 0.634039 0.185638
O O17 0.477663 0.593571 0.301572
O O18 0.250000 0.734346 0.828019
O O19 0.521007 0.746603 0.874606
O O20 0.250000 0.425170 0.372878
O O21 0.490971 0.500000 0.394670
O O22 0.750000 0.788042 0.940625
O O23 0.000000 0.759834 0.000000
#
# Coordination Sequence:
#
# PCOD8209294 Si02
#       8
#     8   8   8   8   8   8   8   8
#     4  10  21  34  48  70 102 139 180 221 269 318
#     4  10  19  33  53  77 104 137 176 222 268 317
#     4  10  20  34  53  80 113 145 179 218 261 313
#     4   9  17  30  51  78 105 136 174 217 266 316
#     4   9  18  32  52  80 110 138 171 213 261 315
#     4  11  21  34  56  83 109 139 176 218 267 317
#     4   9  17  30  48  71 101 136 173 213 258 313
#     4  12  25  40  57  78 109 146 184 224 266 316
#
# _framework density 17.823841000000002
#
# number of rings (size 3 to 8) (size 9 to 14) (size 15 to 20)
#    0.000    2.000    2.500    1.875    0.000    2.750 
#    0.000    0.000    0.000    0.750    0.000    0.000 
#    0.000    0.000    0.000    0.000    0.000    0.000 
#
# Total GULP energy -793459.914140 kJ/mol
# GULP energy per Si atom -12397.811158 kJ/mol
# Density = 1.778327 g / cm^3
# Si number density = 17.823841 Si / 1000 Ang^3
#
#
#
# Elastic Constant Matrix: (Units=GPa)
#
#
# Indices 1 2 3 4 5 6 
#
# 1 68.7920 32.8583 38.2618 0.0000 0.0000 0.0000
# 2 32.8583 98.0517 53.1750 0.0000 0.0000 0.0000
# 3 38.2618 53.1750 106.8323 0.0000 0.0000 0.0000
# 4 0.0000 0.0000 0.0000 19.9503 0.0000 0.0000
# 5 0.0000 0.0000 0.0000 0.0000 28.7739 0.0000
# 6 0.0000 0.0000 0.0000 0.0000 0.0000 20.4399
#
#
#
# Elastic Compliance Matrix: (Units=1/GPa)
#
#
# Indices 1 2 3 4 5 6 
#
# 1 0.019076 -0.003681 -0.005000 0.000000 0.000000 0.000000
# 2 -0.003681 0.014680 -0.005988 0.000000 0.000000 0.000000
# 3 -0.005000 -0.005988 0.014132 0.000000 0.000000 0.000000
# 4 0.000000 0.000000 0.000000 0.050124 0.000000 0.000000
# 5 0.000000 0.000000 0.000000 0.000000 0.034754 0.000000
# 6 0.000000 0.000000 0.000000 0.000000 0.000000 0.048924
#
#
# Mechanical properties :
#
#
# Convention : Reuss Voigt Hill
#
# Bulk Modulus (GPa) = 53.91145 58.02959 55.97052
# Shear Modulus (GPa) = 23.01914 23.79158 23.40536
#
# Velocity S-wave (km/s) = 3.59762 3.65748 3.62767
# Velocity P-wave (km/s) = 6.89707 7.10381 7.00121
#
# Compressibility (1/GPa) = 0.01854893
#
# Stress axis : x y z
#
# Youngs Moduli (GPa) = 52.42297 68.12043 70.76246
#
# Poissons Ratio (x) = 0.25076 0.35379
# Poissons Ratio (y) = 0.19297 0.42376
# Poissons Ratio (z) = 0.26210 0.40793
#
# Static dielectric constant tensor:
#      x y z
#    x 3.287120 0.000000 0.000000 
#    y 0.000000 3.733640 0.000000 
#    z 0.000000 0.000000 3.096500 
# 
# 
# High freq. dielectric constant tensor:
#      x y z
#    x 1.691250 0.000000 0.000000 
#    y 0.000000 1.698090 0.000000 
#    z 0.000000 0.000000 1.658110 
# 
# From -- ./inp_files/28415.got.cif
#   From: 2010.03.12/outbox.cif.g09.slc.cpg/sg51_15_cif.got.tgz:28415.got - 2010.04.16 13:43:02.
