data_PCOD8209409
_publ_section_title
;
Structure prediction by ZEFSAII (Michael W. Deem and Ramdas Pophale) SiO2 
 PCOD8209409
Probable space group: P M M A
;
_chemical_formula_sum "Si O2"
_cell_formula_units_Z 48
_cell_length_a 8.729003
_cell_length_b 30.778670
_cell_length_c 9.147219
_cell_angle_alpha 90.000000
_cell_angle_beta 90.000000
_cell_angle_gamma 90.000000
_cell_volume 2457.556827
_symmetry_space_group_name_H-M "P M M A"
_symmetry_group_IT_number 51
_symmetry_cell_setting 'orthorhombic'
loop_
_space_group_symop_operation_xyz
x,y,z
1/2-x,-y,z
1/2+x,-y,-z
-x,y,-z
-x,-y,-z
1/2+x,y,-z
1/2-x,y,z
x,-y,z
loop_
_atom_site_type_symbol
_atom_site_label
_atom_site_fract_x
_atom_site_fract_y
_atom_site_fract_z
Si Si1 0.068536 0.782358 0.658975
Si Si2 0.571353 0.294632 0.842119
Si Si3 0.568076 0.859657 0.838159
Si Si4 0.929652 0.450113 0.152122
Si Si5 0.070767 0.045783 0.157740
Si Si6 0.927120 0.379360 0.653287
O O1 0.250000 0.784187 0.648000
O O2 0.000000 0.774656 0.500000
O O3 0.018805 0.743031 0.760770
O O4 0.006933 0.827028 0.724858
O O5 0.750000 0.282335 0.851036
O O6 0.543688 0.339826 0.761821
O O7 0.500000 0.300010 0.000000
O O8 0.750000 0.852130 0.845893
O O9 0.524114 0.907773 0.772032
O O10 0.500000 0.852612 0.000000
O O11 0.750000 0.443404 0.142292
O O12 0.975388 0.500000 0.180505
O O13 0.994920 0.422707 0.285870
O O14 0.000000 0.433343 0.000000
O O15 0.250000 0.046404 0.135551
O O16 0.023276 0.000000 0.241350
O O17 0.000000 0.044121 0.000000
O O18 0.750000 0.389286 0.630414
O O19 0.000000 0.366279 0.500000
#
# Coordination Sequence:
#
# PCOD8209409 Si02
#       6
#     8   8   8   8   8   8
#     4  12  25  41  60  82 111 146 185 230 281 336
#     4  11  24  42  64  90 117 148 187 230 279 333
#     4  10  19  33  54  81 113 147 185 229 276 328
#     4  10  21  38  61  88 119 156 198 243 289 338
#     4   8  14  25  44  72 105 140 178 222 271 321
#     4  11  24  40  61  88 120 156 193 236 285 339
#
# _framework density 19.531594999999999
#
# number of rings (size 3 to 8) (size 9 to 14) (size 15 to 20)
#    0.000    1.667    0.000    5.000    0.000    7.333 
#    0.000    0.000    0.000    0.500    0.000    0.000 
#    0.000    0.000    0.000    0.000    0.000    0.000 
#
# Total GULP energy -595002.046794 kJ/mol
# GULP energy per Si atom -12395.875975 kJ/mol
# Density = 1.948714 g / cm^3
# Si number density = 19.531595 Si / 1000 Ang^3
#
#
#
# Elastic Constant Matrix: (Units=GPa)
#
#
# Indices 1 2 3 4 5 6 
#
# 1 113.2517 58.8641 50.9647 0.0000 0.0000 0.0000
# 2 58.8641 115.4117 45.0668 0.0000 0.0000 0.0000
# 3 50.9647 45.0668 109.7798 0.0000 0.0000 0.0000
# 4 0.0000 0.0000 0.0000 -24.2647 0.0000 0.0000
# 5 0.0000 0.0000 0.0000 0.0000 33.3815 0.0000
# 6 0.0000 0.0000 0.0000 0.0000 0.0000 15.2114
#
#
#
# Elastic Compliance Matrix: (Units=1/GPa)
#
#
# Indices 1 2 3 4 5 6 
#
# 1 0.013380 -0.005239 -0.004061 0.000000 0.000000 0.000000
# 2 -0.005239 0.012370 -0.002646 0.000000 0.000000 0.000000
# 3 -0.004061 -0.002646 0.012081 0.000000 0.000000 0.000000
# 4 0.000000 0.000000 0.000000 -0.041212 0.000000 0.000000
# 5 0.000000 0.000000 0.000000 0.000000 0.029957 0.000000
# 6 0.000000 0.000000 0.000000 0.000000 0.000000 0.065740
#
#
# Mechanical properties :
#
#
# Convention : Reuss Voigt Hill
#
# Bulk Modulus (GPa) = 71.74017 72.02604 71.88310
# Shear Modulus (GPa) = 41.37241 17.10215 29.23728
#
# Velocity S-wave (km/s) = 4.60742 2.96229 3.87321
# Velocity P-wave (km/s) = 8.06935 6.97545 7.54226
#
# Compressibility (1/GPa) = 0.01393919
#
# Stress axis : x y z
#
# Youngs Moduli (GPa) = 74.73670 80.84243 82.77615
#
# Poissons Ratio (x) = 0.42350 0.33617
# Poissons Ratio (y) = 0.39152 0.21903
# Poissons Ratio (z) = 0.30352 0.21391
#
# Static dielectric constant tensor:
#      x y z
#    x 3.729600 0.000000 0.000000 
#    y 0.000000 4.175030 0.000000 
#    z 0.000000 0.000000 3.367320 
# 
# 
# High freq. dielectric constant tensor:
#      x y z
#    x 1.776280 0.000000 0.000000 
#    y 0.000000 1.788360 0.000000 
#    z 0.000000 0.000000 1.738230 
# 
# From -- ./inp_files/6019.got.cif
#   From: 2010.03.12/outbox.cif.g09.slc.cpg/sg51_4_cif.got.tgz:6019.got - 2010.04.16 13:43:02.
