data_PCOD8209089
_publ_section_title
;
Structure prediction by ZEFSAII (Michael W. Deem and Ramdas Pophale) SiO2 
 PCOD8209089
Probable space group: P M M A
;
_chemical_formula_sum "Si O2"
_cell_formula_units_Z 48
_cell_length_a 8.703584
_cell_length_b 20.439357
_cell_length_c 14.413082
_cell_angle_alpha 90.000000
_cell_angle_beta 90.000000
_cell_angle_gamma 90.000000
_cell_volume 2564.024743
_symmetry_space_group_name_H-M "P M M A"
_symmetry_group_IT_number 51
_symmetry_cell_setting 'orthorhombic'
loop_
_space_group_symop_operation_xyz
x,y,z
1/2-x,-y,z
1/2+x,-y,-z
-x,y,-z
-x,-y,-z
1/2+x,y,-z
1/2-x,y,z
x,-y,z
loop_
_atom_site_type_symbol
_atom_site_label
_atom_site_fract_x
_atom_site_fract_y
_atom_site_fract_z
Si Si1 0.074504 0.073997 0.718433
Si Si2 0.572689 0.304438 0.289657
Si Si3 0.568286 0.882527 0.903716
Si Si4 0.568906 0.427303 0.402743
Si Si5 0.069218 0.186885 0.399291
Si Si6 0.427772 0.741526 0.908507
O O1 0.250000 0.097521 0.729610
O O2 0.994087 0.075486 0.818411
O O3 0.992616 0.119818 0.643817
O O4 0.065029 0.000000 0.680574
O O5 0.750000 0.291181 0.316284
O O6 0.516405 0.375213 0.325438
O O7 0.471406 0.247546 0.333714
O O8 0.550604 0.306272 0.178770
O O9 0.750000 0.888056 0.906736
O O10 0.518531 0.807928 0.888287
O O11 0.500000 0.910443 0.000000
O O12 0.500000 0.403983 0.500000
O O13 0.750000 0.428302 0.413247
O O14 0.508130 0.500000 0.375669
O O15 0.250000 0.181099 0.408242
O O16 0.000000 0.199125 0.500000
O O17 0.250000 0.758526 0.926169
O O18 0.500000 0.707233 0.000000
#
# Coordination Sequence:
#
# PCOD8209089 Si02
#       6
#     8   8   8   8   8   8
#     4  11  24  42  61  81 109 144 183 230 281 334
#     4  10  20  35  57  83 113 147 184 230 277 326
#     4  11  21  35  57  83 112 145 182 226 278 333
#     4   9  18  33  53  80 113 149 187 226 274 329
#     4  12  25  40  60  83 110 143 183 230 278 332
#     4  10  19  32  53  79 111 144 182 228 276 327
#
# _framework density 18.720566999999999
#
# number of rings (size 3 to 8) (size 9 to 14) (size 15 to 20)
#    0.000    1.500    1.667    5.500    0.000    4.667 
#    0.000    0.000    0.000    0.500    0.000    0.000 
#    0.000    0.000    0.000    0.000    0.000    0.667 
#
# Total GULP energy -595303.482494 kJ/mol
# GULP energy per Si atom -12402.155885 kJ/mol
# Density = 1.867796 g / cm^3
# Si number density = 18.720567 Si / 1000 Ang^3
#
#
#
# Elastic Constant Matrix: (Units=GPa)
#
#
# Indices 1 2 3 4 5 6 
#
# 1 127.7441 36.5843 45.7731 0.0000 0.0000 0.0000
# 2 36.5843 93.7835 50.3633 0.0000 0.0000 0.0000
# 3 45.7731 50.3633 117.4844 0.0000 0.0000 0.0000
# 4 0.0000 0.0000 0.0000 27.3233 0.0000 0.0000
# 5 0.0000 0.0000 0.0000 0.0000 34.1442 0.0000
# 6 0.0000 0.0000 0.0000 0.0000 0.0000 13.9949
#
#
#
# Elastic Compliance Matrix: (Units=1/GPa)
#
#
# Indices 1 2 3 4 5 6 
#
# 1 0.009441 -0.002218 -0.002727 0.000000 0.000000 0.000000
# 2 -0.002218 0.014373 -0.005297 0.000000 0.000000 0.000000
# 3 -0.002727 -0.005297 0.011845 0.000000 0.000000 0.000000
# 4 0.000000 0.000000 0.000000 0.036599 0.000000 0.000000
# 5 0.000000 0.000000 0.000000 0.000000 0.029288 0.000000
# 6 0.000000 0.000000 0.000000 0.000000 0.000000 0.071454
#
#
# Mechanical properties :
#
#
# Convention : Reuss Voigt Hill
#
# Bulk Modulus (GPa) = 65.90462 67.16147 66.53305
# Shear Modulus (GPa) = 25.18356 28.84525 27.01441
#
# Velocity S-wave (km/s) = 3.67172 3.92960 3.80285
# Velocity P-wave (km/s) = 7.29769 7.51949 7.40942
#
# Compressibility (1/GPa) = 0.01517344
#
# Stress axis : x y z
#
# Youngs Moduli (GPa) = 105.92505 69.57599 84.42288
#
# Poissons Ratio (x) = 0.15433 0.23025
# Poissons Ratio (y) = 0.23495 0.44720
# Poissons Ratio (z) = 0.28889 0.36855
#
# Static dielectric constant tensor:
#      x y z
#    x 3.527500 0.000000 0.000000 
#    y 0.000000 3.432110 0.000000 
#    z 0.000000 0.000000 3.678770 
# 
# 
# High freq. dielectric constant tensor:
#      x y z
#    x 1.737490 0.000000 0.000000 
#    y 0.000000 1.707580 0.000000 
#    z 0.000000 0.000000 1.732370 
# 
# From -- ./inp_files/21385.got.cif
#   From: 2010.03.12/outbox.cif.g09.slc.cpg/sg51_11_cif.got.tgz:21385.got - 2010.04.16 13:43:02.
