data_PCOD8209932
_publ_section_title
;
Structure prediction by ZEFSAII (Michael W. Deem and Ramdas Pophale) SiO2 
 PCOD8209932
Probable space group: P M M A
;
_chemical_formula_sum "Si O2"
_cell_formula_units_Z 48
_cell_length_a 28.002555
_cell_length_b 8.875269
_cell_length_c 10.277592
_cell_angle_alpha 90.000000
_cell_angle_beta 90.000000
_cell_angle_gamma 90.000000
_cell_volume 2554.292081
_symmetry_space_group_name_H-M "P M M A"
_symmetry_group_IT_number 51
_symmetry_cell_setting 'orthorhombic'
loop_
_space_group_symop_operation_xyz
x,y,z
1/2-x,-y,z
1/2+x,-y,-z
-x,y,-z
-x,-y,-z
1/2+x,y,-z
1/2-x,y,z
x,-y,z
loop_
_atom_site_type_symbol
_atom_site_label
_atom_site_fract_x
_atom_site_fract_y
_atom_site_fract_z
Si Si1 0.195742 0.676429 0.639398
Si Si2 0.552923 0.178663 0.509723
Si Si3 0.896670 0.175467 0.772878
Si Si4 0.555010 0.322885 0.015328
Si Si5 0.803580 0.827198 0.631446
Si Si6 0.392468 0.178396 0.743661
O O1 0.250000 0.721431 0.674577
O O2 0.187370 0.500000 0.649880
O O3 0.183675 0.726576 0.492676
O O4 0.161540 0.758281 0.743811
O O5 0.500000 0.247778 0.500000
O O6 0.575869 0.231320 0.644504
O O7 0.583437 0.239058 0.388691
O O8 0.551311 0.000000 0.502934
O O9 0.840214 0.205685 0.749184
O O10 0.906757 0.000000 0.803355
O O11 0.914510 0.276942 0.890137
O O12 0.559217 0.500000 0.036833
O O13 0.576747 0.238989 0.137978
O O14 0.500000 0.272332 0.000000
O O15 0.750000 0.794325 0.682710
O O16 0.809535 0.000000 0.585289
O O17 0.390879 0.000000 0.753594
#
# Coordination Sequence:
#
# PCOD8209932 Si02
#       6
#     8   8   8   8   8   8
#     4  10  20  34  55  85 121 156 187 227 284 344
#     4   9  17  30  52  83 112 136 178 238 288 332
#     4  10  19  35  57  83 112 147 191 236 286 339
#     4  11  25  42  57  79 115 156 194 235 289 351
#     4   9  17  32  56  85 115 146 186 235 281 332
#     4  11  21  37  61  86 112 149 194 241 288 337
#
# _framework density 18.791899999999998
#
# number of rings (size 3 to 8) (size 9 to 14) (size 15 to 20)
#    0.000    2.000    1.667    2.500    0.000    4.333 
#    0.000    0.833    0.000    6.500    0.000    0.000 
#    0.000    0.000    0.000    0.000    0.000    0.000 
#
# Total GULP energy -595256.078035 kJ/mol
# GULP energy per Si atom -12401.168292 kJ/mol
# Density = 1.874913 g / cm^3
# Si number density = 18.791900 Si / 1000 Ang^3
#
#
#
# Elastic Constant Matrix: (Units=GPa)
#
#
# Indices 1 2 3 4 5 6 
#
# 1 137.4742 48.1586 44.9901 0.0000 0.0000 0.0000
# 2 48.1586 66.5466 37.4664 0.0000 0.0000 0.0000
# 3 44.9901 37.4664 87.8074 0.0000 0.0000 0.0000
# 4 0.0000 0.0000 0.0000 23.7118 0.0000 0.0000
# 5 0.0000 0.0000 0.0000 0.0000 33.8702 0.0000
# 6 0.0000 0.0000 0.0000 0.0000 0.0000 26.3717
#
#
#
# Elastic Compliance Matrix: (Units=1/GPa)
#
#
# Indices 1 2 3 4 5 6 
#
# 1 0.010222 -0.005855 -0.002739 0.000000 0.000000 0.000000
# 2 -0.005855 0.023132 -0.006870 0.000000 0.000000 0.000000
# 3 -0.002739 -0.006870 0.015723 0.000000 0.000000 0.000000
# 4 0.000000 0.000000 0.000000 0.042173 0.000000 0.000000
# 5 0.000000 0.000000 0.000000 0.000000 0.029525 0.000000
# 6 0.000000 0.000000 0.000000 0.000000 0.000000 0.037919
#
#
# Mechanical properties :
#
#
# Convention : Reuss Voigt Hill
#
# Bulk Modulus (GPa) = 55.10067 61.45094 58.27580
# Shear Modulus (GPa) = 25.55289 27.53827 26.54558
#
# Velocity S-wave (km/s) = 3.69152 3.83225 3.76254
# Velocity P-wave (km/s) = 6.89601 7.23556 7.06782
#
# Compressibility (1/GPa) = 0.01814860
#
# Stress axis : x y z
#
# Youngs Moduli (GPa) = 97.83256 43.22947 63.59950
#
# Poissons Ratio (x) = 0.25311 0.17419
# Poissons Ratio (y) = 0.57282 0.43695
# Poissons Ratio (z) = 0.26796 0.29700
#
# Static dielectric constant tensor:
#      x y z
#    x 3.902340 0.000000 0.000000 
#    y 0.000000 3.284450 0.000000 
#    z 0.000000 0.000000 3.378880 
# 
# 
# High freq. dielectric constant tensor:
#      x y z
#    x 1.750780 0.000000 0.000000 
#    y 0.000000 1.715530 0.000000 
#    z 0.000000 0.000000 1.711300 
# 
# From -- ./inp_files/12827.got.cif
#   From: 2010.03.12/outbox.cif.g09.slc.cpg/sg51_7_cif.got.tgz:12827.got - 2010.04.16 13:43:02.
