data_PCOD8209662
_publ_section_title
;
Structure prediction by ZEFSAII (Michael W. Deem and Ramdas Pophale) SiO2 
 PCOD8209662
Probable space group: P M M A
;
_chemical_formula_sum "Si O2"
_cell_formula_units_Z 48
_cell_length_a 16.240428
_cell_length_b 14.355930
_cell_length_c 10.086687
_cell_angle_alpha 90.000000
_cell_angle_beta 90.000000
_cell_angle_gamma 90.000000
_cell_volume 2351.675241
_symmetry_space_group_name_H-M "P M M A"
_symmetry_group_IT_number 51
_symmetry_cell_setting 'orthorhombic'
loop_
_space_group_symop_operation_xyz
x,y,z
1/2-x,-y,z
1/2+x,-y,-z
-x,y,-z
-x,-y,-z
1/2+x,y,-z
1/2-x,y,z
x,-y,z
loop_
_atom_site_type_symbol
_atom_site_label
_atom_site_fract_x
_atom_site_fract_y
_atom_site_fract_z
Si Si1 0.915172 0.103011 0.238444
Si Si2 0.901015 0.202337 0.497134
Si Si3 0.908447 0.399512 0.443734
Si Si4 0.345165 0.603740 0.843222
Si Si5 0.109198 0.895533 0.244274
Si Si6 0.655712 0.785956 0.008098
O O1 0.872566 0.161577 0.355732
O O2 0.898430 0.146553 0.096690
O O3 0.012205 0.098838 0.252729
O O4 0.877376 0.000000 0.243575
O O5 0.866759 0.308819 0.511184
O O6 0.860407 0.139885 0.611932
O O7 0.000000 0.203075 0.500000
O O8 0.864492 0.500000 0.474766
O O9 0.904604 0.382312 0.284316
O O10 0.000000 0.406308 0.500000
O O11 0.250000 0.616521 0.798040
O O12 0.358662 0.500000 0.902930
O O13 0.368231 0.678320 0.958872
O O14 0.144901 0.000000 0.214683
O O15 0.138579 0.816260 0.142320
O O16 0.750000 0.803013 0.043135
#
# Coordination Sequence:
#
# PCOD8209662 Si02
#       6
#     8   8   8   8   8   8
#     4  10  19  34  56  79 103 139 187 227 263 319
#     4   9  17  32  54  80 105 137 175 222 268 319
#     4   9  16  29  53  83 110 136 173 226 279 318
#     4   9  18  34  56  80 108 144 183 223 271 330
#     4  10  21  36  54  77 109 147 181 220 274 325
#     4  11  22  36  54  78 107 142 181 221 268 320
#
# _framework density 20.410982000000001
#
# number of rings (size 3 to 8) (size 9 to 14) (size 15 to 20)
#    0.000    2.333    1.667    1.500    0.000    4.667 
#    0.000    2.500    0.000    5.000    0.000    0.000 
#    0.000    0.000    0.000    0.000    0.000    0.000 
#
# Total GULP energy -594690.530855 kJ/mol
# GULP energy per Si atom -12389.386059 kJ/mol
# Density = 2.036453 g / cm^3
# Si number density = 20.410982 Si / 1000 Ang^3
#
#
#
# Elastic Constant Matrix: (Units=GPa)
#
#
# Indices 1 2 3 4 5 6 
#
# 1 13.5193 22.7726 12.6944 0.0000 0.0000 0.0000
# 2 22.7726 183.0500 44.6162 0.0000 0.0000 0.0000
# 3 12.6944 44.6162 74.5431 0.0000 0.0000 0.0000
# 4 0.0000 0.0000 0.0000 36.6338 0.0000 0.0000
# 5 0.0000 0.0000 0.0000 0.0000 7.2041 0.0000
# 6 0.0000 0.0000 0.0000 0.0000 0.0000 15.6831
#
#
#
# Elastic Compliance Matrix: (Units=1/GPa)
#
#
# Indices 1 2 3 4 5 6 
#
# 1 0.101167 -0.009819 -0.011351 0.000000 0.000000 0.000000
# 2 -0.009819 0.007349 -0.002727 0.000000 0.000000 0.000000
# 3 -0.011351 -0.002727 0.016980 0.000000 0.000000 0.000000
# 4 0.000000 0.000000 0.000000 0.027297 0.000000 0.000000
# 5 0.000000 0.000000 0.000000 0.000000 0.138810 0.000000
# 6 0.000000 0.000000 0.000000 0.000000 0.000000 0.063763
#
#
# Mechanical properties :
#
#
# Convention : Reuss Voigt Hill
#
# Bulk Modulus (GPa) = 12.86966 47.91987 30.39477
# Shear Modulus (GPa) = 11.65339 24.63949 18.14644
#
# Velocity S-wave (km/s) = 2.39202 3.47820 2.98493
# Velocity P-wave (km/s) = 3.73470 6.29754 5.17721
#
# Compressibility (1/GPa) = 0.07770212
#
# Stress axis : x y z
#
# Youngs Moduli (GPa) = 9.88467 136.07128 58.89270
#
# Poissons Ratio (x) = 1.33609 0.66851
# Poissons Ratio (y) = 0.09706 0.16057
# Poissons Ratio (z) = 0.11220 0.37100
#
# Static dielectric constant tensor:
#      x y z
#    x 3.301280 0.000000 0.000000 
#    y 0.000000 4.428360 0.000000 
#    z 0.000000 0.000000 3.632890 
# 
# 
# High freq. dielectric constant tensor:
#      x y z
#    x 1.754240 0.000000 0.000000 
#    y 0.000000 1.825940 0.000000 
#    z 0.000000 0.000000 1.782200 
# 
# From -- ./inp_files/9617.got.cif
#   From: 2010.03.12/outbox.cif.g09.slc.cpg/sg51_5_cif.got.tgz:9617.got - 2010.04.16 13:43:02.
