data_PCOD8209130
_publ_section_title
;
Structure prediction by ZEFSAII (Michael W. Deem and Ramdas Pophale) SiO2 
 PCOD8209130
Probable space group: P M M A
;
_chemical_formula_sum "Si O2"
_cell_formula_units_Z 64
_cell_length_a 14.427604
_cell_length_b 9.075682
_cell_length_c 24.817994
_cell_angle_alpha 90.000000
_cell_angle_beta 90.000000
_cell_angle_gamma 90.000000
_cell_volume 3249.676720
_symmetry_space_group_name_H-M "P M M A"
_symmetry_group_IT_number 51
_symmetry_cell_setting 'orthorhombic'
loop_
_space_group_symop_operation_xyz
x,y,z
1/2-x,-y,z
1/2+x,-y,-z
-x,y,-z
-x,-y,-z
1/2+x,y,-z
1/2-x,y,z
x,-y,z
loop_
_atom_site_type_symbol
_atom_site_label
_atom_site_fract_x
_atom_site_fract_y
_atom_site_fract_z
Si Si1 0.144341 0.831434 0.969422
Si Si2 0.853184 0.171185 0.628241
Si Si3 0.858185 0.826496 0.214702
Si Si4 0.854366 0.171018 0.904546
Si Si5 0.035432 0.173056 0.681137
Si Si6 0.463984 0.674462 0.880647
Si Si7 0.895120 0.333349 0.517961
Si Si8 0.851077 0.163317 0.416903
O O1 0.250000 0.803071 0.950857
O O2 0.074893 0.722858 0.938757
O O3 0.116279 0.000000 0.956518
O O4 0.133843 0.798950 0.032291
O O5 0.750000 0.212710 0.648540
O O6 0.878365 0.257690 0.574717
O O7 0.925510 0.209521 0.676562
O O8 0.860488 0.000000 0.613469
O O9 0.750000 0.791103 0.224122
O O10 0.918437 0.762645 0.264866
O O11 0.894268 0.741563 0.162807
O O12 0.874144 0.000000 0.205983
O O13 0.750000 0.217501 0.886566
O O14 0.931067 0.265626 0.872515
O O15 0.870425 0.000000 0.891153
O O16 0.082593 0.240780 0.627273
O O17 0.056266 0.000000 0.681061
O O18 0.465240 0.500000 0.875793
O O19 0.860861 0.500000 0.523349
O O20 0.837828 0.255607 0.471143
O O21 0.000000 0.320440 0.500000
O O22 0.750000 0.151936 0.389802
O O23 0.888926 0.000000 0.431771
#
# Coordination Sequence:
#
# PCOD8209130 Si02
#       8
#     8   8   8   8   8   8   8   8
#     4   9  18  34  57  84 114 150 193 238 280 327
#     4  10  20  35  57  82 107 138 175 217 270 327
#     4  10  21  39  62  83 105 140 186 233 281 332
#     4   9  19  37  60  84 111 148 194 238 278 324
#     4   9  18  35  58  81 104 130 172 231 279 316
#     4  12  24  35  52  82 119 155 187 227 282 339
#     4  11  22  34  49  74 109 147 180 210 251 311
#     4  10  19  32  54  80 103 132 170 214 269 321
#
# _framework density 19.694267
#
# number of rings (size 3 to 8) (size 9 to 14) (size 15 to 20)
#    0.000    2.000    1.250    3.750    0.000    8.250 
#    0.000    3.125    0.000    3.750    0.000    0.000 
#    0.000    0.000    0.000    0.000    0.000    0.000 
#
# Total GULP energy -793435.774470 kJ/mol
# GULP energy per Si atom -12397.433976 kJ/mol
# Density = 1.964944 g / cm^3
# Si number density = 19.694267 Si / 1000 Ang^3
#
#
#
# Elastic Constant Matrix: (Units=GPa)
#
#
# Indices 1 2 3 4 5 6 
#
# 1 138.9983 49.5333 41.3476 0.0000 0.0000 0.0000
# 2 49.5333 78.8300 32.1123 0.0000 0.0000 0.0000
# 3 41.3476 32.1123 63.3757 0.0000 0.0000 0.0000
# 4 0.0000 0.0000 0.0000 -5.7416 0.0000 0.0000
# 5 0.0000 0.0000 0.0000 0.0000 30.9933 0.0000
# 6 0.0000 0.0000 0.0000 0.0000 0.0000 10.9933
#
#
#
# Elastic Compliance Matrix: (Units=1/GPa)
#
#
# Indices 1 2 3 4 5 6 
#
# 1 0.010105 -0.004617 -0.004253 0.000000 0.000000 0.000000
# 2 -0.004617 0.018094 -0.006156 0.000000 0.000000 0.000000
# 3 -0.004253 -0.006156 0.021673 0.000000 0.000000 0.000000
# 4 0.000000 0.000000 0.000000 -0.174169 0.000000 0.000000
# 5 0.000000 0.000000 0.000000 0.000000 0.032265 0.000000
# 6 0.000000 0.000000 0.000000 0.000000 0.000000 0.090965
#
#
# Mechanical properties :
#
#
# Convention : Reuss Voigt Hill
#
# Bulk Modulus (GPa) = 50.45486 58.57672 54.51579
# Shear Modulus (GPa) = 140.48010 17.79640 79.13825
#
# Velocity S-wave (km/s) = 8.45490 3.00931 6.34591
# Velocity P-wave (km/s) = 10.99947 6.47165 9.02415
#
# Compressibility (1/GPa) = 0.01981970
#
# Stress axis : x y z
#
# Youngs Moduli (GPa) = 98.96313 55.26587 46.13998
#
# Poissons Ratio (x) = 0.25515 0.19624
# Poissons Ratio (y) = 0.45689 0.28405
# Poissons Ratio (z) = 0.42091 0.34023
#
# Static dielectric constant tensor:
#      x y z
#    x 3.587930 0.000000 0.000000 
#    y 0.000000 3.351360 0.000000 
#    z 0.000000 0.000000 3.462580 
# 
# 
# High freq. dielectric constant tensor:
#      x y z
#    x 1.790190 0.000000 0.000000 
#    y 0.000000 1.735740 0.000000 
#    z 0.000000 0.000000 1.745800 
# 
# From -- ./inp_files/35687.got.cif
#   From: 2010.03.12/outbox.cif.g09.slc.cpg/sg51_18_cif.got.tgz:35687.got - 2010.04.16 13:43:02.
