data_PCOD8209580
_publ_section_title
;
Structure prediction by ZEFSAII (Michael W. Deem and Ramdas Pophale) SiO2 
 PCOD8209580
Probable space group: P M M A
;
_chemical_formula_sum "Si O2"
_cell_formula_units_Z 64
_cell_length_a 29.631241
_cell_length_b 8.717370
_cell_length_c 13.156406
_cell_angle_alpha 90.000000
_cell_angle_beta 90.000000
_cell_angle_gamma 90.000000
_cell_volume 3398.385073
_symmetry_space_group_name_H-M "P M M A"
_symmetry_group_IT_number 51
_symmetry_cell_setting 'orthorhombic'
loop_
_space_group_symop_operation_xyz
x,y,z
1/2-x,-y,z
1/2+x,-y,-z
-x,y,-z
-x,-y,-z
1/2+x,y,-z
1/2-x,y,z
x,-y,z
loop_
_atom_site_type_symbol
_atom_site_label
_atom_site_fract_x
_atom_site_fract_y
_atom_site_fract_z
Si Si1 0.301725 0.181342 0.585377
Si Si2 0.120131 0.182343 0.182767
Si Si3 0.136803 0.175111 0.407729
Si Si4 0.301489 0.681129 0.797274
Si Si5 0.040717 0.178355 0.923812
Si Si6 0.135239 0.319151 0.979297
Si Si7 0.525906 0.322588 0.788032
Si Si8 0.464057 0.827003 0.414704
O O1 0.250000 0.229456 0.569144
O O2 0.329134 0.252813 0.488964
O O3 0.320061 0.249192 0.691610
O O4 0.308389 0.000000 0.590916
O O5 0.138252 0.245756 0.292405
O O6 0.069031 0.238449 0.161922
O O7 0.119872 0.000000 0.182253
O O8 0.149680 0.245425 0.088331
O O9 0.086909 0.190305 0.455946
O O10 0.151777 0.000000 0.395838
O O11 0.250000 0.734278 0.816001
O O12 0.305366 0.500000 0.788445
O O13 0.331156 0.742638 0.891684
O O14 0.084694 0.273513 0.951195
O O15 0.021140 0.241417 0.817969
O O16 0.053415 0.000000 0.918345
O O17 0.000000 0.214494 0.000000
O O18 0.139250 0.500000 0.990295
O O19 0.526485 0.500000 0.819483
O O20 0.528132 0.303683 0.667669
O O21 0.500000 0.793530 0.500000
O O22 0.469723 0.000000 0.369551
#
# Coordination Sequence:
#
# PCOD8209580 Si02
#       8
#     8   8   8   8   8   8   8   8
#     4   9  17  32  56  82 105 133 174 222 267 313
#     4  10  19  34  53  74 104 143 180 215 265 324
#     4   8  16  31  51  74 101 132 168 213 262 311
#     4   9  20  39  58  78 109 145 176 214 272 331
#     4  11  22  35  53  76 105 142 180 219 265 320
#     4  11  22  35  55  81 108 142 184 229 274 318
#     4  11  21  33  51  74 105 140 176 221 265 311
#     4   9  18  33  51  70  98 139 180 215 260 318
#
# _framework density 18.832474000000001
#
# number of rings (size 3 to 8) (size 9 to 14) (size 15 to 20)
#    0.000    2.250    1.250    3.000    0.000    2.750 
#    0.000    5.000    0.000    0.750    0.000    0.000 
#    0.000    0.000    0.000    0.000    0.000    0.000 
#
# Total GULP energy -793293.166771 kJ/mol
# GULP energy per Si atom -12395.205731 kJ/mol
# Density = 1.878961 g / cm^3
# Si number density = 18.832474 Si / 1000 Ang^3
#
#
#
# Elastic Constant Matrix: (Units=GPa)
#
#
# Indices 1 2 3 4 5 6 
#
# 1 78.1552 18.2420 75.9761 0.0000 0.0000 0.0000
# 2 18.2420 35.0207 21.5832 0.0000 0.0000 0.0000
# 3 75.9761 21.5832 147.8904 0.0000 0.0000 0.0000
# 4 0.0000 0.0000 0.0000 27.7142 0.0000 0.0000
# 5 0.0000 0.0000 0.0000 0.0000 34.1799 0.0000
# 6 0.0000 0.0000 0.0000 0.0000 0.0000 18.9968
#
#
#
# Elastic Compliance Matrix: (Units=1/GPa)
#
#
# Indices 1 2 3 4 5 6 
#
# 1 0.026654 -0.005983 -0.012820 0.000000 0.000000 0.000000
# 2 -0.005983 0.032720 -0.001701 0.000000 0.000000 0.000000
# 3 -0.012820 -0.001701 0.013596 0.000000 0.000000 0.000000
# 4 0.000000 0.000000 0.000000 0.036083 0.000000 0.000000
# 5 0.000000 0.000000 0.000000 0.000000 0.029257 0.000000
# 6 0.000000 0.000000 0.000000 0.000000 0.000000 0.052641
#
#
# Mechanical properties :
#
#
# Convention : Reuss Voigt Hill
#
# Bulk Modulus (GPa) = 31.28807 54.74097 43.01452
# Shear Modulus (GPa) = 20.60906 25.86252 23.23579
#
# Velocity S-wave (km/s) = 3.31166 3.70982 3.51638
# Velocity P-wave (km/s) = 5.59221 6.89063 6.27509
#
# Compressibility (1/GPa) = 0.03196106
#
# Stress axis : x y z
#
# Youngs Moduli (GPa) = 37.51798 30.56271 73.55087
#
# Poissons Ratio (x) = 0.18285 0.94291
# Poissons Ratio (y) = 0.22447 0.12515
# Poissons Ratio (z) = 0.48097 0.05200
#
# Static dielectric constant tensor:
#      x y z
#    x 3.470820 0.000000 0.000000 
#    y 0.000000 3.261520 0.000000 
#    z 0.000000 0.000000 3.811330 
# 
# 
# High freq. dielectric constant tensor:
#      x y z
#    x 1.712100 0.000000 0.000000 
#    y 0.000000 1.716130 0.000000 
#    z 0.000000 0.000000 1.741420 
# 
# From -- ./inp_files/19473.got.cif
#   From: 2010.03.12/outbox.cif.g09.slc.cpg/sg51_10_cif.got.tgz:19473.got - 2010.04.16 13:43:02.
