data_PCOD8209110
_publ_section_title
;
Structure prediction by ZEFSAII (Michael W. Deem and Ramdas Pophale) SiO2 
 PCOD8209110
Probable space group: P M M A
;
_chemical_formula_sum "Si O2"
_cell_formula_units_Z 40
_cell_length_a 17.057456
_cell_length_b 14.252360
_cell_length_c 8.757642
_cell_angle_alpha 90.000000
_cell_angle_beta 90.000000
_cell_angle_gamma 90.000000
_cell_volume 2129.061620
_symmetry_space_group_name_H-M "P M M A"
_symmetry_group_IT_number 51
_symmetry_cell_setting 'orthorhombic'
loop_
_space_group_symop_operation_xyz
x,y,z
1/2-x,-y,z
1/2+x,-y,-z
-x,y,-z
-x,-y,-z
1/2+x,y,-z
1/2-x,y,z
x,-y,z
loop_
_atom_site_type_symbol
_atom_site_label
_atom_site_fract_x
_atom_site_fract_y
_atom_site_fract_z
Si Si1 0.981365 0.610058 0.827025
Si Si2 0.602812 0.893819 0.844562
Si Si3 0.918891 0.894626 0.186128
Si Si4 0.573800 0.736021 0.401082
Si Si5 0.338938 0.712655 0.305891
O O1 0.984416 0.500000 0.798805
O O2 0.894014 0.647303 0.796848
O O3 0.045600 0.655226 0.714611
O O4 0.000000 0.638149 0.000000
O O5 0.511119 0.874175 0.825622
O O6 0.651342 0.821842 0.741140
O O7 0.624171 0.000000 0.794396
O O8 0.623240 0.879402 0.023364
O O9 0.885798 0.821504 0.309299
O O10 0.903239 0.000000 0.244462
O O11 0.500000 0.773293 0.500000
O O12 0.639581 0.697214 0.516088
O O13 0.250000 0.680659 0.279567
#
# Coordination Sequence:
#
# PCOD8209110 Si02
#       5
#     8   8   8   8   8
#     4  10  21  40  65  85 102 133 183 232 271 320
#     4   9  17  31  53  79 109 145 186 228 269 311
#     4   9  16  29  53  81 105 138 190 238 263 301
#     4  10  19  32  53  81 111 141 179 215 266 326
#     4  11  23  36  53  82 118 149 176 217 274 330
#
# _framework density 18.787617999999998
#
# number of rings (size 3 to 8) (size 9 to 14) (size 15 to 20)
#    0.000    2.200    4.000    2.400    0.000    5.600 
#    0.000    4.000    0.000    2.400    0.000    0.000 
#    0.000    0.000    0.000    0.000    0.000    0.000 
#
# Total GULP energy -495961.991482 kJ/mol
# GULP energy per Si atom -12399.049787 kJ/mol
# Density = 1.874486 g / cm^3
# Si number density = 18.787618 Si / 1000 Ang^3
#
#
#
# Elastic Constant Matrix: (Units=GPa)
#
#
# Indices 1 2 3 4 5 6 
#
# 1 83.0075 35.7382 47.4972 0.0000 0.0000 0.0000
# 2 35.7382 97.9952 67.7118 0.0000 0.0000 0.0000
# 3 47.4972 67.7118 125.7296 0.0000 0.0000 0.0000
# 4 0.0000 0.0000 0.0000 19.0575 0.0000 0.0000
# 5 0.0000 0.0000 0.0000 0.0000 14.6157 0.0000
# 6 0.0000 0.0000 0.0000 0.0000 0.0000 10.7711
#
#
#
# Elastic Compliance Matrix: (Units=1/GPa)
#
#
# Indices 1 2 3 4 5 6 
#
# 1 0.015776 -0.002605 -0.004557 0.000000 0.000000 0.000000
# 2 -0.002605 0.016683 -0.008000 0.000000 0.000000 0.000000
# 3 -0.004557 -0.008000 0.013984 0.000000 0.000000 0.000000
# 4 0.000000 0.000000 0.000000 0.052473 0.000000 0.000000
# 5 0.000000 0.000000 0.000000 0.000000 0.068420 0.000000
# 6 0.000000 0.000000 0.000000 0.000000 0.000000 0.092841
#
#
# Mechanical properties :
#
#
# Convention : Reuss Voigt Hill
#
# Bulk Modulus (GPa) = 62.04202 67.62522 64.83362
# Shear Modulus (GPa) = 16.89918 19.27454 18.08686
#
# Velocity S-wave (km/s) = 3.00240 3.20647 3.10611
# Velocity P-wave (km/s) = 6.71667 7.05559 6.88821
#
# Compressibility (1/GPa) = 0.01611811
#
# Stress axis : x y z
#
# Youngs Moduli (GPa) = 63.38715 59.94289 71.51163
#
# Poissons Ratio (x) = 0.15613 0.32588
# Poissons Ratio (y) = 0.16510 0.57212
# Poissons Ratio (z) = 0.28886 0.47957
#
# Static dielectric constant tensor:
#      x y z
#    x 3.020460 0.000000 0.000000 
#    y 0.000000 3.460830 0.000000 
#    z 0.000000 0.000000 3.770610 
# 
# 
# High freq. dielectric constant tensor:
#      x y z
#    x 1.680670 0.000000 0.000000 
#    y 0.000000 1.729910 0.000000 
#    z 0.000000 0.000000 1.740500 
# 
# From -- ./inp_files/9404.got.cif
#   From: 2010.03.12/outbox.cif.g09.slc.cpg/sg51_5_cif.got.tgz:9404.got - 2010.04.16 13:43:02.
