data_PCOD8209679
_publ_section_title
;
Structure prediction by ZEFSAII (Michael W. Deem and Ramdas Pophale) SiO2 
 PCOD8209679
Probable space group: P M M A
;
_chemical_formula_sum "Si O2"
_cell_formula_units_Z 44
_cell_length_a 8.992869
_cell_length_b 28.016837
_cell_length_c 9.657418
_cell_angle_alpha 90.000000
_cell_angle_beta 90.000000
_cell_angle_gamma 90.000000
_cell_volume 2433.203317
_symmetry_space_group_name_H-M "P M M A"
_symmetry_group_IT_number 51
_symmetry_cell_setting 'orthorhombic'
loop_
_space_group_symop_operation_xyz
x,y,z
1/2-x,-y,z
1/2+x,-y,-z
-x,y,-z
-x,-y,-z
1/2+x,y,-z
1/2-x,y,z
x,-y,z
loop_
_atom_site_type_symbol
_atom_site_label
_atom_site_fract_x
_atom_site_fract_y
_atom_site_fract_z
Si Si1 0.426417 0.180190 0.849832
Si Si2 0.581356 0.000000 0.641342
Si Si3 0.574711 0.630152 0.359253
Si Si4 0.423246 0.262125 0.641162
Si Si5 0.926013 0.896031 0.651647
Si Si6 0.575919 0.553322 0.143739
O O1 0.250000 0.172989 0.864660
O O2 0.467110 0.229075 0.770303
O O3 0.495127 0.137459 0.761892
O O4 0.500000 0.182210 0.000000
O O5 0.500000 0.000000 0.500000
O O6 0.545508 0.050454 0.716338
O O7 0.750000 0.000000 0.596712
O O8 0.500000 0.613860 0.500000
O O9 0.750000 0.625924 0.375884
O O10 0.526509 0.684115 0.320038
O O11 0.512735 0.593125 0.247037
O O12 0.500000 0.244020 0.500000
O O13 0.250000 0.259498 0.610083
O O14 0.750000 0.884567 0.639983
O O15 0.000000 0.889835 0.500000
O O16 0.750000 0.559367 0.122433
O O17 0.536996 0.500000 0.198086
O O18 0.500000 0.563949 0.000000
#
# Coordination Sequence:
#
# PCOD8209679 Si02
#       6
#     8   4   8   8   8   8
#     4  11  23  37  52  74 103 135 171 211 255 302
#     4   8  16  30  51  78 105 132 166 206 246 292
#     4   9  18  33  51  73 100 128 161 203 249 296
#     4   9  19  35  54  74  98 129 165 204 248 299
#     4  10  19  34  56  81 107 136 170 208 250 297
#     4   9  18  32  49  70  98 131 166 203 243 290
#
# _framework density 18.083158000000001
#
# number of rings (size 3 to 8) (size 9 to 14) (size 15 to 20)
#    0.000    2.545    0.000    1.636    0.000    5.455 
#    0.000    0.455    0.000    0.000    0.000    0.000 
#    0.000    0.000    0.000    0.000    0.000    0.000 
#
# Total GULP energy -545323.074018 kJ/mol
# GULP energy per Si atom -12393.706228 kJ/mol
# Density = 1.804200 g / cm^3
# Si number density = 18.083158 Si / 1000 Ang^3
#
#
#
# Elastic Constant Matrix: (Units=GPa)
#
#
# Indices 1 2 3 4 5 6 
#
# 1 59.7887 55.7041 57.1780 0.0000 0.0000 0.0000
# 2 55.7041 146.0213 101.6796 0.0000 0.0000 0.0000
# 3 57.1780 101.6796 141.9514 0.0000 0.0000 0.0000
# 4 0.0000 0.0000 0.0000 1.7746 0.0000 0.0000
# 5 0.0000 0.0000 0.0000 0.0000 33.9453 0.0000
# 6 0.0000 0.0000 0.0000 0.0000 0.0000 29.6444
#
#
#
# Elastic Compliance Matrix: (Units=1/GPa)
#
#
# Indices 1 2 3 4 5 6 
#
# 1 0.029598 -0.005964 -0.007650 0.000000 0.000000 0.000000
# 2 -0.005964 0.014865 -0.008246 0.000000 0.000000 0.000000
# 3 -0.007650 -0.008246 0.016032 0.000000 0.000000 0.000000
# 4 0.000000 0.000000 0.000000 0.563493 0.000000 0.000000
# 5 0.000000 0.000000 0.000000 0.000000 0.029459 0.000000
# 6 0.000000 0.000000 0.000000 0.000000 0.000000 0.033733
#
#
# Mechanical properties :
#
#
# Convention : Reuss Voigt Hill
#
# Bulk Modulus (GPa) = 59.60785 86.32056 72.96420
# Shear Modulus (GPa) = 6.78893 21.95285 14.37089
#
# Velocity S-wave (km/s) = 1.93970 3.48802 2.82212
# Velocity P-wave (km/s) = 6.16858 8.00379 7.14535
#
# Compressibility (1/GPa) = 0.01677631
#
# Stress axis : x y z
#
# Youngs Moduli (GPa) = 33.78574 67.27134 62.37365
#
# Poissons Ratio (x) = 0.40121 0.47716
# Poissons Ratio (y) = 0.20150 0.51431
# Poissons Ratio (z) = 0.25846 0.55469
#
# Static dielectric constant tensor:
#      x y z
#    x 3.373810 0.000000 0.000000 
#    y 0.000000 3.816340 0.000000 
#    z 0.000000 0.000000 3.201300 
# 
# 
# High freq. dielectric constant tensor:
#      x y z
#    x 1.704030 0.000000 0.000000 
#    y 0.000000 1.719930 0.000000 
#    z 0.000000 0.000000 1.681230 
# 
# From -- ./inp_files/5700.got.cif
#   From: 2010.03.12/outbox.cif.g09.slc.cpg/sg51_3_cif.got.tgz:5700.got - 2010.04.16 13:43:02.
