data_PCOD8209478
_publ_section_title
;
Structure prediction by ZEFSAII (Michael W. Deem and Ramdas Pophale) SiO2 
 PCOD8209478
Probable space group: P M M A
;
_chemical_formula_sum "Si O2"
_cell_formula_units_Z 40
_cell_length_a 9.264413
_cell_length_b 7.790559
_cell_length_c 28.859273
_cell_angle_alpha 90.000000
_cell_angle_beta 90.000000
_cell_angle_gamma 90.000000
_cell_volume 2082.916761
_symmetry_space_group_name_H-M "P M M A"
_symmetry_group_IT_number 51
_symmetry_cell_setting 'orthorhombic'
loop_
_space_group_symop_operation_xyz
x,y,z
1/2-x,-y,z
1/2+x,-y,-z
-x,y,-z
-x,-y,-z
1/2+x,y,-z
1/2-x,y,z
x,-y,z
loop_
_atom_site_type_symbol
_atom_site_label
_atom_site_fract_x
_atom_site_fract_y
_atom_site_fract_z
Si Si1 0.085011 0.309027 0.112905
Si Si2 0.577751 0.500000 0.548683
Si Si3 0.086804 0.804127 0.801614
Si Si4 0.415349 0.702518 0.286738
Si Si5 0.920250 0.000000 0.951709
Si Si6 0.421009 0.191542 0.387189
O O1 0.250000 0.267279 0.126307
O O2 0.070446 0.500000 0.091163
O O3 0.029289 0.169799 0.075955
O O4 0.994216 0.307172 0.159964
O O5 0.750000 0.500000 0.542223
O O6 0.500000 0.500000 0.500000
O O7 0.522467 0.330930 0.575987
O O8 0.250000 0.735922 0.797088
O O9 0.010590 0.790265 0.752298
O O10 0.083224 0.000000 0.818186
O O11 0.250000 0.762679 0.280590
O O12 0.428206 0.500000 0.283008
O O13 0.479109 0.764210 0.336002
O O14 0.750000 0.000000 0.960673
O O15 0.000000 0.000000 0.000000
O O16 0.250000 0.204306 0.385495
O O17 0.472396 0.000000 0.401797
#
# Coordination Sequence:
#
# PCOD8209478 Si02
#       6
#     8   4   8   8   4   8
#     4  10  21  39  62  86 113 150 195 237 278 332
#     4  10  20  36  56  80 108 140 184 230 277 332
#     4  11  23  36  52  80 118 155 189 229 282 338
#     4  10  19  33  55  82 109 142 187 233 277 331
#     4  10  22  40  62  88 118 150 190 240 287 334
#     4   9  17  32  55  80 107 140 180 228 274 323
#
# _framework density 19.20384
#
# number of rings (size 3 to 8) (size 9 to 14) (size 15 to 20)
#    0.000    2.000    2.000    1.800    0.000    6.800 
#    0.000    1.000    0.000    1.200    0.000    0.000 
#    0.000    0.000    0.000    0.000    0.000    0.000 
#
# Total GULP energy -496052.292529 kJ/mol
# GULP energy per Si atom -12401.307313 kJ/mol
# Density = 1.916013 g / cm^3
# Si number density = 19.203840 Si / 1000 Ang^3
#
#
#
# Elastic Constant Matrix: (Units=GPa)
#
#
# Indices 1 2 3 4 5 6 
#
# 1 64.7504 31.8919 50.2818 0.0000 0.0000 0.0000
# 2 31.8919 126.7132 61.9589 0.0000 0.0000 0.0000
# 3 50.2818 61.9589 151.4526 0.0000 0.0000 0.0000
# 4 0.0000 0.0000 0.0000 29.9999 0.0000 0.0000
# 5 0.0000 0.0000 0.0000 0.0000 32.7382 0.0000
# 6 0.0000 0.0000 0.0000 0.0000 0.0000 13.5479
#
#
#
# Elastic Compliance Matrix: (Units=1/GPa)
#
#
# Indices 1 2 3 4 5 6 
#
# 1 0.021371 -0.002387 -0.006119 0.000000 0.000000 0.000000
# 2 -0.002387 0.010132 -0.003352 0.000000 0.000000 0.000000
# 3 -0.006119 -0.003352 0.010006 0.000000 0.000000 0.000000
# 4 0.000000 0.000000 0.000000 0.033333 0.000000 0.000000
# 5 0.000000 0.000000 0.000000 0.000000 0.030545 0.000000
# 6 0.000000 0.000000 0.000000 0.000000 0.000000 0.073812
#
#
# Mechanical properties :
#
#
# Convention : Reuss Voigt Hill
#
# Bulk Modulus (GPa) = 56.20389 70.13127 63.16758
# Shear Modulus (GPa) = 23.94106 28.50945 26.22526
#
# Velocity S-wave (km/s) = 3.53467 3.85719 3.69945
# Velocity P-wave (km/s) = 6.78152 7.51238 7.15629
#
# Compressibility (1/GPa) = 0.01779236
#
# Stress axis : x y z
#
# Youngs Moduli (GPa) = 46.79244 98.69872 99.94445
#
# Poissons Ratio (x) = 0.23559 0.61152
# Poissons Ratio (y) = 0.11169 0.33506
# Poissons Ratio (z) = 0.28630 0.33088
#
# Static dielectric constant tensor:
#      x y z
#    x 3.269570 0.000000 0.000000 
#    y 0.000000 3.776530 0.000000 
#    z 0.000000 0.000000 3.403730 
# 
# 
# High freq. dielectric constant tensor:
#      x y z
#    x 1.716190 0.000000 0.000000 
#    y 0.000000 1.766040 0.000000 
#    z 0.000000 0.000000 1.741530 
# 
# From -- ./inp_files/36059.got.cif
#   From: 2010.03.12/outbox.cif.g09.slc.cpg/sg51_19_cif.got.tgz:36059.got - 2010.04.16 13:43:02.
