data_PCOD8209989
_publ_section_title
;
Structure prediction by ZEFSAII (Michael W. Deem and Ramdas Pophale) SiO2 
 PCOD8209989
Probable space group: P M M A
;
_chemical_formula_sum "Si O2"
_cell_formula_units_Z 64
_cell_length_a 30.987419
_cell_length_b 8.945793
_cell_length_c 12.010262
_cell_angle_alpha 90.000000
_cell_angle_beta 90.000000
_cell_angle_gamma 90.000000
_cell_volume 3329.329130
_symmetry_space_group_name_H-M "P M M A"
_symmetry_group_IT_number 51
_symmetry_cell_setting 'orthorhombic'
loop_
_space_group_symop_operation_xyz
x,y,z
1/2-x,-y,z
1/2+x,-y,-z
-x,y,-z
-x,-y,-z
1/2+x,y,-z
1/2-x,y,z
x,-y,z
loop_
_atom_site_type_symbol
_atom_site_label
_atom_site_fract_x
_atom_site_fract_y
_atom_site_fract_z
Si Si1 0.624617 0.178069 0.624481
Si Si2 0.297853 0.829388 0.528559
Si Si3 0.297697 0.677350 0.989423
Si Si4 0.877675 0.322172 0.864873
Si Si5 0.588061 0.170581 0.245699
Si Si6 0.546279 0.174219 0.474376
Si Si7 0.049203 0.826787 0.993103
Si Si8 0.823204 0.675446 0.251750
O O1 0.667562 0.232953 0.559656
O O2 0.624073 0.256855 0.742402
O O3 0.583864 0.238713 0.553670
O O4 0.624237 0.000000 0.640534
O O5 0.250000 0.813629 0.476097
O O6 0.297848 0.743342 0.644889
O O7 0.309758 0.000000 0.555632
O O8 0.250000 0.728258 0.031694
O O9 0.301015 0.500000 0.987275
O O10 0.335456 0.740062 0.069282
O O11 0.304300 0.739360 0.864245
O O12 0.877764 0.500000 0.860129
O O13 0.921225 0.268679 0.924539
O O14 0.555373 0.205185 0.345383
O O15 0.626812 0.284738 0.258406
O O16 0.605204 0.000000 0.252825
O O17 0.563267 0.201688 0.132576
O O18 0.500000 0.250416 0.500000
O O19 0.543689 0.000000 0.500909
O O20 0.053068 0.000000 0.027904
O O21 0.000000 0.771116 0.000000
O O22 0.817113 0.500000 0.257362
#
# Coordination Sequence:
#
# PCOD8209989 Si02
#       8
#     8   8   8   8   8   8   8   8
#     4  10  21  38  58  80 111 148 188 233 282 334
#     4  10  21  38  59  84 115 150 189 236 287 335
#     4   9  19  36  56  79 110 149 188 227 277 335
#     4  11  23  39  58  82 115 152 191 237 289 340
#     4  10  19  35  59  86 115 145 186 233 281 334
#     4   9  18  33  58  85 108 141 184 230 277 328
#     4  10  22  38  61  89 116 149 192 238 283 340
#     4  11  20  34  58  86 118 149 184 228 283 341
#
# _framework density 19.223092999999999
#
# number of rings (size 3 to 8) (size 9 to 14) (size 15 to 20)
#    0.000    2.000    2.500    1.125    1.750    2.000 
#    0.000    0.000    0.000    4.125    0.000    0.000 
#    0.000    0.000    0.000    0.000    0.000    0.000 
#
# Total GULP energy -793587.461821 kJ/mol
# GULP energy per Si atom -12399.804091 kJ/mol
# Density = 1.917934 g / cm^3
# Si number density = 19.223093 Si / 1000 Ang^3
#
#
#
# Elastic Constant Matrix: (Units=GPa)
#
#
# Indices 1 2 3 4 5 6 
#
# 1 157.9411 26.7348 68.3663 0.0000 0.0000 0.0000
# 2 26.7348 39.2942 36.2827 0.0000 0.0000 0.0000
# 3 68.3663 36.2827 151.7182 0.0000 0.0000 0.0000
# 4 0.0000 0.0000 0.0000 25.5442 0.0000 0.0000
# 5 0.0000 0.0000 0.0000 0.0000 32.8686 0.0000
# 6 0.0000 0.0000 0.0000 0.0000 0.0000 33.7988
#
#
#
# Elastic Compliance Matrix: (Units=1/GPa)
#
#
# Indices 1 2 3 4 5 6 
#
# 1 0.008090 -0.002744 -0.002989 0.000000 0.000000 0.000000
# 2 -0.002744 0.033592 -0.006797 0.000000 0.000000 0.000000
# 3 -0.002989 -0.006797 0.009564 0.000000 0.000000 0.000000
# 4 0.000000 0.000000 0.000000 0.039148 0.000000 0.000000
# 5 0.000000 0.000000 0.000000 0.000000 0.030424 0.000000
# 6 0.000000 0.000000 0.000000 0.000000 0.000000 0.029587
#
#
# Mechanical properties :
#
#
# Convention : Reuss Voigt Hill
#
# Bulk Modulus (GPa) = 38.18949 67.96901 53.07925
# Shear Modulus (GPa) = 27.14547 32.94696 30.04622
#
# Velocity S-wave (km/s) = 3.76191 4.14445 3.95780
# Velocity P-wave (km/s) = 6.22727 7.63785 6.96834
#
# Compressibility (1/GPa) = 0.02618522
#
# Stress axis : x y z
#
# Youngs Moduli (GPa) = 123.61166 29.76904 104.56348
#
# Poissons Ratio (x) = 0.08169 0.31256
# Poissons Ratio (y) = 0.33919 0.71070
# Poissons Ratio (z) = 0.36950 0.20234
#
# Static dielectric constant tensor:
#      x y z
#    x 3.773140 0.000000 0.000000 
#    y 0.000000 3.217110 0.000000 
#    z 0.000000 0.000000 3.588990 
# 
# 
# High freq. dielectric constant tensor:
#      x y z
#    x 1.764260 0.000000 0.000000 
#    y 0.000000 1.713580 0.000000 
#    z 0.000000 0.000000 1.754470 
# 
# From -- ./inp_files/19545.got.cif
#   From: 2010.03.12/outbox.cif.g09.slc.cpg/sg51_10_cif.got.tgz:19545.got - 2010.04.16 13:43:02.
