data_PCOD8209612
_publ_section_title
;
Structure prediction by ZEFSAII (Michael W. Deem and Ramdas Pophale) SiO2 
 PCOD8209612
Probable space group: P M M A
;
_chemical_formula_sum "Si O2"
_cell_formula_units_Z 64
_cell_length_a 18.272306
_cell_length_b 20.439661
_cell_length_c 9.041618
_cell_angle_alpha 90.000000
_cell_angle_beta 90.000000
_cell_angle_gamma 90.000000
_cell_volume 3376.861143
_symmetry_space_group_name_H-M "P M M A"
_symmetry_group_IT_number 51
_symmetry_cell_setting 'orthorhombic'
loop_
_space_group_symop_operation_xyz
x,y,z
1/2-x,-y,z
1/2+x,-y,-z
-x,y,-z
-x,-y,-z
1/2+x,y,-z
1/2-x,y,z
x,-y,z
loop_
_atom_site_type_symbol
_atom_site_label
_atom_site_fract_x
_atom_site_fract_y
_atom_site_fract_z
Si Si1 0.167392 0.926176 0.737288
Si Si2 0.664904 0.312730 0.774264
Si Si3 0.909126 0.195854 0.630726
Si Si4 0.668655 0.070143 0.613067
Si Si5 0.918895 0.683068 0.068100
Si Si6 0.665524 0.423536 0.240772
Si Si7 0.663158 0.571814 0.577007
Si Si8 0.929324 0.196841 0.282524
O O1 0.250000 0.910220 0.796676
O O2 0.170130 0.925789 0.562317
O O3 0.109171 0.869170 0.784790
O O4 0.143872 0.000000 0.791337
O O5 0.750000 0.324344 0.786557
O O6 0.648928 0.249530 0.677542
O O7 0.629078 0.375732 0.691277
O O8 0.634318 0.301004 0.935001
O O9 0.881640 0.125189 0.681524
O O10 0.911713 0.204404 0.454943
O O11 0.983172 0.198354 0.724525
O O12 0.750000 0.078586 0.676319
O O13 0.636300 0.000000 0.662722
O O14 0.892223 0.615221 0.139959
O O15 0.905605 0.740665 0.186884
O O16 0.000000 0.676807 0.000000
O O17 0.750000 0.401569 0.212026
O O18 0.657619 0.500000 0.203538
O O19 0.642290 0.409184 0.409674
O O20 0.750000 0.569984 0.589066
O O21 0.631287 0.500000 0.616896
#
# Coordination Sequence:
#
# PCOD8209612 Si02
#       8
#     8   8   8   8   8   8   8   8
#     4   8  15  29  51  80 109 137 177 230 280 329
#     4  11  22  36  57  82 109 147 189 230 277 326
#     4  10  19  34  54  80 108 147 188 231 275 332
#     4   8  14  26  47  78 112 139 171 225 286 335
#     4  12  24  39  53  77 118 155 188 230 278 330
#     4   9  19  38  63  87 110 141 184 231 277 331
#     4   8  16  34  60  88 112 134 173 229 279 326
#     4  10  21  35  55  78 112 149 186 227 282 331
#
# _framework density 18.95251
#
# number of rings (size 3 to 8) (size 9 to 14) (size 15 to 20)
#    0.000    2.500    1.250    3.000    0.000    2.750 
#    0.000    3.750    0.000    2.625    0.000    1.750 
#    0.000    0.000    0.000    0.000    0.000    0.000 
#
# Total GULP energy -792972.181114 kJ/mol
# GULP energy per Si atom -12390.190330 kJ/mol
# Density = 1.890937 g / cm^3
# Si number density = 18.952510 Si / 1000 Ang^3
#
#
#
# Elastic Constant Matrix: (Units=GPa)
#
#
# Indices 1 2 3 4 5 6 
#
# 1 64.3733 49.1262 33.0827 0.0000 0.0000 0.0000
# 2 49.1262 130.9689 46.3124 0.0000 0.0000 0.0000
# 3 33.0827 46.3124 43.6531 0.0000 0.0000 0.0000
# 4 0.0000 0.0000 0.0000 10.6964 0.0000 0.0000
# 5 0.0000 0.0000 0.0000 0.0000 24.3491 0.0000
# 6 0.0000 0.0000 0.0000 0.0000 0.0000 21.2962
#
#
#
# Elastic Compliance Matrix: (Units=1/GPa)
#
#
# Indices 1 2 3 4 5 6 
#
# 1 0.027103 -0.004646 -0.015611 0.000000 0.000000 0.000000
# 2 -0.004646 0.013016 -0.010288 0.000000 0.000000 0.000000
# 3 -0.015611 -0.010288 0.045654 0.000000 0.000000 0.000000
# 4 0.000000 0.000000 0.000000 0.093489 0.000000 0.000000
# 5 0.000000 0.000000 0.000000 0.000000 0.041069 0.000000
# 6 0.000000 0.000000 0.000000 0.000000 0.000000 0.046957
#
#
# Mechanical properties :
#
#
# Convention : Reuss Voigt Hill
#
# Bulk Modulus (GPa) = 40.51473 55.11534 47.81503
# Shear Modulus (GPa) = 14.85421 18.63328 16.74375
#
# Velocity S-wave (km/s) = 2.80261 3.13893 2.97553
# Velocity P-wave (km/s) = 5.64767 6.50239 6.09004
#
# Compressibility (1/GPa) = 0.02468238
#
# Stress axis : x y z
#
# Youngs Moduli (GPa) = 36.89669 76.82807 21.90410
#
# Poissons Ratio (x) = 0.35694 0.34194
# Poissons Ratio (y) = 0.17142 0.22535
# Poissons Ratio (z) = 0.57599 0.79041
#
# Static dielectric constant tensor:
#      x y z
#    x 3.534470 0.000000 0.000000 
#    y 0.000000 3.885520 0.000000 
#    z 0.000000 0.000000 3.270540 
# 
# 
# High freq. dielectric constant tensor:
#      x y z
#    x 1.723230 0.000000 0.000000 
#    y 0.000000 1.751130 0.000000 
#    z 0.000000 0.000000 1.710680 
# 
# From -- ./inp_files/10080.got.cif
#   From: 2010.03.12/outbox.cif.g09.slc.cpg/sg51_6_cif.got.tgz:10080.got - 2010.04.16 13:43:02.
