data_PCOD8209167
_publ_section_title
;
Structure prediction by ZEFSAII (Michael W. Deem and Ramdas Pophale) SiO2 
 PCOD8209167
Probable space group: P M M A
;
_chemical_formula_sum "Si O2"
_cell_formula_units_Z 48
_cell_length_a 17.740703
_cell_length_b 16.922021
_cell_length_c 8.838625
_cell_angle_alpha 90.000000
_cell_angle_beta 90.000000
_cell_angle_gamma 90.000000
_cell_volume 2653.430784
_symmetry_space_group_name_H-M "P M M A"
_symmetry_group_IT_number 51
_symmetry_cell_setting 'orthorhombic'
loop_
_space_group_symop_operation_xyz
x,y,z
1/2-x,-y,z
1/2+x,-y,-z
-x,y,-z
-x,-y,-z
1/2+x,y,-z
1/2-x,y,z
x,-y,z
loop_
_atom_site_type_symbol
_atom_site_label
_atom_site_fract_x
_atom_site_fract_y
_atom_site_fract_z
Si Si1 0.983528 0.815034 0.175134
Si Si2 0.163244 0.178217 0.646192
Si Si3 0.026631 0.658775 0.326720
Si Si4 0.836252 0.500000 0.337661
Si Si5 0.520970 0.500000 0.172877
Si Si6 0.574581 0.911652 0.598255
Si Si7 0.166428 0.340305 0.488211
O O1 0.898297 0.843404 0.222561
O O2 0.988463 0.723569 0.220845
O O3 0.051356 0.863503 0.252835
O O4 0.000000 0.826477 0.000000
O O5 0.250000 0.156367 0.693857
O O6 0.141977 0.130758 0.493163
O O7 0.157666 0.271419 0.612508
O O8 0.116251 0.673801 0.339060
O O9 0.000000 0.666486 0.500000
O O10 0.013699 0.574480 0.255874
O O11 0.750000 0.500000 0.283779
O O12 0.888277 0.500000 0.188504
O O13 0.857165 0.422458 0.433267
O O14 0.500000 0.500000 0.000000
O O15 0.500000 0.914422 0.500000
O O16 0.601160 0.000000 0.642074
O O17 0.250000 0.344891 0.423786
#
# Coordination Sequence:
#
# PCOD8209167 Si02
#       7
#     8   8   8   4   4   8   8
#     4  11  21  35  55  84 118 153 183 227 288 349
#     4  10  19  35  57  82 110 144 191 238 279 328
#     4  12  19  36  57  77 107 144 195 238 272 325
#     4  10  19  33  52  76 105 141 180 227 281 328
#     4  12  24  34  51  83 110 148 188 233 289 341
#     4   9  18  35  58  81 105 140 188 231 268 326
#     4  10  19  32  55  82 103 135 186 236 277 315
#
# _framework density 18.089787999999999
#
# number of rings (size 3 to 8) (size 9 to 14) (size 15 to 20)
#    0.000    1.500    5.000    1.750    0.000    0.667 
#    0.000    2.500    0.000    0.000    0.000    0.000 
#    0.000    0.000    0.000    0.000    0.000    0.000 
#
# Total GULP energy -594933.726574 kJ/mol
# GULP energy per Si atom -12394.452637 kJ/mol
# Density = 1.804862 g / cm^3
# Si number density = 18.089788 Si / 1000 Ang^3
#
#
#
# Elastic Constant Matrix: (Units=GPa)
#
#
# Indices 1 2 3 4 5 6 
#
# 1 129.4897 16.1915 52.5579 0.0000 0.0000 0.0000
# 2 16.1915 104.8036 32.5304 0.0000 0.0000 0.0000
# 3 52.5579 32.5304 110.0061 0.0000 0.0000 0.0000
# 4 0.0000 0.0000 0.0000 11.1097 0.0000 0.0000
# 5 0.0000 0.0000 0.0000 0.0000 22.5400 0.0000
# 6 0.0000 0.0000 0.0000 0.0000 0.0000 18.8578
#
#
#
# Elastic Compliance Matrix: (Units=1/GPa)
#
#
# Indices 1 2 3 4 5 6 
#
# 1 0.009581 -0.000065 -0.004558 0.000000 0.000000 0.000000
# 2 -0.000065 0.010506 -0.003076 0.000000 0.000000 0.000000
# 3 -0.004558 -0.003076 0.012178 0.000000 0.000000 0.000000
# 4 0.000000 0.000000 0.000000 0.090011 0.000000 0.000000
# 5 0.000000 0.000000 0.000000 0.000000 0.044366 0.000000
# 6 0.000000 0.000000 0.000000 0.000000 0.000000 0.053028
#
#
# Mechanical properties :
#
#
# Convention : Reuss Voigt Hill
#
# Bulk Modulus (GPa) = 59.28872 60.76210 60.02541
# Shear Modulus (GPa) = 20.77354 26.70281 23.73817
#
# Velocity S-wave (km/s) = 3.39242 3.84621 3.62642
# Velocity P-wave (km/s) = 6.94194 7.30661 7.12661
#
# Compressibility (1/GPa) = 0.01686662
#
# Stress axis : x y z
#
# Youngs Moduli (GPa) = 104.37460 95.17982 82.11743
#
# Poissons Ratio (x) = 0.00622 0.37430
# Poissons Ratio (y) = 0.00682 0.25257
# Poissons Ratio (z) = 0.47575 0.29274
#
# Static dielectric constant tensor:
#      x y z
#    x 3.793730 0.000000 0.000000 
#    y 0.000000 3.570670 0.000000 
#    z 0.000000 0.000000 3.093780 
# 
# 
# High freq. dielectric constant tensor:
#      x y z
#    x 1.710160 0.000000 0.000000 
#    y 0.000000 1.712750 0.000000 
#    z 0.000000 0.000000 1.658250 
# 
# From -- ./inp_files/9674.got.cif
#   From: 2010.03.12/outbox.cif.g09.slc.cpg/sg51_5_cif.got.tgz:9674.got - 2010.04.16 13:43:02.
