data_PCOD8209952
_publ_section_title
;
Structure prediction by ZEFSAII (Michael W. Deem and Ramdas Pophale) SiO2 
 PCOD8209952
Probable space group: P M M A
;
_chemical_formula_sum "Si O2"
_cell_formula_units_Z 64
_cell_length_a 30.812215
_cell_length_b 9.162176
_cell_length_c 11.933924
_cell_angle_alpha 90.000000
_cell_angle_beta 90.000000
_cell_angle_gamma 90.000000
_cell_volume 3369.029528
_symmetry_space_group_name_H-M "P M M A"
_symmetry_group_IT_number 51
_symmetry_cell_setting 'orthorhombic'
loop_
_space_group_symop_operation_xyz
x,y,z
1/2-x,-y,z
1/2+x,-y,-z
-x,y,-z
-x,-y,-z
1/2+x,y,-z
1/2-x,y,z
x,-y,z
loop_
_atom_site_type_symbol
_atom_site_label
_atom_site_fract_x
_atom_site_fract_y
_atom_site_fract_z
Si Si1 0.547958 0.172884 0.980466
Si Si2 0.819378 0.333842 0.763823
Si Si3 0.548872 0.330709 0.524359
Si Si4 0.798657 0.668449 0.516932
Si Si5 0.579700 0.335413 0.769205
Si Si6 0.701753 0.830498 0.985997
Si Si7 0.124163 0.826554 0.861993
Si Si8 0.375455 0.173914 0.607042
O O1 0.563629 0.221214 0.859516
O O2 0.547081 0.000000 0.982608
O O3 0.500000 0.237857 0.000000
O O4 0.580823 0.231812 0.075891
O O5 0.807514 0.500000 0.792399
O O6 0.797745 0.285094 0.647237
O O7 0.870087 0.310356 0.747408
O O8 0.800987 0.238194 0.863704
O O9 0.500000 0.280784 0.500000
O O10 0.556813 0.500000 0.494159
O O11 0.555122 0.300726 0.654969
O O12 0.581836 0.234648 0.452449
O O13 0.750000 0.689682 0.468619
O O14 0.813952 0.500000 0.506840
O O15 0.831394 0.769053 0.448513
O O16 0.570209 0.500000 0.810554
O O17 0.750000 0.803045 0.035427
O O18 0.692137 0.000000 0.969686
O O19 0.666343 0.763699 0.071984
O O20 0.124179 0.769268 0.735147
O O21 0.125512 0.000000 0.862814
O O22 0.376044 0.000000 0.599442
#
# Coordination Sequence:
#
# PCOD8209952 Si02
#       8
#     8   8   8   8   8   8   8   8
#     4  10  21  37  59  83 111 149 187 226 277 335
#     4  10  19  35  58  83 114 146 179 226 282 332
#     4  10  22  41  62  84 115 154 192 233 284 341
#     4  10  21  39  61  83 114 155 192 231 284 343
#     4  10  20  36  59  86 114 145 184 230 280 332
#     4  10  20  35  57  82 109 145 186 226 273 332
#     4   9  20  38  54  77 113 148 182 224 279 332
#     4  11  23  38  59  85 116 150 189 240 285 334
#
# _framework density 18.996569000000001
#
# number of rings (size 3 to 8) (size 9 to 14) (size 15 to 20)
#    0.000    2.000    2.500    0.750    1.750    3.000 
#    0.000    3.750    0.000    0.000    0.000    0.000 
#    0.000    0.000    0.000    0.000    0.000    0.000 
#
# Total GULP energy -793666.725307 kJ/mol
# GULP energy per Si atom -12401.042583 kJ/mol
# Density = 1.895333 g / cm^3
# Si number density = 18.996569 Si / 1000 Ang^3
#
#
#
# Elastic Constant Matrix: (Units=GPa)
#
#
# Indices 1 2 3 4 5 6 
#
# 1 120.1721 37.3804 58.5971 0.0000 0.0000 0.0000
# 2 37.3804 44.3911 37.4203 0.0000 0.0000 0.0000
# 3 58.5971 37.4203 99.9179 0.0000 0.0000 0.0000
# 4 0.0000 0.0000 0.0000 28.4845 0.0000 0.0000
# 5 0.0000 0.0000 0.0000 0.0000 36.0453 0.0000
# 6 0.0000 0.0000 0.0000 0.0000 0.0000 22.4197
#
#
#
# Elastic Compliance Matrix: (Units=1/GPa)
#
#
# Indices 1 2 3 4 5 6 
#
# 1 0.012826 -0.006517 -0.005081 0.000000 0.000000 0.000000
# 2 -0.006517 0.036231 -0.009747 0.000000 0.000000 0.000000
# 3 -0.005081 -0.009747 0.016638 0.000000 0.000000 0.000000
# 4 0.000000 0.000000 0.000000 0.035107 0.000000 0.000000
# 5 0.000000 0.000000 0.000000 0.000000 0.027743 0.000000
# 6 0.000000 0.000000 0.000000 0.000000 0.000000 0.044604
#
#
# Mechanical properties :
#
#
# Convention : Reuss Voigt Hill
#
# Bulk Modulus (GPa) = 43.46842 59.03074 51.24958
# Shear Modulus (GPa) = 22.37049 26.12880 24.24964
#
# Velocity S-wave (km/s) = 3.43535 3.71273 3.57673
# Velocity P-wave (km/s) = 6.21831 7.03712 6.64035
#
# Compressibility (1/GPa) = 0.02300520
#
# Stress axis : x y z
#
# Youngs Moduli (GPa) = 77.96474 27.60036 60.10184
#
# Poissons Ratio (x) = 0.17988 0.30539
# Poissons Ratio (y) = 0.50812 0.58581
# Poissons Ratio (z) = 0.39616 0.26902
#
# Static dielectric constant tensor:
#      x y z
#    x 3.827690 0.000000 0.000000 
#    y 0.000000 3.292500 0.000000 
#    z 0.000000 0.000000 3.773780 
# 
# 
# High freq. dielectric constant tensor:
#      x y z
#    x 1.757540 0.000000 0.000000 
#    y 0.000000 1.716240 0.000000 
#    z 0.000000 0.000000 1.739540 
# 
# From -- ./inp_files/19444.got.cif
#   From: 2010.03.12/outbox.cif.g09.slc.cpg/sg51_10_cif.got.tgz:19444.got - 2010.04.16 13:43:02.
