data_PCOD8209170
_publ_section_title
;
Structure prediction by ZEFSAII (Michael W. Deem and Ramdas Pophale) SiO2 
 PCOD8209170
Probable space group: P M M A
;
_chemical_formula_sum "Si O2"
_cell_formula_units_Z 48
_cell_length_a 30.637340
_cell_length_b 9.106994
_cell_length_c 9.063639
_cell_angle_alpha 90.000000
_cell_angle_beta 90.000000
_cell_angle_gamma 90.000000
_cell_volume 2528.882821
_symmetry_space_group_name_H-M "P M M A"
_symmetry_group_IT_number 51
_symmetry_cell_setting 'orthorhombic'
loop_
_space_group_symop_operation_xyz
x,y,z
1/2-x,-y,z
1/2+x,-y,-z
-x,y,-z
-x,-y,-z
1/2+x,y,-z
1/2-x,y,z
x,-y,z
loop_
_atom_site_type_symbol
_atom_site_label
_atom_site_fract_x
_atom_site_fract_y
_atom_site_fract_z
Si Si1 0.591108 0.826224 0.668777
Si Si2 0.995419 0.838649 0.325641
Si Si3 0.335123 0.670009 0.157142
Si Si4 0.087725 0.669250 0.638469
Si Si5 0.826251 0.331641 0.181252
Si Si6 0.750000 0.330643 0.654660
Si Si7 0.750000 0.173554 0.347156
O O1 0.542855 0.784880 0.732008
O O2 0.625393 0.768925 0.786884
O O3 0.600194 0.754280 0.510135
O O4 0.595494 0.000000 0.648236
O O5 0.000000 0.849560 0.500000
O O6 0.956786 0.726934 0.284486
O O7 0.983930 0.000000 0.261167
O O8 0.348440 0.500000 0.172014
O O9 0.292222 0.706783 0.249567
O O10 0.325580 0.712814 0.989246
O O11 0.081386 0.500000 0.596863
O O12 0.125493 0.693755 0.756841
O O13 0.811368 0.500000 0.202881
O O14 0.793101 0.228423 0.266249
O O15 0.750000 0.500000 0.603995
O O16 0.750000 0.228024 0.513888
O O17 0.750000 0.000000 0.347105
#
# Coordination Sequence:
#
# PCOD8209170 Si02
#       7
#     8   8   8   8   8   4   4
#     4  10  20  34  53  79 111 144 179 223 272 320
#     4   8  16  31  50  74 107 144 179 221 272 317
#     4  10  21  38  59  80 105 142 182 219 264 318
#     4  10  19  32  55  83 107 139 184 228 269 317
#     4  10  22  40  58  79 111 145 177 219 270 319
#     4  10  21  38  60  82 104 136 177 218 264 314
#     4  12  25  38  58  86 110 138 177 218 262 316
#
# _framework density 18.980713999999999
#
# number of rings (size 3 to 8) (size 9 to 14) (size 15 to 20)
#    0.000    2.167    0.000    4.250    0.000   11.667 
#    0.000    1.667    0.000    5.000    0.000    0.000 
#    0.000    0.000    0.000    0.000    0.000    0.000 
#
# Total GULP energy -595253.049222 kJ/mol
# GULP energy per Si atom -12401.105192 kJ/mol
# Density = 1.893751 g / cm^3
# Si number density = 18.980714 Si / 1000 Ang^3
#
#
#
# Elastic Constant Matrix: (Units=GPa)
#
#
# Indices 1 2 3 4 5 6 
#
# 1 144.7716 80.2908 65.7665 0.0000 0.0000 0.0000
# 2 80.2908 119.2220 67.1004 0.0000 0.0000 0.0000
# 3 65.7665 67.1004 113.7737 0.0000 0.0000 0.0000
# 4 0.0000 0.0000 0.0000 2.6918 0.0000 0.0000
# 5 0.0000 0.0000 0.0000 0.0000 -6.3159 0.0000
# 6 0.0000 0.0000 0.0000 0.0000 0.0000 33.4095
#
#
#
# Elastic Compliance Matrix: (Units=1/GPa)
#
#
# Indices 1 2 3 4 5 6 
#
# 1 0.011747 -0.006121 -0.003180 0.000000 0.000000 0.000000
# 2 -0.006121 0.015745 -0.005748 0.000000 0.000000 0.000000
# 3 -0.003180 -0.005748 0.014017 0.000000 0.000000 0.000000
# 4 0.000000 0.000000 0.000000 0.371501 0.000000 0.000000
# 5 0.000000 0.000000 0.000000 0.000000 -0.158331 0.000000
# 6 0.000000 0.000000 0.000000 0.000000 0.000000 0.029932
#
#
# Mechanical properties :
#
#
# Convention : Reuss Voigt Hill
#
# Bulk Modulus (GPa) = 87.63158 89.34252 88.48705
# Shear Modulus (GPa) = 15.69800 16.93107 16.31454
#
# Velocity S-wave (km/s) = 2.87897 2.98990 2.93496
# Velocity P-wave (km/s) = 7.57101 7.68711 7.62928
#
# Compressibility (1/GPa) = 0.01141141
#
# Stress axis : x y z
#
# Youngs Moduli (GPa) = 85.12851 63.51267 71.33990
#
# Poissons Ratio (x) = 0.38877 0.22687
# Poissons Ratio (y) = 0.52109 0.41003
# Poissons Ratio (z) = 0.27072 0.36504
#
# Static dielectric constant tensor:
#      x y z
#    x 3.895150 0.000000 0.000000 
#    y 0.000000 3.509480 0.000000 
#    z 0.000000 0.000000 3.293620 
# 
# 
# High freq. dielectric constant tensor:
#      x y z
#    x 1.756140 0.000000 0.000000 
#    y 0.000000 1.737250 0.000000 
#    z 0.000000 0.000000 1.718590 
# 
# From -- ./inp_files/12922.got.cif
#   From: 2010.03.12/outbox.cif.g09.slc.cpg/sg51_7_cif.got.tgz:12922.got - 2010.04.16 13:43:02.
