data_PCOD8209695
_publ_section_title
;
Structure prediction by ZEFSAII (Michael W. Deem and Ramdas Pophale) SiO2 
 PCOD8209695
Probable space group: P M M A
;
_chemical_formula_sum "Si O2"
_cell_formula_units_Z 44
_cell_length_a 9.025835
_cell_length_b 28.278486
_cell_length_c 9.149854
_cell_angle_alpha 90.000000
_cell_angle_beta 90.000000
_cell_angle_gamma 90.000000
_cell_volume 2335.380816
_symmetry_space_group_name_H-M "P M M A"
_symmetry_group_IT_number 51
_symmetry_cell_setting 'orthorhombic'
loop_
_space_group_symop_operation_xyz
x,y,z
1/2-x,-y,z
1/2+x,-y,-z
-x,y,-z
-x,-y,-z
1/2+x,y,-z
1/2-x,y,z
x,-y,z
loop_
_atom_site_type_symbol
_atom_site_label
_atom_site_fract_x
_atom_site_fract_y
_atom_site_fract_z
Si Si1 0.075237 0.682633 0.654506
Si Si2 0.576431 0.053237 0.149234
Si Si3 0.924639 0.861266 0.345653
Si Si4 0.074941 0.397177 0.158818
Si Si5 0.418050 0.500000 0.149017
Si Si6 0.922549 0.773775 0.154075
O O1 0.250000 0.674544 0.634932
O O2 0.038962 0.727737 0.752884
O O3 0.000000 0.691839 0.500000
O O4 0.002450 0.637180 0.727800
O O5 0.750000 0.056799 0.121220
O O6 0.526824 0.088346 0.277999
O O7 0.528446 0.000000 0.193544
O O8 0.500000 0.069393 0.000000
O O9 0.750000 0.857910 0.368699
O O10 0.981630 0.819810 0.239407
O O11 0.000000 0.854768 0.500000
O O12 0.250000 0.385859 0.144725
O O13 0.046872 0.450011 0.228804
O O14 0.000000 0.391720 0.000000
O O15 0.250000 0.500000 0.101138
O O16 0.500000 0.500000 0.000000
O O17 0.750000 0.778610 0.123868
O O18 0.000000 0.769292 0.000000
#
# Coordination Sequence:
#
# PCOD8209695 Si02
#       6
#     8   8   8   8   4   8
#     4  11  23  38  55  78 107 140 177 218 266 317
#     4   9  18  33  53  77 105 137 176 220 262 307
#     4  10  21  36  53  77 108 140 174 214 261 312
#     4  10  19  34  56  82 110 141 178 219 262 311
#     4   8  16  30  51  78 107 138 174 216 260 306
#     4  10  22  38  57  80 105 135 174 217 261 312
#
# _framework density 18.840610999999999
#
# number of rings (size 3 to 8) (size 9 to 14) (size 15 to 20)
#    0.000    2.182    0.000    2.727    0.000    5.455 
#    0.000    0.455    0.000    0.000    0.000    0.000 
#    0.000    0.000    0.000    0.000    0.000    0.000 
#
# Total GULP energy -545479.500789 kJ/mol
# GULP energy per Si atom -12397.261382 kJ/mol
# Density = 1.879773 g / cm^3
# Si number density = 18.840611 Si / 1000 Ang^3
#
#
#
# Elastic Constant Matrix: (Units=GPa)
#
#
# Indices 1 2 3 4 5 6 
#
# 1 69.2227 62.2673 64.4968 0.0000 0.0000 0.0000
# 2 62.2673 146.2930 79.6387 0.0000 0.0000 0.0000
# 3 64.4968 79.6387 148.3301 0.0000 0.0000 0.0000
# 4 0.0000 0.0000 0.0000 23.2769 0.0000 0.0000
# 5 0.0000 0.0000 0.0000 0.0000 37.5188 0.0000
# 6 0.0000 0.0000 0.0000 0.0000 0.0000 22.3351
#
#
#
# Elastic Compliance Matrix: (Units=1/GPa)
#
#
# Indices 1 2 3 4 5 6 
#
# 1 0.029586 -0.007898 -0.008624 0.000000 0.000000 0.000000
# 2 -0.007898 0.011767 -0.002884 0.000000 0.000000 0.000000
# 3 -0.008624 -0.002884 0.012040 0.000000 0.000000 0.000000
# 4 0.000000 0.000000 0.000000 0.042961 0.000000 0.000000
# 5 0.000000 0.000000 0.000000 0.000000 0.026653 0.000000
# 6 0.000000 0.000000 0.000000 0.000000 0.000000 0.044773
#
#
# Mechanical properties :
#
#
# Convention : Reuss Voigt Hill
#
# Bulk Modulus (GPa) = 68.58017 86.29461 77.43739
# Shear Modulus (GPa) = 23.64613 27.12236 25.38424
#
# Velocity S-wave (km/s) = 3.54653 3.79828 3.67456
# Velocity P-wave (km/s) = 7.29724 8.07080 7.69375
#
# Compressibility (1/GPa) = 0.01458148
#
# Stress axis : x y z
#
# Youngs Moduli (GPa) = 33.80004 84.98367 83.05806
#
# Poissons Ratio (x) = 0.67120 0.71629
# Poissons Ratio (y) = 0.26695 0.23950
# Poissons Ratio (z) = 0.29149 0.24505
#
# Static dielectric constant tensor:
#      x y z
#    x 5.098890 0.000000 0.000000 
#    y 0.000000 3.714200 0.000000 
#    z 0.000000 0.000000 3.300270 
# 
# 
# High freq. dielectric constant tensor:
#      x y z
#    x 1.733860 0.000000 0.000000 
#    y 0.000000 1.756260 0.000000 
#    z 0.000000 0.000000 1.718670 
# 
# From -- ./inp_files/5764.got.cif
#   From: 2010.03.12/outbox.cif.g09.slc.cpg/sg51_3_cif.got.tgz:5764.got - 2010.04.16 13:43:02.
