data_PCOD8209235
_publ_section_title
;
Structure prediction by ZEFSAII (Michael W. Deem and Ramdas Pophale) SiO2 
 PCOD8209235
Probable space group: P M M A
;
_chemical_formula_sum "Si O2"
_cell_formula_units_Z 64
_cell_length_a 18.732755
_cell_length_b 11.145708
_cell_length_c 16.906184
_cell_angle_alpha 90.000000
_cell_angle_beta 90.000000
_cell_angle_gamma 90.000000
_cell_volume 3529.839068
_symmetry_space_group_name_H-M "P M M A"
_symmetry_group_IT_number 51
_symmetry_cell_setting 'orthorhombic'
loop_
_space_group_symop_operation_xyz
x,y,z
1/2-x,-y,z
1/2+x,-y,-z
-x,y,-z
-x,-y,-z
1/2+x,y,-z
1/2-x,y,z
x,-y,z
loop_
_atom_site_type_symbol
_atom_site_label
_atom_site_fract_x
_atom_site_fract_y
_atom_site_fract_z
Si Si1 0.424914 0.636659 0.649313
Si Si2 0.168037 0.800650 0.091082
Si Si3 0.914855 0.868674 0.761692
Si Si4 0.089601 0.639316 0.349131
Si Si5 0.052792 0.245006 0.808579
Si Si6 0.958515 0.635555 0.926959
Si Si7 0.829021 0.866100 0.084624
Si Si8 0.829860 0.358251 0.492318
O O1 0.401994 0.500000 0.664280
O O2 0.507517 0.645227 0.624485
O O3 0.409216 0.709574 0.729153
O O4 0.377868 0.694860 0.578957
O O5 0.250000 0.766460 0.107673
O O6 0.137496 0.878709 0.163204
O O7 0.121527 0.680896 0.084678
O O8 0.158641 0.872544 0.009455
O O9 0.894903 0.746660 0.713412
O O10 0.997714 0.862819 0.789726
O O11 0.906655 0.000000 0.717741
O O12 0.106754 0.500000 0.320018
O O13 0.137331 0.676301 0.423493
O O14 0.113259 0.213361 0.871086
O O15 0.004066 0.350166 0.846515
O O16 0.948504 0.500000 0.950160
O O17 0.000000 0.701141 0.000000
O O18 0.750000 0.812918 0.102026
O O19 0.834818 0.000000 0.118388
O O20 0.750000 0.304668 0.486555
O O21 0.828785 0.500000 0.484054
#
# Coordination Sequence:
#
# PCOD8209235 Si02
#       8
#     8   8   8   8   8   8   8   8
#     4   9  17  30  51  76 104 134 169 211 258 310
#     4  10  21  36  52  74 103 137 179 222 270 321
#     4  10  21  34  54  81 108 138 177 226 276 322
#     4   9  18  34  55  78 105 137 173 211 261 324
#     4  10  19  33  52  76 103 137 178 220 266 317
#     4  10  19  33  52  74 103 138 176 218 266 317
#     4  10  20  34  51  69  94 132 177 223 268 316
#     4   9  17  30  51  79 105 131 168 214 259 308
#
# _framework density 18.131139000000001
#
# number of rings (size 3 to 8) (size 9 to 14) (size 15 to 20)
#    0.000    2.375    1.250    1.500    0.000    6.500 
#    0.000    1.875    0.000    7.875    0.000    0.000 
#    0.000    0.000    0.000    0.000    0.000    0.000 
#
# Total GULP energy -792992.270332 kJ/mol
# GULP energy per Si atom -12390.504224 kJ/mol
# Density = 1.808987 g / cm^3
# Si number density = 18.131139 Si / 1000 Ang^3
#
#
#
# Elastic Constant Matrix: (Units=GPa)
#
#
# Indices 1 2 3 4 5 6 
#
# 1 114.0079 37.9872 56.6408 0.0000 0.0000 0.0000
# 2 37.9872 85.6967 38.4737 0.0000 0.0000 0.0000
# 3 56.6408 38.4737 101.6772 0.0000 0.0000 0.0000
# 4 0.0000 0.0000 0.0000 15.4561 0.0000 0.0000
# 5 0.0000 0.0000 0.0000 0.0000 25.6122 0.0000
# 6 0.0000 0.0000 0.0000 0.0000 0.0000 5.6225
#
#
#
# Elastic Compliance Matrix: (Units=1/GPa)
#
#
# Indices 1 2 3 4 5 6 
#
# 1 0.012722 -0.002961 -0.005967 0.000000 0.000000 0.000000
# 2 -0.002961 0.014746 -0.003931 0.000000 0.000000 0.000000
# 3 -0.005967 -0.003931 0.014646 0.000000 0.000000 0.000000
# 4 0.000000 0.000000 0.000000 0.064699 0.000000 0.000000
# 5 0.000000 0.000000 0.000000 0.000000 0.039044 0.000000
# 6 0.000000 0.000000 0.000000 0.000000 0.000000 0.177855
#
#
# Mechanical properties :
#
#
# Convention : Reuss Voigt Hill
#
# Bulk Modulus (GPa) = 60.98095 63.06504 62.02299
# Shear Modulus (GPa) = 14.08868 20.55685 17.32276
#
# Velocity S-wave (km/s) = 2.79057 3.37083 3.09433
# Velocity P-wave (km/s) = 6.63998 7.07165 6.85921
#
# Compressibility (1/GPa) = 0.01639856
#
# Stress axis : x y z
#
# Youngs Moduli (GPa) = 78.60277 67.81487 68.27698
#
# Poissons Ratio (x) = 0.20077 0.40740
# Poissons Ratio (y) = 0.23271 0.26836
# Poissons Ratio (z) = 0.46901 0.26655
#
# Static dielectric constant tensor:
#      x y z
#    x 3.483300 0.000000 0.000000 
#    y 0.000000 3.120690 0.000000 
#    z 0.000000 0.000000 3.364390 
# 
# 
# High freq. dielectric constant tensor:
#      x y z
#    x 1.704430 0.000000 0.000000 
#    y 0.000000 1.673830 0.000000 
#    z 0.000000 0.000000 1.699070 
# 
# From -- ./inp_files/30276.got.cif
#   From: 2010.03.12/outbox.cif.g09.slc.cpg/sg51_16_cif.got.tgz:30276.got - 2010.04.16 13:43:02.
