data_PCOD8209396
_publ_section_title
;
Structure prediction by ZEFSAII (Michael W. Deem and Ramdas Pophale) SiO2 
 PCOD8209396
Probable space group: P M M A
;
_chemical_formula_sum "Si O2"
_cell_formula_units_Z 40
_cell_length_a 9.524137
_cell_length_b 23.235390
_cell_length_c 9.851990
_cell_angle_alpha 90.000000
_cell_angle_beta 90.000000
_cell_angle_gamma 90.000000
_cell_volume 2180.216202
_symmetry_space_group_name_H-M "P M M A"
_symmetry_group_IT_number 51
_symmetry_cell_setting 'orthorhombic'
loop_
_space_group_symop_operation_xyz
x,y,z
1/2-x,-y,z
1/2+x,-y,-z
-x,y,-z
-x,-y,-z
1/2+x,y,-z
1/2-x,y,z
x,-y,z
loop_
_atom_site_type_symbol
_atom_site_label
_atom_site_fract_x
_atom_site_fract_y
_atom_site_fract_z
Si Si1 0.914874 0.131432 0.634869
Si Si2 0.250000 0.436924 0.151710
Si Si3 0.997518 0.642336 0.839777
Si Si4 0.413446 0.067316 0.865302
Si Si5 0.750000 0.435247 0.168991
Si Si6 0.912068 0.265835 0.632624
O O1 0.750000 0.112352 0.625145
O O2 0.924816 0.198812 0.665705
O O3 0.000000 0.115512 0.500000
O O4 0.998910 0.098707 0.750188
O O5 0.250000 0.500000 0.219090
O O6 0.378707 0.401143 0.204186
O O7 0.250000 0.443761 0.991036
O O8 0.980289 0.702272 0.761570
O O9 0.124825 0.605112 0.784355
O O10 0.000000 0.656736 0.000000
O O11 0.250000 0.088661 0.875117
O O12 0.415011 0.000000 0.833655
O O13 0.500000 0.081901 0.000000
O O14 0.750000 0.500000 0.234477
O O15 0.750000 0.283525 0.610662
O O16 0.000000 0.282933 0.500000
#
# Coordination Sequence:
#
# PCOD8209396 Si02
#       6
#     8   4   8   8   4   8
#     4  10  21  38  59  83 112 149 194 239 283 336
#     4   9  16  30  53  77 105 139 174 223 276 323
#     4  10  19  33  54  81 108 138 180 227 273 329
#     4  10  21  38  60  88 121 155 190 230 280 333
#     4   9  18  30  49  81 111 135 174 223 276 331
#     4  10  22  39  57  79 109 146 185 228 278 331
#
# _framework density 18.346805
#
# number of rings (size 3 to 8) (size 9 to 14) (size 15 to 20)
#    0.000    2.200    1.000    1.800    1.400    5.600 
#    0.000    0.000    0.000    3.600    0.000    0.000 
#    0.000    0.000    0.000    0.000    0.000    0.000 
#
# Total GULP energy -495660.725606 kJ/mol
# GULP energy per Si atom -12391.518140 kJ/mol
# Density = 1.830505 g / cm^3
# Si number density = 18.346805 Si / 1000 Ang^3
#
#
#
# Elastic Constant Matrix: (Units=GPa)
#
#
# Indices 1 2 3 4 5 6 
#
# 1 186.8176 57.8353 72.6273 0.0000 0.0000 0.0000
# 2 57.8353 63.8082 67.0536 0.0000 0.0000 0.0000
# 3 72.6273 67.0536 109.2514 0.0000 0.0000 0.0000
# 4 0.0000 0.0000 0.0000 53.8265 0.0000 0.0000
# 5 0.0000 0.0000 0.0000 0.0000 8.9051 0.0000
# 6 0.0000 0.0000 0.0000 0.0000 0.0000 38.8778
#
#
#
# Elastic Compliance Matrix: (Units=1/GPa)
#
#
# Indices 1 2 3 4 5 6 
#
# 1 0.007647 -0.004476 -0.002336 0.000000 0.000000 0.000000
# 2 -0.004476 0.046763 -0.025726 0.000000 0.000000 0.000000
# 3 -0.002336 -0.025726 0.026495 0.000000 0.000000 0.000000
# 4 0.000000 0.000000 0.000000 0.018578 0.000000 0.000000
# 5 0.000000 0.000000 0.000000 0.000000 0.112295 0.000000
# 6 0.000000 0.000000 0.000000 0.000000 0.000000 0.025722
#
#
# Mechanical properties :
#
#
# Convention : Reuss Voigt Hill
#
# Bulk Modulus (GPa) = 63.17212 83.87883 73.52548
# Shear Modulus (GPa) = 16.24159 31.14595 23.69377
#
# Velocity S-wave (km/s) = 2.97855 4.12469 3.59756
# Velocity P-wave (km/s) = 6.80705 8.27658 7.57753
#
# Compressibility (1/GPa) = 0.01582977
#
# Stress axis : x y z
#
# Youngs Moduli (GPa) = 130.77558 21.38451 37.74236
#
# Poissons Ratio (x) = 0.09571 0.08817
# Poissons Ratio (y) = 0.58533 0.97094
# Poissons Ratio (z) = 0.30552 0.55013
#
# Static dielectric constant tensor:
#      x y z
#    x 3.631920 0.000000 0.000000 
#    y 0.000000 3.426670 0.000000 
#    z 0.000000 0.000000 3.215890 
# 
# 
# High freq. dielectric constant tensor:
#      x y z
#    x 1.736650 0.000000 0.000000 
#    y 0.000000 1.714210 0.000000 
#    z 0.000000 0.000000 1.687640 
# 
# From -- ./inp_files/5527.got.cif
#   From: 2010.03.12/outbox.cif.g09.slc.cpg/sg51_3_cif.got.tgz:5527.got - 2010.04.16 13:43:02.
