data_PCOD8209744
_publ_section_title
;
Structure prediction by ZEFSAII (Michael W. Deem and Ramdas Pophale) SiO2 
 PCOD8209744
Probable space group: P M M A
;
_chemical_formula_sum "Si O2"
_cell_formula_units_Z 48
_cell_length_a 31.002184
_cell_length_b 9.005892
_cell_length_c 8.983568
_cell_angle_alpha 90.000000
_cell_angle_beta 90.000000
_cell_angle_gamma 90.000000
_cell_volume 2508.233035
_symmetry_space_group_name_H-M "P M M A"
_symmetry_group_IT_number 51
_symmetry_cell_setting 'orthorhombic'
loop_
_space_group_symop_operation_xyz
x,y,z
1/2-x,-y,z
1/2+x,-y,-z
-x,y,-z
-x,-y,-z
1/2+x,y,-z
1/2-x,y,z
x,-y,z
loop_
_atom_site_type_symbol
_atom_site_label
_atom_site_fract_x
_atom_site_fract_y
_atom_site_fract_z
Si Si1 0.916036 0.327704 0.169267
Si Si2 0.331605 0.327580 0.645720
Si Si3 0.250000 0.824604 0.159000
Si Si4 0.413061 0.674731 0.173363
Si Si5 0.750000 0.671187 0.154199
Si Si6 0.666194 0.824107 0.665507
Si Si7 0.999064 0.832849 0.823130
O O1 0.928014 0.500000 0.177295
O O2 0.875007 0.286465 0.267336
O O3 0.956557 0.238256 0.236307
O O4 0.905959 0.282769 0.999116
O O5 0.330900 0.500000 0.597943
O O6 0.291968 0.288330 0.751671
O O7 0.327741 0.223337 0.504007
O O8 0.292359 0.765795 0.243729
O O9 0.250000 0.000000 0.157113
O O10 0.250000 0.768515 0.992120
O O11 0.412403 0.500000 0.200155
O O12 0.375805 0.748161 0.268550
O O13 0.458467 0.737822 0.233859
O O14 0.750000 0.500000 0.106061
O O15 0.661067 0.000000 0.675489
O O16 0.995125 0.000000 0.761733
O O17 0.000000 0.829206 0.000000
#
# Coordination Sequence:
#
# PCOD8209744 Si02
#       7
#     8   8   4   8   4   8   8
#     4   9  18  33  54  80 109 142 182 226 273 324
#     4  10  21  37  56  81 112 144 180 224 272 321
#     4  10  23  40  58  82 112 144 179 222 270 320
#     4  10  19  34  57  82 109 143 182 227 276 322
#     4  10  21  38  62  88 110 138 183 230 268 318
#     4  11  23  38  55  79 112 148 184 221 267 325
#     4   9  17  30  51  80 111 142 179 224 271 321
#
# _framework density 19.136977000000002
#
# number of rings (size 3 to 8) (size 9 to 14) (size 15 to 20)
#    0.000    2.167    0.000    3.000    0.000    6.667 
#    0.000    0.833    0.000    5.000    0.000    0.000 
#    0.000    0.000    0.000    0.000    0.000    0.000 
#
# Total GULP energy -595370.791734 kJ/mol
# GULP energy per Si atom -12403.558161 kJ/mol
# Density = 1.909342 g / cm^3
# Si number density = 19.136977 Si / 1000 Ang^3
#
#
#
# Elastic Constant Matrix: (Units=GPa)
#
#
# Indices 1 2 3 4 5 6 
#
# 1 170.2909 51.8403 53.2787 0.0000 0.0000 0.0000
# 2 51.8403 64.8438 26.2611 0.0000 0.0000 0.0000
# 3 53.2787 26.2611 74.1520 0.0000 0.0000 0.0000
# 4 0.0000 0.0000 0.0000 31.1209 0.0000 0.0000
# 5 0.0000 0.0000 0.0000 0.0000 -18.4508 0.0000
# 6 0.0000 0.0000 0.0000 0.0000 0.0000 31.3768
#
#
#
# Elastic Compliance Matrix: (Units=1/GPa)
#
#
# Indices 1 2 3 4 5 6 
#
# 1 0.008894 -0.005280 -0.004521 0.000000 0.000000 0.000000
# 2 -0.005280 0.021138 -0.003693 0.000000 0.000000 0.000000
# 3 -0.004521 -0.003693 0.018042 0.000000 0.000000 0.000000
# 4 0.000000 0.000000 0.000000 0.032133 0.000000 0.000000
# 5 0.000000 0.000000 0.000000 0.000000 -0.054198 0.000000
# 6 0.000000 0.000000 0.000000 0.000000 0.000000 0.031871
#
#
# Mechanical properties :
#
#
# Convention : Reuss Voigt Hill
#
# Bulk Modulus (GPa) = 47.42045 63.56078 55.49061
# Shear Modulus (GPa) = 54.41077 20.66981 37.54029
#
# Velocity S-wave (km/s) = 5.33798 3.29005 4.43387
# Velocity P-wave (km/s) = 7.92624 6.90784 7.43450
#
# Compressibility (1/GPa) = 0.02108795
#
# Stress axis : x y z
#
# Youngs Moduli (GPa) = 112.43733 47.30818 55.42742
#
# Poissons Ratio (x) = 0.24977 0.25056
# Poissons Ratio (y) = 0.59362 0.20468
# Poissons Ratio (z) = 0.50828 0.17469
#
# Static dielectric constant tensor:
#      x y z
#    x 3.781850 0.000000 0.000000 
#    y 0.000000 3.518860 0.000000 
#    z 0.000000 0.000000 3.293970 
# 
# 
# High freq. dielectric constant tensor:
#      x y z
#    x 1.765290 0.000000 0.000000 
#    y 0.000000 1.745770 0.000000 
#    z 0.000000 0.000000 1.725650 
# 
# From -- ./inp_files/12909.got.cif
#   From: 2010.03.12/outbox.cif.g09.slc.cpg/sg51_7_cif.got.tgz:12909.got - 2010.04.16 13:43:02.
