data_PCOD8209069
_publ_section_title
;
Structure prediction by ZEFSAII (Michael W. Deem and Ramdas Pophale) SiO2 
 PCOD8209069
Probable space group: P M M A
;
_chemical_formula_sum "Si O2"
_cell_formula_units_Z 40
_cell_length_a 9.005584
_cell_length_b 12.585276
_cell_length_c 19.714279
_cell_angle_alpha 90.000000
_cell_angle_beta 90.000000
_cell_angle_gamma 90.000000
_cell_volume 2234.372225
_symmetry_space_group_name_H-M "P M M A"
_symmetry_group_IT_number 51
_symmetry_cell_setting 'orthorhombic'
loop_
_space_group_symop_operation_xyz
x,y,z
1/2-x,-y,z
1/2+x,-y,-z
-x,y,-z
-x,-y,-z
1/2+x,y,-z
1/2-x,y,z
x,-y,z
loop_
_atom_site_type_symbol
_atom_site_label
_atom_site_fract_x
_atom_site_fract_y
_atom_site_fract_z
Si Si1 0.076833 0.791150 0.824084
Si Si2 0.422954 0.623937 0.430041
Si Si3 0.418797 0.000000 0.334598
Si Si4 0.583740 0.000000 0.826652
Si Si5 0.075378 0.379785 0.931654
Si Si6 0.925446 0.214060 0.332550
O O1 0.250000 0.812572 0.831506
O O2 0.023603 0.690600 0.867946
O O3 0.034452 0.769568 0.746249
O O4 0.996631 0.894937 0.853988
O O5 0.500000 0.657543 0.500000
O O6 0.250000 0.653657 0.433981
O O7 0.447055 0.500000 0.415041
O O8 0.501656 0.686705 0.369867
O O9 0.421901 0.000000 0.254074
O O10 0.504269 0.895380 0.361105
O O11 0.250000 0.000000 0.362332
O O12 0.750000 0.000000 0.854845
O O13 0.250000 0.373109 0.942316
O O14 0.023269 0.500000 0.916477
O O15 0.000000 0.336292 0.000000
O O16 0.750000 0.211261 0.345305
#
# Coordination Sequence:
#
# PCOD8209069 Si02
#       6
#     8   8   4   4   8   8
#     4   9  18  32  51  74 101 132 165 202 245 297
#     4  10  21  37  55  75 102 136 171 207 250 299
#     4   9  17  31  50  73 104 137 166 202 250 299
#     4   9  17  29  48  73 100 129 163 204 247 291
#     4   9  18  33  51  71  97 130 166 204 248 296
#     4  10  19  32  53  79 104 132 168 208 250 298
#
# _framework density 17.902121000000001
#
# number of rings (size 3 to 8) (size 9 to 14) (size 15 to 20)
#    0.000    2.600    0.000    1.800    0.000    6.000 
#    0.000    3.000    0.000    2.400    0.000    0.000 
#    0.000    0.000    0.000    0.000    0.000    0.000 
#
# Total GULP energy -496055.148388 kJ/mol
# GULP energy per Si atom -12401.378710 kJ/mol
# Density = 1.786137 g / cm^3
# Si number density = 17.902121 Si / 1000 Ang^3
#
#
#
# Elastic Constant Matrix: (Units=GPa)
#
#
# Indices 1 2 3 4 5 6 
#
# 1 94.3330 60.9304 50.4358 0.0000 0.0000 0.0000
# 2 60.9304 117.7606 68.1875 0.0000 0.0000 0.0000
# 3 50.4358 68.1875 84.2299 0.0000 0.0000 0.0000
# 4 0.0000 0.0000 0.0000 10.2087 0.0000 0.0000
# 5 0.0000 0.0000 0.0000 0.0000 27.8059 0.0000
# 6 0.0000 0.0000 0.0000 0.0000 0.0000 33.1529
#
#
#
# Elastic Compliance Matrix: (Units=1/GPa)
#
#
# Indices 1 2 3 4 5 6 
#
# 1 0.017339 -0.005571 -0.005872 0.000000 0.000000 0.000000
# 2 -0.005571 0.017775 -0.011053 0.000000 0.000000 0.000000
# 3 -0.005872 -0.011053 0.024337 0.000000 0.000000 0.000000
# 4 0.000000 0.000000 0.000000 0.097956 0.000000 0.000000
# 5 0.000000 0.000000 0.000000 0.000000 0.035964 0.000000
# 6 0.000000 0.000000 0.000000 0.000000 0.000000 0.030163
#
#
# Mechanical properties :
#
#
# Convention : Reuss Voigt Hill
#
# Bulk Modulus (GPa) = 69.17219 72.82566 70.99893
# Shear Modulus (GPa) = 18.29192 22.01815 20.15503
#
# Velocity S-wave (km/s) = 3.19999 3.51082 3.35900
# Velocity P-wave (km/s) = 7.23714 7.56325 7.40199
#
# Compressibility (1/GPa) = 0.01445668
#
# Stress axis : x y z
#
# Youngs Moduli (GPa) = 57.67434 56.26019 41.09016
#
# Poissons Ratio (x) = 0.31342 0.24129
# Poissons Ratio (y) = 0.32130 0.45419
# Poissons Ratio (z) = 0.33868 0.62187
#
# Static dielectric constant tensor:
#      x y z
#    x 3.401530 0.000000 0.000000 
#    y 0.000000 3.475450 0.000000 
#    z 0.000000 0.000000 3.161550 
# 
# 
# High freq. dielectric constant tensor:
#      x y z
#    x 1.701530 0.000000 0.000000 
#    y 0.000000 1.700170 0.000000 
#    z 0.000000 0.000000 1.668390 
# 
# From -- ./inp_files/31444.got.cif
#   From: 2010.03.12/outbox.cif.g09.slc.cpg/sg51_16_cif.got.tgz:31444.got - 2010.04.16 13:43:02.
