data_PCOD8209212
_publ_section_title
;
Structure prediction by ZEFSAII (Michael W. Deem and Ramdas Pophale) SiO2 
 PCOD8209212
Probable space group: P M M A
;
_chemical_formula_sum "Si O2"
_cell_formula_units_Z 64
_cell_length_a 9.473536
_cell_length_b 18.943990
_cell_length_c 19.572123
_cell_angle_alpha 90.000000
_cell_angle_beta 90.000000
_cell_angle_gamma 90.000000
_cell_volume 3512.541807
_symmetry_space_group_name_H-M "P M M A"
_symmetry_group_IT_number 51
_symmetry_cell_setting 'orthorhombic'
loop_
_space_group_symop_operation_xyz
x,y,z
1/2-x,-y,z
1/2+x,-y,-z
-x,y,-z
-x,-y,-z
1/2+x,y,-z
1/2-x,y,z
x,-y,z
loop_
_atom_site_type_symbol
_atom_site_label
_atom_site_fract_x
_atom_site_fract_y
_atom_site_fract_z
Si Si1 0.594122 0.119940 0.058594
Si Si2 0.581406 0.422115 0.290976
Si Si3 0.587399 0.080889 0.434102
Si Si4 0.917534 0.287621 0.212116
Si Si5 0.595464 0.280573 0.059112
Si Si6 0.084870 0.147108 0.708446
Si Si7 0.409635 0.081098 0.182294
Si Si8 0.904467 0.582828 0.441398
O O1 0.750000 0.083731 0.065387
O O2 0.618319 0.200136 0.036823
O O3 0.509996 0.120781 0.129186
O O4 0.500000 0.081389 0.000000
O O5 0.750000 0.422288 0.293472
O O6 0.527967 0.500000 0.267261
O O7 0.523009 0.361643 0.241143
O O8 0.525892 0.404466 0.367161
O O9 0.500000 0.105952 0.500000
O O10 0.750000 0.085110 0.454981
O O11 0.556176 0.135583 0.372094
O O12 0.547992 0.000000 0.413242
O O13 0.750000 0.287064 0.208400
O O14 0.976555 0.282747 0.134605
O O15 0.963799 0.223970 0.262813
O O16 0.750000 0.317985 0.060075
O O17 0.500000 0.317525 0.000000
O O18 0.250000 0.132910 0.725035
O O19 0.984589 0.089978 0.744766
O O20 0.250000 0.112370 0.182237
O O21 0.403822 0.000000 0.161894
O O22 0.750000 0.618583 0.445385
O O23 0.889039 0.500000 0.454880
O O24 0.000000 0.618425 0.500000
#
# Coordination Sequence:
#
# PCOD8209212 Si02
#       8
#     8   8   8   8   8   8   8   8
#     4  10  19  33  51  71  96 128 165 203 242 288
#     4   8  14  25  44  71  99 126 160 201 242 288
#     4   9  18  32  51  72  94 125 164 204 250 300
#     4   9  16  29  49  72  97 125 161 202 245 290
#     4   9  17  30  49  72  94 122 159 198 239 286
#     4  10  19  34  53  73  96 126 165 208 249 294
#     4  11  23  35  48  70  99 130 162 200 247 294
#     4   8  13  22  38  61  88 120 156 190 225 267
#
# _framework density 18.220423
#
# number of rings (size 3 to 8) (size 9 to 14) (size 15 to 20)
#    0.000    2.750    1.250    1.875    0.000    2.750 
#    0.000    1.875    0.000    1.875    0.000    0.000 
#    0.000    0.000    0.000    0.000    0.000    0.000 
#
# Total GULP energy -792980.718068 kJ/mol
# GULP energy per Si atom -12390.323720 kJ/mol
# Density = 1.817895 g / cm^3
# Si number density = 18.220423 Si / 1000 Ang^3
#
#
#
# Elastic Constant Matrix: (Units=GPa)
#
#
# Indices 1 2 3 4 5 6 
#
# 1 85.7688 16.4509 55.1758 0.0000 0.0000 0.0000
# 2 16.4509 56.8259 43.2452 0.0000 0.0000 0.0000
# 3 55.1758 43.2452 146.6624 0.0000 0.0000 0.0000
# 4 0.0000 0.0000 0.0000 15.6474 0.0000 0.0000
# 5 0.0000 0.0000 0.0000 0.0000 32.6272 0.0000
# 6 0.0000 0.0000 0.0000 0.0000 0.0000 8.5969
#
#
#
# Elastic Compliance Matrix: (Units=1/GPa)
#
#
# Indices 1 2 3 4 5 6 
#
# 1 0.015382 -0.000063 -0.005768 0.000000 0.000000 0.000000
# 2 -0.000063 0.022689 -0.006666 0.000000 0.000000 0.000000
# 3 -0.005768 -0.006666 0.010954 0.000000 0.000000 0.000000
# 4 0.000000 0.000000 0.000000 0.063909 0.000000 0.000000
# 5 0.000000 0.000000 0.000000 0.000000 0.030649 0.000000
# 6 0.000000 0.000000 0.000000 0.000000 0.000000 0.116321
#
#
# Mechanical properties :
#
#
# Convention : Reuss Voigt Hill
#
# Bulk Modulus (GPa) = 41.61550 57.66677 49.64113
# Shear Modulus (GPa) = 17.07007 22.99996 20.03502
#
# Velocity S-wave (km/s) = 3.06414 3.55677 3.31961
# Velocity P-wave (km/s) = 5.95048 6.97034 6.48051
#
# Compressibility (1/GPa) = 0.02402951
#
# Stress axis : x y z
#
# Youngs Moduli (GPa) = 65.01040 44.07395 91.29003
#
# Poissons Ratio (x) = 0.00279 0.52658
# Poissons Ratio (y) = 0.00412 0.60857
# Poissons Ratio (z) = 0.37499 0.29381
#
# Static dielectric constant tensor:
#      x y z
#    x 3.541070 0.000000 0.000000 
#    y 0.000000 3.112780 0.000000 
#    z 0.000000 0.000000 3.453490 
# 
# 
# High freq. dielectric constant tensor:
#      x y z
#    x 1.682640 0.000000 0.000000 
#    y 0.000000 1.661560 0.000000 
#    z 0.000000 0.000000 1.711560 
# 
# From -- ./inp_files/32553.got.cif
#   From: 2010.03.12/outbox.cif.g09.slc.cpg/sg51_17_cif.got.tgz:32553.got - 2010.04.16 13:43:02.
