data_PCOD8209926
_publ_section_title
;
Structure prediction by ZEFSAII (Michael W. Deem and Ramdas Pophale) SiO2 
 PCOD8209926
Probable space group: P M M A
;
_chemical_formula_sum "Si O2"
_cell_formula_units_Z 64
_cell_length_a 17.794386
_cell_length_b 8.942057
_cell_length_c 21.558879
_cell_angle_alpha 90.000000
_cell_angle_beta 90.000000
_cell_angle_gamma 90.000000
_cell_volume 3430.414632
_symmetry_space_group_name_H-M "P M M A"
_symmetry_group_IT_number 51
_symmetry_cell_setting 'orthorhombic'
loop_
_space_group_symop_operation_xyz
x,y,z
1/2-x,-y,z
1/2+x,-y,-z
-x,y,-z
-x,-y,-z
1/2+x,y,-z
1/2-x,y,z
x,-y,z
loop_
_atom_site_type_symbol
_atom_site_label
_atom_site_fract_x
_atom_site_fract_y
_atom_site_fract_z
Si Si1 0.910652 0.826627 0.615499
Si Si2 0.942713 0.825684 0.181632
Si Si3 0.837382 0.324774 0.274130
Si Si4 0.161953 0.671770 0.496475
Si Si5 0.982603 0.322669 0.930730
Si Si6 0.167748 0.323703 0.131780
Si Si7 0.401159 0.828379 0.243334
Si Si8 0.915112 0.174911 0.390427
O O1 0.859999 0.722787 0.572359
O O2 0.886218 0.788879 0.685458
O O3 0.997433 0.786208 0.606178
O O4 0.895933 0.000000 0.599851
O O5 0.869616 0.752866 0.212511
O O6 0.956867 0.751929 0.114698
O O7 0.012220 0.793215 0.227452
O O8 0.928194 0.000000 0.171941
O O9 0.750000 0.285653 0.278297
O O10 0.852122 0.500000 0.269135
O O11 0.876750 0.265680 0.335676
O O12 0.250000 0.691701 0.506247
O O13 0.137807 0.500000 0.506689
O O14 0.119913 0.778330 0.544421
O O15 0.989731 0.500000 0.924084
O O16 0.898391 0.265254 0.913524
O O17 0.000000 0.268384 0.000000
O O18 0.250000 0.267023 0.108800
O O19 0.166140 0.500000 0.133116
O O20 0.154417 0.269115 0.201755
O O21 0.383414 0.000000 0.228822
O O22 0.902017 0.000000 0.378036
#
# Coordination Sequence:
#
# PCOD8209926 Si02
#       8
#     8   8   8   8   8   8   8   8
#     4  10  21  38  58  81 107 138 181 226 274 334
#     4  10  19  35  57  81 111 144 182 226 273 325
#     4  11  23  37  56  84 115 146 182 226 277 333
#     4  11  25  41  54  76 110 144 183 230 279 331
#     4   9  18  34  56  81 111 151 194 231 275 329
#     4   9  18  32  51  78 110 143 182 227 273 322
#     4   9  18  34  54  78 107 138 174 219 270 324
#     4  11  22  39  61  83 107 140 184 230 277 333
#
# _framework density 18.656635999999999
#
# number of rings (size 3 to 8) (size 9 to 14) (size 15 to 20)
#    0.000    2.000    1.250    2.250    0.000    8.000 
#    0.000    3.125    0.000    2.250    0.000    0.000 
#    0.000    0.000    0.000    0.000    0.000    0.000 
#
# Total GULP energy -793778.082591 kJ/mol
# GULP energy per Si atom -12402.782540 kJ/mol
# Density = 1.861417 g / cm^3
# Si number density = 18.656636 Si / 1000 Ang^3
#
#
#
# Elastic Constant Matrix: (Units=GPa)
#
#
# Indices 1 2 3 4 5 6 
#
# 1 59.1516 23.5258 31.9213 0.0000 0.0000 0.0000
# 2 23.5258 37.5424 17.8500 0.0000 0.0000 0.0000
# 3 31.9213 17.8500 105.9288 0.0000 0.0000 0.0000
# 4 0.0000 0.0000 0.0000 30.8782 0.0000 0.0000
# 5 0.0000 0.0000 0.0000 0.0000 13.6982 0.0000
# 6 0.0000 0.0000 0.0000 0.0000 0.0000 26.7917
#
#
#
# Elastic Compliance Matrix: (Units=1/GPa)
#
#
# Indices 1 2 3 4 5 6 
#
# 1 0.025002 -0.013138 -0.005320 0.000000 0.000000 0.000000
# 2 -0.013138 0.035860 -0.002084 0.000000 0.000000 0.000000
# 3 -0.005320 -0.002084 0.011395 0.000000 0.000000 0.000000
# 4 0.000000 0.000000 0.000000 0.032385 0.000000 0.000000
# 5 0.000000 0.000000 0.000000 0.000000 0.073002 0.000000
# 6 0.000000 0.000000 0.000000 0.000000 0.000000 0.037325
#
#
# Mechanical properties :
#
#
# Convention : Reuss Voigt Hill
#
# Bulk Modulus (GPa) = 32.07913 38.80189 35.44051
# Shear Modulus (GPa) = 18.76566 22.89534 20.83050
#
# Velocity S-wave (km/s) = 3.17494 3.50694 3.34506
# Velocity P-wave (km/s) = 5.53825 6.10256 5.82724
#
# Compressibility (1/GPa) = 0.03117292
#
# Stress axis : x y z
#
# Youngs Moduli (GPa) = 39.99675 27.88628 87.75979
#
# Poissons Ratio (x) = 0.36636 0.46692
# Poissons Ratio (y) = 0.52547 0.18287
# Poissons Ratio (z) = 0.21280 0.05811
#
# Static dielectric constant tensor:
#      x y z
#    x 3.612790 0.000000 0.000000 
#    y 0.000000 3.419640 0.000000 
#    z 0.000000 0.000000 3.454020 
# 
# 
# High freq. dielectric constant tensor:
#      x y z
#    x 1.723370 0.000000 0.000000 
#    y 0.000000 1.726030 0.000000 
#    z 0.000000 0.000000 1.723110 
# 
# From -- ./inp_files/33872.got.cif
#   From: 2010.03.12/outbox.cif.g09.slc.cpg/sg51_17_cif.got.tgz:33872.got - 2010.04.16 13:43:02.
