data_PCOD8209184
_publ_section_title
;
Structure prediction by ZEFSAII (Michael W. Deem and Ramdas Pophale) SiO2 
 PCOD8209184
Probable space group: P M M A
;
_chemical_formula_sum "Si O2"
_cell_formula_units_Z 36
_cell_length_a 9.124177
_cell_length_b 12.656708
_cell_length_c 19.625249
_cell_angle_alpha 90.000000
_cell_angle_beta 90.000000
_cell_angle_gamma 90.000000
_cell_volume 2266.363869
_symmetry_space_group_name_H-M "P M M A"
_symmetry_group_IT_number 51
_symmetry_cell_setting 'orthorhombic'
loop_
_space_group_symop_operation_xyz
x,y,z
1/2-x,-y,z
1/2+x,-y,-z
-x,y,-z
-x,-y,-z
1/2+x,y,-z
1/2-x,y,z
x,-y,z
loop_
_atom_site_type_symbol
_atom_site_label
_atom_site_fract_x
_atom_site_fract_y
_atom_site_fract_z
Si Si1 0.081550 0.122039 0.302685
Si Si2 0.420547 0.183784 0.153895
Si Si3 0.925458 0.000000 0.073448
Si Si4 0.580081 0.618064 0.932290
Si Si5 0.915370 0.125962 0.434359
O O1 0.250000 0.136366 0.323276
O O2 0.041517 0.184187 0.233896
O O3 0.987410 0.169294 0.364862
O O4 0.043974 0.000000 0.289119
O O5 0.250000 0.152057 0.142257
O O6 0.455503 0.302050 0.128856
O O7 0.523806 0.103322 0.113981
O O8 0.750000 0.000000 0.066034
O O9 0.000000 0.000000 0.000000
O O10 0.750000 0.618507 0.950044
O O11 0.527531 0.500000 0.911309
O O12 0.500000 0.658209 0.000000
O O13 0.750000 0.167175 0.437866
O O14 0.000000 0.171648 0.500000
O O15 0.924125 0.000000 0.434507
#
# Coordination Sequence:
#
# PCOD8209184 Si02
#       5
#     8   8   4   8   8
#     4   9  16  27  42  59  84 117 147 177 216 262
#     4  10  19  33  49  66  91 120 151 185 227 273
#     4  12  24  34  46  64  89 118 153 188 224 270
#     4   9  18  32  50  69  88 113 148 190 232 273
#     4   9  16  25  38  57  82 113 149 183 212 250
#
# _framework density 15.884475
#
# number of rings (size 3 to 8) (size 9 to 14) (size 15 to 20)
#    0.000    2.444    1.111    2.333    0.000    6.222 
#    0.000    0.000    0.000    0.000    0.000    0.000 
#    0.000    0.889    0.000    1.556    0.000    2.222 
#
# Total GULP energy -446376.476752 kJ/mol
# GULP energy per Si atom -12399.346576 kJ/mol
# Density = 1.584832 g / cm^3
# Si number density = 15.884475 Si / 1000 Ang^3
#
#
#
# Elastic Constant Matrix: (Units=GPa)
#
#
# Indices 1 2 3 4 5 6 
#
# 1 92.7148 33.2461 71.0521 0.0000 0.0000 0.0000
# 2 33.2461 59.0941 51.1978 0.0000 0.0000 0.0000
# 3 71.0521 51.1978 154.8515 0.0000 0.0000 0.0000
# 4 0.0000 0.0000 0.0000 14.2664 0.0000 0.0000
# 5 0.0000 0.0000 0.0000 0.0000 31.0350 0.0000
# 6 0.0000 0.0000 0.0000 0.0000 0.0000 10.8418
#
#
#
# Elastic Compliance Matrix: (Units=1/GPa)
#
#
# Indices 1 2 3 4 5 6 
#
# 1 0.017284 -0.003998 -0.006609 0.000000 0.000000 0.000000
# 2 -0.003998 0.024640 -0.006312 0.000000 0.000000 0.000000
# 3 -0.006609 -0.006312 0.011577 0.000000 0.000000 0.000000
# 4 0.000000 0.000000 0.000000 0.070095 0.000000 0.000000
# 5 0.000000 0.000000 0.000000 0.000000 0.032222 0.000000
# 6 0.000000 0.000000 0.000000 0.000000 0.000000 0.092236
#
#
# Mechanical properties :
#
#
# Convention : Reuss Voigt Hill
#
# Bulk Modulus (GPa) = 50.85644 68.62804 59.74224
# Shear Modulus (GPa) = 17.33428 21.30628 19.32028
#
# Velocity S-wave (km/s) = 3.30702 3.66639 3.49133
# Velocity P-wave (km/s) = 6.83139 7.82441 7.34470
#
# Compressibility (1/GPa) = 0.01966319
#
# Stress axis : x y z
#
# Youngs Moduli (GPa) = 57.85669 40.58394 86.37767
#
# Poissons Ratio (x) = 0.16227 0.57084
# Poissons Ratio (y) = 0.23133 0.54522
# Poissons Ratio (z) = 0.38236 0.25617
#
# Static dielectric constant tensor:
#      x y z
#    x 3.087890 0.000000 0.000000 
#    y 0.000000 2.796210 0.000000 
#    z 0.000000 0.000000 3.163170 
# 
# 
# High freq. dielectric constant tensor:
#      x y z
#    x 1.614400 0.000000 0.000000 
#    y 0.000000 1.559970 0.000000 
#    z 0.000000 0.000000 1.617410 
# 
# From -- ./inp_files/31311.got.cif
#   From: 2010.03.12/outbox.cif.g09.slc.cpg/sg51_16_cif.got.tgz:31311.got - 2010.04.16 13:43:02.
