data_PCOD8209443
_publ_section_title
;
Structure prediction by ZEFSAII (Michael W. Deem and Ramdas Pophale) SiO2 
 PCOD8209443
Probable space group: P M M A
;
_chemical_formula_sum "Si O2"
_cell_formula_units_Z 56
_cell_length_a 16.433449
_cell_length_b 14.697570
_cell_length_c 12.599307
_cell_angle_alpha 90.000000
_cell_angle_beta 90.000000
_cell_angle_gamma 90.000000
_cell_volume 3043.132883
_symmetry_space_group_name_H-M "P M M A"
_symmetry_group_IT_number 51
_symmetry_cell_setting 'orthorhombic'
loop_
_space_group_symop_operation_xyz
x,y,z
1/2-x,-y,z
1/2+x,-y,-z
-x,y,-z
-x,-y,-z
1/2+x,y,-z
1/2-x,y,z
x,-y,z
loop_
_atom_site_type_symbol
_atom_site_label
_atom_site_fract_x
_atom_site_fract_y
_atom_site_fract_z
Si Si1 0.093268 0.208611 0.462088
Si Si2 0.154882 0.105605 0.262423
Si Si3 0.905863 0.401854 0.478422
Si Si4 0.655644 0.783065 0.155329
Si Si5 0.406412 0.102518 0.029467
Si Si6 0.845326 0.599923 0.245884
Si Si7 0.655465 0.900002 0.345141
O O1 0.105731 0.165873 0.346647
O O2 0.126973 0.313112 0.458611
O O3 0.145959 0.150851 0.543954
O O4 0.000000 0.205804 0.500000
O O5 0.250000 0.132963 0.257711
O O6 0.111517 0.126751 0.150881
O O7 0.145701 0.000000 0.293069
O O8 0.864394 0.500000 0.510718
O O9 0.893457 0.383660 0.354209
O O10 0.000000 0.411341 0.500000
O O11 0.750000 0.781962 0.179655
O O12 0.624937 0.678126 0.163598
O O13 0.613992 0.844324 0.247905
O O14 0.641078 0.823974 0.039974
O O15 0.375084 0.000000 0.004647
O O16 0.500000 0.111668 0.000000
O O17 0.750000 0.607698 0.271963
O O18 0.865685 0.500000 0.197752
O O19 0.750000 0.912520 0.322848
O O20 0.613820 0.000000 0.349989
#
# Coordination Sequence:
#
# PCOD8209443 Si02
#       7
#     8   8   8   8   8   8   8
#     4  11  22  33  52  78 106 140 179 217 262 315
#     4  10  22  39  55  73 105 149 186 215 261 328
#     4   9  18  32  49  72 104 140 175 213 262 318
#     4  10  19  33  55  79 104 135 172 216 266 317
#     4  10  22  37  56  79 105 139 182 226 262 305
#     4   9  17  30  51  79 106 131 167 218 269 315
#     4  10  20  32  48  74 106 136 168 212 264 314
#
# _framework density 18.402087999999999
#
# number of rings (size 3 to 8) (size 9 to 14) (size 15 to 20)
#    0.000    2.143    1.429    1.714    2.000    4.286 
#    0.000    0.000    0.000    1.286    0.000    0.000 
#    0.000    0.000    0.000    0.000    0.000    0.000 
#
# Total GULP energy -694018.598994 kJ/mol
# GULP energy per Si atom -12393.189268 kJ/mol
# Density = 1.836020 g / cm^3
# Si number density = 18.402088 Si / 1000 Ang^3
#
#
#
# Elastic Constant Matrix: (Units=GPa)
#
#
# Indices 1 2 3 4 5 6 
#
# 1 38.2140 28.3295 25.2917 0.0000 0.0000 0.0000
# 2 28.3295 186.5154 85.1394 0.0000 0.0000 0.0000
# 3 25.2917 85.1394 120.6109 0.0000 0.0000 0.0000
# 4 0.0000 0.0000 0.0000 20.2059 0.0000 0.0000
# 5 0.0000 0.0000 0.0000 0.0000 28.4997 0.0000
# 6 0.0000 0.0000 0.0000 0.0000 0.0000 -3.4477
#
#
#
# Elastic Compliance Matrix: (Units=1/GPa)
#
#
# Indices 1 2 3 4 5 6 
#
# 1 0.031209 -0.002586 -0.004719 0.000000 0.000000 0.000000
# 2 -0.002586 0.008125 -0.005193 0.000000 0.000000 0.000000
# 3 -0.004719 -0.005193 0.012946 0.000000 0.000000 0.000000
# 4 0.000000 0.000000 0.000000 0.049490 0.000000 0.000000
# 5 0.000000 0.000000 0.000000 0.000000 0.035088 0.000000
# 6 0.000000 0.000000 0.000000 0.000000 0.000000 -0.290050
#
#
# Mechanical properties :
#
#
# Convention : Reuss Voigt Hill
#
# Bulk Modulus (GPa) = 36.65151 69.20682 52.92916
# Shear Modulus (GPa) = -41.98099 22.82357 -9.57871
#
# Velocity S-wave (km/s) = -4.78149 3.52557 -2.28397
# Velocity P-wave (km/s) = 3.24397 7.36632 4.67650
#
# Compressibility (1/GPa) = 0.02728401
#
# Stress axis : x y z
#
# Youngs Moduli (GPa) = 32.04224 123.08061 77.24199
#
# Poissons Ratio (x) = 0.31832 0.36448
# Poissons Ratio (y) = 0.08287 0.40111
# Poissons Ratio (z) = 0.15120 0.63915
#
# Static dielectric constant tensor:
#      x y z
#    x 3.186430 0.000000 0.000000 
#    y 0.000000 4.089960 0.000000 
#    z 0.000000 0.000000 3.290090 
# 
# 
# High freq. dielectric constant tensor:
#      x y z
#    x 1.694910 0.000000 0.000000 
#    y 0.000000 1.729970 0.000000 
#    z 0.000000 0.000000 1.693120 
# 
# From -- ./inp_files/16584.got.cif
#   From: 2010.03.12/outbox.cif.g09.slc.cpg/sg51_9_cif.got.tgz:16584.got - 2010.04.16 13:43:02.
