data_PCOD8209700
_publ_section_title
;
Structure prediction by ZEFSAII (Michael W. Deem and Ramdas Pophale) SiO2 
 PCOD8209700
Probable space group: P M M A
;
_chemical_formula_sum "Si O2"
_cell_formula_units_Z 44
_cell_length_a 9.961591
_cell_length_b 27.047473
_cell_length_c 8.568905
_cell_angle_alpha 90.000000
_cell_angle_beta 90.000000
_cell_angle_gamma 90.000000
_cell_volume 2308.770319
_symmetry_space_group_name_H-M "P M M A"
_symmetry_group_IT_number 51
_symmetry_cell_setting 'orthorhombic'
loop_
_space_group_symop_operation_xyz
x,y,z
1/2-x,-y,z
1/2+x,-y,-z
-x,y,-z
-x,-y,-z
1/2+x,y,-z
1/2-x,y,z
x,-y,z
loop_
_atom_site_type_symbol
_atom_site_label
_atom_site_fract_x
_atom_site_fract_y
_atom_site_fract_z
Si Si1 0.903102 0.000000 0.145355
Si Si2 0.750000 0.443956 0.804226
Si Si3 0.597645 0.811919 0.145454
Si Si4 0.092828 0.283944 0.646446
Si Si5 0.250000 0.445795 0.826255
Si Si6 0.595285 0.094927 0.353206
Si Si7 0.503603 0.381725 0.184955
O O1 0.933950 0.951773 0.245518
O O2 0.750000 0.000000 0.085357
O O3 0.000000 0.000000 0.000000
O O4 0.750000 0.500000 0.732213
O O5 0.624752 0.411004 0.750727
O O6 0.750000 0.449772 0.988611
O O7 0.750000 0.819453 0.085781
O O8 0.582764 0.760303 0.232418
O O9 0.556405 0.855633 0.261394
O O10 0.500000 0.812778 0.000000
O O11 0.250000 0.293319 0.601135
O O12 0.023010 0.330595 0.727043
O O13 0.000000 0.270020 0.500000
O O14 0.250000 0.500000 0.751043
O O15 0.377729 0.417327 0.764620
O O16 0.500000 0.090653 0.500000
O O17 0.750000 0.096187 0.408783
O O18 0.500000 0.371363 0.000000
#
# Coordination Sequence:
#
# PCOD8209700 Si02
#       7
#     4   4   8   8   4   8   8
#     4  10  21  36  56  86 120 160 207 254 296 342
#     4   9  18  30  53  87 113 137 177 224 275 332
#     4  10  22  40  61  87 116 147 189 238 287 342
#     4  11  24  40  57  80 110 146 187 229 279 336
#     4   9  16  30  53  81 111 141 175 224 275 320
#     4  10  21  37  58  86 122 158 199 244 292 348
#     4  10  19  34  56  82 111 141 180 227 274 326
#
# _framework density 19.057765
#
# number of rings (size 3 to 8) (size 9 to 14) (size 15 to 20)
#    0.000    2.000    0.909    2.455    1.273    4.364 
#    0.000    0.000    0.000    3.273    0.000    0.000 
#    0.000    0.000    0.000    0.000    0.000    0.000 
#
# Total GULP energy -545575.019457 kJ/mol
# GULP energy per Si atom -12399.432260 kJ/mol
# Density = 1.901439 g / cm^3
# Si number density = 19.057765 Si / 1000 Ang^3
#
#
#
# Elastic Constant Matrix: (Units=GPa)
#
#
# Indices 1 2 3 4 5 6 
#
# 1 156.4367 63.1313 73.8565 0.0000 0.0000 0.0000
# 2 63.1313 135.4388 36.7203 0.0000 0.0000 0.0000
# 3 73.8565 36.7203 90.0908 0.0000 0.0000 0.0000
# 4 0.0000 0.0000 0.0000 29.1558 0.0000 0.0000
# 5 0.0000 0.0000 0.0000 0.0000 39.2031 0.0000
# 6 0.0000 0.0000 0.0000 0.0000 0.0000 12.8937
#
#
#
# Elastic Compliance Matrix: (Units=1/GPa)
#
#
# Indices 1 2 3 4 5 6 
#
# 1 0.011516 -0.003157 -0.008154 0.000000 0.000000 0.000000
# 2 -0.003157 0.009166 -0.001148 0.000000 0.000000 0.000000
# 3 -0.008154 -0.001148 0.018253 0.000000 0.000000 0.000000
# 4 0.000000 0.000000 0.000000 0.034299 0.000000 0.000000
# 5 0.000000 0.000000 0.000000 0.000000 0.025508 0.000000
# 6 0.000000 0.000000 0.000000 0.000000 0.000000 0.077557
#
#
# Mechanical properties :
#
#
# Convention : Reuss Voigt Hill
#
# Bulk Modulus (GPa) = 71.34364 81.04249 76.19307
# Shear Modulus (GPa) = 24.28487 30.13438 27.20962
#
# Velocity S-wave (km/s) = 3.57357 3.98076 3.78265
# Velocity P-wave (km/s) = 7.38539 7.98408 7.69056
#
# Compressibility (1/GPa) = 0.01401667
#
# Stress axis : x y z
#
# Youngs Moduli (GPa) = 86.83417 109.09575 54.78694
#
# Poissons Ratio (x) = 0.34444 0.44674
# Poissons Ratio (y) = 0.27416 0.06288
# Poissons Ratio (z) = 0.70806 0.12522
#
# Static dielectric constant tensor:
#      x y z
#    x 3.735980 0.000000 0.000000 
#    y 0.000000 3.752970 0.000000 
#    z 0.000000 0.000000 3.153140 
# 
# 
# High freq. dielectric constant tensor:
#      x y z
#    x 1.753990 0.000000 0.000000 
#    y 0.000000 1.765770 0.000000 
#    z 0.000000 0.000000 1.716580 
# 
# From -- ./inp_files/5919.got.cif
#   From: 2010.03.12/outbox.cif.g09.slc.cpg/sg51_3_cif.got.tgz:5919.got - 2010.04.16 13:43:02.
