data_PCOD8209349
_publ_section_title
;
Structure prediction by ZEFSAII (Michael W. Deem and Ramdas Pophale) SiO2 
 PCOD8209349
Probable space group: P M M A
;
_chemical_formula_sum "Si O2"
_cell_formula_units_Z 64
_cell_length_a 16.227437
_cell_length_b 23.464005
_cell_length_c 9.184724
_cell_angle_alpha 90.000000
_cell_angle_beta 90.000000
_cell_angle_gamma 90.000000
_cell_volume 3497.181599
_symmetry_space_group_name_H-M "P M M A"
_symmetry_group_IT_number 51
_symmetry_cell_setting 'orthorhombic'
loop_
_space_group_symop_operation_xyz
x,y,z
1/2-x,-y,z
1/2+x,-y,-z
-x,y,-z
-x,-y,-z
1/2+x,y,-z
1/2-x,y,z
x,-y,z
loop_
_atom_site_type_symbol
_atom_site_label
_atom_site_fract_x
_atom_site_fract_y
_atom_site_fract_z
Si Si1 0.342926 0.439892 0.523637
Si Si2 0.847503 0.259919 0.641397
Si Si3 0.955089 0.671743 0.854634
Si Si4 0.655033 0.566594 0.812646
Si Si5 0.004626 0.066399 0.833907
Si Si6 0.571926 0.336340 0.401893
Si Si7 0.342044 0.064826 0.645688
Si Si8 0.419980 0.860929 0.406086
O O1 0.250000 0.452393 0.560708
O O2 0.390956 0.500000 0.550453
O O3 0.352753 0.419631 0.357707
O O4 0.369712 0.389876 0.631249
O O5 0.750000 0.268209 0.641610
O O6 0.882493 0.289045 0.788623
O O7 0.882980 0.285651 0.489799
O O8 0.872105 0.194321 0.648003
O O9 0.913810 0.608922 0.883065
O O10 0.033250 0.681389 0.749445
O O11 0.000000 0.693570 0.000000
O O12 0.750000 0.579137 0.863339
O O13 0.633990 0.500000 0.846163
O O14 0.941753 0.102200 0.735870
O O15 0.097299 0.078414 0.779153
O O16 0.980641 0.000000 0.820861
O O17 0.000000 0.087507 0.000000
O O18 0.500000 0.362823 0.500000
O O19 0.250000 0.076481 0.703296
O O20 0.358614 0.103031 0.505471
O O21 0.354194 0.000000 0.593784
O O22 0.500000 0.843834 0.500000
#
# Coordination Sequence:
#
# PCOD8209349 Si02
#       8
#     8   8   8   8   8   8   8   8
#     4   9  16  28  50  78 103 129 167 214 261 307
#     4  11  22  39  59  76 101 137 181 226 272 319
#     4  11  23  37  54  79 110 140 174 216 269 322
#     4   9  17  32  55  79 106 142 176 209 260 321
#     4   9  18  33  54  80 113 151 182 212 258 314
#     4  10  19  33  54  77  98 129 172 219 261 307
#     4   9  17  31  52  80 112 143 178 221 266 310
#     4  10  19  33  56  82 106 136 178 224 269 313
#
# _framework density 18.300450999999999
#
# number of rings (size 3 to 8) (size 9 to 14) (size 15 to 20)
#    0.000    2.250    2.500    3.375    0.000    3.000 
#    0.000    3.750    0.000    4.500    0.000    0.000 
#    0.000    0.000    0.000    0.000    0.000    0.000 
#
# Total GULP energy -792972.467808 kJ/mol
# GULP energy per Si atom -12390.194810 kJ/mol
# Density = 1.825880 g / cm^3
# Si number density = 18.300451 Si / 1000 Ang^3
#
#
#
# Elastic Constant Matrix: (Units=GPa)
#
#
# Indices 1 2 3 4 5 6 
#
# 1 93.4965 47.2429 50.8150 0.0000 0.0000 0.0000
# 2 47.2429 96.3570 45.2029 0.0000 0.0000 0.0000
# 3 50.8150 45.2029 107.9502 0.0000 0.0000 0.0000
# 4 0.0000 0.0000 0.0000 6.7493 0.0000 0.0000
# 5 0.0000 0.0000 0.0000 0.0000 18.4387 0.0000
# 6 0.0000 0.0000 0.0000 0.0000 0.0000 29.8589
#
#
#
# Elastic Compliance Matrix: (Units=1/GPa)
#
#
# Indices 1 2 3 4 5 6 
#
# 1 0.016429 -0.005509 -0.005426 0.000000 0.000000 0.000000
# 2 -0.005509 0.014762 -0.003588 0.000000 0.000000 0.000000
# 3 -0.005426 -0.003588 0.013321 0.000000 0.000000 0.000000
# 4 0.000000 0.000000 0.000000 0.148164 0.000000 0.000000
# 5 0.000000 0.000000 0.000000 0.000000 0.054234 0.000000
# 6 0.000000 0.000000 0.000000 0.000000 0.000000 0.033491
#
#
# Mechanical properties :
#
#
# Convention : Reuss Voigt Hill
#
# Bulk Modulus (GPa) = 64.66760 64.92503 64.79631
# Shear Modulus (GPa) = 15.89308 21.31225 18.60266
#
# Velocity S-wave (km/s) = 2.95015 3.41629 3.19174
# Velocity P-wave (km/s) = 6.85696 7.14952 7.00477
#
# Compressibility (1/GPa) = 0.01546370
#
# Stress axis : x y z
#
# Youngs Moduli (GPa) = 60.86969 67.73928 75.07225
#
# Poissons Ratio (x) = 0.37318 0.40738
# Poissons Ratio (y) = 0.33534 0.26939
# Poissons Ratio (z) = 0.33031 0.24307
#
# Static dielectric constant tensor:
#      x y z
#    x 3.498920 0.000000 0.000000 
#    y 0.000000 3.337770 0.000000 
#    z 0.000000 0.000000 3.274300 
# 
# 
# High freq. dielectric constant tensor:
#      x y z
#    x 1.713280 0.000000 0.000000 
#    y 0.000000 1.712460 0.000000 
#    z 0.000000 0.000000 1.676180 
# 
# From -- ./inp_files/8737.got.cif
#   From: 2010.03.12/outbox.cif.g09.slc.cpg/sg51_5_cif.got.tgz:8737.got - 2010.04.16 13:43:02.
