data_PCOD8209996
_publ_section_title
;
Structure prediction by ZEFSAII (Michael W. Deem and Ramdas Pophale) SiO2 
 PCOD8209996
Probable space group: P M M A
;
_chemical_formula_sum "Si O2"
_cell_formula_units_Z 48
_cell_length_a 18.570816
_cell_length_b 7.723165
_cell_length_c 17.542381
_cell_angle_alpha 90.000000
_cell_angle_beta 90.000000
_cell_angle_gamma 90.000000
_cell_volume 2516.024348
_symmetry_space_group_name_H-M "P M M A"
_symmetry_group_IT_number 51
_symmetry_cell_setting 'orthorhombic'
loop_
_space_group_symop_operation_xyz
x,y,z
1/2-x,-y,z
1/2+x,-y,-z
-x,y,-z
-x,-y,-z
1/2+x,y,-z
1/2-x,y,z
x,-y,z
loop_
_atom_site_type_symbol
_atom_site_label
_atom_site_fract_x
_atom_site_fract_y
_atom_site_fract_z
Si Si1 0.169271 0.294659 0.743240
Si Si2 0.973449 0.500000 0.913975
Si Si3 0.065049 0.806730 0.453276
Si Si4 0.164696 0.500000 0.188281
Si Si5 0.468464 0.810127 0.822208
Si Si6 0.903893 0.798273 0.713610
Si Si7 0.666368 0.306796 0.426394
O O1 0.250000 0.237981 0.765914
O O2 0.161404 0.500000 0.747185
O O3 0.115313 0.204788 0.801377
O O4 0.150743 0.231630 0.657686
O O5 0.887964 0.500000 0.887867
O O6 0.010803 0.328271 0.884298
O O7 0.000000 0.500000 0.000000
O O8 0.088753 0.722665 0.372620
O O9 0.132845 0.814483 0.509330
O O10 0.000000 0.711734 0.500000
O O11 0.039240 0.000000 0.432425
O O12 0.250000 0.500000 0.164659
O O13 0.149372 0.673141 0.238334
O O14 0.515988 0.782139 0.746879
O O15 0.482151 0.000000 0.857457
O O16 0.876241 0.000000 0.716689
O O17 0.750000 0.311950 0.441870
O O18 0.634019 0.500000 0.434440
#
# Coordination Sequence:
#
# PCOD8209996 Si02
#       7
#     8   4   8   4   8   8   8
#     4   9  17  31  50  75 110 149 186 230 279 324
#     4  10  22  42  64  89 120 145 172 213 271 335
#     4  10  20  33  47  69 103 141 186 239 288 327
#     4  10  22  40  63  87 110 145 190 225 274 347
#     4  10  19  35  60  84 110 145 183 222 267 326
#     4   9  20  36  54  80 111 145 190 243 285 325
#     4   9  19  32  45  66  99 138 180 224 272 323
#
# _framework density 19.077718000000001
#
# number of rings (size 3 to 8) (size 9 to 14) (size 15 to 20)
#    0.000    2.500    0.833    2.000    1.167    4.333 
#    0.000    4.167    0.000    0.000    0.000    0.000 
#    0.000    0.000    0.000    0.000    0.000    0.000 
#
# Total GULP energy -594747.910912 kJ/mol
# GULP energy per Si atom -12390.581477 kJ/mol
# Density = 1.903430 g / cm^3
# Si number density = 19.077718 Si / 1000 Ang^3
#
#
#
# Elastic Constant Matrix: (Units=GPa)
#
#
# Indices 1 2 3 4 5 6 
#
# 1 107.7428 38.9338 63.4710 0.0000 0.0000 0.0000
# 2 38.9338 85.3690 43.6498 0.0000 0.0000 0.0000
# 3 63.4710 43.6498 109.6320 0.0000 0.0000 0.0000
# 4 0.0000 0.0000 0.0000 37.9944 0.0000 0.0000
# 5 0.0000 0.0000 0.0000 0.0000 21.4883 0.0000
# 6 0.0000 0.0000 0.0000 0.0000 0.0000 14.1570
#
#
#
# Elastic Compliance Matrix: (Units=1/GPa)
#
#
# Indices 1 2 3 4 5 6 
#
# 1 0.014652 -0.002944 -0.007310 0.000000 0.000000 0.000000
# 2 -0.002944 0.015300 -0.004387 0.000000 0.000000 0.000000
# 3 -0.007310 -0.004387 0.015100 0.000000 0.000000 0.000000
# 4 0.000000 0.000000 0.000000 0.026320 0.000000 0.000000
# 5 0.000000 0.000000 0.000000 0.000000 0.046537 0.000000
# 6 0.000000 0.000000 0.000000 0.000000 0.000000 0.070637
#
#
# Mechanical properties :
#
#
# Convention : Reuss Voigt Hill
#
# Bulk Modulus (GPa) = 63.41683 66.09476 64.75579
# Shear Modulus (GPa) = 22.41303 25.17390 23.79347
#
# Velocity S-wave (km/s) = 3.43129 3.63649 3.53538
# Velocity P-wave (km/s) = 7.00085 7.23549 7.11914
#
# Compressibility (1/GPa) = 0.01576869
#
# Stress axis : x y z
#
# Youngs Moduli (GPa) = 68.25091 65.36055 66.22366
#
# Poissons Ratio (x) = 0.19245 0.48412
# Poissons Ratio (y) = 0.20096 0.29052
# Poissons Ratio (z) = 0.49894 0.28673
#
# Static dielectric constant tensor:
#      x y z
#    x 3.469300 0.000000 0.000000 
#    y 0.000000 4.216240 0.000000 
#    z 0.000000 0.000000 3.270640 
# 
# 
# High freq. dielectric constant tensor:
#      x y z
#    x 1.736380 0.000000 0.000000 
#    y 0.000000 1.744580 0.000000 
#    z 0.000000 0.000000 1.710030 
# 
# From -- ./inp_files/24857.got.cif
#   From: 2010.03.12/outbox.cif.g09.slc.cpg/sg51_13_cif.got.tgz:24857.got - 2010.04.16 13:43:02.
