data_PCOD8209007
_publ_section_title
;
Structure prediction by ZEFSAII (Michael W. Deem and Ramdas Pophale) SiO2 
 PCOD8209007
Probable space group: P M M A
;
_chemical_formula_sum "Si O2"
_cell_formula_units_Z 64
_cell_length_a 29.116034
_cell_length_b 9.245814
_cell_length_c 12.633895
_cell_angle_alpha 90.000000
_cell_angle_beta 90.000000
_cell_angle_gamma 90.000000
_cell_volume 3401.062661
_symmetry_space_group_name_H-M "P M M A"
_symmetry_group_IT_number 51
_symmetry_cell_setting 'orthorhombic'
loop_
_space_group_symop_operation_xyz
x,y,z
1/2-x,-y,z
1/2+x,-y,-z
-x,y,-z
-x,-y,-z
1/2+x,y,-z
1/2-x,y,z
x,-y,z
loop_
_atom_site_type_symbol
_atom_site_label
_atom_site_fract_x
_atom_site_fract_y
_atom_site_fract_z
Si Si1 0.397234 0.171826 0.384004
Si Si2 0.424091 0.334240 0.589307
Si Si3 0.799386 0.833705 0.545527
Si Si4 0.679274 0.336538 0.344967
Si Si5 0.301755 0.331118 0.889633
Si Si6 0.111880 0.828495 0.961145
Si Si7 0.060232 0.169851 0.166892
Si Si8 0.958759 0.169465 0.219194
O O1 0.424710 0.250341 0.478046
O O2 0.343139 0.218265 0.385826
O O3 0.417129 0.232251 0.274067
O O4 0.404080 0.000000 0.396623
O O5 0.439195 0.500000 0.570384
O O6 0.375030 0.323633 0.644359
O O7 0.458574 0.256999 0.670830
O O8 0.750000 0.808119 0.604739
O O9 0.795719 0.755042 0.433827
O O10 0.806742 0.000000 0.518220
O O11 0.696376 0.500000 0.358389
O O12 0.694281 0.276322 0.231062
O O13 0.250000 0.301487 0.931127
O O14 0.314284 0.500000 0.896537
O O15 0.337792 0.242616 0.960266
O O16 0.085626 0.765900 0.064149
O O17 0.117558 0.000000 0.966711
O O18 0.082586 0.783259 0.857984
O O19 0.006429 0.207802 0.160833
O O20 0.067766 0.000000 0.166740
O O21 0.955906 0.000000 0.246361
#
# Coordination Sequence:
#
# PCOD8209007 Si02
#       8
#     8   8   8   8   8   8   8   8
#     4   9  18  34  53  72 102 139 175 210 256 315
#     4  10  19  32  52  78 109 136 166 210 260 309
#     4   9  17  28  45  71  98 125 163 210 254 295
#     4   9  17  30  48  70 100 135 166 198 245 308
#     4  10  20  34  52  75 106 142 174 206 257 320
#     4  10  20  35  56  80 106 134 175 227 265 300
#     4   9  19  36  56  77 101 138 181 219 261 313
#     4  10  19  33  56  81 105 135 174 217 266 318
#
# _framework density 18.817647999999998
#
# number of rings (size 3 to 8) (size 9 to 14) (size 15 to 20)
#    0.000    2.500    1.250    1.125    0.000    4.000 
#    0.000    5.000    0.000    3.750    0.000    0.000 
#    0.000    0.000    0.000    0.000    0.000    0.000 
#
# Total GULP energy -793428.524766 kJ/mol
# GULP energy per Si atom -12397.320699 kJ/mol
# Density = 1.877482 g / cm^3
# Si number density = 18.817648 Si / 1000 Ang^3
#
#
#
# Elastic Constant Matrix: (Units=GPa)
#
#
# Indices 1 2 3 4 5 6 
#
# 1 98.0283 28.1304 42.7424 0.0000 0.0000 0.0000
# 2 28.1304 44.5772 32.6016 0.0000 0.0000 0.0000
# 3 42.7424 32.6016 93.3286 0.0000 0.0000 0.0000
# 4 0.0000 0.0000 0.0000 12.9155 0.0000 0.0000
# 5 0.0000 0.0000 0.0000 0.0000 17.3942 0.0000
# 6 0.0000 0.0000 0.0000 0.0000 0.0000 15.5263
#
#
#
# Elastic Compliance Matrix: (Units=1/GPa)
#
#
# Indices 1 2 3 4 5 6 
#
# 1 0.013661 -0.005433 -0.004358 0.000000 0.000000 0.000000
# 2 -0.005433 0.032291 -0.008792 0.000000 0.000000 0.000000
# 3 -0.004358 -0.008792 0.015782 0.000000 0.000000 0.000000
# 4 0.000000 0.000000 0.000000 0.077426 0.000000 0.000000
# 5 0.000000 0.000000 0.000000 0.000000 0.057490 0.000000
# 6 0.000000 0.000000 0.000000 0.000000 0.000000 0.064407
#
#
# Mechanical properties :
#
#
# Convention : Reuss Voigt Hill
#
# Bulk Modulus (GPa) = 40.70405 49.20920 44.95663
# Shear Modulus (GPa) = 16.31783 17.99784 17.15784
#
# Velocity S-wave (km/s) = 2.94795 3.09598 3.02287
# Velocity P-wave (km/s) = 5.76757 6.24399 6.01051
#
# Compressibility (1/GPa) = 0.02456758
#
# Stress axis : x y z
#
# Youngs Moduli (GPa) = 73.20356 30.96796 63.36320
#
# Poissons Ratio (x) = 0.16825 0.27616
# Poissons Ratio (y) = 0.39771 0.55708
# Poissons Ratio (z) = 0.31905 0.27227
#
# Static dielectric constant tensor:
#      x y z
#    x 3.578810 0.000000 0.000000 
#    y 0.000000 3.252600 0.000000 
#    z 0.000000 0.000000 3.395350 
# 
# 
# High freq. dielectric constant tensor:
#      x y z
#    x 1.741650 0.000000 0.000000 
#    y 0.000000 1.707210 0.000000 
#    z 0.000000 0.000000 1.713200 
# 
# From -- ./inp_files/19436.got.cif
#   From: 2010.03.12/outbox.cif.g09.slc.cpg/sg51_10_cif.got.tgz:19436.got - 2010.04.16 13:43:02.
