data_PCOD8209832
_publ_section_title
;
Structure prediction by ZEFSAII (Michael W. Deem and Ramdas Pophale) SiO2 
 PCOD8209832
Probable space group: P M M A
;
_chemical_formula_sum "Si O2"
_cell_formula_units_Z 56
_cell_length_a 15.428817
_cell_length_b 9.120092
_cell_length_c 20.917114
_cell_angle_alpha 90.000000
_cell_angle_beta 90.000000
_cell_angle_gamma 90.000000
_cell_volume 2943.293766
_symmetry_space_group_name_H-M "P M M A"
_symmetry_group_IT_number 51
_symmetry_cell_setting 'orthorhombic'
loop_
_space_group_symop_operation_xyz
x,y,z
1/2-x,-y,z
1/2+x,-y,-z
-x,y,-z
-x,-y,-z
1/2+x,y,-z
1/2-x,y,z
x,-y,z
loop_
_atom_site_type_symbol
_atom_site_label
_atom_site_fract_x
_atom_site_fract_y
_atom_site_fract_z
Si Si1 0.907419 0.160418 0.032699
Si Si2 0.995250 0.826538 0.845918
Si Si3 0.991243 0.673473 0.287290
Si Si4 0.151899 0.167424 0.633756
Si Si5 0.848138 0.333714 0.919815
Si Si6 0.096999 0.830565 0.492943
Si Si7 0.346626 0.330511 0.369523
O O1 0.925164 0.210878 0.105734
O O2 0.861985 0.000000 0.031475
O O3 0.850283 0.275915 0.993206
O O4 0.000000 0.147018 0.000000
O O5 0.904894 0.763000 0.872038
O O6 0.019893 0.753864 0.779583
O O7 0.983733 0.000000 0.838191
O O8 0.989508 0.500000 0.276539
O O9 0.911264 0.719786 0.331472
O O10 0.081654 0.726265 0.319213
O O11 0.250000 0.195282 0.657269
O O12 0.148876 0.195908 0.558099
O O13 0.123212 0.000000 0.648753
O O14 0.750000 0.326261 0.894845
O O15 0.882985 0.500000 0.919200
O O16 0.147104 0.749693 0.436888
O O17 0.000000 0.766895 0.500000
O O18 0.092843 0.000000 0.473630
O O19 0.250000 0.303430 0.341148
O O20 0.363592 0.500000 0.383298
#
# Coordination Sequence:
#
# PCOD8209832 Si02
#       7
#     8   8   8   8   8   8   8
#     4   8  16  32  53  77 103 134 173 217 261 311
#     4  10  21  37  57  79 107 145 188 228 273 328
#     4  11  23  38  57  81 112 150 192 237 285 338
#     4  10  21  38  59  82 110 145 186 234 287 341
#     4  10  20  33  53  84 117 145 177 221 271 324
#     4  10  19  34  59  86 111 140 181 234 286 337
#     4  10  22  38  55  79 113 150 186 228 282 342
#
# _framework density 19.026304
#
# number of rings (size 3 to 8) (size 9 to 14) (size 15 to 20)
#    0.000    2.143    1.429    2.571    0.000    7.429 
#    0.000    2.143    0.000    0.857    0.000    0.000 
#    0.000    0.000    0.000    0.000    0.000    0.000 
#
# Total GULP energy -694369.325242 kJ/mol
# GULP energy per Si atom -12399.452236 kJ/mol
# Density = 1.898300 g / cm^3
# Si number density = 19.026304 Si / 1000 Ang^3
#
#
#
# Elastic Constant Matrix: (Units=GPa)
#
#
# Indices 1 2 3 4 5 6 
#
# 1 72.7850 23.1005 15.6298 0.0000 0.0000 0.0000
# 2 23.1005 76.2723 34.6968 0.0000 0.0000 0.0000
# 3 15.6298 34.6968 90.4762 0.0000 0.0000 0.0000
# 4 0.0000 0.0000 0.0000 21.8643 0.0000 0.0000
# 5 0.0000 0.0000 0.0000 0.0000 15.2175 0.0000
# 6 0.0000 0.0000 0.0000 0.0000 0.0000 23.6862
#
#
#
# Elastic Compliance Matrix: (Units=1/GPa)
#
#
# Indices 1 2 3 4 5 6 
#
# 1 0.015282 -0.004152 -0.001048 0.000000 0.000000 0.000000
# 2 -0.004152 0.017009 -0.005806 0.000000 0.000000 0.000000
# 3 -0.001048 -0.005806 0.013460 0.000000 0.000000 0.000000
# 4 0.000000 0.000000 0.000000 0.045737 0.000000 0.000000
# 5 0.000000 0.000000 0.000000 0.000000 0.065714 0.000000
# 6 0.000000 0.000000 0.000000 0.000000 0.000000 0.042219
#
#
# Mechanical properties :
#
#
# Convention : Reuss Voigt Hill
#
# Bulk Modulus (GPa) = 42.12165 42.93198 42.52681
# Shear Modulus (GPa) = 21.80124 23.22735 22.51430
#
# Velocity S-wave (km/s) = 3.38871 3.49779 3.44368
# Velocity P-wave (km/s) = 6.12355 6.23909 6.18159
#
# Compressibility (1/GPa) = 0.02374076
#
# Stress axis : x y z
#
# Youngs Moduli (GPa) = 65.43745 58.79089 74.29376
#
# Poissons Ratio (x) = 0.24408 0.07784
# Poissons Ratio (y) = 0.27168 0.43133
# Poissons Ratio (z) = 0.06856 0.34133
#
# Static dielectric constant tensor:
#      x y z
#    x 3.450910 0.000000 0.000000 
#    y 0.000000 3.508610 0.000000 
#    z 0.000000 0.000000 3.561080 
# 
# 
# High freq. dielectric constant tensor:
#      x y z
#    x 1.733100 0.000000 0.000000 
#    y 0.000000 1.740330 0.000000 
#    z 0.000000 0.000000 1.733640 
# 
# From -- ./inp_files/33430.got.cif
#   From: 2010.03.12/outbox.cif.g09.slc.cpg/sg51_17_cif.got.tgz:33430.got - 2010.04.16 13:43:02.
