data_PCOD8209219
_publ_section_title
;
Structure prediction by ZEFSAII (Michael W. Deem and Ramdas Pophale) SiO2 
 PCOD8209219
Probable space group: P M M A
;
_chemical_formula_sum "Si O2"
_cell_formula_units_Z 44
_cell_length_a 9.013808
_cell_length_b 14.019096
_cell_length_c 18.863192
_cell_angle_alpha 90.000000
_cell_angle_beta 90.000000
_cell_angle_gamma 90.000000
_cell_volume 2383.655551
_symmetry_space_group_name_H-M "P M M A"
_symmetry_group_IT_number 51
_symmetry_cell_setting 'orthorhombic'
loop_
_space_group_symop_operation_xyz
x,y,z
1/2-x,-y,z
1/2+x,-y,-z
-x,y,-z
-x,-y,-z
1/2+x,y,-z
1/2-x,y,z
x,-y,z
loop_
_atom_site_type_symbol
_atom_site_label
_atom_site_fract_x
_atom_site_fract_y
_atom_site_fract_z
Si Si1 0.918592 0.270711 0.427581
Si Si2 0.075742 0.292542 0.923364
Si Si3 0.082522 0.500000 0.928025
Si Si4 0.425693 0.227435 0.209441
Si Si5 0.420872 0.609433 0.706371
Si Si6 0.923607 0.109110 0.323694
O O1 0.750000 0.254025 0.448481
O O2 0.939151 0.361093 0.375808
O O3 0.978816 0.174772 0.388929
O O4 0.000000 0.292630 0.500000
O O5 0.250000 0.269047 0.930163
O O6 0.048838 0.399540 0.888841
O O7 0.996866 0.220554 0.869058
O O8 0.000000 0.282606 0.000000
O O9 0.250000 0.500000 0.952485
O O10 0.000000 0.500000 0.000000
O O11 0.250000 0.221894 0.203472
O O12 0.472927 0.326002 0.246283
O O13 0.486328 0.137210 0.253321
O O14 0.250000 0.625008 0.730441
O O15 0.468942 0.500000 0.715505
O O16 0.750000 0.128243 0.308700
O O17 0.956514 0.000000 0.343324
#
# Coordination Sequence:
#
# PCOD8209219 Si02
#       6
#     8   8   4   8   8   8
#     4   9  18  32  51  78 108 137 170 212 260 313
#     4  10  19  33  51  74 104 141 180 218 261 307
#     4   8  16  28  44  66  94 130 169 206 245 290
#     4  11  22  34  51  79 109 137 172 218 268 317
#     4   9  19  36  54  71  99 143 188 222 256 302
#     4   9  19  38  60  78 100 135 176 215 260 316
#
# _framework density 18.459042
#
# number of rings (size 3 to 8) (size 9 to 14) (size 15 to 20)
#    0.000    2.545    0.000    3.273    1.273    5.091 
#    0.000    0.000    0.000    0.545    0.000    0.000 
#    0.000    0.000    0.000    0.000    0.000    0.000 
#
# Total GULP energy -545355.023632 kJ/mol
# GULP energy per Si atom -12394.432355 kJ/mol
# Density = 1.841703 g / cm^3
# Si number density = 18.459042 Si / 1000 Ang^3
#
#
#
# Elastic Constant Matrix: (Units=GPa)
#
#
# Indices 1 2 3 4 5 6 
#
# 1 82.4136 6.4585 31.0322 0.0000 0.0000 0.0000
# 2 6.4585 52.7363 -8.9724 0.0000 0.0000 0.0000
# 3 31.0322 -8.9724 65.8430 0.0000 0.0000 0.0000
# 4 0.0000 0.0000 0.0000 17.9550 0.0000 0.0000
# 5 0.0000 0.0000 0.0000 0.0000 35.0103 0.0000
# 6 0.0000 0.0000 0.0000 0.0000 0.0000 20.9621
#
#
#
# Elastic Compliance Matrix: (Units=1/GPa)
#
#
# Indices 1 2 3 4 5 6 
#
# 1 0.015251 -0.003164 -0.007619 0.000000 0.000000 0.000000
# 2 -0.003164 0.020069 0.004226 0.000000 0.000000 0.000000
# 3 -0.007619 0.004226 0.019354 0.000000 0.000000 0.000000
# 4 0.000000 0.000000 0.000000 0.055695 0.000000 0.000000
# 5 0.000000 0.000000 0.000000 0.000000 0.028563 0.000000
# 6 0.000000 0.000000 0.000000 0.000000 0.000000 0.047705
#
#
# Mechanical properties :
#
#
# Convention : Reuss Voigt Hill
#
# Bulk Modulus (GPa) = 24.06162 28.66996 26.36579
# Shear Modulus (GPa) = 23.40780 26.28378 24.84579
#
# Velocity S-wave (km/s) = 3.56489 3.77755 3.67276
# Velocity P-wave (km/s) = 5.47796 5.88149 5.68331
#
# Compressibility (1/GPa) = 0.04155996
#
# Stress axis : x y z
#
# Youngs Moduli (GPa) = 65.57074 49.82871 51.66799
#
# Poissons Ratio (x) = 0.15766 0.39365
# Poissons Ratio (y) = 0.20747 -0.21835
# Poissons Ratio (z) = 0.49958 -0.21057
#
# Static dielectric constant tensor:
#      x y z
#    x 3.306140 0.000000 0.000000 
#    y 0.000000 3.325580 0.000000 
#    z 0.000000 0.000000 3.304370 
# 
# 
# High freq. dielectric constant tensor:
#      x y z
#    x 1.711650 0.000000 0.000000 
#    y 0.000000 1.697910 0.000000 
#    z 0.000000 0.000000 1.714560 
# 
# From -- ./inp_files/27343.got.cif
#   From: 2010.03.12/outbox.cif.g09.slc.cpg/sg51_14_cif.got.tgz:27343.got - 2010.04.16 13:43:02.
