data_PCOD8209088
_publ_section_title
;
Structure prediction by ZEFSAII (Michael W. Deem and Ramdas Pophale) SiO2 
 PCOD8209088
Probable space group: P M M A
;
_chemical_formula_sum "Si O2"
_cell_formula_units_Z 40
_cell_length_a 19.724739
_cell_length_b 8.738762
_cell_length_c 12.602230
_cell_angle_alpha 90.000000
_cell_angle_beta 90.000000
_cell_angle_gamma 90.000000
_cell_volume 2172.243860
_symmetry_space_group_name_H-M "P M M A"
_symmetry_group_IT_number 51
_symmetry_cell_setting 'orthorhombic'
loop_
_space_group_symop_operation_xyz
x,y,z
1/2-x,-y,z
1/2+x,-y,-z
-x,y,-z
-x,-y,-z
1/2+x,y,-z
1/2-x,y,z
x,-y,z
loop_
_atom_site_type_symbol
_atom_site_label
_atom_site_fract_x
_atom_site_fract_y
_atom_site_fract_z
Si Si1 0.099769 0.821345 0.804552
Si Si2 0.072223 0.179031 0.452580
Si Si3 0.419904 0.668771 0.014695
Si Si4 0.955543 0.680227 0.761100
Si Si5 0.328811 0.675700 0.617318
O O1 0.155895 0.733337 0.736045
O O2 0.025853 0.771661 0.764744
O O3 0.108276 0.000000 0.785887
O O4 0.112462 0.783619 0.928957
O O5 0.085108 0.270395 0.343404
O O6 0.131001 0.221858 0.533645
O O7 0.000000 0.229133 0.500000
O O8 0.074562 0.000000 0.428538
O O9 0.388715 0.500000 0.995473
O O10 0.408334 0.722378 0.136680
O O11 0.500000 0.662127 0.000000
O O12 0.971859 0.500000 0.761260
O O13 0.250000 0.696270 0.593569
O O14 0.351588 0.500000 0.606268
#
# Coordination Sequence:
#
# PCOD8209088 Si02
#       5
#     8   8   8   8   8
#     4  11  20  31  51  79 110 142 176 221 277 327
#     4  11  22  35  55  84 113 144 182 228 283 333
#     4   8  16  30  48  74 106 140 176 214 261 314
#     4  10  19  32  53  79 109 145 182 224 269 319
#     4  11  24  40  58  79 106 146 190 229 275 332
#
# _framework density 18.414138999999999
#
# number of rings (size 3 to 8) (size 9 to 14) (size 15 to 20)
#    0.000    1.800    2.000    4.800    0.000    6.800 
#    0.000    0.000    0.000    1.200    0.000    8.400 
#    0.000    0.000    0.000    0.000    0.000    0.000 
#
# Total GULP energy -496009.324068 kJ/mol
# GULP energy per Si atom -12400.233102 kJ/mol
# Density = 1.837223 g / cm^3
# Si number density = 18.414139 Si / 1000 Ang^3
#
#
#
# Elastic Constant Matrix: (Units=GPa)
#
#
# Indices 1 2 3 4 5 6 
#
# 1 48.7021 21.5638 28.6352 0.0000 0.0000 0.0000
# 2 21.5638 65.1123 30.8171 0.0000 0.0000 0.0000
# 3 28.6352 30.8171 140.7110 0.0000 0.0000 0.0000
# 4 0.0000 0.0000 0.0000 31.3725 0.0000 0.0000
# 5 0.0000 0.0000 0.0000 0.0000 19.9328 0.0000
# 6 0.0000 0.0000 0.0000 0.0000 0.0000 15.7586
#
#
#
# Elastic Compliance Matrix: (Units=1/GPa)
#
#
# Indices 1 2 3 4 5 6 
#
# 1 0.025728 -0.006741 -0.003759 0.000000 0.000000 0.000000
# 2 -0.006741 0.018901 -0.002768 0.000000 0.000000 0.000000
# 3 -0.003759 -0.002768 0.008478 0.000000 0.000000 0.000000
# 4 0.000000 0.000000 0.000000 0.031875 0.000000 0.000000
# 5 0.000000 0.000000 0.000000 0.000000 0.050169 0.000000
# 6 0.000000 0.000000 0.000000 0.000000 0.000000 0.063458
#
#
# Mechanical properties :
#
#
# Convention : Reuss Voigt Hill
#
# Bulk Modulus (GPa) = 37.63616 46.28419 41.96018
# Shear Modulus (GPa) = 21.36742 24.98007 23.17374
#
# Velocity S-wave (km/s) = 3.41013 3.68716 3.55135
# Velocity P-wave (km/s) = 5.99904 6.58153 6.29702
#
# Compressibility (1/GPa) = 0.02657019
#
# Stress axis : x y z
#
# Youngs Moduli (GPa) = 38.86775 52.90860 117.95340
#
# Poissons Ratio (x) = 0.35668 0.44343
# Poissons Ratio (y) = 0.26202 0.32644
# Poissons Ratio (z) = 0.14612 0.14643
#
# Static dielectric constant tensor:
#      x y z
#    x 2.924810 0.000000 0.000000 
#    y 0.000000 3.411740 0.000000 
#    z 0.000000 0.000000 3.888090 
# 
# 
# High freq. dielectric constant tensor:
#      x y z
#    x 1.654760 0.000000 0.000000 
#    y 0.000000 1.723970 0.000000 
#    z 0.000000 0.000000 1.735490 
# 
# From -- ./inp_files/17881.got.cif
#   From: 2010.03.12/outbox.cif.g09.slc.cpg/sg51_9_cif.got.tgz:17881.got - 2010.04.16 13:43:02.
