data_PCOD8209593
_publ_section_title
;
Structure prediction by ZEFSAII (Michael W. Deem and Ramdas Pophale) SiO2 
 PCOD8209593
Probable space group: P M M A
;
_chemical_formula_sum "Si O2"
_cell_formula_units_Z 64
_cell_length_a 9.332015
_cell_length_b 19.752296
_cell_length_c 18.039643
_cell_angle_alpha 90.000000
_cell_angle_beta 90.000000
_cell_angle_gamma 90.000000
_cell_volume 3325.224350
_symmetry_space_group_name_H-M "P M M A"
_symmetry_group_IT_number 51
_symmetry_cell_setting 'orthorhombic'
loop_
_space_group_symop_operation_xyz
x,y,z
1/2-x,-y,z
1/2+x,-y,-z
-x,y,-z
-x,-y,-z
1/2+x,y,-z
1/2-x,y,z
x,-y,z
loop_
_atom_site_type_symbol
_atom_site_label
_atom_site_fract_x
_atom_site_fract_y
_atom_site_fract_z
Si Si1 0.580303 0.334719 0.925477
Si Si2 0.914462 0.074686 0.356514
Si Si3 0.416448 0.423556 0.219052
Si Si4 0.402923 0.922876 0.061044
Si Si5 0.920237 0.116377 0.780321
Si Si6 0.581377 0.784201 0.426148
Si Si7 0.906005 0.326759 0.306957
Si Si8 0.091521 0.760668 0.831496
O O1 0.750000 0.323698 0.939920
O O2 0.553083 0.388911 0.860427
O O3 0.504719 0.263804 0.901183
O O4 0.500000 0.360287 0.000000
O O5 0.750000 0.086620 0.331580
O O6 0.963252 0.137958 0.407242
O O7 0.016809 0.071534 0.285421
O O8 0.929790 0.000000 0.395606
O O9 0.250000 0.421107 0.236528
O O10 0.474376 0.500000 0.213128
O O11 0.487146 0.389260 0.292550
O O12 0.250000 0.885215 0.059938
O O13 0.465651 0.920186 0.143373
O O14 0.383594 0.000000 0.036412
O O15 0.500000 0.884895 0.000000
O O16 0.750000 0.124399 0.770070
O O17 0.000099 0.187534 0.782191
O O18 0.500000 0.762197 0.500000
O O19 0.750000 0.780058 0.439861
O O20 0.532707 0.731249 0.362316
O O21 0.750000 0.351478 0.336879
O O22 0.882151 0.299726 0.224570
O O23 0.250000 0.787579 0.857333
#
# Coordination Sequence:
#
# PCOD8209593 Si02
#       8
#     8   8   8   8   8   8   8   8
#     4  10  20  34  51  76 111 151 193 235 283 332
#     4  10  21  38  58  80 111 150 188 229 279 337
#     4   9  19  35  56  84 116 149 189 235 281 331
#     4   9  19  34  48  64  89 121 160 210 264 317
#     4  11  21  33  52  77 105 135 177 230 282 336
#     4  10  21  38  58  86 116 146 184 226 274 334
#     4   9  18  35  57  80 111 144 182 228 270 323
#     4  10  19  34  54  74 101 139 182 230 279 326
#
# _framework density 19.246822000000002
#
# number of rings (size 3 to 8) (size 9 to 14) (size 15 to 20)
#    0.000    2.250    1.250    1.500    0.000    5.000 
#    0.000    2.500    0.000    0.375    0.000    0.000 
#    0.000    0.000    0.000    0.000    0.000    0.000 
#
# Total GULP energy -792917.506632 kJ/mol
# GULP energy per Si atom -12389.336041 kJ/mol
# Density = 1.920302 g / cm^3
# Si number density = 19.246822 Si / 1000 Ang^3
#
#
#
# Elastic Constant Matrix: (Units=GPa)
#
#
# Indices 1 2 3 4 5 6 
#
# 1 86.7002 33.9164 45.5850 0.0000 0.0000 0.0000
# 2 33.9164 81.9502 28.8484 0.0000 0.0000 0.0000
# 3 45.5850 28.8484 94.5256 0.0000 0.0000 0.0000
# 4 0.0000 0.0000 0.0000 11.1073 0.0000 0.0000
# 5 0.0000 0.0000 0.0000 0.0000 31.1067 0.0000
# 6 0.0000 0.0000 0.0000 0.0000 0.0000 5.3597
#
#
#
# Elastic Compliance Matrix: (Units=1/GPa)
#
#
# Indices 1 2 3 4 5 6 
#
# 1 0.016879 -0.004616 -0.006731 0.000000 0.000000 0.000000
# 2 -0.004616 0.014934 -0.002332 0.000000 0.000000 0.000000
# 3 -0.006731 -0.002332 0.014537 0.000000 0.000000 0.000000
# 4 0.000000 0.000000 0.000000 0.090031 0.000000 0.000000
# 5 0.000000 0.000000 0.000000 0.000000 0.032147 0.000000
# 6 0.000000 0.000000 0.000000 0.000000 0.000000 0.186579
#
#
# Mechanical properties :
#
#
# Convention : Reuss Voigt Hill
#
# Bulk Modulus (GPa) = 52.65376 53.31950 52.98663
# Shear Modulus (GPa) = 12.86027 19.83648 16.34837
#
# Velocity S-wave (km/s) = 2.58771 3.21384 2.91762
# Velocity P-wave (km/s) = 6.02867 6.44475 6.24018
#
# Compressibility (1/GPa) = 0.01899200
#
# Stress axis : x y z
#
# Youngs Moduli (GPa) = 59.24591 66.96252 68.79121
#
# Poissons Ratio (x) = 0.30911 0.46303
# Poissons Ratio (y) = 0.27348 0.16039
# Poissons Ratio (z) = 0.39879 0.15612
#
# Static dielectric constant tensor:
#      x y z
#    x 3.892650 0.000000 0.000000 
#    y 0.000000 3.434840 0.000000 
#    z 0.000000 0.000000 3.291930 
# 
# 
# High freq. dielectric constant tensor:
#      x y z
#    x 1.756080 0.000000 0.000000 
#    y 0.000000 1.730640 0.000000 
#    z 0.000000 0.000000 1.728320 
# 
# From -- ./inp_files/28464.got.cif
#   From: 2010.03.12/outbox.cif.g09.slc.cpg/sg51_15_cif.got.tgz:28464.got - 2010.04.16 13:43:02.
