data_PCOD8209022
_publ_section_title
;
Structure prediction by ZEFSAII (Michael W. Deem and Ramdas Pophale) SiO2 
 PCOD8209022
Probable space group: P M M A
;
_chemical_formula_sum "Si O2"
_cell_formula_units_Z 64
_cell_length_a 8.827469
_cell_length_b 28.272996
_cell_length_c 13.797267
_cell_angle_alpha 90.000000
_cell_angle_beta 90.000000
_cell_angle_gamma 90.000000
_cell_volume 3443.508042
_symmetry_space_group_name_H-M "P M M A"
_symmetry_group_IT_number 51
_symmetry_cell_setting 'orthorhombic'
loop_
_space_group_symop_operation_xyz
x,y,z
1/2-x,-y,z
1/2+x,-y,-z
-x,y,-z
-x,-y,-z
1/2+x,y,-z
1/2-x,y,z
x,-y,z
loop_
_atom_site_type_symbol
_atom_site_label
_atom_site_fract_x
_atom_site_fract_y
_atom_site_fract_z
Si Si1 0.928188 0.053088 0.101174
Si Si2 0.429273 0.281917 0.278286
Si Si3 0.420011 0.556114 0.904426
Si Si4 0.573730 0.860492 0.226621
Si Si5 0.072908 0.445100 0.293925
Si Si6 0.927785 0.768714 0.104859
Si Si7 0.572807 0.810289 0.603717
Si Si8 0.570504 0.637128 0.398591
O O1 0.750000 0.056578 0.087104
O O2 0.981855 0.089216 0.184329
O O3 0.979063 0.000000 0.130630
O O4 0.000000 0.068625 0.000000
O O5 0.250000 0.289111 0.272709
O O6 0.493712 0.270602 0.172215
O O7 0.475388 0.240204 0.352254
O O8 0.508491 0.329539 0.313871
O O9 0.250000 0.576739 0.895581
O O10 0.413630 0.500000 0.912759
O O11 0.517120 0.571560 0.811675
O O12 0.500000 0.577460 0.000000
O O13 0.750000 0.860820 0.252932
O O14 0.537137 0.820582 0.147020
O O15 0.482696 0.851801 0.325276
O O16 0.250000 0.434261 0.302571
O O17 0.036322 0.500000 0.311557
O O18 0.982290 0.416270 0.375538
O O19 0.750000 0.758447 0.099427
O O20 0.000000 0.764847 0.000000
O O21 0.500000 0.817253 0.500000
O O22 0.750000 0.814393 0.591641
O O23 0.500000 0.653846 0.500000
O O24 0.750000 0.640072 0.405257
#
# Coordination Sequence:
#
# PCOD8209022 Si02
#       8
#     8   8   8   8   8   8   8   8
#     4   9  17  29  46  70 101 138 178 220 266 314
#     4  10  21  38  58  81 108 138 173 212 257 310
#     4   9  16  28  49  77 107 138 171 207 248 294
#     4   9  18  31  48  72 104 140 178 221 266 314
#     4  10  21  38  59  83 111 142 177 217 259 304
#     4  10  19  32  52  79 111 146 180 215 260 313
#     4  10  20  33  53  78 103 132 168 214 264 314
#     4  12  25  41  61  83 108 139 174 213 259 309
#
# _framework density 18.585699000000002
#
# number of rings (size 3 to 8) (size 9 to 14) (size 15 to 20)
#    0.000    2.125    0.000    3.750    0.000    6.000 
#    0.000    0.625    0.000    0.375    0.000    0.000 
#    0.000    0.000    0.000    0.000    0.000    0.000 
#
# Total GULP energy -793812.691871 kJ/mol
# GULP energy per Si atom -12403.323310 kJ/mol
# Density = 1.854340 g / cm^3
# Si number density = 18.585699 Si / 1000 Ang^3
#
#
#
# Elastic Constant Matrix: (Units=GPa)
#
#
# Indices 1 2 3 4 5 6 
#
# 1 100.8471 41.7505 54.2136 0.0000 0.0000 0.0000
# 2 41.7505 81.3988 50.6151 0.0000 0.0000 0.0000
# 3 54.2136 50.6151 131.4728 0.0000 0.0000 0.0000
# 4 0.0000 0.0000 0.0000 14.7648 0.0000 0.0000
# 5 0.0000 0.0000 0.0000 0.0000 38.0793 0.0000
# 6 0.0000 0.0000 0.0000 0.0000 0.0000 23.2105
#
#
#
# Elastic Compliance Matrix: (Units=1/GPa)
#
#
# Indices 1 2 3 4 5 6 
#
# 1 0.013996 -0.004720 -0.003954 0.000000 0.000000 0.000000
# 2 -0.004720 0.017743 -0.004885 0.000000 0.000000 0.000000
# 3 -0.003954 -0.004885 0.011117 0.000000 0.000000 0.000000
# 4 0.000000 0.000000 0.000000 0.067729 0.000000 0.000000
# 5 0.000000 0.000000 0.000000 0.000000 0.026261 0.000000
# 6 0.000000 0.000000 0.000000 0.000000 0.000000 0.043084
#
#
# Mechanical properties :
#
#
# Convention : Reuss Voigt Hill
#
# Bulk Modulus (GPa) = 63.53660 67.43079 65.48369
# Shear Modulus (GPa) = 23.55227 26.35355 24.95291
#
# Velocity S-wave (km/s) = 3.56367 3.76965 3.66811
# Velocity P-wave (km/s) = 7.15493 7.43685 7.29725
#
# Compressibility (1/GPa) = 0.01573896
#
# Stress axis : x y z
#
# Youngs Moduli (GPa) = 71.45071 56.35887 89.95076
#
# Poissons Ratio (x) = 0.26600 0.35568
# Poissons Ratio (y) = 0.33723 0.43938
# Poissons Ratio (z) = 0.28253 0.27530
#
# Static dielectric constant tensor:
#      x y z
#    x 3.544350 0.000000 0.000000 
#    y 0.000000 3.382490 0.000000 
#    z 0.000000 0.000000 3.626480 
# 
# 
# High freq. dielectric constant tensor:
#      x y z
#    x 1.732770 0.000000 0.000000 
#    y 0.000000 1.702430 0.000000 
#    z 0.000000 0.000000 1.721530 
# 
# From -- ./inp_files/14836.got.cif
#   From: 2010.03.12/outbox.cif.g09.slc.cpg/sg51_8_cif.got.tgz:14836.got - 2010.04.16 13:43:02.
