data_PCOD8209181
_publ_section_title
;
Structure prediction by ZEFSAII (Michael W. Deem and Ramdas Pophale) SiO2 
 PCOD8209181
Probable space group: P M M A
;
_chemical_formula_sum "Si O2"
_cell_formula_units_Z 36
_cell_length_a 8.808507
_cell_length_b 18.246285
_cell_length_c 14.323710
_cell_angle_alpha 90.000000
_cell_angle_beta 90.000000
_cell_angle_gamma 90.000000
_cell_volume 2302.142898
_symmetry_space_group_name_H-M "P M M A"
_symmetry_group_IT_number 51
_symmetry_cell_setting 'orthorhombic'
loop_
_space_group_symop_operation_xyz
x,y,z
1/2-x,-y,z
1/2+x,-y,-z
-x,y,-z
-x,-y,-z
1/2+x,y,-z
1/2-x,y,z
x,-y,z
loop_
_atom_site_type_symbol
_atom_site_label
_atom_site_fract_x
_atom_site_fract_y
_atom_site_fract_z
Si Si1 0.428420 0.582870 0.905895
Si Si2 0.570658 0.224055 0.602520
Si Si3 0.927712 0.920614 0.398853
Si Si4 0.428526 0.500000 0.600599
Si Si5 0.928872 0.356013 0.289864
O O1 0.250000 0.581198 0.917945
O O2 0.489046 0.500000 0.889182
O O3 0.473393 0.633676 0.818516
O O4 0.500000 0.616643 0.000000
O O5 0.500000 0.236368 0.500000
O O6 0.750000 0.221611 0.592384
O O7 0.510135 0.148250 0.650552
O O8 0.523184 0.288441 0.671305
O O9 0.750000 0.903452 0.407376
O O10 0.000000 0.926018 0.500000
O O11 0.953969 0.000000 0.348011
O O12 0.250000 0.500000 0.590130
O O13 0.500000 0.500000 0.500000
O O14 0.482390 0.571624 0.655766
O O15 0.750000 0.341930 0.302830
#
# Coordination Sequence:
#
# PCOD8209181 Si02
#       5
#     8   8   8   4   8
#     4   9  17  31  50  69  88 112 143 185 235 279
#     4  11  21  31  44  64  91 123 156 189 226 266
#     4   9  16  27  44  64  86 115 150 185 222 264
#     4  10  20  32  45  60  82 116 155 190 223 260
#     4  10  19  33  48  63  88 119 152 189 229 270
#
# _framework density 15.637606
#
# number of rings (size 3 to 8) (size 9 to 14) (size 15 to 20)
#    0.000    2.222    1.111    4.667    0.000    4.889 
#    0.000    0.000    0.000    0.000    0.000    0.000 
#    0.000    0.889    0.000    2.889    0.000    4.000 
#
# Total GULP energy -446187.620518 kJ/mol
# GULP energy per Si atom -12394.100570 kJ/mol
# Density = 1.560201 g / cm^3
# Si number density = 15.637606 Si / 1000 Ang^3
#
#
#
# Elastic Constant Matrix: (Units=GPa)
#
#
# Indices 1 2 3 4 5 6 
#
# 1 82.4122 56.1206 40.2837 0.0000 0.0000 0.0000
# 2 56.1206 137.2100 53.5079 0.0000 0.0000 0.0000
# 3 40.2837 53.5079 93.4114 0.0000 0.0000 0.0000
# 4 0.0000 0.0000 0.0000 0.7869 0.0000 0.0000
# 5 0.0000 0.0000 0.0000 0.0000 23.1914 0.0000
# 6 0.0000 0.0000 0.0000 0.0000 0.0000 24.1225
#
#
#
# Elastic Compliance Matrix: (Units=1/GPa)
#
#
# Indices 1 2 3 4 5 6 
#
# 1 0.018251 -0.005660 -0.004629 0.000000 0.000000 0.000000
# 2 -0.005660 0.011140 -0.003940 0.000000 0.000000 0.000000
# 3 -0.004629 -0.003940 0.014958 0.000000 0.000000 0.000000
# 4 0.000000 0.000000 0.000000 1.270875 0.000000 0.000000
# 5 0.000000 0.000000 0.000000 0.000000 0.043119 0.000000
# 6 0.000000 0.000000 0.000000 0.000000 0.000000 0.041455
#
#
# Mechanical properties :
#
#
# Convention : Reuss Voigt Hill
#
# Bulk Modulus (GPa) = 62.92623 68.09536 65.51080
# Shear Modulus (GPa) = 3.48784 20.49490 11.99137
#
# Velocity S-wave (km/s) = 1.49508 3.62417 2.77217
# Velocity P-wave (km/s) = 6.58088 7.82005 7.22708
#
# Compressibility (1/GPa) = 0.01589162
#
# Stress axis : x y z
#
# Youngs Moduli (GPa) = 54.79213 89.77005 66.85182
#
# Poissons Ratio (x) = 0.50808 0.30943
# Poissons Ratio (y) = 0.31011 0.26341
# Poissons Ratio (z) = 0.25361 0.35371
#
# Static dielectric constant tensor:
#      x y z
#    x 2.924370 0.000000 0.000000 
#    y 0.000000 3.555730 0.000000 
#    z 0.000000 0.000000 2.774560 
# 
# 
# High freq. dielectric constant tensor:
#      x y z
#    x 1.606870 0.000000 0.000000 
#    y 0.000000 1.602050 0.000000 
#    z 0.000000 0.000000 1.560300 
# 
# From -- ./inp_files/20759.got.cif
#   From: 2010.03.12/outbox.cif.g09.slc.cpg/sg51_11_cif.got.tgz:20759.got - 2010.04.16 13:43:02.
