data_PCOD8209259
_publ_section_title
;
Structure prediction by ZEFSAII (Michael W. Deem and Ramdas Pophale) SiO2 
 PCOD8209259
Probable space group: P M M A
;
_chemical_formula_sum "Si O2"
_cell_formula_units_Z 48
_cell_length_a 9.566940
_cell_length_b 14.759135
_cell_length_c 18.545499
_cell_angle_alpha 90.000000
_cell_angle_beta 90.000000
_cell_angle_gamma 90.000000
_cell_volume 2618.619989
_symmetry_space_group_name_H-M "P M M A"
_symmetry_group_IT_number 51
_symmetry_cell_setting 'orthorhombic'
loop_
_space_group_symop_operation_xyz
x,y,z
1/2-x,-y,z
1/2+x,-y,-z
-x,y,-z
-x,-y,-z
1/2+x,y,-z
1/2-x,y,z
x,-y,z
loop_
_atom_site_type_symbol
_atom_site_label
_atom_site_fract_x
_atom_site_fract_y
_atom_site_fract_z
Si Si1 0.582767 0.148980 0.929004
Si Si2 0.912956 0.603837 0.428696
Si Si3 0.910453 0.898498 0.211355
Si Si4 0.587714 0.274212 0.297309
Si Si5 0.403708 0.598047 0.215448
Si Si6 0.597819 0.357001 0.940856
O O1 0.750000 0.125766 0.932836
O O2 0.514783 0.107525 0.856629
O O3 0.552897 0.254930 0.922137
O O4 0.500000 0.111081 0.000000
O O5 0.750000 0.617582 0.446219
O O6 0.939505 0.500000 0.401160
O O7 0.967281 0.680948 0.372115
O O8 0.000000 0.623085 0.500000
O O9 0.750000 0.878386 0.186453
O O10 0.949178 0.830778 0.278738
O O11 0.923041 0.000000 0.243022
O O12 0.750000 0.292668 0.294760
O O13 0.521050 0.330507 0.233124
O O14 0.250000 0.633681 0.239631
O O15 0.433169 0.500000 0.251234
O O16 0.406666 0.582966 0.130104
O O17 0.750000 0.356128 0.976272
O O18 0.500000 0.402733 0.000000
#
# Coordination Sequence:
#
# PCOD8209259 Si02
#       6
#     8   8   8   8   8   8
#     4  10  19  33  53  74  99 132 173 223 276 324
#     4   9  18  33  54  82 112 139 169 203 242 294
#     4  10  21  36  54  77 103 134 175 220 268 319
#     4  10  20  35  55  77 105 137 170 211 256 302
#     4  10  20  33  49  72 102 134 169 209 255 308
#     4   9  18  31  46  66  93 127 167 209 253 302
#
# _framework density 18.330266999999999
#
# number of rings (size 3 to 8) (size 9 to 14) (size 15 to 20)
#    0.000    2.333    1.667    1.000    0.000    4.000 
#    0.000    1.667    0.000    0.500    0.000    0.000 
#    0.000    0.000    0.000    0.000    0.000    0.000 
#
# Total GULP energy -594631.261969 kJ/mol
# GULP energy per Si atom -12388.151291 kJ/mol
# Density = 1.828855 g / cm^3
# Si number density = 18.330267 Si / 1000 Ang^3
#
#
#
# Elastic Constant Matrix: (Units=GPa)
#
#
# Indices 1 2 3 4 5 6 
#
# 1 55.7129 35.9353 49.0004 0.0000 0.0000 0.0000
# 2 35.9353 106.5516 55.0087 0.0000 0.0000 0.0000
# 3 49.0004 55.0087 96.3589 0.0000 0.0000 0.0000
# 4 0.0000 0.0000 0.0000 -27.6990 0.0000 0.0000
# 5 0.0000 0.0000 0.0000 0.0000 29.3068 0.0000
# 6 0.0000 0.0000 0.0000 0.0000 0.0000 7.5252
#
#
#
# Elastic Compliance Matrix: (Units=1/GPa)
#
#
# Indices 1 2 3 4 5 6 
#
# 1 0.033387 -0.003538 -0.014959 0.000000 0.000000 0.000000
# 2 -0.003538 0.013682 -0.006012 0.000000 0.000000 0.000000
# 3 -0.014959 -0.006012 0.021417 0.000000 0.000000 0.000000
# 4 0.000000 0.000000 0.000000 -0.036102 0.000000 0.000000
# 5 0.000000 0.000000 0.000000 0.000000 0.034122 0.000000
# 6 0.000000 0.000000 0.000000 0.000000 0.000000 0.132887
#
#
# Mechanical properties :
#
#
# Convention : Reuss Voigt Hill
#
# Bulk Modulus (GPa) = 51.36116 59.83470 55.59793
# Shear Modulus (GPa) = 19.61576 9.73853 14.67715
#
# Velocity S-wave (km/s) = 3.27483 2.30745 2.83274
# Velocity P-wave (km/s) = 6.51000 6.30972 6.41064
#
# Compressibility (1/GPa) = 0.01946996
#
# Stress axis : x y z
#
# Youngs Moduli (GPa) = 29.95158 73.08985 46.69294
#
# Poissons Ratio (x) = 0.25856 0.69846
# Poissons Ratio (y) = 0.10595 0.28070
# Poissons Ratio (z) = 0.44803 0.43939
#
# Static dielectric constant tensor:
#      x y z
#    x 3.487920 0.000000 0.000000 
#    y 0.000000 3.463350 0.000000 
#    z 0.000000 0.000000 3.238570 
# 
# 
# High freq. dielectric constant tensor:
#      x y z
#    x 1.715050 0.000000 0.000000 
#    y 0.000000 1.707540 0.000000 
#    z 0.000000 0.000000 1.682180 
# 
# From -- ./inp_files/31627.got.cif
#   From: 2010.03.12/outbox.cif.g09.slc.cpg/sg51_16_cif.got.tgz:31627.got - 2010.04.16 13:43:02.
