data_PCOD8209863
_publ_section_title
;
Structure prediction by ZEFSAII (Michael W. Deem and Ramdas Pophale) SiO2 
 PCOD8209863
Probable space group: P M M A
;
_chemical_formula_sum "Si O2"
_cell_formula_units_Z 64
_cell_length_a 31.292813
_cell_length_b 9.247969
_cell_length_c 12.092202
_cell_angle_alpha 90.000000
_cell_angle_beta 90.000000
_cell_angle_gamma 90.000000
_cell_volume 3499.422369
_symmetry_space_group_name_H-M "P M M A"
_symmetry_group_IT_number 51
_symmetry_cell_setting 'orthorhombic'
loop_
_space_group_symop_operation_xyz
x,y,z
1/2-x,-y,z
1/2+x,-y,-z
-x,y,-z
-x,-y,-z
1/2+x,y,-z
1/2-x,y,z
x,-y,z
loop_
_atom_site_type_symbol
_atom_site_label
_atom_site_fract_x
_atom_site_fract_y
_atom_site_fract_z
Si Si1 0.451906 0.328381 0.525242
Si Si2 0.892589 0.329153 0.870027
Si Si3 0.201616 0.329014 0.524169
Si Si4 0.441098 0.164871 0.745677
Si Si5 0.130870 0.831233 0.916122
Si Si6 0.701412 0.833984 0.255351
Si Si7 0.374780 0.328971 0.373498
Si Si8 0.522453 0.163072 0.885636
O O1 0.500000 0.271668 0.500000
O O2 0.451926 0.500000 0.536389
O O3 0.434517 0.264417 0.639699
O O4 0.418793 0.273818 0.430906
O O5 0.890454 0.500000 0.885100
O O6 0.872190 0.278190 0.753581
O O7 0.941492 0.280906 0.867701
O O8 0.866988 0.255223 0.969443
O O9 0.250000 0.281324 0.491261
O O10 0.198727 0.500000 0.536561
O O11 0.187858 0.261906 0.640722
O O12 0.167958 0.269890 0.433699
O O13 0.410086 0.217302 0.844240
O O14 0.489668 0.178558 0.785170
O O15 0.429617 0.000000 0.713913
O O16 0.173394 0.789740 0.849764
O O17 0.128234 0.000000 0.944518
O O18 0.750000 0.804899 0.220744
O O19 0.693339 0.000000 0.288495
O O20 0.375231 0.500000 0.380203
O O21 0.541559 0.000000 0.890148
O O22 0.500000 0.199866 0.000000
#
# Coordination Sequence:
#
# PCOD8209863 Si02
#       8
#     8   8   8   8   8   8   8   8
#     4  10  20  34  51  71 101 136 166 204 258 308
#     4  11  22  35  53  76 102 135 180 222 253 300
#     4   9  17  32  56  80 102 133 171 211 260 314
#     4  10  20  33  52  75  99 130 169 210 251 301
#     4  10  20  36  53  73 105 138 167 206 261 312
#     4   9  18  33  55  81 107 134 165 208 260 312
#     4   9  19  35  51  72 105 138 169 213 264 310
#     4  10  19  35  53  70 101 140 172 208 259 309
#
# _framework density 18.288733000000001
#
# number of rings (size 3 to 8) (size 9 to 14) (size 15 to 20)
#    0.000    2.250    1.250    1.875    0.000    3.000 
#    0.000    3.125    0.000    0.750    0.000    0.000 
#    0.000    0.000    0.000    0.000    0.000    0.000 
#
# Total GULP energy -793615.078275 kJ/mol
# GULP energy per Si atom -12400.235598 kJ/mol
# Density = 1.824711 g / cm^3
# Si number density = 18.288733 Si / 1000 Ang^3
#
#
#
# Elastic Constant Matrix: (Units=GPa)
#
#
# Indices 1 2 3 4 5 6 
#
# 1 113.9567 33.6340 76.4328 0.0000 0.0000 0.0000
# 2 33.6340 44.3199 49.8366 0.0000 0.0000 0.0000
# 3 76.4328 49.8366 156.5248 0.0000 0.0000 0.0000
# 4 0.0000 0.0000 0.0000 23.7984 0.0000 0.0000
# 5 0.0000 0.0000 0.0000 0.0000 26.8714 0.0000
# 6 0.0000 0.0000 0.0000 0.0000 0.0000 18.1833
#
#
#
# Elastic Compliance Matrix: (Units=1/GPa)
#
#
# Indices 1 2 3 4 5 6 
#
# 1 0.013588 -0.004441 -0.005221 0.000000 0.000000 0.000000
# 2 -0.004441 0.036598 -0.009484 0.000000 0.000000 0.000000
# 3 -0.005221 -0.009484 0.011958 0.000000 0.000000 0.000000
# 4 0.000000 0.000000 0.000000 0.042020 0.000000 0.000000
# 5 0.000000 0.000000 0.000000 0.000000 0.037214 0.000000
# 6 0.000000 0.000000 0.000000 0.000000 0.000000 0.054995
#
#
# Mechanical properties :
#
#
# Convention : Reuss Voigt Hill
#
# Bulk Modulus (GPa) = 41.92554 70.51202 56.21878
# Shear Modulus (GPa) = 20.60873 24.09716 22.35295
#
# Velocity S-wave (km/s) = 3.36051 3.63381 3.49983
# Velocity P-wave (km/s) = 6.16696 7.49965 6.86571
#
# Compressibility (1/GPa) = 0.02385181
#
# Stress axis : x y z
#
# Youngs Moduli (GPa) = 73.59509 27.32406 83.62553
#
# Poissons Ratio (x) = 0.12133 0.43663
# Poissons Ratio (y) = 0.32680 0.79312
# Poissons Ratio (z) = 0.38426 0.25915
#
# Static dielectric constant tensor:
#      x y z
#    x 3.595090 0.000000 0.000000 
#    y 0.000000 3.179320 0.000000 
#    z 0.000000 0.000000 3.531750 
# 
# 
# High freq. dielectric constant tensor:
#      x y z
#    x 1.709770 0.000000 0.000000 
#    y 0.000000 1.690470 0.000000 
#    z 0.000000 0.000000 1.711400 
# 
# From -- ./inp_files/19532.got.cif
#   From: 2010.03.12/outbox.cif.g09.slc.cpg/sg51_10_cif.got.tgz:19532.got - 2010.04.16 13:43:02.
