data_PCOD8209377
_publ_section_title
;
Structure prediction by ZEFSAII (Michael W. Deem and Ramdas Pophale) SiO2 
 PCOD8209377
Probable space group: P M M A
;
_chemical_formula_sum "Si O2"
_cell_formula_units_Z 64
_cell_length_a 18.108246
_cell_length_b 8.971658
_cell_length_c 21.337764
_cell_angle_alpha 90.000000
_cell_angle_beta 90.000000
_cell_angle_gamma 90.000000
_cell_volume 3466.554266
_symmetry_space_group_name_H-M "P M M A"
_symmetry_group_IT_number 51
_symmetry_cell_setting 'orthorhombic'
loop_
_space_group_symop_operation_xyz
x,y,z
1/2-x,-y,z
1/2+x,-y,-z
-x,y,-z
-x,-y,-z
1/2+x,y,-z
1/2-x,y,z
x,-y,z
loop_
_atom_site_type_symbol
_atom_site_label
_atom_site_fract_x
_atom_site_fract_y
_atom_site_fract_z
Si Si1 0.833235 0.824480 0.872775
Si Si2 0.417353 0.825228 0.612868
Si Si3 0.965515 0.326046 0.935926
Si Si4 0.336187 0.328792 0.501808
Si Si5 0.454880 0.325881 0.809335
Si Si6 0.074697 0.325598 0.377758
Si Si7 0.088561 0.175759 0.253103
Si Si8 0.665302 0.174083 0.260007
O O1 0.750000 0.769273 0.885285
O O2 0.886807 0.750274 0.923492
O O3 0.855557 0.777114 0.802214
O O4 0.840424 0.000000 0.880540
O O5 0.367675 0.779755 0.554264
O O6 0.493870 0.738651 0.610226
O O7 0.372214 0.781227 0.674703
O O8 0.433984 0.000000 0.610239
O O9 0.949592 0.500000 0.942074
O O10 0.023450 0.290046 0.880850
O O11 0.000000 0.261803 0.000000
O O12 0.250000 0.298183 0.493904
O O13 0.352400 0.500000 0.520451
O O14 0.374488 0.287979 0.436582
O O15 0.461971 0.500000 0.794688
O O16 0.507052 0.235370 0.762107
O O17 0.372416 0.266948 0.796490
O O18 0.068050 0.500000 0.365258
O O19 0.114377 0.250093 0.317808
O O20 0.084302 0.000000 0.261986
O O21 0.750000 0.223568 0.263012
O O22 0.657137 0.000000 0.245509
#
# Coordination Sequence:
#
# PCOD8209377 Si02
#       8
#     8   8   8   8   8   8   8   8
#     4   9  19  35  55  82 115 147 184 229 273 321
#     4  11  22  37  58  81 105 138 181 226 272 324
#     4   9  19  36  57  82 112 147 187 228 268 316
#     4  10  23  41  56  74 106 144 180 224 275 323
#     4  10  19  33  55  80 106 139 179 219 262 317
#     4  11  22  36  56  81 107 140 182 224 269 326
#     4  10  19  33  54  79 108 142 176 218 272 321
#     4  10  21  36  54  78 109 142 175 219 274 323
#
# _framework density 18.462136999999998
#
# number of rings (size 3 to 8) (size 9 to 14) (size 15 to 20)
#    0.000    2.000    1.250    2.250    0.000    6.000 
#    0.000    0.625    0.000    3.750    0.000    0.000 
#    0.000    0.000    0.000    0.000    0.000    0.000 
#
# Total GULP energy -793823.633316 kJ/mol
# GULP energy per Si atom -12403.494271 kJ/mol
# Density = 1.842012 g / cm^3
# Si number density = 18.462137 Si / 1000 Ang^3
#
#
#
# Elastic Constant Matrix: (Units=GPa)
#
#
# Indices 1 2 3 4 5 6 
#
# 1 126.4315 45.2720 70.9515 0.0000 0.0000 0.0000
# 2 45.2720 60.5158 44.3340 0.0000 0.0000 0.0000
# 3 70.9515 44.3340 118.7481 0.0000 0.0000 0.0000
# 4 0.0000 0.0000 0.0000 28.6835 0.0000 0.0000
# 5 0.0000 0.0000 0.0000 0.0000 24.5629 0.0000
# 6 0.0000 0.0000 0.0000 0.0000 0.0000 26.9567
#
#
#
# Elastic Compliance Matrix: (Units=1/GPa)
#
#
# Indices 1 2 3 4 5 6 
#
# 1 0.013156 -0.005620 -0.005762 0.000000 0.000000 0.000000
# 2 -0.005620 0.025147 -0.006030 0.000000 0.000000 0.000000
# 3 -0.005762 -0.006030 0.014115 0.000000 0.000000 0.000000
# 4 0.000000 0.000000 0.000000 0.034863 0.000000 0.000000
# 5 0.000000 0.000000 0.000000 0.000000 0.040712 0.000000
# 6 0.000000 0.000000 0.000000 0.000000 0.000000 0.037097
#
#
# Mechanical properties :
#
#
# Convention : Reuss Voigt Hill
#
# Bulk Modulus (GPa) = 56.84271 69.64560 63.24416
# Shear Modulus (GPa) = 24.29788 25.71649 25.00718
#
# Velocity S-wave (km/s) = 3.63173 3.73625 3.68436
# Velocity P-wave (km/s) = 6.96000 7.51120 7.24085
#
# Compressibility (1/GPa) = 0.01759241
#
# Stress axis : x y z
#
# Youngs Moduli (GPa) = 76.01380 39.76601 70.84474
#
# Poissons Ratio (x) = 0.22350 0.40821
# Poissons Ratio (y) = 0.42723 0.42722
# Poissons Ratio (z) = 0.43799 0.23980
#
# Static dielectric constant tensor:
#      x y z
#    x 3.442950 0.000000 0.000000 
#    y 0.000000 3.395530 0.000000 
#    z 0.000000 0.000000 3.504700 
# 
# 
# High freq. dielectric constant tensor:
#      x y z
#    x 1.715130 0.000000 0.000000 
#    y 0.000000 1.719270 0.000000 
#    z 0.000000 0.000000 1.715300 
# 
# From -- ./inp_files/33939.got.cif
#   From: 2010.03.12/outbox.cif.g09.slc.cpg/sg51_17_cif.got.tgz:33939.got - 2010.04.16 13:43:02.
