data_PCOD8209531
_publ_section_title
;
Structure prediction by ZEFSAII (Michael W. Deem and Ramdas Pophale) SiO2 
 PCOD8209531
Probable space group: P M M A
;
_chemical_formula_sum "Si O2"
_cell_formula_units_Z 64
_cell_length_a 15.828273
_cell_length_b 22.878236
_cell_length_c 9.072548
_cell_angle_alpha 90.000000
_cell_angle_beta 90.000000
_cell_angle_gamma 90.000000
_cell_volume 3285.377983
_symmetry_space_group_name_H-M "P M M A"
_symmetry_group_IT_number 51
_symmetry_cell_setting 'orthorhombic'
loop_
_space_group_symop_operation_xyz
x,y,z
1/2-x,-y,z
1/2+x,-y,-z
-x,y,-z
-x,-y,-z
1/2+x,y,-z
1/2-x,y,z
x,-y,z
loop_
_atom_site_type_symbol
_atom_site_label
_atom_site_fract_x
_atom_site_fract_y
_atom_site_fract_z
Si Si1 0.845834 0.434245 0.129908
Si Si2 0.965217 0.623770 0.341478
Si Si3 0.919958 0.342222 0.908950
Si Si4 0.649912 0.269805 0.414447
Si Si5 0.347602 0.242524 0.262353
Si Si6 0.497626 0.066336 0.832489
Si Si7 0.346131 0.885582 0.304717
Si Si8 0.583283 0.146555 0.404904
O O1 0.750000 0.423748 0.181484
O O2 0.858511 0.500000 0.069494
O O3 0.906376 0.426462 0.271317
O O4 0.866262 0.389832 0.997385
O O5 0.907202 0.681841 0.334746
O O6 0.000000 0.604708 0.500000
O O7 0.049149 0.630162 0.243802
O O8 0.865920 0.284034 0.876367
O O9 0.000000 0.320512 0.000000
O O10 0.750000 0.282447 0.391427
O O11 0.620517 0.271783 0.585574
O O12 0.625482 0.206694 0.346863
O O13 0.250000 0.232135 0.284122
O O14 0.383211 0.176918 0.243415
O O15 0.592588 0.066455 0.766375
O O16 0.434535 0.106022 0.735911
O O17 0.463812 0.000000 0.826878
O O18 0.500000 0.089521 0.000000
O O19 0.250000 0.898861 0.256881
O O20 0.351712 0.885726 0.483403
O O21 0.500000 0.160301 0.500000
#
# Coordination Sequence:
#
# PCOD8209531 Si02
#       8
#     8   8   8   8   8   8   8   8
#     4  10  23  44  62  79 114 160 199 240 289 341
#     4  11  21  35  59  90 117 147 190 242 293 344
#     4  10  21  34  57  84 113 152 194 234 282 343
#     4  10  19  33  56  84 119 151 180 228 293 349
#     4   9  17  32  54  81 114 146 183 231 287 345
#     4  10  22  39  57  79 113 156 196 240 287 342
#     4   9  19  35  57  84 113 149 190 242 294 344
#     4   9  18  33  58  83 109 145 191 237 282 344
#
# _framework density 19.480255
#
# number of rings (size 3 to 8) (size 9 to 14) (size 15 to 20)
#    0.000    2.250    1.250    2.250    3.500    5.500 
#    2.250    1.250    0.000    4.125    0.000    0.000 
#    0.000    0.000    0.000    0.000    0.000    0.000 
#
# Total GULP energy -793353.508890 kJ/mol
# GULP energy per Si atom -12396.148576 kJ/mol
# Density = 1.943592 g / cm^3
# Si number density = 19.480255 Si / 1000 Ang^3
#
#
#
# Elastic Constant Matrix: (Units=GPa)
#
#
# Indices 1 2 3 4 5 6 
#
# 1 61.0144 24.1279 24.0079 0.0000 0.0000 0.0000
# 2 24.1279 84.9312 45.4389 0.0000 0.0000 0.0000
# 3 24.0079 45.4389 102.7320 0.0000 0.0000 0.0000
# 4 0.0000 0.0000 0.0000 30.5210 0.0000 0.0000
# 5 0.0000 0.0000 0.0000 0.0000 24.2828 0.0000
# 6 0.0000 0.0000 0.0000 0.0000 0.0000 28.4785
#
#
#
# Elastic Compliance Matrix: (Units=1/GPa)
#
#
# Indices 1 2 3 4 5 6 
#
# 1 0.019015 -0.003962 -0.002691 0.000000 0.000000 0.000000
# 2 -0.003962 0.016250 -0.006261 0.000000 0.000000 0.000000
# 3 -0.002691 -0.006261 0.013132 0.000000 0.000000 0.000000
# 4 0.000000 0.000000 0.000000 0.032764 0.000000 0.000000
# 5 0.000000 0.000000 0.000000 0.000000 0.041181 0.000000
# 6 0.000000 0.000000 0.000000 0.000000 0.000000 0.035114
#
#
# Mechanical properties :
#
#
# Convention : Reuss Voigt Hill
#
# Bulk Modulus (GPa) = 44.31088 48.42523 46.36806
# Shear Modulus (GPa) = 26.20411 26.99667 26.60039
#
# Velocity S-wave (km/s) = 3.67162 3.72674 3.69928
# Velocity P-wave (km/s) = 6.38517 6.59020 6.48849
#
# Compressibility (1/GPa) = 0.02256782
#
# Stress axis : x y z
#
# Youngs Moduli (GPa) = 52.58911 61.53944 76.14711
#
# Poissons Ratio (x) = 0.24383 0.20493
# Poissons Ratio (y) = 0.20837 0.47679
# Poissons Ratio (z) = 0.14153 0.38532
#
# Static dielectric constant tensor:
#      x y z
#    x 3.591240 0.000000 0.000000 
#    y 0.000000 3.407060 0.000000 
#    z 0.000000 0.000000 3.521840 
# 
# 
# High freq. dielectric constant tensor:
#      x y z
#    x 1.761840 0.000000 0.000000 
#    y 0.000000 1.747750 0.000000 
#    z 0.000000 0.000000 1.744950 
# 
# From -- ./inp_files/8687.got.cif
#   From: 2010.03.12/outbox.cif.g09.slc.cpg/sg51_5_cif.got.tgz:8687.got - 2010.04.16 13:43:02.
