data_PCOD8209676
_publ_section_title
;
Structure prediction by ZEFSAII (Michael W. Deem and Ramdas Pophale) SiO2 
 PCOD8209676
Probable space group: P M M A
;
_chemical_formula_sum "Si O2"
_cell_formula_units_Z 64
_cell_length_a 23.798220
_cell_length_b 8.860596
_cell_length_c 14.799091
_cell_angle_alpha 90.000000
_cell_angle_beta 90.000000
_cell_angle_gamma 90.000000
_cell_volume 3120.631234
_symmetry_space_group_name_H-M "P M M A"
_symmetry_group_IT_number 51
_symmetry_cell_setting 'orthorhombic'
loop_
_space_group_symop_operation_xyz
x,y,z
1/2-x,-y,z
1/2+x,-y,-z
-x,y,-z
-x,-y,-z
1/2+x,y,-z
1/2-x,y,z
x,-y,z
loop_
_atom_site_type_symbol
_atom_site_label
_atom_site_fract_x
_atom_site_fract_y
_atom_site_fract_z
Si Si1 0.999321 0.678809 0.218710
Si Si2 0.687777 0.831010 0.264406
Si Si3 0.124919 0.322572 0.191754
Si Si4 0.033030 0.677492 0.585343
Si Si5 0.185824 0.178363 0.026070
Si Si6 0.386648 0.675613 0.870264
Si Si7 0.685920 0.174606 0.650196
Si Si8 0.354015 0.829768 0.545763
O O1 0.996909 0.500000 0.228060
O O2 0.988292 0.748012 0.319070
O O3 0.951121 0.729331 0.147012
O O4 0.060003 0.730740 0.181437
O O5 0.750000 0.800659 0.226247
O O6 0.646310 0.707452 0.222542
O O7 0.690233 0.818068 0.372618
O O8 0.668291 0.000000 0.235443
O O9 0.130290 0.500000 0.175726
O O10 0.164686 0.237588 0.121930
O O11 0.145240 0.280755 0.291924
O O12 0.023696 0.500000 0.587942
O O13 0.097566 0.713298 0.569627
O O14 0.000000 0.748970 0.500000
O O15 0.250000 0.235155 0.008767
O O16 0.184644 0.000000 0.028069
O O17 0.142637 0.233798 0.950343
O O18 0.384047 0.500000 0.894651
O O19 0.750000 0.209028 0.676604
O O20 0.677115 0.217418 0.545754
O O21 0.671367 0.000000 0.668793
O O22 0.378196 0.000000 0.538004
#
# Coordination Sequence:
#
# PCOD8209676 Si02
#       8
#     8   8   8   8   8   8   8   8
#     4   9  20  38  58  86 123 159 193 240 302 353
#     4  10  20  35  55  82 118 157 195 239 293 347
#     4  11  23  41  65  90 117 153 200 249 298 356
#     4  10  19  34  56  80 114 160 203 243 293 350
#     4  11  25  45  66  90 122 156 191 239 303 364
#     4  11  22  39  63  89 120 156 198 242 289 350
#     4  10  21  38  58  83 120 162 201 247 305 359
#     4  10  20  34  54  82 115 155 201 244 291 349
#
# _framework density 20.508671
#
# number of rings (size 3 to 8) (size 9 to 14) (size 15 to 20)
#    0.000    1.750    1.250    3.000    0.000    8.250 
#    0.000    6.250    0.000    2.250    0.000    0.000 
#    0.000    0.000    0.000    0.000    0.000    0.000 
#
# Total GULP energy -793550.872351 kJ/mol
# GULP energy per Si atom -12399.232380 kJ/mol
# Density = 2.046199 g / cm^3
# Si number density = 20.508671 Si / 1000 Ang^3
#
#
#
# Elastic Constant Matrix: (Units=GPa)
#
#
# Indices 1 2 3 4 5 6 
#
# 1 122.4187 32.1298 35.1691 0.0000 0.0000 0.0000
# 2 32.1298 40.9279 24.6013 0.0000 0.0000 0.0000
# 3 35.1691 24.6013 98.1433 0.0000 0.0000 0.0000
# 4 0.0000 0.0000 0.0000 29.7623 0.0000 0.0000
# 5 0.0000 0.0000 0.0000 0.0000 36.8645 0.0000
# 6 0.0000 0.0000 0.0000 0.0000 0.0000 25.1802
#
#
#
# Elastic Compliance Matrix: (Units=1/GPa)
#
#
# Indices 1 2 3 4 5 6 
#
# 1 0.010618 -0.007121 -0.002020 0.000000 0.000000 0.000000
# 2 -0.007121 0.033544 -0.005856 0.000000 0.000000 0.000000
# 3 -0.002020 -0.005856 0.012381 0.000000 0.000000 0.000000
# 4 0.000000 0.000000 0.000000 0.033600 0.000000 0.000000
# 5 0.000000 0.000000 0.000000 0.000000 0.027126 0.000000
# 6 0.000000 0.000000 0.000000 0.000000 0.000000 0.039714
#
#
# Mechanical properties :
#
#
# Convention : Reuss Voigt Hill
#
# Bulk Modulus (GPa) = 37.66813 49.47672 43.57242
# Shear Modulus (GPa) = 25.53270 29.66737 27.60004
#
# Velocity S-wave (km/s) = 3.53224 3.80752 3.67246
# Velocity P-wave (km/s) = 5.91967 6.59596 6.26694
#
# Compressibility (1/GPa) = 0.02654764
#
# Stress axis : x y z
#
# Youngs Moduli (GPa) = 94.17948 29.81159 80.76900
#
# Poissons Ratio (x) = 0.21230 0.16314
# Poissons Ratio (y) = 0.67069 0.47302
# Poissons Ratio (z) = 0.19022 0.17459
#
# Static dielectric constant tensor:
#      x y z
#    x 3.863660 0.000000 0.000000 
#    y 0.000000 3.479340 0.000000 
#    z 0.000000 0.000000 3.853650 
# 
# 
# High freq. dielectric constant tensor:
#      x y z
#    x 1.809180 0.000000 0.000000 
#    y 0.000000 1.778490 0.000000 
#    z 0.000000 0.000000 1.810880 
# 
# From -- ./inp_files/26217.got.cif
#   From: 2010.03.12/outbox.cif.g09.slc.cpg/sg51_14_cif.got.tgz:26217.got - 2010.04.16 13:43:02.
