data_PCOD8209461
_publ_section_title
;
Structure prediction by ZEFSAII (Michael W. Deem and Ramdas Pophale) SiO2 
 PCOD8209461
Probable space group: P M M A
;
_chemical_formula_sum "Si O2"
_cell_formula_units_Z 64
_cell_length_a 9.450097
_cell_length_b 25.475602
_cell_length_c 14.443090
_cell_angle_alpha 90.000000
_cell_angle_beta 90.000000
_cell_angle_gamma 90.000000
_cell_volume 3477.129289
_symmetry_space_group_name_H-M "P M M A"
_symmetry_group_IT_number 51
_symmetry_cell_setting 'orthorhombic'
loop_
_space_group_symop_operation_xyz
x,y,z
1/2-x,-y,z
1/2+x,-y,-z
-x,y,-z
-x,-y,-z
1/2+x,y,-z
1/2-x,y,z
x,-y,z
loop_
_atom_site_type_symbol
_atom_site_label
_atom_site_fract_x
_atom_site_fract_y
_atom_site_fract_z
Si Si1 0.086455 0.061501 0.090516
Si Si2 0.588009 0.173538 0.413866
Si Si3 0.411056 0.557041 0.758654
Si Si4 0.404697 0.559950 0.421440
Si Si5 0.412542 0.865000 0.785872
Si Si6 0.085694 0.763156 0.907879
Si Si7 0.586312 0.330540 0.213199
Si Si8 0.585213 0.704783 0.411090
O O1 0.250000 0.077917 0.077475
O O2 0.018661 0.090804 0.177526
O O3 0.071251 0.000000 0.108852
O O4 0.000000 0.079124 0.000000
O O5 0.500000 0.150768 0.500000
O O6 0.750000 0.166333 0.440955
O O7 0.550232 0.141292 0.321891
O O8 0.552614 0.234121 0.395149
O O9 0.250000 0.559334 0.720537
O O10 0.435376 0.500000 0.809369
O O11 0.518592 0.562657 0.675822
O O12 0.436767 0.608910 0.822340
O O13 0.500000 0.588510 0.500000
O O14 0.250000 0.587217 0.414924
O O15 0.382406 0.500000 0.451638
O O16 0.250000 0.883054 0.799725
O O17 0.438906 0.810136 0.836775
O O18 0.250000 0.756618 0.934198
O O19 0.020558 0.710166 0.860516
O O20 0.000000 0.775522 0.000000
O O21 0.750000 0.314616 0.219424
O O22 0.527265 0.324598 0.318408
O O23 0.500000 0.683521 0.500000
O O24 0.750000 0.693684 0.428412
#
# Coordination Sequence:
#
# PCOD8209461 Si02
#       8
#     8   8   8   8   8   8   8   8
#     4  10  21  36  54  79 112 148 184 222 264 309
#     4   9  17  30  49  74 103 137 173 211 255 303
#     4   9  17  29  46  66  85 114 159 202 242 294
#     4   9  16  26  40  58  83 115 149 188 233 280
#     4  10  19  33  55  80 108 141 177 215 259 309
#     4  10  20  35  53  75 102 131 163 203 255 310
#     4   9  17  32  51  68  95 131 160 197 251 305
#     4   9  16  29  47  67  94 129 164 199 243 295
#
# _framework density 18.405987
#
# number of rings (size 3 to 8) (size 9 to 14) (size 15 to 20)
#    0.000    2.625    1.250    1.125    0.000    4.750 
#    0.000    3.125    0.000    0.750    0.000    0.000 
#    0.000    0.000    0.000    0.000    0.000    0.000 
#
# Total GULP energy -793203.259454 kJ/mol
# GULP energy per Si atom -12393.800929 kJ/mol
# Density = 1.836409 g / cm^3
# Si number density = 18.405987 Si / 1000 Ang^3
#
#
#
# Elastic Constant Matrix: (Units=GPa)
#
#
# Indices 1 2 3 4 5 6 
#
# 1 88.4924 40.2804 43.3414 0.0000 0.0000 0.0000
# 2 40.2804 70.8104 36.0016 0.0000 0.0000 0.0000
# 3 43.3414 36.0016 87.4550 0.0000 0.0000 0.0000
# 4 0.0000 0.0000 0.0000 17.4819 0.0000 0.0000
# 5 0.0000 0.0000 0.0000 0.0000 25.1973 0.0000
# 6 0.0000 0.0000 0.0000 0.0000 0.0000 14.3649
#
#
#
# Elastic Compliance Matrix: (Units=1/GPa)
#
#
# Indices 1 2 3 4 5 6 
#
# 1 0.017235 -0.006907 -0.005698 0.000000 0.000000 0.000000
# 2 -0.006907 0.020628 -0.005069 0.000000 0.000000 0.000000
# 3 -0.005698 -0.005069 0.016345 0.000000 0.000000 0.000000
# 4 0.000000 0.000000 0.000000 0.057202 0.000000 0.000000
# 5 0.000000 0.000000 0.000000 0.000000 0.039687 0.000000
# 6 0.000000 0.000000 0.000000 0.000000 0.000000 0.069614
#
#
# Mechanical properties :
#
#
# Convention : Reuss Voigt Hill
#
# Bulk Modulus (GPa) = 53.02095 54.00051 53.51073
# Shear Modulus (GPa) = 19.05874 19.88444 19.47159
#
# Velocity S-wave (km/s) = 3.22135 3.29039 3.25606
# Velocity P-wave (km/s) = 6.53491 6.62102 6.57810
#
# Compressibility (1/GPa) = 0.01886047
#
# Stress axis : x y z
#
# Youngs Moduli (GPa) = 58.02053 48.47668 61.18094
#
# Poissons Ratio (x) = 0.33484 0.34862
# Poissons Ratio (y) = 0.40076 0.31011
# Poissons Ratio (z) = 0.33061 0.24572
#
# Static dielectric constant tensor:
#      x y z
#    x 3.371630 0.000000 0.000000 
#    y 0.000000 3.428090 0.000000 
#    z 0.000000 0.000000 3.207470 
# 
# 
# High freq. dielectric constant tensor:
#      x y z
#    x 1.703350 0.000000 0.000000 
#    y 0.000000 1.710840 0.000000 
#    z 0.000000 0.000000 1.684890 
# 
# From -- ./inp_files/22344.got.cif
#   From: 2010.03.12/outbox.cif.g09.slc.cpg/sg51_12_cif.got.tgz:22344.got - 2010.04.16 13:43:02.
