data_PCOD8209508
_publ_section_title
;
Structure prediction by ZEFSAII (Michael W. Deem and Ramdas Pophale) SiO2 
 PCOD8209508
Probable space group: P M M A
;
_chemical_formula_sum "Si O2"
_cell_formula_units_Z 56
_cell_length_a 17.182578
_cell_length_b 17.915327
_cell_length_c 9.575205
_cell_angle_alpha 90.000000
_cell_angle_beta 90.000000
_cell_angle_gamma 90.000000
_cell_volume 2947.549752
_symmetry_space_group_name_H-M "P M M A"
_symmetry_group_IT_number 51
_symmetry_cell_setting 'orthorhombic'
loop_
_space_group_symop_operation_xyz
x,y,z
1/2-x,-y,z
1/2+x,-y,-z
-x,y,-z
-x,-y,-z
1/2+x,y,-z
1/2-x,y,z
x,-y,z
loop_
_atom_site_type_symbol
_atom_site_label
_atom_site_fract_x
_atom_site_fract_y
_atom_site_fract_z
Si Si1 0.157869 0.703314 0.999245
Si Si2 0.841356 0.083648 0.673698
Si Si3 0.663410 0.084227 0.350889
Si Si4 0.839583 0.697064 0.450761
Si Si5 0.913621 0.791695 0.224829
Si Si6 0.409929 0.759261 0.271023
Si Si7 0.842197 0.417129 0.225229
O O1 0.250000 0.712590 0.994479
O O2 0.114437 0.774421 0.931410
O O3 0.130145 0.630528 0.910437
O O4 0.128743 0.703246 0.158307
O O5 0.750000 0.090409 0.700583
O O6 0.861559 0.091962 0.511578
O O7 0.881305 0.154824 0.748621
O O8 0.869146 0.000000 0.724807
O O9 0.750000 0.118162 0.328741
O O10 0.596124 0.120535 0.253809
O O11 0.664452 0.000000 0.302107
O O12 0.750000 0.693493 0.499371
O O13 0.849602 0.759056 0.332232
O O14 0.891687 0.719839 0.582263
O O15 0.866815 0.620015 0.374053
O O16 0.997930 0.758813 0.254256
O O17 0.750000 0.421390 0.220637
O O18 0.879053 0.500000 0.216171
#
# Coordination Sequence:
#
# PCOD8209508 Si02
#       7
#     8   8   8   8   8   8   8
#     4  10  21  37  58  78 105 147 184 218 267 330
#     4   9  18  32  51  75 107 146 183 223 274 326
#     4   9  17  31  53  78 104 141 190 234 272 322
#     4  10  19  33  56  80 106 141 179 217 264 324
#     4  11  21  34  52  78 110 143 180 228 274 318
#     4  12  22  33  52  83 115 141 180 233 274 317
#     4   8  16  34  60  86 108 136 179 225 268 320
#
# _framework density 18.998830000000002
#
# number of rings (size 3 to 8) (size 9 to 14) (size 15 to 20)
#    0.000    2.143    1.429    5.143    0.000    0.571 
#    0.000    2.857    0.000   21.429    0.000    0.000 
#    0.000    0.000    0.000    0.000    0.000    0.143 
#
# Total GULP energy -693866.611711 kJ/mol
# GULP energy per Si atom -12390.475209 kJ/mol
# Density = 1.895559 g / cm^3
# Si number density = 18.998830 Si / 1000 Ang^3
#
#
#
# Elastic Constant Matrix: (Units=GPa)
#
#
# Indices 1 2 3 4 5 6 
#
# 1 66.6212 29.8055 13.8952 0.0000 0.0000 0.0000
# 2 29.8055 106.9710 42.5790 0.0000 0.0000 0.0000
# 3 13.8952 42.5790 70.3572 0.0000 0.0000 0.0000
# 4 0.0000 0.0000 0.0000 24.4179 0.0000 0.0000
# 5 0.0000 0.0000 0.0000 0.0000 20.6182 0.0000
# 6 0.0000 0.0000 0.0000 0.0000 0.0000 14.4397
#
#
#
# Elastic Compliance Matrix: (Units=1/GPa)
#
#
# Indices 1 2 3 4 5 6 
#
# 1 0.017171 -0.004524 -0.000653 0.000000 0.000000 0.000000
# 2 -0.004524 0.013507 -0.007281 0.000000 0.000000 0.000000
# 3 -0.000653 -0.007281 0.018748 0.000000 0.000000 0.000000
# 4 0.000000 0.000000 0.000000 0.040954 0.000000 0.000000
# 5 0.000000 0.000000 0.000000 0.000000 0.048501 0.000000
# 6 0.000000 0.000000 0.000000 0.000000 0.000000 0.069254
#
#
# Mechanical properties :
#
#
# Convention : Reuss Voigt Hill
#
# Bulk Modulus (GPa) = 40.80007 46.27874 43.53941
# Shear Modulus (GPa) = 20.72797 22.40647 21.56722
#
# Velocity S-wave (km/s) = 3.30663 3.43791 3.37291
# Velocity P-wave (km/s) = 6.00833 6.33802 6.17538
#
# Compressibility (1/GPa) = 0.02450976
#
# Stress axis : x y z
#
# Youngs Moduli (GPa) = 58.23921 74.03592 53.33824
#
# Poissons Ratio (x) = 0.33496 0.03483
# Poissons Ratio (y) = 0.26349 0.38834
# Poissons Ratio (z) = 0.03803 0.53903
#
# Static dielectric constant tensor:
#      x y z
#    x 3.251650 0.000000 0.000000 
#    y 0.000000 3.850230 0.000000 
#    z 0.000000 0.000000 3.395410 
# 
# 
# High freq. dielectric constant tensor:
#      x y z
#    x 1.723230 0.000000 0.000000 
#    y 0.000000 1.732720 0.000000 
#    z 0.000000 0.000000 1.721200 
# 
# From -- ./inp_files/8531.got.cif
#   From: 2010.03.12/outbox.cif.g09.slc.cpg/sg51_5_cif.got.tgz:8531.got - 2010.04.16 13:43:02.
