data_PCOD8209352
_publ_section_title
;
Structure prediction by ZEFSAII (Michael W. Deem and Ramdas Pophale) SiO2 
 PCOD8209352
Probable space group: P M M A
;
_chemical_formula_sum "Si O2"
_cell_formula_units_Z 40
_cell_length_a 9.082718
_cell_length_b 12.702322
_cell_length_c 19.937760
_cell_angle_alpha 90.000000
_cell_angle_beta 90.000000
_cell_angle_gamma 90.000000
_cell_volume 2300.251445
_symmetry_space_group_name_H-M "P M M A"
_symmetry_group_IT_number 51
_symmetry_cell_setting 'orthorhombic'
loop_
_space_group_symop_operation_xyz
x,y,z
1/2-x,-y,z
1/2+x,-y,-z
-x,y,-z
-x,-y,-z
1/2+x,y,-z
1/2-x,y,z
x,-y,z
loop_
_atom_site_type_symbol
_atom_site_label
_atom_site_fract_x
_atom_site_fract_y
_atom_site_fract_z
Si Si1 0.420649 0.623126 0.323647
Si Si2 0.922516 0.227702 0.071258
Si Si3 0.923568 0.228461 0.427886
Si Si4 0.581110 0.000000 0.068716
Si Si5 0.579382 0.621555 0.187669
Si Si6 0.918078 0.000000 0.431402
O O1 0.250000 0.654244 0.325703
O O2 0.445036 0.500000 0.337111
O O3 0.507632 0.684359 0.380556
O O4 0.485316 0.655668 0.251810
O O5 0.750000 0.243122 0.058714
O O6 0.957371 0.111489 0.104453
O O7 0.980747 0.312772 0.124372
O O8 0.000000 0.244861 0.000000
O O9 0.750000 0.250180 0.435863
O O10 0.000000 0.237046 0.500000
O O11 0.953493 0.111480 0.394466
O O12 0.750000 0.000000 0.049687
O O13 0.500000 0.000000 0.000000
O O14 0.750000 0.646788 0.202808
O O15 0.555219 0.500000 0.169861
O O16 0.000000 0.000000 0.500000
O O17 0.750000 0.000000 0.452291
#
# Coordination Sequence:
#
# PCOD8209352 Si02
#       6
#     8   8   8   4   8   4
#     4  10  21  36  52  71  97 130 167 205 246 291
#     4   9  17  29  47  70  94 121 154 192 233 280
#     4  10  19  33  54  78 103 130 162 200 241 287
#     4   8  14  26  43  64  91 121 151 185 229 278
#     4   9  18  33  50  67  91 125 161 196 239 289
#     4   8  16  30  49  74 101 129 159 193 237 286
#
# _framework density 17.389402
#
# number of rings (size 3 to 8) (size 9 to 14) (size 15 to 20)
#    0.000    2.800    0.000    1.200    0.000    3.600 
#    0.000    1.000    0.000    3.600    0.000    0.000 
#    0.000    0.000    0.000    0.000    0.000    0.000 
#
# Total GULP energy -495550.368119 kJ/mol
# GULP energy per Si atom -12388.759203 kJ/mol
# Density = 1.734982 g / cm^3
# Si number density = 17.389402 Si / 1000 Ang^3
#
#
#
# Elastic Constant Matrix: (Units=GPa)
#
#
# Indices 1 2 3 4 5 6 
#
# 1 77.2274 51.6738 52.3796 0.0000 0.0000 0.0000
# 2 51.6738 106.1141 75.9794 0.0000 0.0000 0.0000
# 3 52.3796 75.9794 106.0239 0.0000 0.0000 0.0000
# 4 0.0000 0.0000 0.0000 1.1510 0.0000 0.0000
# 5 0.0000 0.0000 0.0000 0.0000 29.1986 0.0000
# 6 0.0000 0.0000 0.0000 0.0000 0.0000 21.6155
#
#
#
# Elastic Compliance Matrix: (Units=1/GPa)
#
#
# Indices 1 2 3 4 5 6 
#
# 1 0.021061 -0.005763 -0.006275 0.000000 0.000000 0.000000
# 2 -0.005763 0.020932 -0.012153 0.000000 0.000000 0.000000
# 3 -0.006275 -0.012153 0.021241 0.000000 0.000000 0.000000
# 4 0.000000 0.000000 0.000000 0.868821 0.000000 0.000000
# 5 0.000000 0.000000 0.000000 0.000000 0.034248 0.000000
# 6 0.000000 0.000000 0.000000 0.000000 0.000000 0.046263
#
#
# Mechanical properties :
#
#
# Convention : Reuss Voigt Hill
#
# Bulk Modulus (GPa) = 67.33216 72.15898 69.74557
# Shear Modulus (GPa) = 4.69087 17.68186 11.18636
#
# Velocity S-wave (km/s) = 1.64420 3.19222 2.53906
# Velocity P-wave (km/s) = 6.51221 7.42786 6.98505
#
# Compressibility (1/GPa) = 0.01485174
#
# Stress axis : x y z
#
# Youngs Moduli (GPa) = 47.48166 47.77326 47.07795
#
# Poissons Ratio (x) = 0.27531 0.29541
# Poissons Ratio (y) = 0.27363 0.57216
# Poissons Ratio (z) = 0.29794 0.58061
#
# Static dielectric constant tensor:
#      x y z
#    x 3.059190 0.000000 0.000000 
#    y 0.000000 4.335390 0.000000 
#    z 0.000000 0.000000 2.965250 
# 
# 
# High freq. dielectric constant tensor:
#      x y z
#    x 1.677800 0.000000 0.000000 
#    y 0.000000 1.689970 0.000000 
#    z 0.000000 0.000000 1.640810 
# 
# From -- ./inp_files/31389.got.cif
#   From: 2010.03.12/outbox.cif.g09.slc.cpg/sg51_16_cif.got.tgz:31389.got - 2010.04.16 13:43:02.
