data_PCOD8209920
_publ_section_title
;
Structure prediction by ZEFSAII (Michael W. Deem and Ramdas Pophale) SiO2 
 PCOD8209920
Probable space group: P M M A
;
_chemical_formula_sum "Si O2"
_cell_formula_units_Z 64
_cell_length_a 19.194210
_cell_length_b 9.338679
_cell_length_c 20.621377
_cell_angle_alpha 90.000000
_cell_angle_beta 90.000000
_cell_angle_gamma 90.000000
_cell_volume 3696.352253
_symmetry_space_group_name_H-M "P M M A"
_symmetry_group_IT_number 51
_symmetry_cell_setting 'orthorhombic'
loop_
_space_group_symop_operation_xyz
x,y,z
1/2-x,-y,z
1/2+x,-y,-z
-x,y,-z
-x,-y,-z
1/2+x,y,-z
1/2-x,y,z
x,-y,z
loop_
_atom_site_type_symbol
_atom_site_label
_atom_site_fract_x
_atom_site_fract_y
_atom_site_fract_z
Si Si1 0.463991 0.664490 0.689862
Si Si2 0.452793 0.667173 0.438928
Si Si3 0.829380 0.833128 0.510973
Si Si4 0.046364 0.831511 0.814237
Si Si5 0.328577 0.666300 0.019139
Si Si6 0.044068 0.832312 0.061511
Si Si7 0.170484 0.335160 0.869476
Si Si8 0.827906 0.662101 0.381700
O O1 0.477731 0.500000 0.708800
O O2 0.507740 0.708376 0.626791
O O3 0.486881 0.764593 0.749334
O O4 0.382125 0.691850 0.675800
O O5 0.500000 0.713326 0.500000
O O6 0.435185 0.500000 0.442286
O O7 0.380678 0.754924 0.438848
O O8 0.750000 0.805441 0.533602
O O9 0.842205 0.770391 0.439766
O O10 0.847073 0.000000 0.508821
O O11 0.122369 0.765033 0.825808
O O12 0.995992 0.790684 0.873284
O O13 0.054393 0.000000 0.805794
O O14 0.250000 0.702801 0.041301
O O15 0.344355 0.500000 0.029183
O O16 0.338650 0.708981 0.944268
O O17 0.381188 0.755944 0.063398
O O18 0.057487 0.000000 0.055699
O O19 0.000000 0.776199 0.000000
O O20 0.250000 0.311217 0.847640
O O21 0.148748 0.500000 0.858942
O O22 0.750000 0.681897 0.353511
O O23 0.839146 0.500000 0.408395
#
# Coordination Sequence:
#
# PCOD8209920 Si02
#       8
#     8   8   8   8   8   8   8   8
#     4  10  21  36  53  76 106 139 177 218 260 310
#     4  10  19  35  57  80 104 134 176 220 260 308
#     4  10  20  32  50  80 112 138 169 213 263 310
#     4  11  23  36  51  75 108 142 177 217 260 311
#     4   9  18  32  53  82 108 131 169 221 268 308
#     4  10  20  35  53  76 106 140 177 215 258 312
#     4   9  18  33  52  75 105 140 177 214 256 309
#     4   9  17  32  53  74 101 140 179 212 250 301
#
# _framework density 17.314366
#
# number of rings (size 3 to 8) (size 9 to 14) (size 15 to 20)
#    0.000    2.250    2.500    1.500    0.000    4.250 
#    0.000    2.500    0.000    0.750    0.000    0.000 
#    0.000    0.000    0.000    0.000    0.000    0.000 
#
# Total GULP energy -793719.199373 kJ/mol
# GULP energy per Si atom -12401.862490 kJ/mol
# Density = 1.727496 g / cm^3
# Si number density = 17.314366 Si / 1000 Ang^3
#
#
#
# Elastic Constant Matrix: (Units=GPa)
#
#
# Indices 1 2 3 4 5 6 
#
# 1 99.2543 55.4562 54.9490 0.0000 0.0000 0.0000
# 2 55.4562 75.1436 54.5933 0.0000 0.0000 0.0000
# 3 54.9490 54.5933 108.6958 0.0000 0.0000 0.0000
# 4 0.0000 0.0000 0.0000 28.4903 0.0000 0.0000
# 5 0.0000 0.0000 0.0000 0.0000 20.9541 0.0000
# 6 0.0000 0.0000 0.0000 0.0000 0.0000 30.5681
#
#
#
# Elastic Compliance Matrix: (Units=1/GPa)
#
#
# Indices 1 2 3 4 5 6 
#
# 1 0.018111 -0.010572 -0.003846 0.000000 0.000000 0.000000
# 2 -0.010572 0.027125 -0.008279 0.000000 0.000000 0.000000
# 3 -0.003846 -0.008279 0.015303 0.000000 0.000000 0.000000
# 4 0.000000 0.000000 0.000000 0.035100 0.000000 0.000000
# 5 0.000000 0.000000 0.000000 0.000000 0.047723 0.000000
# 6 0.000000 0.000000 0.000000 0.000000 0.000000 0.032714
#
#
# Mechanical properties :
#
#
# Convention : Reuss Voigt Hill
#
# Bulk Modulus (GPa) = 66.03089 68.12118 67.07603
# Shear Modulus (GPa) = 22.07328 23.87550 22.97439
#
# Velocity S-wave (km/s) = 3.57438 3.71744 3.64661
# Velocity P-wave (km/s) = 7.43332 7.60624 7.52028
#
# Compressibility (1/GPa) = 0.01514443
#
# Stress axis : x y z
#
# Youngs Moduli (GPa) = 55.21468 36.86625 65.34860
#
# Poissons Ratio (x) = 0.38975 0.25132
# Poissons Ratio (y) = 0.58373 0.54104
# Poissons Ratio (z) = 0.21235 0.30523
#
# Static dielectric constant tensor:
#      x y z
#    x 3.296840 0.000000 0.000000 
#    y 0.000000 3.175570 0.000000 
#    z 0.000000 0.000000 3.006430 
# 
# 
# High freq. dielectric constant tensor:
#      x y z
#    x 1.669730 0.000000 0.000000 
#    y 0.000000 1.667480 0.000000 
#    z 0.000000 0.000000 1.644530 
# 
# From -- ./inp_files/33770.got.cif
#   From: 2010.03.12/outbox.cif.g09.slc.cpg/sg51_17_cif.got.tgz:33770.got - 2010.04.16 13:43:02.
