data_PCOD8209980
_publ_section_title
;
Structure prediction by ZEFSAII (Michael W. Deem and Ramdas Pophale) SiO2 
 PCOD8209980
Probable space group: P M M A
;
_chemical_formula_sum "Si O2"
_cell_formula_units_Z 48
_cell_length_a 17.625766
_cell_length_b 15.661041
_cell_length_c 9.471845
_cell_angle_alpha 90.000000
_cell_angle_beta 90.000000
_cell_angle_gamma 90.000000
_cell_volume 2614.587672
_symmetry_space_group_name_H-M "P M M A"
_symmetry_group_IT_number 51
_symmetry_cell_setting 'orthorhombic'
loop_
_space_group_symop_operation_xyz
x,y,z
1/2-x,-y,z
1/2+x,-y,-z
-x,y,-z
-x,-y,-z
1/2+x,y,-z
1/2-x,y,z
x,-y,z
loop_
_atom_site_type_symbol
_atom_site_label
_atom_site_fract_x
_atom_site_fract_y
_atom_site_fract_z
Si Si1 0.338821 0.000000 0.569161
Si Si2 0.834464 0.826603 0.304019
Si Si3 0.056057 0.844278 0.132012
Si Si4 0.027967 0.729811 0.653791
Si Si5 0.334509 0.734483 0.976963
Si Si6 0.558385 0.596120 0.127245
Si Si7 0.657433 0.000000 0.762339
O O1 0.371471 0.917296 0.650543
O O2 0.250000 0.000000 0.591991
O O3 0.359785 0.000000 0.404304
O O4 0.750000 0.818325 0.367276
O O5 0.883580 0.750981 0.370990
O O6 0.834186 0.813068 0.135035
O O7 0.107994 0.762235 0.098567
O O8 0.114887 0.919375 0.169154
O O9 0.007616 0.813228 0.267356
O O10 0.000000 0.867342 0.000000
O O11 0.017123 0.643872 0.743469
O O12 0.000000 0.710561 0.500000
O O13 0.250000 0.718846 0.036278
O O14 0.364327 0.646050 0.910862
O O15 0.580168 0.500000 0.171413
O O16 0.500000 0.596040 0.000000
O O17 0.750000 0.000000 0.791640
#
# Coordination Sequence:
#
# PCOD8209980 Si02
#       7
#     4   8   8   8   8   8   4
#     4   9  18  35  51  74 112 147 183 226 275 334
#     4   9  18  33  54  78 109 148 192 234 275 332
#     4  12  21  40  56  81 114 149 191 243 282 330
#     4  11  21  36  59  85 114 151 191 228 284 343
#     4  10  19  35  59  85 110 144 191 235 283 335
#     4  10  19  37  61  85 116 146 181 230 282 339
#     4  11  25  37  53  81 113 153 192 235 292 332
#
# _framework density 18.358535
#
# number of rings (size 3 to 8) (size 9 to 14) (size 15 to 20)
#    0.000    1.667    5.000    1.750    0.000    2.000 
#    0.000    4.167    0.000    0.000    0.000    0.000 
#    0.000    0.000    0.000    0.000    0.000    0.000 
#
# Total GULP energy -594791.065033 kJ/mol
# GULP energy per Si atom -12391.480522 kJ/mol
# Density = 1.831675 g / cm^3
# Si number density = 18.358535 Si / 1000 Ang^3
#
#
#
# Elastic Constant Matrix: (Units=GPa)
#
#
# Indices 1 2 3 4 5 6 
#
# 1 97.3853 44.2069 33.0633 0.0000 0.0000 0.0000
# 2 44.2069 130.0052 46.6766 0.0000 0.0000 0.0000
# 3 33.0633 46.6766 83.1748 0.0000 0.0000 0.0000
# 4 0.0000 0.0000 0.0000 15.7379 0.0000 0.0000
# 5 0.0000 0.0000 0.0000 0.0000 21.8831 0.0000
# 6 0.0000 0.0000 0.0000 0.0000 0.0000 22.0146
#
#
#
# Elastic Compliance Matrix: (Units=1/GPa)
#
#
# Indices 1 2 3 4 5 6 
#
# 1 0.012836 -0.003172 -0.003323 0.000000 0.000000 0.000000
# 2 -0.003172 0.010417 -0.004585 0.000000 0.000000 0.000000
# 3 -0.003323 -0.004585 0.015917 0.000000 0.000000 0.000000
# 4 0.000000 0.000000 0.000000 0.063541 0.000000 0.000000
# 5 0.000000 0.000000 0.000000 0.000000 0.045697 0.000000
# 6 0.000000 0.000000 0.000000 0.000000 0.000000 0.045424
#
#
# Mechanical properties :
#
#
# Convention : Reuss Voigt Hill
#
# Bulk Modulus (GPa) = 58.78563 62.05098 60.41830
# Shear Modulus (GPa) = 22.55693 24.36837 23.46265
#
# Velocity S-wave (km/s) = 3.50907 3.64725 3.57882
# Velocity P-wave (km/s) = 6.96480 7.18397 7.07524
#
# Compressibility (1/GPa) = 0.01701096
#
# Stress axis : x y z
#
# Youngs Moduli (GPa) = 77.90329 95.99967 62.82749
#
# Poissons Ratio (x) = 0.30451 0.20875
# Poissons Ratio (y) = 0.24711 0.28805
# Poissons Ratio (z) = 0.25884 0.44014
#
# Static dielectric constant tensor:
#      x y z
#    x 3.609080 0.000000 0.000000 
#    y 0.000000 3.523270 0.000000 
#    z 0.000000 0.000000 3.272450 
# 
# 
# High freq. dielectric constant tensor:
#      x y z
#    x 1.720690 0.000000 0.000000 
#    y 0.000000 1.700310 0.000000 
#    z 0.000000 0.000000 1.697440 
# 
# From -- ./inp_files/9696.got.cif
#   From: 2010.03.12/outbox.cif.g09.slc.cpg/sg51_5_cif.got.tgz:9696.got - 2010.04.16 13:43:02.
