data_PCOD8209047
_publ_section_title
;
Structure prediction by ZEFSAII (Michael W. Deem and Ramdas Pophale) SiO2 
 PCOD8209047
Probable space group: P M M A
;
_chemical_formula_sum "Si O2"
_cell_formula_units_Z 56
_cell_length_a 21.304671
_cell_length_b 9.534116
_cell_length_c 14.214851
_cell_angle_alpha 90.000000
_cell_angle_beta 90.000000
_cell_angle_gamma 90.000000
_cell_volume 2887.337659
_symmetry_space_group_name_H-M "P M M A"
_symmetry_group_IT_number 51
_symmetry_cell_setting 'orthorhombic'
loop_
_space_group_symop_operation_xyz
x,y,z
1/2-x,-y,z
1/2+x,-y,-z
-x,y,-z
-x,-y,-z
1/2+x,y,-z
1/2-x,y,z
x,-y,z
loop_
_atom_site_type_symbol
_atom_site_label
_atom_site_fract_x
_atom_site_fract_y
_atom_site_fract_z
Si Si1 0.320629 0.663797 0.859554
Si Si2 0.074374 0.663668 0.011651
Si Si3 0.881345 0.156361 0.815675
Si Si4 0.915734 0.662269 0.527112
Si Si5 0.400978 0.662628 0.687069
Si Si6 0.011575 0.157185 0.337502
Si Si7 0.680345 0.654595 0.683263
O O1 0.250000 0.729618 0.879280
O O2 0.313401 0.500000 0.873617
O O3 0.378501 0.713494 0.927037
O O4 0.340369 0.698748 0.751386
O O5 0.085424 0.500000 0.033269
O O6 0.092642 0.759359 0.097698
O O7 0.000000 0.692046 0.000000
O O8 0.930940 0.150217 0.732384
O O9 0.822844 0.240311 0.771869
O O10 0.861259 0.000000 0.846915
O O11 0.935920 0.500000 0.534521
O O12 0.890792 0.699412 0.422901
O O13 0.974396 0.753490 0.566964
O O14 0.858536 0.703928 0.593624
O O15 0.419777 0.500000 0.702026
O O16 0.457532 0.762172 0.720741
O O17 0.990611 0.000000 0.366685
O O18 0.750000 0.650257 0.644905
O O19 0.657972 0.500000 0.717218
#
# Coordination Sequence:
#
# PCOD8209047 Si02
#       7
#     8   8   8   8   8   8   8
#     4   9  19  35  54  78 107 138 175 219 267 322
#     4  10  20  35  57  82 106 136 176 221 269 323
#     4  10  21  35  52  76 104 133 167 211 263 314
#     4   9  18  31  49  76 106 135 172 217 260 303
#     4  10  19  32  53  77 102 136 174 213 257 305
#     4  10  20  33  50  75 107 139 171 211 260 314
#     4   9  18  33  52  74 102 136 172 210 254 307
#
# _framework density 19.395029999999998
#
# number of rings (size 3 to 8) (size 9 to 14) (size 15 to 20)
#    0.000    2.429    0.000    2.143    0.000    6.857 
#    0.000    5.000    0.000    1.286    0.000    2.000 
#    0.000    0.000    0.000    0.000    0.000    0.000 
#
# Total GULP energy -693737.779883 kJ/mol
# GULP energy per Si atom -12388.174641 kJ/mol
# Density = 1.935089 g / cm^3
# Si number density = 19.395030 Si / 1000 Ang^3
#
#
#
# Elastic Constant Matrix: (Units=GPa)
#
#
# Indices 1 2 3 4 5 6 
#
# 1 109.6177 25.2792 39.0809 0.0000 0.0000 0.0000
# 2 25.2792 66.5718 37.7285 0.0000 0.0000 0.0000
# 3 39.0809 37.7285 94.7961 0.0000 0.0000 0.0000
# 4 0.0000 0.0000 0.0000 9.7698 0.0000 0.0000
# 5 0.0000 0.0000 0.0000 0.0000 25.3080 0.0000
# 6 0.0000 0.0000 0.0000 0.0000 0.0000 0.2593
#
#
#
# Elastic Compliance Matrix: (Units=1/GPa)
#
#
# Indices 1 2 3 4 5 6 
#
# 1 0.010909 -0.002058 -0.003678 0.000000 0.000000 0.000000
# 2 -0.002058 0.019785 -0.007026 0.000000 0.000000 0.000000
# 3 -0.003678 -0.007026 0.014862 0.000000 0.000000 0.000000
# 4 0.000000 0.000000 0.000000 0.102356 0.000000 0.000000
# 5 0.000000 0.000000 0.000000 0.000000 0.039513 0.000000
# 6 0.000000 0.000000 0.000000 0.000000 0.000000 3.856739
#
#
# Mechanical properties :
#
#
# Convention : Reuss Voigt Hill
#
# Bulk Modulus (GPa) = 49.92235 52.79586 51.35911
# Shear Modulus (GPa) = 1.22658 18.32723 9.77691
#
# Velocity S-wave (km/s) = 0.79611 3.07733 2.24764
# Velocity P-wave (km/s) = 5.16146 6.31720 5.76835
#
# Compressibility (1/GPa) = 0.02003111
#
# Stress axis : x y z
#
# Youngs Moduli (GPa) = 91.67159 50.54455 67.28748
#
# Poissons Ratio (x) = 0.10401 0.24750
# Poissons Ratio (y) = 0.18863 0.47275
# Poissons Ratio (z) = 0.33719 0.35512
#
# Static dielectric constant tensor:
#      x y z
#    x 3.780400 0.000000 0.000000 
#    y 0.000000 3.683350 0.000000 
#    z 0.000000 0.000000 3.699700 
# 
# 
# High freq. dielectric constant tensor:
#      x y z
#    x 1.750120 0.000000 0.000000 
#    y 0.000000 1.735020 0.000000 
#    z 0.000000 0.000000 1.756390 
# 
# From -- ./inp_files/25732.got.cif
#   From: 2010.03.12/outbox.cif.g09.slc.cpg/sg51_13_cif.got.tgz:25732.got - 2010.04.16 13:43:02.
