data_PCOD8209290
_publ_section_title
;
Structure prediction by ZEFSAII (Michael W. Deem and Ramdas Pophale) SiO2 
 PCOD8209290
Probable space group: P M M A
;
_chemical_formula_sum "Si O2"
_cell_formula_units_Z 32
_cell_length_a 8.999431
_cell_length_b 20.252412
_cell_length_c 9.728056
_cell_angle_alpha 90.000000
_cell_angle_beta 90.000000
_cell_angle_gamma 90.000000
_cell_volume 1773.037280
_symmetry_space_group_name_H-M "P M M A"
_symmetry_group_IT_number 51
_symmetry_cell_setting 'orthorhombic'
loop_
_space_group_symop_operation_xyz
x,y,z
1/2-x,-y,z
1/2+x,-y,-z
-x,y,-z
-x,-y,-z
1/2+x,y,-z
1/2-x,y,z
x,-y,z
loop_
_atom_site_type_symbol
_atom_site_label
_atom_site_fract_x
_atom_site_fract_y
_atom_site_fract_z
Si Si1 0.574691 0.357256 0.648529
Si Si2 0.577013 0.891110 0.139930
Si Si3 0.424843 0.260504 0.858483
Si Si4 0.074877 0.000000 0.647427
Si Si5 0.419529 0.500000 0.358196
O O1 0.500000 0.354420 0.500000
O O2 0.750000 0.342147 0.637243
O O3 0.495749 0.302529 0.738252
O O4 0.545035 0.430304 0.718430
O O5 0.750000 0.901393 0.114731
O O6 0.537610 0.815542 0.174305
O O7 0.522687 0.935407 0.267732
O O8 0.500000 0.914867 0.000000
O O9 0.250000 0.273573 0.868076
O O10 0.500000 0.282778 0.000000
O O11 0.000000 0.000000 0.500000
O O12 0.250000 0.000000 0.624203
O O13 0.250000 0.500000 0.400910
O O14 0.500000 0.500000 0.500000
#
# Coordination Sequence:
#
# PCOD8209290 Si02
#       5
#     8   8   8   4   4
#     4  10  19  33  53  77 103 134 170 211 255 303
#     4   9  19  35  55  76 100 131 170 208 247 298
#     4  10  20  35  53  76 104 135 170 211 255 303
#     4  10  21  36  52  76 106 134 165 206 250 294
#     4   8  16  30  49  72  99 130 168 208 250 300
#
# _framework density 18.048124999999999
#
# number of rings (size 3 to 8) (size 9 to 14) (size 15 to 20)
#    0.000    2.500    0.000    1.875    0.000    4.000 
#    0.000    3.125    0.000    0.000    0.000    0.000 
#    0.000    0.000    0.000    0.000    0.000    0.000 
#
# Total GULP energy -396599.999122 kJ/mol
# GULP energy per Si atom -12393.749973 kJ/mol
# Density = 1.800705 g / cm^3
# Si number density = 18.048125 Si / 1000 Ang^3
#
#
#
# Elastic Constant Matrix: (Units=GPa)
#
#
# Indices 1 2 3 4 5 6 
#
# 1 77.3269 53.3947 54.0568 0.0000 0.0000 0.0000
# 2 53.3947 122.2122 82.8265 0.0000 0.0000 0.0000
# 3 54.0568 82.8265 129.4305 0.0000 0.0000 0.0000
# 4 0.0000 0.0000 0.0000 -9.4891 0.0000 0.0000
# 5 0.0000 0.0000 0.0000 0.0000 36.9385 0.0000
# 6 0.0000 0.0000 0.0000 0.0000 0.0000 42.5616
#
#
#
# Elastic Compliance Matrix: (Units=1/GPa)
#
#
# Indices 1 2 3 4 5 6 
#
# 1 0.020144 -0.005473 -0.004911 0.000000 0.000000 0.000000
# 2 -0.005473 0.015936 -0.007912 0.000000 0.000000 0.000000
# 3 -0.004911 -0.007912 0.014841 0.000000 0.000000 0.000000
# 4 0.000000 0.000000 0.000000 -0.105384 0.000000 0.000000
# 5 0.000000 0.000000 0.000000 0.000000 0.027072 0.000000
# 6 0.000000 0.000000 0.000000 0.000000 0.000000 0.023495
#
#
# Mechanical properties :
#
#
# Convention : Reuss Voigt Hill
#
# Bulk Modulus (GPa) = 69.79012 78.83617 74.31315
# Shear Modulus (GPa) = 133.43183 23.24830 78.34006
#
# Velocity S-wave (km/s) = 8.60765 3.59294 6.59549
# Velocity P-wave (km/s) = 11.72782 7.80950 9.96318
#
# Compressibility (1/GPa) = 0.01432868
#
# Stress axis : x y z
#
# Youngs Moduli (GPa) = 49.64207 62.75206 67.38309
#
# Poissons Ratio (x) = 0.34342 0.33093
# Poissons Ratio (y) = 0.27167 0.53314
# Poissons Ratio (z) = 0.24380 0.49650
#
# Static dielectric constant tensor:
#      x y z
#    x 3.441840 0.000000 0.000000 
#    y 0.000000 3.882010 0.000000 
#    z 0.000000 0.000000 3.100280 
# 
# 
# High freq. dielectric constant tensor:
#      x y z
#    x 1.707450 0.000000 0.000000 
#    y 0.000000 1.717470 0.000000 
#    z 0.000000 0.000000 1.676780 
# 
# From -- ./inp_files/5172.got.cif
#   From: 2010.03.12/outbox.cif.g09.slc.cpg/sg51_3_cif.got.tgz:5172.got - 2010.04.16 13:43:02.
