data_PCOD8209114
_publ_section_title
;
Structure prediction by ZEFSAII (Michael W. Deem and Ramdas Pophale) SiO2 
 PCOD8209114
Probable space group: P M M A
;
_chemical_formula_sum "Si O2"
_cell_formula_units_Z 36
_cell_length_a 8.883395
_cell_length_b 7.589170
_cell_length_c 24.901868
_cell_angle_alpha 90.000000
_cell_angle_beta 90.000000
_cell_angle_gamma 90.000000
_cell_volume 1678.824047
_symmetry_space_group_name_H-M "P M M A"
_symmetry_group_IT_number 51
_symmetry_cell_setting 'orthorhombic'
loop_
_space_group_symop_operation_xyz
x,y,z
1/2-x,-y,z
1/2+x,-y,-z
-x,y,-z
-x,-y,-z
1/2+x,y,-z
1/2-x,y,z
x,-y,z
loop_
_atom_site_type_symbol
_atom_site_label
_atom_site_fract_x
_atom_site_fract_y
_atom_site_fract_z
Si Si1 0.428111 0.500000 0.941911
Si Si2 0.919222 0.290377 0.659558
Si Si3 0.080413 0.710090 0.553317
Si Si4 0.077707 0.291266 0.767285
Si Si5 0.922650 0.800945 0.874280
O O1 0.250000 0.500000 0.947166
O O2 0.476934 0.324967 0.910820
O O3 0.500000 0.500000 0.000000
O O4 0.750000 0.216597 0.663718
O O5 0.918714 0.500000 0.657993
O O6 0.994598 0.215336 0.605476
O O7 0.014282 0.223644 0.710470
O O8 0.250000 0.782022 0.554302
O O9 0.078406 0.500000 0.553521
O O10 0.000000 0.783347 0.500000
O O11 0.250000 0.230165 0.772435
O O12 0.062986 0.500000 0.772952
O O13 0.979852 0.201663 0.813382
O O14 0.750000 0.736536 0.875973
O O15 0.936998 0.000000 0.896415
#
# Coordination Sequence:
#
# PCOD8209114 Si02
#       5
#     4   8   8   8   8
#     4  12  26  46  72 100 132 172 211 256 305 358
#     4   9  16  25  39  61  91 132 181 234 292 356
#     4   9  15  22  32  49  79 121 171 228 289 355
#     4  10  19  32  53  81 113 152 196 246 303 362
#     4  11  24  42  66  96 130 168 210 257 308 364
#
# _framework density 21.443583
#
# number of rings (size 3 to 8) (size 9 to 14) (size 15 to 20)
#    0.000    2.000    1.111    3.667    0.000    8.444 
#    0.000    0.000    0.000    0.000    0.000    0.000 
#    0.000    0.889    0.000    3.333    0.000    7.333 
#
# Total GULP energy -446494.725430 kJ/mol
# GULP energy per Si atom -12402.631262 kJ/mol
# Density = 2.139478 g / cm^3
# Si number density = 21.443583 Si / 1000 Ang^3
#
#
#
# Elastic Constant Matrix: (Units=GPa)
#
#
# Indices 1 2 3 4 5 6 
#
# 1 189.2358 33.7459 71.7262 0.0000 0.0000 0.0000
# 2 33.7459 59.4724 32.3402 0.0000 0.0000 0.0000
# 3 71.7262 32.3402 165.0278 0.0000 0.0000 0.0000
# 4 0.0000 0.0000 0.0000 -7.5102 0.0000 0.0000
# 5 0.0000 0.0000 0.0000 0.0000 49.7358 0.0000
# 6 0.0000 0.0000 0.0000 0.0000 0.0000 8.0108
#
#
#
# Elastic Compliance Matrix: (Units=1/GPa)
#
#
# Indices 1 2 3 4 5 6 
#
# 1 0.006633 -0.002458 -0.002401 0.000000 0.000000 0.000000
# 2 -0.002458 0.019731 -0.002798 0.000000 0.000000 0.000000
# 3 -0.002401 -0.002798 0.007652 0.000000 0.000000 0.000000
# 4 0.000000 0.000000 0.000000 -0.133152 0.000000 0.000000
# 5 0.000000 0.000000 0.000000 0.000000 0.020106 0.000000
# 6 0.000000 0.000000 0.000000 0.000000 0.000000 0.124832
#
#
# Mechanical properties :
#
#
# Convention : Reuss Voigt Hill
#
# Bulk Modulus (GPa) = 53.47452 76.59564 65.03508
# Shear Modulus (GPa) = 74.23840 28.44218 51.34029
#
# Velocity S-wave (km/s) = 5.89029 3.64589 4.89837
# Velocity P-wave (km/s) = 8.44110 7.31577 7.89850
#
# Compressibility (1/GPa) = 0.01870050
#
# Stress axis : x y z
#
# Youngs Moduli (GPa) = 150.76500 50.68194 130.69173
#
# Poissons Ratio (x) = 0.12457 0.31381
# Poissons Ratio (y) = 0.37056 0.36572
# Poissons Ratio (z) = 0.36201 0.14183
#
# Static dielectric constant tensor:
#      x y z
#    x 4.071690 0.000000 0.000000 
#    y 0.000000 3.566800 0.000000 
#    z 0.000000 0.000000 4.037700 
# 
# 
# High freq. dielectric constant tensor:
#      x y z
#    x 1.857420 0.000000 0.000000 
#    y 0.000000 1.812030 0.000000 
#    z 0.000000 0.000000 1.846860 
# 
# From -- ./inp_files/34329.got.cif
#   From: 2010.03.12/outbox.cif.g09.slc.cpg/sg51_18_cif.got.tgz:34329.got - 2010.04.16 13:43:02.
