data_PCOD8209141
_publ_section_title
;
Structure prediction by ZEFSAII (Michael W. Deem and Ramdas Pophale) SiO2 
 PCOD8209141
Probable space group: P M M A
;
_chemical_formula_sum "Si O2"
_cell_formula_units_Z 56
_cell_length_a 17.047024
_cell_length_b 31.656817
_cell_length_c 5.135306
_cell_angle_alpha 90.000000
_cell_angle_beta 90.000000
_cell_angle_gamma 90.000000
_cell_volume 2771.291090
_symmetry_space_group_name_H-M "P M M A"
_symmetry_group_IT_number 51
_symmetry_cell_setting 'orthorhombic'
loop_
_space_group_symop_operation_xyz
x,y,z
1/2-x,-y,z
1/2+x,-y,-z
-x,y,-z
-x,-y,-z
1/2+x,y,-z
1/2-x,y,z
x,-y,z
loop_
_atom_site_type_symbol
_atom_site_label
_atom_site_fract_x
_atom_site_fract_y
_atom_site_fract_z
Si Si1 0.156933 0.679080 0.650908
Si Si2 0.843334 0.824561 0.800995
Si Si3 0.340042 0.451638 0.065201
Si Si4 0.842852 0.730379 0.850591
Si Si5 0.909543 0.588647 0.430336
Si Si6 0.342765 0.875003 0.696619
Si Si7 0.051324 0.047459 0.756025
O O1 0.250000 0.671402 0.665103
O O2 0.130056 0.701570 0.387516
O O3 0.112660 0.634962 0.669032
O O4 0.126877 0.708689 0.885460
O O5 0.750000 0.822407 0.783552
O O6 0.878624 0.777227 0.814109
O O7 0.876440 0.849943 0.552799
O O8 0.871790 0.848823 0.055840
O O9 0.250000 0.442798 0.989795
O O10 0.354077 0.500000 0.147130
O O11 0.392045 0.442328 0.810733
O O12 0.360491 0.422765 0.312535
O O13 0.750000 0.734348 0.860620
O O14 0.000000 0.585185 0.500000
O O15 0.250000 0.878995 0.683489
O O16 0.374846 0.922304 0.714234
O O17 0.000000 0.048745 0.500000
O O18 0.083112 0.000000 0.807807
O O19 0.000000 0.063093 0.000000
#
# Coordination Sequence:
#
# PCOD8209141 Si02
#       7
#     8   8   8   8   8   8   8
#     4  10  19  33  55  80 108 147 193 232 267 320
#     4   9  17  30  50  80 112 138 174 226 279 323
#     4  11  24  43  66  90 118 154 197 243 287 340
#     4   9  17  30  52  80 107 140 184 230 271 320
#     4  12  25  40  61  90 124 158 191 237 296 349
#     4  10  19  32  54  81 108 138 175 225 276 325
#     4  10  21  37  55  75 104 143 182 221 268 325
#
# _framework density 20.207189
#
# number of rings (size 3 to 8) (size 9 to 14) (size 15 to 20)
#    0.000    1.857    0.000    4.714    0.000    7.714 
#    0.000    0.000    0.000   13.714    0.000    0.000 
#    0.000    0.000    0.000    0.000    0.000    0.000 
#
# Total GULP energy -694560.341549 kJ/mol
# GULP energy per Si atom -12402.863242 kJ/mol
# Density = 2.016120 g / cm^3
# Si number density = 20.207189 Si / 1000 Ang^3
#
#
#
# Elastic Constant Matrix: (Units=GPa)
#
#
# Indices 1 2 3 4 5 6 
#
# 1 42.0851 41.4241 24.5039 0.0000 0.0000 0.0000
# 2 41.4241 129.3789 44.6421 0.0000 0.0000 0.0000
# 3 24.5039 44.6421 152.2005 0.0000 0.0000 0.0000
# 4 0.0000 0.0000 0.0000 39.9151 0.0000 0.0000
# 5 0.0000 0.0000 0.0000 0.0000 16.6124 0.0000
# 6 0.0000 0.0000 0.0000 0.0000 0.0000 10.1562
#
#
#
# Elastic Compliance Matrix: (Units=1/GPa)
#
#
# Indices 1 2 3 4 5 6 
#
# 1 0.035638 -0.010493 -0.002660 0.000000 0.000000 0.000000
# 2 -0.010493 0.011689 -0.001739 0.000000 0.000000 0.000000
# 3 -0.002660 -0.001739 0.007509 0.000000 0.000000 0.000000
# 4 0.000000 0.000000 0.000000 0.025053 0.000000 0.000000
# 5 0.000000 0.000000 0.000000 0.000000 0.060196 0.000000
# 6 0.000000 0.000000 0.000000 0.000000 0.000000 0.098462
#
#
# Mechanical properties :
#
#
# Convention : Reuss Voigt Hill
#
# Bulk Modulus (GPa) = 39.91727 60.53385 50.22556
# Shear Modulus (GPa) = 18.07139 27.54304 22.80722
#
# Velocity S-wave (km/s) = 2.99374 3.69593 3.36321
# Velocity P-wave (km/s) = 5.63443 6.94513 6.32383
#
# Compressibility (1/GPa) = 0.02505182
#
# Stress axis : x y z
#
# Youngs Moduli (GPa) = 28.06003 85.55188 133.17960
#
# Poissons Ratio (x) = 0.89766 0.35426
# Poissons Ratio (y) = 0.29442 0.23162
# Poissons Ratio (z) = 0.07464 0.14879
#
# Static dielectric constant tensor:
#      x y z
#    x 3.249400 0.000000 0.000000 
#    y 0.000000 3.880940 0.000000 
#    z 0.000000 0.000000 3.927300 
# 
# 
# High freq. dielectric constant tensor:
#      x y z
#    x 1.748380 0.000000 0.000000 
#    y 0.000000 1.804030 0.000000 
#    z 0.000000 0.000000 1.810460 
# 
# From -- ./inp_files/1488.got.cif
#   From: 2010.03.12/outbox.cif.g09.slc.cpg/sg51_1_cif.got.tgz:1488.got - 2010.04.16 13:43:02.
