data_PCOD8209066
_publ_section_title
;
Structure prediction by ZEFSAII (Michael W. Deem and Ramdas Pophale) SiO2 
 PCOD8209066
Probable space group: P M M A
;
_chemical_formula_sum "Si O2"
_cell_formula_units_Z 48
_cell_length_a 8.950922
_cell_length_b 20.230017
_cell_length_c 14.396012
_cell_angle_alpha 90.000000
_cell_angle_beta 90.000000
_cell_angle_gamma 90.000000
_cell_volume 2606.791045
_symmetry_space_group_name_H-M "P M M A"
_symmetry_group_IT_number 51
_symmetry_cell_setting 'orthorhombic'
loop_
_space_group_symop_operation_xyz
x,y,z
1/2-x,-y,z
1/2+x,-y,-z
-x,y,-z
-x,-y,-z
1/2+x,y,-z
1/2-x,y,z
x,-y,z
loop_
_atom_site_type_symbol
_atom_site_label
_atom_site_fract_x
_atom_site_fract_y
_atom_site_fract_z
Si Si1 0.425029 0.424621 0.905414
Si Si2 0.421808 0.681506 0.211764
Si Si3 0.576078 0.266714 0.590378
Si Si4 0.425926 0.810649 0.099219
Si Si5 0.422079 0.924884 0.790185
Si Si6 0.425462 0.126390 0.592062
O O1 0.250000 0.417263 0.917697
O O2 0.472418 0.500000 0.884433
O O3 0.479407 0.379770 0.820965
O O4 0.500000 0.398917 0.000000
O O5 0.250000 0.667500 0.186940
O O6 0.446793 0.685678 0.322018
O O7 0.475014 0.749384 0.163652
O O8 0.500000 0.300566 0.500000
O O9 0.750000 0.253128 0.571661
O O10 0.495446 0.197854 0.610817
O O11 0.250000 0.813809 0.086031
O O12 0.476825 0.878479 0.146527
O O13 0.500000 0.800975 0.000000
O O14 0.250000 0.905318 0.806853
O O15 0.461806 0.918396 0.681214
O O16 0.453687 0.000000 0.820490
O O17 0.500000 0.094151 0.500000
O O18 0.250000 0.133404 0.574907
#
# Coordination Sequence:
#
# PCOD8209066 Si02
#       6
#     8   8   8   8   8   8
#     4  10  21  36  56  84 117 151 186 222 265 319
#     4  10  21  36  57  84 113 144 181 224 268 319
#     4  10  19  33  53  81 112 141 178 221 267 320
#     4  11  23  39  57  80 107 137 179 226 273 325
#     4  10  22  39  56  76 104 140 182 225 273 328
#     4  10  19  32  53  78 106 139 175 219 271 324
#
# _framework density 18.413442
#
# number of rings (size 3 to 8) (size 9 to 14) (size 15 to 20)
#    0.000    1.833    1.667    3.500    0.000    6.667 
#    0.000    0.000    0.000    0.500    0.000    0.000 
#    0.000    0.000    0.000    0.000    0.000    0.000 
#
# Total GULP energy -595320.229476 kJ/mol
# GULP energy per Si atom -12402.504781 kJ/mol
# Density = 1.837153 g / cm^3
# Si number density = 18.413442 Si / 1000 Ang^3
#
#
#
# Elastic Constant Matrix: (Units=GPa)
#
#
# Indices 1 2 3 4 5 6 
#
# 1 93.1261 39.2279 51.8401 0.0000 0.0000 0.0000
# 2 39.2279 77.9049 44.5383 0.0000 0.0000 0.0000
# 3 51.8401 44.5383 115.0915 0.0000 0.0000 0.0000
# 4 0.0000 0.0000 0.0000 26.5171 0.0000 0.0000
# 5 0.0000 0.0000 0.0000 0.0000 35.7846 0.0000
# 6 0.0000 0.0000 0.0000 0.0000 0.0000 28.7216
#
#
#
# Elastic Compliance Matrix: (Units=1/GPa)
#
#
# Indices 1 2 3 4 5 6 
#
# 1 0.015693 -0.004958 -0.005150 0.000000 0.000000 0.000000
# 2 -0.004958 0.018049 -0.004752 0.000000 0.000000 0.000000
# 3 -0.005150 -0.004752 0.012847 0.000000 0.000000 0.000000
# 4 0.000000 0.000000 0.000000 0.037712 0.000000 0.000000
# 5 0.000000 0.000000 0.000000 0.000000 0.027945 0.000000
# 6 0.000000 0.000000 0.000000 0.000000 0.000000 0.034817
#
#
# Mechanical properties :
#
#
# Convention : Reuss Voigt Hill
#
# Bulk Modulus (GPa) = 59.27423 61.92613 60.60018
# Shear Modulus (GPa) = 27.41139 28.23906 27.82523
#
# Velocity S-wave (km/s) = 3.86250 3.92038 3.89155
# Velocity P-wave (km/s) = 7.22167 7.36183 7.29209
#
# Compressibility (1/GPa) = 0.01687074
#
# Stress axis : x y z
#
# Youngs Moduli (GPa) = 63.72080 55.40454 77.83773
#
# Poissons Ratio (x) = 0.27469 0.40087
# Poissons Ratio (y) = 0.31592 0.36985
# Poissons Ratio (z) = 0.32817 0.26326
#
# Static dielectric constant tensor:
#      x y z
#    x 3.454330 0.000000 0.000000 
#    y 0.000000 3.193360 0.000000 
#    z 0.000000 0.000000 7.407740 
# 
# 
# High freq. dielectric constant tensor:
#      x y z
#    x 1.724670 0.000000 0.000000 
#    y 0.000000 1.692730 0.000000 
#    z 0.000000 0.000000 1.722360 
# 
# From -- ./inp_files/21102.got.cif
#   From: 2010.03.12/outbox.cif.g09.slc.cpg/sg51_11_cif.got.tgz:21102.got - 2010.04.16 13:43:02.
