data_PCOD8209415
_publ_section_title
;
Structure prediction by ZEFSAII (Michael W. Deem and Ramdas Pophale) SiO2 
 PCOD8209415
Probable space group: P M M A
;
_chemical_formula_sum "Si O2"
_cell_formula_units_Z 64
_cell_length_a 8.939459
_cell_length_b 20.264610
_cell_length_c 19.715605
_cell_angle_alpha 90.000000
_cell_angle_beta 90.000000
_cell_angle_gamma 90.000000
_cell_volume 3571.573528
_symmetry_space_group_name_H-M "P M M A"
_symmetry_group_IT_number 51
_symmetry_cell_setting 'orthorhombic'
loop_
_space_group_symop_operation_xyz
x,y,z
1/2-x,-y,z
1/2+x,-y,-z
-x,y,-z
-x,-y,-z
1/2+x,y,-z
1/2-x,y,z
x,-y,z
loop_
_atom_site_type_symbol
_atom_site_label
_atom_site_fract_x
_atom_site_fract_y
_atom_site_fract_z
Si Si1 0.575836 0.630053 0.932499
Si Si2 0.426218 0.217133 0.069035
Si Si3 0.072122 0.816880 0.794851
Si Si4 0.924943 0.575380 0.791237
Si Si5 0.578567 0.074538 0.704358
Si Si6 0.577862 0.734836 0.432388
Si Si7 0.424682 0.889648 0.569049
Si Si8 0.927493 0.689376 0.288520
O O1 0.750000 0.619847 0.942566
O O2 0.532807 0.706184 0.921889
O O3 0.516446 0.590308 0.867215
O O4 0.500000 0.601036 0.000000
O O5 0.250000 0.204527 0.066890
O O6 0.498064 0.177902 0.131358
O O7 0.500000 0.189958 0.000000
O O8 0.250000 0.818495 0.801290
O O9 0.016363 0.750010 0.757958
O O10 0.019183 0.879786 0.752900
O O11 0.750000 0.591585 0.787228
O O12 0.960406 0.500000 0.772811
O O13 0.008958 0.620419 0.737286
O O14 0.750000 0.099702 0.701620
O O15 0.508205 0.074169 0.629743
O O16 0.571552 0.000000 0.732610
O O17 0.500000 0.707227 0.500000
O O18 0.750000 0.718404 0.441371
O O19 0.549431 0.811988 0.422375
O O20 0.513410 0.699166 0.365358
O O21 0.500000 0.915195 0.500000
O O22 0.250000 0.908049 0.569287
O O23 0.750000 0.687270 0.287374
#
# Coordination Sequence:
#
# PCOD8209415 Si02
#       8
#     8   8   8   8   8   8   8   8
#     4   9  18  31  48  73 105 142 179 218 261 311
#     4  10  19  33  54  82 112 143 180 225 274 323
#     4  11  21  36  58  83 110 143 182 229 276 323
#     4  10  21  36  52  75 108 144 183 224 269 321
#     4  11  24  39  55  79 111 148 188 228 273 327
#     4   9  18  33  52  80 109 136 171 219 269 319
#     4  10  19  34  54  79 111 147 185 225 270 323
#     4  10  20  35  55  80 109 138 178 224 270 321
#
# _framework density 17.919271999999999
#
# number of rings (size 3 to 8) (size 9 to 14) (size 15 to 20)
#    0.000    2.000    2.500    1.500    0.000    4.250 
#    0.000    0.000    0.000    0.750    0.000    0.000 
#    0.000    0.000    0.000    0.000    0.000    0.000 
#
# Total GULP energy -793758.665621 kJ/mol
# GULP energy per Si atom -12402.479150 kJ/mol
# Density = 1.787849 g / cm^3
# Si number density = 17.919272 Si / 1000 Ang^3
#
#
#
# Elastic Constant Matrix: (Units=GPa)
#
#
# Indices 1 2 3 4 5 6 
#
# 1 63.1981 26.0315 42.5862 0.0000 0.0000 0.0000
# 2 26.0315 63.1530 45.7183 0.0000 0.0000 0.0000
# 3 42.5862 45.7183 140.6723 0.0000 0.0000 0.0000
# 4 0.0000 0.0000 0.0000 20.1768 0.0000 0.0000
# 5 0.0000 0.0000 0.0000 0.0000 37.3462 0.0000
# 6 0.0000 0.0000 0.0000 0.0000 0.0000 22.5137
#
#
#
# Elastic Compliance Matrix: (Units=1/GPa)
#
#
# Indices 1 2 3 4 5 6 
#
# 1 0.021174 -0.005345 -0.004673 0.000000 0.000000 0.000000
# 2 -0.005345 0.022055 -0.005550 0.000000 0.000000 0.000000
# 3 -0.004673 -0.005550 0.010327 0.000000 0.000000 0.000000
# 4 0.000000 0.000000 0.000000 0.049562 0.000000 0.000000
# 5 0.000000 0.000000 0.000000 0.000000 0.026776 0.000000
# 6 0.000000 0.000000 0.000000 0.000000 0.000000 0.044417
#
#
# Mechanical properties :
#
#
# Convention : Reuss Voigt Hill
#
# Bulk Modulus (GPa) = 44.60141 55.07727 49.83934
# Shear Modulus (GPa) = 23.48288 26.18649 24.83469
#
# Velocity S-wave (km/s) = 3.62399 3.82692 3.72683
# Velocity P-wave (km/s) = 6.51577 7.09437 6.81122
#
# Compressibility (1/GPa) = 0.02242082
#
# Stress axis : x y z
#
# Youngs Moduli (GPa) = 47.22851 45.34025 96.83276
#
# Poissons Ratio (x) = 0.24234 0.45249
# Poissons Ratio (y) = 0.25243 0.53741
# Poissons Ratio (z) = 0.22069 0.25164
#
# Static dielectric constant tensor:
#      x y z
#    x 3.303830 0.000000 0.000000 
#    y 0.000000 3.060490 0.000000 
#    z 0.000000 0.000000 3.498030 
# 
# 
# High freq. dielectric constant tensor:
#      x y z
#    x 1.697180 0.000000 0.000000 
#    y 0.000000 1.665080 0.000000 
#    z 0.000000 0.000000 1.701900 
# 
# From -- ./inp_files/28344.got.cif
#   From: 2010.03.12/outbox.cif.g09.slc.cpg/sg51_15_cif.got.tgz:28344.got - 2010.04.16 13:43:02.
