data_PCOD8209098
_publ_section_title
;
Structure prediction by ZEFSAII (Michael W. Deem and Ramdas Pophale) SiO2 
 PCOD8209098
Probable space group: P M M A
;
_chemical_formula_sum "Si O2"
_cell_formula_units_Z 56
_cell_length_a 19.520707
_cell_length_b 9.117134
_cell_length_c 15.936639
_cell_angle_alpha 90.000000
_cell_angle_beta 90.000000
_cell_angle_gamma 90.000000
_cell_volume 2836.289883
_symmetry_space_group_name_H-M "P M M A"
_symmetry_group_IT_number 51
_symmetry_cell_setting 'orthorhombic'
loop_
_space_group_symop_operation_xyz
x,y,z
1/2-x,-y,z
1/2+x,-y,-z
-x,y,-z
-x,-y,-z
1/2+x,y,-z
1/2-x,y,z
x,-y,z
loop_
_atom_site_type_symbol
_atom_site_label
_atom_site_fract_x
_atom_site_fract_y
_atom_site_fract_z
Si Si1 0.829311 0.829241 0.496507
Si Si2 0.952182 0.326617 0.423095
Si Si3 0.172252 0.672700 0.022260
Si Si4 0.174855 0.825906 0.316871
Si Si5 0.044444 0.168984 0.744800
Si Si6 0.088226 0.170128 0.162234
Si Si7 0.327354 0.830919 0.850047
O O1 0.750000 0.800637 0.475059
O O2 0.875540 0.735251 0.433945
O O3 0.846736 0.772531 0.590537
O O4 0.847154 0.000000 0.485288
O O5 0.950237 0.500000 0.418187
O O6 0.979401 0.264724 0.334619
O O7 0.000000 0.272488 0.500000
O O8 0.250000 0.716295 0.049441
O O9 0.162695 0.500000 0.021397
O O10 0.115898 0.739928 0.083829
O O11 0.156687 0.731769 0.930001
O O12 0.250000 0.764074 0.294417
O O13 0.123334 0.767819 0.246794
O O14 0.176919 0.000000 0.319265
O O15 0.120402 0.212842 0.775939
O O16 0.992723 0.194847 0.823343
O O17 0.040972 0.000000 0.716267
O O18 0.106281 0.000000 0.147076
O O19 0.250000 0.804170 0.817042
O O20 0.338339 0.000000 0.876279
#
# Coordination Sequence:
#
# PCOD8209098 Si02
#       7
#     8   8   8   8   8   8   8
#     4   9  18  34  57  82 106 137 183 237 285 329
#     4  11  24  39  55  79 114 153 188 224 274 337
#     4  10  21  36  55  81 112 146 182 217 260 321
#     4   8  14  26  47  75 103 133 172 217 267 321
#     4  10  22  38  58  84 108 138 185 235 279 323
#     4  10  19  32  53  80 110 142 179 226 275 323
#     4   9  19  38  61  82 107 140 180 227 275 321
#
# _framework density 19.744105000000001
#
# number of rings (size 3 to 8) (size 9 to 14) (size 15 to 20)
#    0.000    2.429    0.000    3.000    0.000    6.286 
#    0.000    5.000    0.000    0.857    0.000    0.000 
#    0.000    0.000    0.000    0.000    0.000    0.000 
#
# Total GULP energy -694358.306301 kJ/mol
# GULP energy per Si atom -12399.255470 kJ/mol
# Density = 1.969917 g / cm^3
# Si number density = 19.744105 Si / 1000 Ang^3
#
#
#
# Elastic Constant Matrix: (Units=GPa)
#
#
# Indices 1 2 3 4 5 6 
#
# 1 99.5125 41.7189 49.7544 0.0000 0.0000 0.0000
# 2 41.7189 69.0275 45.8009 0.0000 0.0000 0.0000
# 3 49.7544 45.8009 90.6870 0.0000 0.0000 0.0000
# 4 0.0000 0.0000 0.0000 23.0665 0.0000 0.0000
# 5 0.0000 0.0000 0.0000 0.0000 33.7093 0.0000
# 6 0.0000 0.0000 0.0000 0.0000 0.0000 20.1113
#
#
#
# Elastic Compliance Matrix: (Units=1/GPa)
#
#
# Indices 1 2 3 4 5 6 
#
# 1 0.015102 -0.005459 -0.005528 0.000000 0.000000 0.000000
# 2 -0.005459 0.023762 -0.009006 0.000000 0.000000 0.000000
# 3 -0.005528 -0.009006 0.018608 0.000000 0.000000 0.000000
# 4 0.000000 0.000000 0.000000 0.043353 0.000000 0.000000
# 5 0.000000 0.000000 0.000000 0.000000 0.029665 0.000000
# 6 0.000000 0.000000 0.000000 0.000000 0.000000 0.049723
#
#
# Mechanical properties :
#
#
# Convention : Reuss Voigt Hill
#
# Bulk Modulus (GPa) = 57.18992 59.30840 58.24916
# Shear Modulus (GPa) = 22.12119 23.50762 22.81441
#
# Velocity S-wave (km/s) = 3.35086 3.45427 3.40296
# Velocity P-wave (km/s) = 6.63321 6.78329 6.70867
#
# Compressibility (1/GPa) = 0.01748560
#
# Stress axis : x y z
#
# Youngs Moduli (GPa) = 66.21797 42.08449 53.73963
#
# Poissons Ratio (x) = 0.22974 0.29709
# Poissons Ratio (y) = 0.36148 0.48396
# Poissons Ratio (z) = 0.36607 0.37900
#
# Static dielectric constant tensor:
#      x y z
#    x 3.756200 0.000000 0.000000 
#    y 0.000000 3.290500 0.000000 
#    z 0.000000 0.000000 3.520290 
# 
# 
# High freq. dielectric constant tensor:
#      x y z
#    x 1.778700 0.000000 0.000000 
#    y 0.000000 1.741360 0.000000 
#    z 0.000000 0.000000 1.763990 
# 
# From -- ./inp_files/25640.got.cif
#   From: 2010.03.12/outbox.cif.g09.slc.cpg/sg51_13_cif.got.tgz:25640.got - 2010.04.16 13:43:02.
