data_PCOD8209681
_publ_section_title
;
Structure prediction by ZEFSAII (Michael W. Deem and Ramdas Pophale) SiO2 
 PCOD8209681
Probable space group: P M M A
;
_chemical_formula_sum "Si O2"
_cell_formula_units_Z 40
_cell_length_a 9.004504
_cell_length_b 25.484130
_cell_length_c 9.477964
_cell_angle_alpha 90.000000
_cell_angle_beta 90.000000
_cell_angle_gamma 90.000000
_cell_volume 2174.926886
_symmetry_space_group_name_H-M "P M M A"
_symmetry_group_IT_number 51
_symmetry_cell_setting 'orthorhombic'
loop_
_space_group_symop_operation_xyz
x,y,z
1/2-x,-y,z
1/2+x,-y,-z
-x,y,-z
-x,-y,-z
1/2+x,y,-z
1/2-x,y,z
x,-y,z
loop_
_atom_site_type_symbol
_atom_site_label
_atom_site_fract_x
_atom_site_fract_y
_atom_site_fract_z
Si Si1 0.418541 0.500000 0.144214
Si Si2 0.075360 0.090153 0.856334
Si Si3 0.425765 0.300387 0.651391
Si Si4 0.922877 0.791465 0.142425
Si Si5 0.924911 0.000000 0.350531
Si Si6 0.574438 0.385920 0.846350
O O1 0.250000 0.500000 0.098521
O O2 0.453893 0.444549 0.221304
O O3 0.500000 0.500000 0.000000
O O4 0.250000 0.085794 0.878910
O O5 0.025651 0.149522 0.818418
O O6 0.021861 0.051999 0.731904
O O7 0.000000 0.071098 0.000000
O O8 0.500000 0.298255 0.500000
O O9 0.250000 0.308775 0.637113
O O10 0.465948 0.245900 0.728355
O O11 0.495270 0.347570 0.738783
O O12 0.750000 0.789468 0.110412
O O13 0.000000 0.771078 0.000000
O O14 0.000000 0.000000 0.500000
O O15 0.750000 0.000000 0.371632
O O16 0.750000 0.373354 0.858538
O O17 0.500000 0.380181 0.000000
#
# Coordination Sequence:
#
# PCOD8209681 Si02
#       6
#     4   8   8   8   4   8
#     4   8  16  30  51  78 105 132 166 208 254 300
#     4   9  18  34  54  77 102 131 168 212 255 301
#     4  11  23  37  52  74 104 139 175 214 259 309
#     4   9  19  35  55  77 102 131 168 211 257 305
#     4  10  21  34  50  74 106 138 171 208 250 300
#     4  10  19  34  56  81 107 136 171 212 255 304
#
# _framework density 18.391421999999999
#
# number of rings (size 3 to 8) (size 9 to 14) (size 15 to 20)
#    0.000    2.400    0.000    2.100    0.000    5.600 
#    0.000    0.500    0.000    0.000    0.000    0.000 
#    0.000    0.000    0.000    0.000    0.000    0.000 
#
# Total GULP energy -495810.981047 kJ/mol
# GULP energy per Si atom -12395.274526 kJ/mol
# Density = 1.834956 g / cm^3
# Si number density = 18.391422 Si / 1000 Ang^3
#
#
#
# Elastic Constant Matrix: (Units=GPa)
#
#
# Indices 1 2 3 4 5 6 
#
# 1 68.6479 60.6962 61.6061 0.0000 0.0000 0.0000
# 2 60.6962 144.4220 96.7434 0.0000 0.0000 0.0000
# 3 61.6061 96.7434 156.0087 0.0000 0.0000 0.0000
# 4 0.0000 0.0000 0.0000 29.3927 0.0000 0.0000
# 5 0.0000 0.0000 0.0000 0.0000 35.3119 0.0000
# 6 0.0000 0.0000 0.0000 0.0000 0.0000 25.3175
#
#
#
# Elastic Compliance Matrix: (Units=1/GPa)
#
#
# Indices 1 2 3 4 5 6 
#
# 1 0.026091 -0.006951 -0.005993 0.000000 0.000000 0.000000
# 2 -0.006951 0.013696 -0.005748 0.000000 0.000000 0.000000
# 3 -0.005993 -0.005748 0.012341 0.000000 0.000000 0.000000
# 4 0.000000 0.000000 0.000000 0.034022 0.000000 0.000000
# 5 0.000000 0.000000 0.000000 0.000000 0.028319 0.000000
# 6 0.000000 0.000000 0.000000 0.000000 0.000000 0.039498
#
#
# Mechanical properties :
#
#
# Convention : Reuss Voigt Hill
#
# Bulk Modulus (GPa) = 67.82369 89.68556 78.75462
# Shear Modulus (GPa) = 25.47573 28.00661 26.74117
#
# Velocity S-wave (km/s) = 3.72586 3.90655 3.81727
# Velocity P-wave (km/s) = 7.44764 8.31979 7.89577
#
# Compressibility (1/GPa) = 0.01474411
#
# Stress axis : x y z
#
# Youngs Moduli (GPa) = 38.32777 73.01413 81.03163
#
# Poissons Ratio (x) = 0.50752 0.48559
# Poissons Ratio (y) = 0.26641 0.46579
# Poissons Ratio (z) = 0.22968 0.41970
#
# Static dielectric constant tensor:
#      x y z
#    x 3.438070 0.000000 0.000000 
#    y 0.000000 3.703080 0.000000 
#    z 0.000000 0.000000 3.291000 
# 
# 
# High freq. dielectric constant tensor:
#      x y z
#    x 1.717840 0.000000 0.000000 
#    y 0.000000 1.735630 0.000000 
#    z 0.000000 0.000000 1.691810 
# 
# From -- ./inp_files/5521.got.cif
#   From: 2010.03.12/outbox.cif.g09.slc.cpg/sg51_3_cif.got.tgz:5521.got - 2010.04.16 13:43:02.
