data_PCOD8209839
_publ_section_title
;
Structure prediction by ZEFSAII (Michael W. Deem and Ramdas Pophale) SiO2 
 PCOD8209839
Probable space group: P M M A
;
_chemical_formula_sum "Si O2"
_cell_formula_units_Z 56
_cell_length_a 14.830438
_cell_length_b 9.141992
_cell_length_c 21.695434
_cell_angle_alpha 90.000000
_cell_angle_beta 90.000000
_cell_angle_gamma 90.000000
_cell_volume 2941.461421
_symmetry_space_group_name_H-M "P M M A"
_symmetry_group_IT_number 51
_symmetry_cell_setting 'orthorhombic'
loop_
_space_group_symop_operation_xyz
x,y,z
1/2-x,-y,z
1/2+x,-y,-z
-x,y,-z
-x,-y,-z
1/2+x,y,-z
1/2-x,y,z
x,-y,z
loop_
_atom_site_type_symbol
_atom_site_label
_atom_site_fract_x
_atom_site_fract_y
_atom_site_fract_z
Si Si1 0.649643 0.335615 0.875262
Si Si2 0.599787 0.669056 0.010360
Si Si3 0.946566 0.169247 0.437880
Si Si4 0.650161 0.833378 0.130566
Si Si5 0.983201 0.172007 0.791236
Si Si6 0.250000 0.831079 0.517092
Si Si7 0.058952 0.326395 0.335598
Si Si8 0.250000 0.327625 0.388403
O O1 0.750000 0.325412 0.847836
O O2 0.610426 0.500000 0.864147
O O3 0.590301 0.214040 0.842192
O O4 0.655317 0.303250 0.948055
O O5 0.595449 0.500000 0.028515
O O6 0.647158 0.747597 0.066818
O O7 0.500000 0.732700 0.000000
O O8 0.840056 0.205306 0.443991
O O9 0.000000 0.208570 0.500000
O O10 0.986370 0.269013 0.384361
O O11 0.961404 0.000000 0.420493
O O12 0.750000 0.815641 0.159045
O O13 0.580117 0.778177 0.182114
O O14 0.627200 0.000000 0.114305
O O15 0.965524 0.261572 0.730002
O O16 0.978089 0.000000 0.777181
O O17 0.250000 0.737222 0.456006
O O18 0.250000 0.000000 0.496990
O O19 0.052484 0.500000 0.332870
O O20 0.160410 0.274839 0.352578
O O21 0.250000 0.500000 0.395883
#
# Coordination Sequence:
#
# PCOD8209839 Si02
#       8
#     8   8   8   8   8   4   8   4
#     4  10  21  37  57  83 117 152 187 232 290 351
#     4  10  19  34  59  87 115 148 188 237 291 347
#     4  10  20  37  62  91 122 154 193 238 285 337
#     4  10  22  40  61  84 112 150 195 245 298 349
#     4  11  24  41  60  83 114 152 198 244 289 345
#     4  10  20  36  62  94 124 156 191 236 289 340
#     4  11  24  41  61  86 120 159 197 239 291 345
#     4  10  22  38  60  90 120 154 191 232 287 346
#
# _framework density 19.038155
#
# number of rings (size 3 to 8) (size 9 to 14) (size 15 to 20)
#    0.000    1.714    2.857    1.286    1.000    4.000 
#    1.286    0.000    0.000    0.000    0.000    0.000 
#    0.000    0.000    0.000    0.000    0.000    0.000 
#
# Total GULP energy -694488.601483 kJ/mol
# GULP energy per Si atom -12401.582169 kJ/mol
# Density = 1.899482 g / cm^3
# Si number density = 19.038155 Si / 1000 Ang^3
#
#
#
# Elastic Constant Matrix: (Units=GPa)
#
#
# Indices 1 2 3 4 5 6 
#
# 1 143.1068 35.6350 56.5636 0.0000 0.0000 0.0000
# 2 35.6350 45.9945 38.9749 0.0000 0.0000 0.0000
# 3 56.5636 38.9749 101.4758 0.0000 0.0000 0.0000
# 4 0.0000 0.0000 0.0000 10.6159 0.0000 0.0000
# 5 0.0000 0.0000 0.0000 0.0000 8.7673 0.0000
# 6 0.0000 0.0000 0.0000 0.0000 0.0000 14.8275
#
#
#
# Elastic Compliance Matrix: (Units=1/GPa)
#
#
# Indices 1 2 3 4 5 6 
#
# 1 0.009493 -0.004256 -0.003657 0.000000 0.000000 0.000000
# 2 -0.004256 0.034140 -0.010740 0.000000 0.000000 0.000000
# 3 -0.003657 -0.010740 0.016018 0.000000 0.000000 0.000000
# 4 0.000000 0.000000 0.000000 0.094199 0.000000 0.000000
# 5 0.000000 0.000000 0.000000 0.000000 0.114060 0.000000
# 6 0.000000 0.000000 0.000000 0.000000 0.000000 0.067442
#
#
# Mechanical properties :
#
#
# Convention : Reuss Voigt Hill
#
# Bulk Modulus (GPa) = 44.75271 61.43601 53.09436
# Shear Modulus (GPa) = 13.15419 17.46903 15.31161
#
# Velocity S-wave (km/s) = 2.63142 3.03244 2.83902
# Velocity P-wave (km/s) = 5.72629 6.67839 6.22058
#
# Compressibility (1/GPa) = 0.02234502
#
# Stress axis : x y z
#
# Youngs Moduli (GPa) = 105.34110 29.29081 62.42975
#
# Poissons Ratio (x) = 0.12467 0.22829
# Poissons Ratio (y) = 0.44835 0.67051
# Poissons Ratio (z) = 0.38521 0.31459
#
# Static dielectric constant tensor:
#      x y z
#    x 3.885950 0.000000 0.000000 
#    y 0.000000 3.433790 0.000000 
#    z 0.000000 0.000000 3.399990 
# 
# 
# High freq. dielectric constant tensor:
#      x y z
#    x 1.756410 0.000000 0.000000 
#    y 0.000000 1.735440 0.000000 
#    z 0.000000 0.000000 1.731780 
# 
# From -- ./inp_files/33590.got.cif
#   From: 2010.03.12/outbox.cif.g09.slc.cpg/sg51_17_cif.got.tgz:33590.got - 2010.04.16 13:43:02.
