data_PCOD8209877
_publ_section_title
;
Structure prediction by ZEFSAII (Michael W. Deem and Ramdas Pophale) SiO2 
 PCOD8209877
Probable space group: P M M A
;
_chemical_formula_sum "Si O2"
_cell_formula_units_Z 40
_cell_length_a 17.665211
_cell_length_b 13.259912
_cell_length_c 10.281408
_cell_angle_alpha 90.000000
_cell_angle_beta 90.000000
_cell_angle_gamma 90.000000
_cell_volume 2408.308202
_symmetry_space_group_name_H-M "P M M A"
_symmetry_group_IT_number 51
_symmetry_cell_setting 'orthorhombic'
loop_
_space_group_symop_operation_xyz
x,y,z
1/2-x,-y,z
1/2+x,-y,-z
-x,y,-z
-x,-y,-z
1/2+x,y,-z
1/2-x,y,z
x,-y,z
loop_
_atom_site_type_symbol
_atom_site_label
_atom_site_fract_x
_atom_site_fract_y
_atom_site_fract_z
Si Si1 0.585555 0.116242 0.241625
Si Si2 0.837770 0.883259 0.974466
Si Si3 0.574287 0.612825 0.586931
Si Si4 0.661525 0.217661 0.483404
Si Si5 0.079070 0.196823 0.266322
O O1 0.627822 0.182217 0.347879
O O2 0.495967 0.132131 0.245311
O O3 0.604912 0.000000 0.267791
O O4 0.615889 0.149920 0.101323
O O5 0.750000 0.861628 0.000253
O O6 0.865720 0.814912 0.855720
O O7 0.852585 0.000000 0.940346
O O8 0.500000 0.611346 0.500000
O O9 0.597148 0.500000 0.630461
O O10 0.642340 0.663090 0.502117
O O11 0.559948 0.683566 0.714169
O O12 0.750000 0.197351 0.486385
O O13 0.621502 0.156949 0.602712
#
# Coordination Sequence:
#
# PCOD8209877 Si02
#       5
#     8   8   8   8   8
#     4  11  21  35  52  75 109 149 180 209 259 319
#     4  10  21  35  52  76 108 144 176 212 262 316
#     4   9  18  36  58  80 105 133 172 221 272 318
#     4  10  20  34  52  81 108 136 175 221 267 310
#     4  10  19  35  54  80 100 137 180 224 257 308
#
# _framework density 16.609169999999999
#
# number of rings (size 3 to 8) (size 9 to 14) (size 15 to 20)
#    1.200    0.800    2.000    3.000    0.000    5.600 
#    0.000    0.000    0.000    3.600    0.000    0.000 
#    0.000    0.000    0.000    0.000    0.000    0.000 
#
# Total GULP energy -495787.535334 kJ/mol
# GULP energy per Si atom -12394.688383 kJ/mol
# Density = 1.657137 g / cm^3
# Si number density = 16.609170 Si / 1000 Ang^3
#
#
#
# Elastic Constant Matrix: (Units=GPa)
#
#
# Indices 1 2 3 4 5 6 
#
# 1 88.1316 7.5075 26.4448 0.0000 0.0000 0.0000
# 2 7.5075 68.3209 37.8694 0.0000 0.0000 0.0000
# 3 26.4448 37.8694 100.6187 0.0000 0.0000 0.0000
# 4 0.0000 0.0000 0.0000 9.2985 0.0000 0.0000
# 5 0.0000 0.0000 0.0000 0.0000 29.8079 0.0000
# 6 0.0000 0.0000 0.0000 0.0000 0.0000 16.1634
#
#
#
# Elastic Compliance Matrix: (Units=1/GPa)
#
#
# Indices 1 2 3 4 5 6 
#
# 1 0.012335 0.000558 -0.003452 0.000000 0.000000 0.000000
# 2 0.000558 0.018520 -0.007117 0.000000 0.000000 0.000000
# 3 -0.003452 -0.007117 0.013524 0.000000 0.000000 0.000000
# 4 0.000000 0.000000 0.000000 0.107544 0.000000 0.000000
# 5 0.000000 0.000000 0.000000 0.000000 0.033548 0.000000
# 6 0.000000 0.000000 0.000000 0.000000 0.000000 0.061868
#
#
# Mechanical properties :
#
#
# Convention : Reuss Voigt Hill
#
# Bulk Modulus (GPa) = 41.05494 44.52384 42.78939
# Shear Modulus (GPa) = 18.15007 23.40395 20.77701
#
# Velocity S-wave (km/s) = 3.30930 3.75787 3.54069
# Velocity P-wave (km/s) = 6.27486 6.75971 6.52179
#
# Compressibility (1/GPa) = 0.02435760
#
# Stress axis : x y z
#
# Youngs Moduli (GPa) = 81.07077 53.99452 73.94076
#
# Poissons Ratio (x) = -0.03012 0.25523
# Poissons Ratio (y) = -0.04523 0.52624
# Poissons Ratio (z) = 0.27984 0.38428
#
# Static dielectric constant tensor:
#      x y z
#    x 3.240610 0.000000 0.000000 
#    y 0.000000 3.065580 0.000000 
#    z 0.000000 0.000000 3.082470 
# 
# 
# High freq. dielectric constant tensor:
#      x y z
#    x 1.650530 0.000000 0.000000 
#    y 0.000000 1.615790 0.000000 
#    z 0.000000 0.000000 1.637460 
# 
# From -- ./inp_files/9432.got.cif
#   From: 2010.03.12/outbox.cif.g09.slc.cpg/sg51_5_cif.got.tgz:9432.got - 2010.04.16 13:43:02.
