data_PCOD8209360
_publ_section_title
;
Structure prediction by ZEFSAII (Michael W. Deem and Ramdas Pophale) SiO2 
 PCOD8209360
Probable space group: P M M A
;
_chemical_formula_sum "Si O2"
_cell_formula_units_Z 40
_cell_length_a 26.064583
_cell_length_b 9.161495
_cell_length_c 9.087403
_cell_angle_alpha 90.000000
_cell_angle_beta 90.000000
_cell_angle_gamma 90.000000
_cell_volume 2169.985932
_symmetry_space_group_name_H-M "P M M A"
_symmetry_group_IT_number 51
_symmetry_cell_setting 'orthorhombic'
loop_
_space_group_symop_operation_xyz
x,y,z
1/2-x,-y,z
1/2+x,-y,-z
-x,y,-z
-x,-y,-z
1/2+x,y,-z
1/2-x,y,z
x,-y,z
loop_
_atom_site_type_symbol
_atom_site_label
_atom_site_fract_x
_atom_site_fract_y
_atom_site_fract_z
Si Si1 0.657453 0.171621 0.662805
Si Si2 0.250000 0.827527 0.866527
Si Si3 0.750000 0.674625 0.824188
Si Si4 0.554162 0.663205 0.321049
Si Si5 0.151984 0.168868 0.678231
Si Si6 0.058180 0.334710 0.329468
O O1 0.700159 0.263328 0.745060
O O2 0.662744 0.210017 0.490877
O O3 0.602256 0.224266 0.725548
O O4 0.664340 0.000000 0.694139
O O5 0.299480 0.781567 0.772658
O O6 0.250000 0.000000 0.904132
O O7 0.250000 0.729615 0.009859
O O8 0.750000 0.500000 0.818248
O O9 0.562118 0.500000 0.262511
O O10 0.600636 0.757799 0.255843
O O11 0.497619 0.718608 0.269147
O O12 0.556477 0.667951 0.495738
O O13 0.141610 0.000000 0.693369
O O14 0.069771 0.500000 0.275432
#
# Coordination Sequence:
#
# PCOD8209360 Si02
#       6
#     8   4   4   8   8   8
#     4  10  19  33  54  79 104 132 166 206 249 296
#     4  10  21  38  54  70  98 134 167 208 256 300
#     4  12  25  38  52  72  98 132 171 210 252 302
#     4   8  14  25  44  71 105 137 164 198 243 290
#     4   9  18  32  53  78 103 131 167 207 249 297
#     4   8  14  26  44  71 105 137 165 198 241 290
#
# _framework density 18.433299999999999
#
# number of rings (size 3 to 8) (size 9 to 14) (size 15 to 20)
#    0.000    2.800    0.000    3.300    0.000    4.000 
#    0.000    5.000    0.000    1.200    0.000    8.400 
#    0.000    0.000    0.000    0.000    0.000    0.000 
#
# Total GULP energy -495768.281841 kJ/mol
# GULP energy per Si atom -12394.207046 kJ/mol
# Density = 1.839134 g / cm^3
# Si number density = 18.433300 Si / 1000 Ang^3
#
#
#
# Elastic Constant Matrix: (Units=GPa)
#
#
# Indices 1 2 3 4 5 6 
#
# 1 202.0507 89.5439 59.2198 0.0000 0.0000 0.0000
# 2 89.5439 99.8568 46.9616 0.0000 0.0000 0.0000
# 3 59.2198 46.9616 52.2495 0.0000 0.0000 0.0000
# 4 0.0000 0.0000 0.0000 19.0032 0.0000 0.0000
# 5 0.0000 0.0000 0.0000 0.0000 -6.5530 0.0000
# 6 0.0000 0.0000 0.0000 0.0000 0.0000 40.3805
#
#
#
# Elastic Compliance Matrix: (Units=1/GPa)
#
#
# Indices 1 2 3 4 5 6 
#
# 1 0.008924 -0.005622 -0.005062 0.000000 0.000000 0.000000
# 2 -0.005622 0.020889 -0.012402 0.000000 0.000000 0.000000
# 3 -0.005062 -0.012402 0.036023 0.000000 0.000000 0.000000
# 4 0.000000 0.000000 0.000000 0.052623 0.000000 0.000000
# 5 0.000000 0.000000 0.000000 0.000000 -0.152601 0.000000
# 6 0.000000 0.000000 0.000000 0.000000 0.000000 0.024764
#
#
# Mechanical properties :
#
#
# Convention : Reuss Voigt Hill
#
# Bulk Modulus (GPa) = 50.85555 82.84528 66.85042
# Shear Modulus (GPa) = 115.34235 21.12825 68.23530
#
# Velocity S-wave (km/s) = 7.91888 3.38923 6.09079
# Velocity P-wave (km/s) = 10.54800 7.76896 9.26329
#
# Compressibility (1/GPa) = 0.01966354
#
# Stress axis : x y z
#
# Youngs Moduli (GPa) = 112.05123 47.87289 27.76001
#
# Poissons Ratio (x) = 0.26916 0.14051
# Poissons Ratio (y) = 0.62999 0.34429
# Poissons Ratio (z) = 0.56717 0.59373
#
# Static dielectric constant tensor:
#      x y z
#    x 4.066690 0.000000 0.000000 
#    y 0.000000 3.423320 0.000000 
#    z 0.000000 0.000000 3.120740 
# 
# 
# High freq. dielectric constant tensor:
#      x y z
#    x 1.739290 0.000000 0.000000 
#    y 0.000000 1.710390 0.000000 
#    z 0.000000 0.000000 1.664130 
# 
# From -- ./inp_files/12217.got.cif
#   From: 2010.03.12/outbox.cif.g09.slc.cpg/sg51_7_cif.got.tgz:12217.got - 2010.04.16 13:43:02.
