data_PCOD8209784
_publ_section_title
;
Structure prediction by ZEFSAII (Michael W. Deem and Ramdas Pophale) SiO2 
 PCOD8209784
Probable space group: P M M A
;
_chemical_formula_sum "Si O2"
_cell_formula_units_Z 64
_cell_length_a 8.984626
_cell_length_b 25.326846
_cell_length_c 14.425950
_cell_angle_alpha 90.000000
_cell_angle_beta 90.000000
_cell_angle_gamma 90.000000
_cell_volume 3282.657223
_symmetry_space_group_name_H-M "P M M A"
_symmetry_group_IT_number 51
_symmetry_cell_setting 'orthorhombic'
loop_
_space_group_symop_operation_xyz
x,y,z
1/2-x,-y,z
1/2+x,-y,-z
-x,y,-z
-x,-y,-z
1/2+x,y,-z
1/2-x,y,z
x,-y,z
loop_
_atom_site_type_symbol
_atom_site_label
_atom_site_fract_x
_atom_site_fract_y
_atom_site_fract_z
Si Si1 0.422168 0.652405 0.596075
Si Si2 0.074946 0.246778 0.719484
Si Si3 0.083577 0.562791 0.089472
Si Si4 0.426630 0.941372 0.283659
Si Si5 0.078639 0.103274 0.092272
Si Si6 0.072721 0.843131 0.400899
Si Si7 0.423553 0.227483 0.094161
Si Si8 0.925307 0.440099 0.275665
O O1 0.500000 0.663925 0.500000
O O2 0.250000 0.648393 0.573840
O O3 0.457974 0.699531 0.665620
O O4 0.478811 0.597367 0.640683
O O5 0.250000 0.233477 0.723531
O O6 0.986698 0.199811 0.670471
O O7 0.009130 0.255477 0.821694
O O8 0.250000 0.585776 0.091014
O O9 0.085229 0.500000 0.083438
O O10 0.000395 0.580992 0.182050
O O11 0.000000 0.586571 0.000000
O O12 0.250000 0.939652 0.276577
O O13 0.490962 0.924918 0.182970
O O14 0.477791 0.900631 0.363209
O O15 0.484379 0.000000 0.309845
O O16 0.250000 0.088843 0.081243
O O17 0.053182 0.165197 0.104961
O O18 0.000000 0.081628 0.000000
O O19 0.250000 0.837813 0.408732
O O20 0.000000 0.833354 0.500000
O O21 0.250000 0.242936 0.094505
O O22 0.500000 0.247886 0.000000
O O23 0.750000 0.435924 0.259567
O O24 0.974022 0.500000 0.299549
#
# Coordination Sequence:
#
# PCOD8209784 Si02
#       8
#     8   8   8   8   8   8   8   8
#     4  10  23  40  58  83 112 143 183 229 280 331
#     4  11  22  38  60  85 113 146 183 229 277 328
#     4   9  16  27  47  77 110 144 183 224 266 316
#     4   9  18  34  54  76 108 147 183 224 276 331
#     4   9  17  31  51  78 108 142 179 217 263 319
#     4  11  22  38  58  82 107 140 186 233 284 338
#     4  10  19  34  57  87 117 149 185 226 273 328
#     4   9  18  35  57  80 110 147 184 225 273 327
#
# _framework density 19.496402
#
# number of rings (size 3 to 8) (size 9 to 14) (size 15 to 20)
#    0.000    2.250    1.250    1.875    0.000    5.250 
#    0.000    0.625    0.000    2.625    0.000    0.000 
#    0.000    0.000    0.000    0.000    0.000    0.000 
#
# Total GULP energy -793639.814308 kJ/mol
# GULP energy per Si atom -12400.622099 kJ/mol
# Density = 1.945203 g / cm^3
# Si number density = 19.496402 Si / 1000 Ang^3
#
#
#
# Elastic Constant Matrix: (Units=GPa)
#
#
# Indices 1 2 3 4 5 6 
#
# 1 80.0945 38.9977 57.8722 0.0000 0.0000 0.0000
# 2 38.9977 79.0713 48.3013 0.0000 0.0000 0.0000
# 3 57.8722 48.3013 151.1083 0.0000 0.0000 0.0000
# 4 0.0000 0.0000 0.0000 -29.8350 0.0000 0.0000
# 5 0.0000 0.0000 0.0000 0.0000 36.8789 0.0000
# 6 0.0000 0.0000 0.0000 0.0000 0.0000 18.3472
#
#
#
# Elastic Compliance Matrix: (Units=1/GPa)
#
#
# Indices 1 2 3 4 5 6 
#
# 1 0.019483 -0.006276 -0.005455 0.000000 0.000000 0.000000
# 2 -0.006276 0.017737 -0.003266 0.000000 0.000000 0.000000
# 3 -0.005455 -0.003266 0.009751 0.000000 0.000000 0.000000
# 4 0.000000 0.000000 0.000000 -0.033518 0.000000 0.000000
# 5 0.000000 0.000000 0.000000 0.000000 0.027116 0.000000
# 6 0.000000 0.000000 0.000000 0.000000 0.000000 0.054504
#
#
# Mechanical properties :
#
#
# Convention : Reuss Voigt Hill
#
# Bulk Modulus (GPa) = 58.90733 66.73517 62.82125
# Shear Modulus (GPa) = 38.24729 16.08507 27.16618
#
# Velocity S-wave (km/s) = 4.43398 2.87545 3.73687
# Velocity P-wave (km/s) = 7.51623 6.73261 7.13518
#
# Compressibility (1/GPa) = 0.01697582
#
# Stress axis : x y z
#
# Youngs Moduli (GPa) = 51.32653 56.37825 102.55287
#
# Poissons Ratio (x) = 0.35386 0.55947
# Poissons Ratio (y) = 0.32215 0.33493
# Poissons Ratio (z) = 0.28001 0.18413
#
# Static dielectric constant tensor:
#      x y z
#    x 3.492430 0.000000 0.000000 
#    y 0.000000 3.526700 0.000000 
#    z 0.000000 0.000000 3.690350 
# 
# 
# High freq. dielectric constant tensor:
#      x y z
#    x 1.749170 0.000000 0.000000 
#    y 0.000000 1.744520 0.000000 
#    z 0.000000 0.000000 1.770440 
# 
# From -- ./inp_files/22311.got.cif
#   From: 2010.03.12/outbox.cif.g09.slc.cpg/sg51_12_cif.got.tgz:22311.got - 2010.04.16 13:43:02.
