data_PCOD8209776
_publ_section_title
;
Structure prediction by ZEFSAII (Michael W. Deem and Ramdas Pophale) SiO2 
 PCOD8209776
Probable space group: P M M A
;
_chemical_formula_sum "Si O2"
_cell_formula_units_Z 34
_cell_length_a 22.324117
_cell_length_b 7.708444
_cell_length_c 10.671713
_cell_angle_alpha 90.000000
_cell_angle_beta 90.000000
_cell_angle_gamma 90.000000
_cell_volume 1836.433256
_symmetry_space_group_name_H-M "P M M A"
_symmetry_group_IT_number 51
_symmetry_cell_setting 'orthorhombic'
loop_
_space_group_symop_operation_xyz
x,y,z
1/2-x,-y,z
1/2+x,-y,-z
-x,y,-z
-x,-y,-z
1/2+x,y,-z
1/2-x,y,z
x,-y,z
loop_
_atom_site_type_symbol
_atom_site_label
_atom_site_fract_x
_atom_site_fract_y
_atom_site_fract_z
Si Si1 0.131566 0.797021 0.409881
Si Si2 0.615924 0.197307 0.306873
Si Si3 0.993334 0.300500 0.640667
Si Si4 0.250000 0.793360 0.265540
Si Si5 0.250000 0.500000 0.063837
Si Si6 0.183693 0.500000 0.823887
O O1 0.128070 0.727311 0.552702
O O2 0.076039 0.732121 0.322533
O O3 0.192665 0.735416 0.346269
O O4 0.128498 0.000000 0.416813
O O5 0.543981 0.200681 0.278343
O O6 0.649509 0.323860 0.211932
O O7 0.639517 0.000000 0.289161
O O8 0.010017 0.500000 0.652170
O O9 0.000000 0.229037 0.500000
O O10 0.250000 0.678760 0.141074
O O11 0.250000 0.000000 0.233759
O O12 0.190837 0.500000 0.975198
O O13 0.250000 0.500000 0.760393
#
# Coordination Sequence:
#
# PCOD8209776 Si02
#       6
#     8   8   8   4   2   4
#     4   9  19  32  53  87 116 144 179 212 267 335
#     4  10  19  34  57  84 118 146 169 216 274 325
#     4   9  16  28  49  82 119 150 173 203 259 331
#     4  10  22  39  57  79 107 140 187 232 268 320
#     4  10  26  42  56  72 102 146 192 230 282 310
#     4  10  24  39  52  80 107 135 194 226 259 336
#
# _framework density 18.514150999999998
#
# number of rings (size 3 to 8) (size 9 to 14) (size 15 to 20)
#    0.353    2.118    1.176    0.706    4.941    4.235 
#    0.000    0.000    0.000    2.824    0.000    4.941 
#    0.000    0.000    0.000    0.000    0.000    0.000 
#
# Total GULP energy -421319.200512 kJ/mol
# GULP energy per Si atom -12391.741192 kJ/mol
# Density = 1.847201 g / cm^3
# Si number density = 18.514151 Si / 1000 Ang^3
#
#
#
# Elastic Constant Matrix: (Units=GPa)
#
#
# Indices 1 2 3 4 5 6 
#
# 1 150.8907 44.2802 45.0615 0.0000 0.0000 0.0000
# 2 44.2802 71.5774 37.2056 0.0000 0.0000 0.0000
# 3 45.0615 37.2056 72.1836 0.0000 0.0000 0.0000
# 4 0.0000 0.0000 0.0000 26.4554 0.0000 0.0000
# 5 0.0000 0.0000 0.0000 0.0000 0.8881 0.0000
# 6 0.0000 0.0000 0.0000 0.0000 0.0000 30.9319
#
#
#
# Elastic Compliance Matrix: (Units=1/GPa)
#
#
# Indices 1 2 3 4 5 6 
#
# 1 0.008749 -0.003515 -0.003650 0.000000 0.000000 0.000000
# 2 -0.003515 0.020496 -0.008370 0.000000 0.000000 0.000000
# 3 -0.003650 -0.008370 0.020446 0.000000 0.000000 0.000000
# 4 0.000000 0.000000 0.000000 0.037799 0.000000 0.000000
# 5 0.000000 0.000000 0.000000 0.000000 1.126030 0.000000
# 6 0.000000 0.000000 0.000000 0.000000 0.000000 0.032329
#
#
# Mechanical properties :
#
#
# Convention : Reuss Voigt Hill
#
# Bulk Modulus (GPa) = 53.70184 60.86070 57.28127
# Shear Modulus (GPa) = 3.89673 22.86203 13.37938
#
# Velocity S-wave (km/s) = 1.45234 3.51784 2.69114
# Velocity P-wave (km/s) = 5.64634 7.03166 6.37673
#
# Compressibility (1/GPa) = 0.01862134
#
# Stress axis : x y z
#
# Youngs Moduli (GPa) = 114.30103 48.78957 48.90916
#
# Poissons Ratio (x) = 0.17151 0.17850
# Poissons Ratio (y) = 0.40179 0.40937
# Poissons Ratio (z) = 0.41717 0.40837
#
# Static dielectric constant tensor:
#      x y z
#    x 3.842510 0.000000 0.000000 
#    y 0.000000 3.290030 0.000000 
#    z 0.000000 0.000000 3.001840 
# 
# 
# High freq. dielectric constant tensor:
#      x y z
#    x 1.734780 0.000000 0.000000 
#    y 0.000000 1.728760 0.000000 
#    z 0.000000 0.000000 1.651350 
# 
# From -- ./inp_files/10433.got.cif
#   From: 2010.03.12/outbox.cif.g09.slc.cpg/sg51_6_cif.got.tgz:10433.got - 2010.04.16 13:43:02.
