data_PCOD8209296
_publ_section_title
;
Structure prediction by ZEFSAII (Michael W. Deem and Ramdas Pophale) SiO2 
 PCOD8209296
Probable space group: P M M A
;
_chemical_formula_sum "Si O2"
_cell_formula_units_Z 48
_cell_length_a 30.571333
_cell_length_b 8.747236
_cell_length_c 9.480920
_cell_angle_alpha 90.000000
_cell_angle_beta 90.000000
_cell_angle_gamma 90.000000
_cell_volume 2535.337042
_symmetry_space_group_name_H-M "P M M A"
_symmetry_group_IT_number 51
_symmetry_cell_setting 'orthorhombic'
loop_
_space_group_symop_operation_xyz
x,y,z
1/2-x,-y,z
1/2+x,-y,-z
-x,y,-z
-x,-y,-z
1/2+x,y,-z
1/2-x,y,z
x,-y,z
loop_
_atom_site_type_symbol
_atom_site_label
_atom_site_fract_x
_atom_site_fract_y
_atom_site_fract_z
Si Si1 0.626814 0.821493 0.657971
Si Si2 0.798212 0.681807 0.159072
Si Si3 0.800798 0.324104 0.841046
Si Si4 0.375972 0.681988 0.648079
Si Si5 0.546180 0.680714 0.161960
Si Si6 0.948120 0.318965 0.843865
O O1 0.671683 0.779539 0.735570
O O2 0.625205 0.736779 0.510145
O O3 0.585302 0.771939 0.748194
O O4 0.625234 0.000000 0.630257
O O5 0.750000 0.744202 0.201409
O O6 0.797411 0.500000 0.161407
O O7 0.833767 0.747089 0.268129
O O8 0.809994 0.733501 0.000165
O O9 0.750000 0.305518 0.802380
O O10 0.815580 0.500000 0.823771
O O11 0.375815 0.500000 0.650926
O O12 0.419476 0.747201 0.724942
O O13 0.548252 0.500000 0.159620
O O14 0.497043 0.729793 0.203878
O O15 0.558923 0.735673 0.004940
O O16 0.940508 0.500000 0.826646
#
# Coordination Sequence:
#
# PCOD8209296 Si02
#       6
#     8   8   8   8   8   8
#     4  12  25  36  47  73 113 150 178 207 252 309
#     4   8  15  30  56  86 106 123 161 217 266 309
#     4   9  18  36  62  85 102 128 171 221 268 311
#     4  10  19  33  53  77 106 140 176 214 259 309
#     4   8  16  32  59  86 101 124 172 231 275 308
#     4   9  17  35  60  82 102 128 171 224 273 316
#
# _framework density 18.932393999999999
#
# number of rings (size 3 to 8) (size 9 to 14) (size 15 to 20)
#    0.000    2.667    0.000    4.500    0.000    4.333 
#    0.000   10.833    0.000    1.000    0.000    0.000 
#    0.000    0.000    0.000    0.000    0.000    0.000 
#
# Total GULP energy -595083.345942 kJ/mol
# GULP energy per Si atom -12397.569707 kJ/mol
# Density = 1.888930 g / cm^3
# Si number density = 18.932394 Si / 1000 Ang^3
#
#
#
# Elastic Constant Matrix: (Units=GPa)
#
#
# Indices 1 2 3 4 5 6 
#
# 1 129.8443 14.3619 70.4846 0.0000 0.0000 0.0000
# 2 14.3619 15.6608 2.2299 0.0000 0.0000 0.0000
# 3 70.4846 2.2299 109.6700 0.0000 0.0000 0.0000
# 4 0.0000 0.0000 0.0000 -5.8533 0.0000 0.0000
# 5 0.0000 0.0000 0.0000 0.0000 10.5492 0.0000
# 6 0.0000 0.0000 0.0000 0.0000 0.0000 11.2232
#
#
#
# Elastic Compliance Matrix: (Units=1/GPa)
#
#
# Indices 1 2 3 4 5 6 
#
# 1 0.013543 -0.011213 -0.008476 0.000000 0.000000 0.000000
# 2 -0.011213 0.073322 0.005716 0.000000 0.000000 0.000000
# 3 -0.008476 0.005716 0.014450 0.000000 0.000000 0.000000
# 4 0.000000 0.000000 0.000000 -0.170843 0.000000 0.000000
# 5 0.000000 0.000000 0.000000 0.000000 0.094794 0.000000
# 6 0.000000 0.000000 0.000000 0.000000 0.000000 0.089101
#
#
# Mechanical properties :
#
#
# Convention : Reuss Voigt Hill
#
# Bulk Modulus (GPa) = 13.62982 47.70310 30.66646
# Shear Modulus (GPa) = 29.98158 14.39040 22.18599
#
# Velocity S-wave (km/s) = 3.98378 2.75997 3.42695
# Velocity P-wave (km/s) = 5.32687 5.95045 5.64727
#
# Compressibility (1/GPa) = 0.07336855
#
# Stress axis : x y z
#
# Youngs Moduli (GPa) = 73.83968 13.63838 69.20635
#
# Poissons Ratio (x) = 0.15292 0.58659
# Poissons Ratio (y) = 0.82794 -0.39555
# Poissons Ratio (z) = 0.62586 -0.07795
#
# Static dielectric constant tensor:
#      x y z
#    x 3.946670 0.000000 0.000000 
#    y 0.000000 2.981310 0.000000 
#    z 0.000000 0.000000 3.537530 
# 
# 
# High freq. dielectric constant tensor:
#      x y z
#    x 1.754750 0.000000 0.000000 
#    y 0.000000 1.685230 0.000000 
#    z 0.000000 0.000000 1.736180 
# 
# From -- ./inp_files/12811.got.cif
#   From: 2010.03.12/outbox.cif.g09.slc.cpg/sg51_7_cif.got.tgz:12811.got - 2010.04.16 13:43:02.
