data_PCOD8209921
_publ_section_title
;
Structure prediction by ZEFSAII (Michael W. Deem and Ramdas Pophale) SiO2 
 PCOD8209921
Probable space group: P M M A
;
_chemical_formula_sum "Si O2"
_cell_formula_units_Z 48
_cell_length_a 9.023790
_cell_length_b 20.307340
_cell_length_c 14.487567
_cell_angle_alpha 90.000000
_cell_angle_beta 90.000000
_cell_angle_gamma 90.000000
_cell_volume 2654.834652
_symmetry_space_group_name_H-M "P M M A"
_symmetry_group_IT_number 51
_symmetry_cell_setting 'orthorhombic'
loop_
_space_group_symop_operation_xyz
x,y,z
1/2-x,-y,z
1/2+x,-y,-z
-x,y,-z
-x,-y,-z
1/2+x,y,-z
1/2-x,y,z
x,-y,z
loop_
_atom_site_type_symbol
_atom_site_label
_atom_site_fract_x
_atom_site_fract_y
_atom_site_fract_z
Si Si1 0.578989 0.074832 0.709534
Si Si2 0.076532 0.696566 0.289251
Si Si3 0.573490 0.187927 0.400627
Si Si4 0.078351 0.733270 0.088892
Si Si5 0.423009 0.883820 0.090465
Si Si6 0.422829 0.426471 0.406749
O O1 0.750000 0.098471 0.701008
O O2 0.476634 0.119661 0.645531
O O3 0.528014 0.078926 0.816408
O O4 0.560584 0.000000 0.675417
O O5 0.250000 0.714085 0.303908
O O6 0.035901 0.693885 0.181227
O O7 0.035037 0.624378 0.326505
O O8 0.978157 0.751194 0.338706
O O9 0.500000 0.195027 0.500000
O O10 0.750000 0.188593 0.410553
O O11 0.250000 0.729710 0.068202
O O12 0.025973 0.808365 0.102578
O O13 0.000000 0.700830 0.000000
O O14 0.250000 0.890985 0.074243
O O15 0.500000 0.915274 0.000000
O O16 0.500000 0.402432 0.500000
O O17 0.250000 0.425802 0.426926
O O18 0.476124 0.500000 0.378121
#
# Coordination Sequence:
#
# PCOD8209921 Si02
#       6
#     8   8   8   8   8   8
#     4  10  21  39  59  77 103 139 176 217 267 318
#     4  10  19  35  57  80 109 141 177 219 263 309
#     4  12  25  39  57  79 105 135 175 221 266 315
#     4   9  17  30  50  75 105 137 171 215 261 308
#     4   9  17  31  51  76 105 135 170 211 261 313
#     4   9  18  32  52  79 110 143 177 214 260 313
#
# _framework density 18.080221999999999
#
# number of rings (size 3 to 8) (size 9 to 14) (size 15 to 20)
#    0.000    2.167    1.667    2.000    0.000    4.333 
#    0.000    0.000    0.000    0.500    0.000    0.000 
#    0.000    0.000    0.000    0.000    0.000    0.000 
#
# Total GULP energy -595201.568372 kJ/mol
# GULP energy per Si atom -12400.032674 kJ/mol
# Density = 1.803907 g / cm^3
# Si number density = 18.080222 Si / 1000 Ang^3
#
#
#
# Elastic Constant Matrix: (Units=GPa)
#
#
# Indices 1 2 3 4 5 6 
#
# 1 71.3491 38.7622 55.3180 0.0000 0.0000 0.0000
# 2 38.7622 90.5367 57.3469 0.0000 0.0000 0.0000
# 3 55.3180 57.3469 133.5503 0.0000 0.0000 0.0000
# 4 0.0000 0.0000 0.0000 20.0814 0.0000 0.0000
# 5 0.0000 0.0000 0.0000 0.0000 34.3414 0.0000
# 6 0.0000 0.0000 0.0000 0.0000 0.0000 13.8792
#
#
#
# Elastic Compliance Matrix: (Units=1/GPa)
#
#
# Indices 1 2 3 4 5 6 
#
# 1 0.022213 -0.005058 -0.007029 0.000000 0.000000 0.000000
# 2 -0.005058 0.016324 -0.004914 0.000000 0.000000 0.000000
# 3 -0.007029 -0.004914 0.012510 0.000000 0.000000 0.000000
# 4 0.000000 0.000000 0.000000 0.049797 0.000000 0.000000
# 5 0.000000 0.000000 0.000000 0.000000 0.029119 0.000000
# 6 0.000000 0.000000 0.000000 0.000000 0.000000 0.072051
#
#
# Mechanical properties :
#
#
# Convention : Reuss Voigt Hill
#
# Bulk Modulus (GPa) = 58.67313 66.47668 62.57491
# Shear Modulus (GPa) = 20.68703 23.26099 21.97401
#
# Velocity S-wave (km/s) = 3.38624 3.59073 3.48999
# Velocity P-wave (km/s) = 6.91454 7.35109 7.13616
#
# Compressibility (1/GPa) = 0.01704358
#
# Stress axis : x y z
#
# Youngs Moduli (GPa) = 45.01829 61.26119 79.93920
#
# Poissons Ratio (x) = 0.30986 0.56189
# Poissons Ratio (y) = 0.22771 0.39284
# Poissons Ratio (z) = 0.31643 0.30105
#
# Static dielectric constant tensor:
#      x y z
#    x 3.277530 0.000000 0.000000 
#    y 0.000000 3.351550 0.000000 
#    z 0.000000 0.000000 3.529930 
# 
# 
# High freq. dielectric constant tensor:
#      x y z
#    x 1.691630 0.000000 0.000000 
#    y 0.000000 1.683920 0.000000 
#    z 0.000000 0.000000 1.706860 
# 
# From -- ./inp_files/14443.got.cif
#   From: 2010.03.12/outbox.cif.g09.slc.cpg/sg51_8_cif.got.tgz:14443.got - 2010.04.16 13:43:02.
