data_PCOD8209249
_publ_section_title
;
Structure prediction by ZEFSAII (Michael W. Deem and Ramdas Pophale) SiO2 
 PCOD8209249
Probable space group: P M M A
;
_chemical_formula_sum "Si O2"
_cell_formula_units_Z 52
_cell_length_a 8.587559
_cell_length_b 23.419652
_cell_length_c 14.382711
_cell_angle_alpha 90.000000
_cell_angle_beta 90.000000
_cell_angle_gamma 90.000000
_cell_volume 2892.616941
_symmetry_space_group_name_H-M "P M M A"
_symmetry_group_IT_number 51
_symmetry_cell_setting 'orthorhombic'
loop_
_space_group_symop_operation_xyz
x,y,z
1/2-x,-y,z
1/2+x,-y,-z
-x,y,-z
-x,-y,-z
1/2+x,y,-z
1/2-x,y,z
x,-y,z
loop_
_atom_site_type_symbol
_atom_site_label
_atom_site_fract_x
_atom_site_fract_y
_atom_site_fract_z
Si Si1 0.930004 0.063960 0.772895
Si Si2 0.069909 0.500000 0.099940
Si Si3 0.067110 0.112763 0.595707
Si Si4 0.066997 0.273018 0.784171
Si Si5 0.934465 0.376277 0.896182
Si Si6 0.434194 0.762782 0.401759
Si Si7 0.933299 0.832150 0.897729
O O1 0.750000 0.075386 0.748022
O O2 0.988760 0.108598 0.850500
O O3 0.030780 0.069810 0.679293
O O4 0.955115 0.000000 0.812071
O O5 0.250000 0.500000 0.081966
O O6 0.025249 0.439425 0.148027
O O7 0.000000 0.500000 0.000000
O O8 0.250000 0.123361 0.585593
O O9 0.000000 0.086451 0.500000
O O10 0.983003 0.172267 0.617477
O O11 0.250000 0.263922 0.785337
O O12 0.022586 0.332041 0.831723
O O13 0.005302 0.276419 0.678927
O O14 0.989841 0.220488 0.837088
O O15 0.750000 0.363968 0.896951
O O16 0.000000 0.370441 0.000000
O O17 0.500000 0.740762 0.500000
O O18 0.250000 0.757629 0.401366
O O19 0.750000 0.829176 0.904887
O O20 0.000000 0.828153 0.000000
#
# Coordination Sequence:
#
# PCOD8209249 Si02
#       7
#     8   4   8   8   8   8   8
#     4  10  22  40  59  78 103 137 178 222 270 325
#     4   8  16  30  50  74 107 148 189 228 270 314
#     4  11  21  35  57  82 108 138 171 213 265 324
#     4  12  23  36  55  82 112 144 182 224 268 319
#     4  10  19  33  52  79 113 151 190 230 271 318
#     4  11  21  36  57  82 110 141 174 216 267 323
#     4  11  23  39  58  78 105 139 177 224 273 322
#
# _framework density 17.976801999999999
#
# number of rings (size 3 to 8) (size 9 to 14) (size 15 to 20)
#    0.000    1.385    1.538    6.462    0.000    2.154 
#    0.000    0.000    0.000    0.000    0.000    0.538 
#    0.000    0.000    0.000    0.000    0.000    0.000 
#
# Total GULP energy -644753.555517 kJ/mol
# GULP energy per Si atom -12399.106837 kJ/mol
# Density = 1.793589 g / cm^3
# Si number density = 17.976802 Si / 1000 Ang^3
#
#
#
# Elastic Constant Matrix: (Units=GPa)
#
#
# Indices 1 2 3 4 5 6 
#
# 1 21.7847 11.2774 12.0914 0.0000 0.0000 0.0000
# 2 11.2774 109.4449 47.7235 0.0000 0.0000 0.0000
# 3 12.0914 47.7235 108.6135 0.0000 0.0000 0.0000
# 4 0.0000 0.0000 0.0000 17.5196 0.0000 0.0000
# 5 0.0000 0.0000 0.0000 0.0000 30.3991 0.0000
# 6 0.0000 0.0000 0.0000 0.0000 0.0000 5.6971
#
#
#
# Elastic Compliance Matrix: (Units=1/GPa)
#
#
# Indices 1 2 3 4 5 6 
#
# 1 0.049909 -0.003365 -0.004078 0.000000 0.000000 0.000000
# 2 -0.003365 0.011529 -0.004691 0.000000 0.000000 0.000000
# 3 -0.004078 -0.004691 0.011722 0.000000 0.000000 0.000000
# 4 0.000000 0.000000 0.000000 0.057079 0.000000 0.000000
# 5 0.000000 0.000000 0.000000 0.000000 0.032896 0.000000
# 6 0.000000 0.000000 0.000000 0.000000 0.000000 0.175527
#
#
# Mechanical properties :
#
#
# Convention : Reuss Voigt Hill
#
# Bulk Modulus (GPa) = 20.45275 42.44752 31.45013
# Shear Modulus (GPa) = 13.18470 21.97323 17.57896
#
# Velocity S-wave (km/s) = 2.71113 3.49995 3.13048
# Velocity P-wave (km/s) = 4.60459 6.32428 5.53167
#
# Compressibility (1/GPa) = 0.04889319
#
# Stress axis : x y z
#
# Youngs Moduli (GPa) = 20.03649 86.73517 85.30811
#
# Poissons Ratio (x) = 0.29183 0.34786
# Poissons Ratio (y) = 0.06742 0.40021
# Poissons Ratio (z) = 0.08170 0.40690
#
# Static dielectric constant tensor:
#      x y z
#    x 3.466650 0.000000 0.000000 
#    y 0.000000 3.536800 0.000000 
#    z 0.000000 0.000000 3.533880 
# 
# 
# High freq. dielectric constant tensor:
#      x y z
#    x 1.713210 0.000000 0.000000 
#    y 0.000000 1.686650 0.000000 
#    z 0.000000 0.000000 1.686210 
# 
# From -- ./inp_files/21504.got.cif
#   From: 2010.03.12/outbox.cif.g09.slc.cpg/sg51_11_cif.got.tgz:21504.got - 2010.04.16 13:43:02.
