data_PCOD8209848
_publ_section_title
;
Structure prediction by ZEFSAII (Michael W. Deem and Ramdas Pophale) SiO2 
 PCOD8209848
Probable space group: P M M A
;
_chemical_formula_sum "Si O2"
_cell_formula_units_Z 56
_cell_length_a 15.136859
_cell_length_b 9.023345
_cell_length_c 21.171623
_cell_angle_alpha 90.000000
_cell_angle_beta 90.000000
_cell_angle_gamma 90.000000
_cell_volume 2891.728265
_symmetry_space_group_name_H-M "P M M A"
_symmetry_group_IT_number 51
_symmetry_cell_setting 'orthorhombic'
loop_
_space_group_symop_operation_xyz
x,y,z
1/2-x,-y,z
1/2+x,-y,-z
-x,y,-z
-x,-y,-z
1/2+x,y,-z
1/2-x,y,z
x,-y,z
loop_
_atom_site_type_symbol
_atom_site_label
_atom_site_fract_x
_atom_site_fract_y
_atom_site_fract_z
Si Si1 0.850780 0.171332 0.054344
Si Si2 0.000108 0.825259 0.846630
Si Si3 0.991350 0.674699 0.286215
Si Si4 0.150478 0.168340 0.632946
Si Si5 0.852042 0.326703 0.924854
Si Si6 0.098699 0.827960 0.493962
Si Si7 0.348029 0.329994 0.370328
O O1 0.750000 0.203966 0.075711
O O2 0.915782 0.217654 0.110527
O O3 0.863038 0.000000 0.035697
O O4 0.877517 0.267370 0.993850
O O5 0.910516 0.753808 0.872553
O O6 0.020529 0.762084 0.778254
O O7 0.986871 0.000000 0.842961
O O8 0.992769 0.500000 0.272790
O O9 0.909491 0.714476 0.330808
O O10 0.081266 0.730976 0.319877
O O11 0.250000 0.185656 0.658160
O O12 0.150188 0.204315 0.558582
O O13 0.116081 0.000000 0.644388
O O14 0.750000 0.291680 0.909466
O O15 0.872054 0.500000 0.922729
O O16 0.149101 0.751235 0.436997
O O17 0.000000 0.763336 0.500000
O O18 0.095562 0.000000 0.477208
O O19 0.250000 0.308825 0.341334
O O20 0.369898 0.500000 0.384054
#
# Coordination Sequence:
#
# PCOD8209848 Si02
#       7
#     8   8   8   8   8   8   8
#     4   9  19  37  60  86 116 149 186 231 283 338
#     4  11  23  38  59  85 115 153 196 236 283 338
#     4  11  24  40  57  80 113 152 194 239 286 338
#     4  10  21  38  59  83 113 149 188 233 287 343
#     4  10  21  37  59  88 120 152 187 232 284 335
#     4  10  19  34  60  88 114 142 181 234 287 339
#     4  10  22  39  58  81 111 148 188 232 286 344
#
# _framework density 19.365582
#
# number of rings (size 3 to 8) (size 9 to 14) (size 15 to 20)
#    0.000    1.857    1.429    2.143    0.000    7.429 
#    0.000    2.857    0.000    0.000    0.000    0.000 
#    0.000    0.000    0.000    0.000    0.000    0.000 
#
# Total GULP energy -694614.485380 kJ/mol
# GULP energy per Si atom -12403.830096 kJ/mol
# Density = 1.932151 g / cm^3
# Si number density = 19.365582 Si / 1000 Ang^3
#
#
#
# Elastic Constant Matrix: (Units=GPa)
#
#
# Indices 1 2 3 4 5 6 
#
# 1 95.5468 29.3995 27.4105 0.0000 0.0000 0.0000
# 2 29.3995 61.1995 28.8837 0.0000 0.0000 0.0000
# 3 27.4105 28.8837 68.0358 0.0000 0.0000 0.0000
# 4 0.0000 0.0000 0.0000 -16.9118 0.0000 0.0000
# 5 0.0000 0.0000 0.0000 0.0000 11.3871 0.0000
# 6 0.0000 0.0000 0.0000 0.0000 0.0000 29.9374
#
#
#
# Elastic Compliance Matrix: (Units=1/GPa)
#
#
# Indices 1 2 3 4 5 6 
#
# 1 0.012811 -0.004650 -0.003187 0.000000 0.000000 0.000000
# 2 -0.004650 0.022122 -0.007518 0.000000 0.000000 0.000000
# 3 -0.003187 -0.007518 0.019174 0.000000 0.000000 0.000000
# 4 0.000000 0.000000 0.000000 -0.059130 0.000000 0.000000
# 5 0.000000 0.000000 0.000000 0.000000 0.087819 0.000000
# 6 0.000000 0.000000 0.000000 0.000000 0.000000 0.033403
#
#
# Mechanical properties :
#
#
# Convention : Reuss Voigt Hill
#
# Bulk Modulus (GPa) = 42.74201 44.01883 43.38042
# Shear Modulus (GPa) = 32.31878 14.15510 23.23694
#
# Velocity S-wave (km/s) = 4.08962 2.70653 3.46773
# Velocity P-wave (km/s) = 6.66476 5.70498 6.20346
#
# Compressibility (1/GPa) = 0.02339619
#
# Stress axis : x y z
#
# Youngs Moduli (GPa) = 78.05626 45.20353 52.15392
#
# Poissons Ratio (x) = 0.21020 0.16623
# Poissons Ratio (y) = 0.36297 0.39211
# Poissons Ratio (z) = 0.24879 0.33985
#
# Static dielectric constant tensor:
#      x y z
#    x 3.722520 0.000000 0.000000 
#    y 0.000000 3.501390 0.000000 
#    z 0.000000 0.000000 3.423270 
# 
# 
# High freq. dielectric constant tensor:
#      x y z
#    x 1.767820 0.000000 0.000000 
#    y 0.000000 1.751660 0.000000 
#    z 0.000000 0.000000 1.747030 
# 
# From -- ./inp_files/33307.got.cif
#   From: 2010.03.12/outbox.cif.g09.slc.cpg/sg51_17_cif.got.tgz:33307.got - 2010.04.16 13:43:02.
