data_PCOD8209225
_publ_section_title
;
Structure prediction by ZEFSAII (Michael W. Deem and Ramdas Pophale) SiO2 
 PCOD8209225
Probable space group: P M M A
;
_chemical_formula_sum "Si O2"
_cell_formula_units_Z 48
_cell_length_a 15.658757
_cell_length_b 8.341808
_cell_length_c 18.034867
_cell_angle_alpha 90.000000
_cell_angle_beta 90.000000
_cell_angle_gamma 90.000000
_cell_volume 2355.756609
_symmetry_space_group_name_H-M "P M M A"
_symmetry_group_IT_number 51
_symmetry_cell_setting 'orthorhombic'
loop_
_space_group_symop_operation_xyz
x,y,z
1/2-x,-y,z
1/2+x,-y,-z
-x,y,-z
-x,-y,-z
1/2+x,y,-z
1/2-x,y,z
x,-y,z
loop_
_atom_site_type_symbol
_atom_site_label
_atom_site_fract_x
_atom_site_fract_y
_atom_site_fract_z
Si Si1 0.750000 0.808825 0.540896
Si Si2 0.250000 0.315892 0.951839
Si Si3 0.917279 0.808424 0.289530
Si Si4 0.750000 0.808716 0.708449
Si Si5 0.915885 0.809317 0.793146
Si Si6 0.588975 0.188856 0.961933
Si Si7 0.250000 0.186887 0.790255
Si Si8 0.917066 0.808911 0.457398
O O1 0.750000 0.742825 0.624684
O O2 0.833309 0.742661 0.498813
O O3 0.750000 0.000000 0.541103
O O4 0.250000 0.500000 0.928539
O O5 0.250000 0.211556 0.877781
O O6 0.334084 0.278780 0.998588
O O7 0.834306 0.738101 0.247577
O O8 0.917734 0.743933 0.373525
O O9 0.000283 0.740608 0.247339
O O10 0.917757 0.000000 0.288177
O O11 0.833117 0.741924 0.750651
O O12 0.750000 0.000000 0.708613
O O13 0.914555 0.749713 0.877614
O O14 0.916845 0.000000 0.790834
O O15 0.606345 0.000000 0.967060
O O16 0.500000 0.235641 0.000000
O O17 0.250000 0.000000 0.773382
O O18 0.000000 0.742405 0.500000
O O19 0.917175 0.000000 0.457695
#
# Coordination Sequence:
#
# PCOD8209225 Si02
#       8
#     4   4   8   4   8   8   4   8
#     4   9  15  21  29  45  75 119 160 186 220 277
#     4  12  25  38  54  78 109 140 170 212 270 328
#     4   9  16  26  42  65  91 123 164 205 244 289
#     4   9  15  22  33  52  82 119 158 196 232 281
#     4   9  16  26  42  64  87 114 155 205 248 286
#     4  10  20  36  58  80 102 133 176 221 262 310
#     4  10  19  33  52  71  95 130 174 216 250 296
#     4   9  15  22  33  53  86 125 159 191 234 291
#
# _framework density 20.375619
#
# number of rings (size 3 to 8) (size 9 to 14) (size 15 to 20)
#    0.000    2.500    0.000    3.750    0.000   10.333 
#    0.000    0.000    0.000    0.000    0.000    0.000 
#    0.000    0.667    0.000   21.000    0.000   25.667 
#
# Total GULP energy -595231.484506 kJ/mol
# GULP energy per Si atom -12400.655927 kJ/mol
# Density = 2.032924 g / cm^3
# Si number density = 20.375619 Si / 1000 Ang^3
#
#
#
# Elastic Constant Matrix: (Units=GPa)
#
#
# Indices 1 2 3 4 5 6 
#
# 1 215.7407 7.5150 108.6041 0.0000 0.0000 0.0000
# 2 7.5150 10.1269 -1.0866 0.0000 0.0000 0.0000
# 3 108.6041 -1.0866 203.5228 0.0000 0.0000 0.0000
# 4 0.0000 0.0000 0.0000 -0.5744 0.0000 0.0000
# 5 0.0000 0.0000 0.0000 0.0000 51.2525 0.0000
# 6 0.0000 0.0000 0.0000 0.0000 0.0000 -112.7257
#
#
#
# Elastic Compliance Matrix: (Units=1/GPa)
#
#
# Indices 1 2 3 4 5 6 
#
# 1 0.006609 -0.005286 -0.003555 0.000000 0.000000 0.000000
# 2 -0.005286 0.103031 0.003371 0.000000 0.000000 0.000000
# 3 -0.003555 0.003371 0.006828 0.000000 0.000000 0.000000
# 4 0.000000 0.000000 0.000000 -1.741027 0.000000 0.000000
# 5 0.000000 0.000000 0.000000 0.000000 0.019511 0.000000
# 6 0.000000 0.000000 0.000000 0.000000 0.000000 -0.008871
#
#
# Mechanical properties :
#
#
# Convention : Reuss Voigt Hill
#
# Bulk Modulus (GPa) = 9.47609 73.27281 41.37445
# Shear Modulus (GPa) = -3.18918 8.54769 2.67926
#
# Velocity S-wave (km/s) = -1.25243 2.05041 1.14795
# Velocity P-wave (km/s) = 1.60292 6.45327 4.70181
#
# Compressibility (1/GPa) = 0.10552873
#
# Stress axis : x y z
#
# Youngs Moduli (GPa) = 151.31299 9.70579 146.44761
#
# Poissons Ratio (x) = 0.05130 0.52060
# Poissons Ratio (y) = 0.79980 -0.49363
# Poissons Ratio (z) = 0.53789 -0.03271
#
# Static dielectric constant tensor:
#      x y z
#    x 3.984590 0.000000 0.000000 
#    y 0.000000 2.798300 0.000000 
#    z 0.000000 0.000000 3.897440 
# 
# 
# High freq. dielectric constant tensor:
#      x y z
#    x 1.818300 0.000000 0.000000 
#    y 0.000000 1.713020 0.000000 
#    z 0.000000 0.000000 1.815680 
# 
# From -- ./inp_files/29705.got.cif
#   From: 2010.03.12/outbox.cif.g09.slc.cpg/sg51_15_cif.got.tgz:29705.got - 2010.04.16 13:43:02.
