data_PCOD8209215
_publ_section_title
;
Structure prediction by ZEFSAII (Michael W. Deem and Ramdas Pophale) SiO2 
 PCOD8209215
Probable space group: P M M A
;
_chemical_formula_sum "Si O2"
_cell_formula_units_Z 48
_cell_length_a 26.129904
_cell_length_b 8.651569
_cell_length_c 11.764254
_cell_angle_alpha 90.000000
_cell_angle_beta 90.000000
_cell_angle_gamma 90.000000
_cell_volume 2659.482168
_symmetry_space_group_name_H-M "P M M A"
_symmetry_group_IT_number 51
_symmetry_cell_setting 'orthorhombic'
loop_
_space_group_symop_operation_xyz
x,y,z
1/2-x,-y,z
1/2+x,-y,-z
-x,y,-z
-x,-y,-z
1/2+x,y,-z
1/2-x,y,z
x,-y,z
loop_
_atom_site_type_symbol
_atom_site_label
_atom_site_fract_x
_atom_site_fract_y
_atom_site_fract_z
Si Si1 0.943615 0.681189 0.456991
Si Si2 0.380383 0.325257 0.976350
Si Si3 0.611897 0.179795 0.661156
Si Si4 0.460986 0.675011 0.164528
Si Si5 0.064685 0.180027 0.786650
Si Si6 0.808868 0.317356 0.823628
O O1 0.942498 0.500000 0.432447
O O2 0.899914 0.726430 0.546613
O O3 0.928571 0.770388 0.342914
O O4 0.000000 0.732930 0.500000
O O5 0.367794 0.500000 0.939410
O O6 0.385002 0.222395 0.862037
O O7 0.434206 0.316265 0.042822
O O8 0.335459 0.261364 0.058965
O O9 0.565889 0.209375 0.748056
O O10 0.665343 0.236943 0.714814
O O11 0.615538 0.000000 0.632203
O O12 0.457693 0.500000 0.213430
O O13 0.519249 0.725626 0.153375
O O14 0.053606 0.000000 0.793370
O O15 0.750000 0.268318 0.827386
O O16 0.817069 0.500000 0.810583
#
# Coordination Sequence:
#
# PCOD8209215 Si02
#       6
#     8   8   8   8   8   8
#     4  11  22  36  55  74 103 149 191 223 261 318
#     4   9  19  34  52  75 105 139 178 220 262 315
#     4  11  21  33  53  82 113 140 175 226 276 318
#     4  10  19  33  51  72 103 145 185 218 255 310
#     4  12  23  32  48  75 109 144 179 220 268 318
#     4   9  19  38  63  85 106 138 180 223 268 321
#
# _framework density 18.048627
#
# number of rings (size 3 to 8) (size 9 to 14) (size 15 to 20)
#    0.000    1.667    1.667    5.500    0.000    6.333 
#    0.000    0.000    0.000    1.000    0.000    2.333 
#    0.000    0.000    0.000    0.000    0.000    0.000 
#
# Total GULP energy -595234.915109 kJ/mol
# GULP energy per Si atom -12400.727398 kJ/mol
# Density = 1.800755 g / cm^3
# Si number density = 18.048627 Si / 1000 Ang^3
#
#
#
# Elastic Constant Matrix: (Units=GPa)
#
#
# Indices 1 2 3 4 5 6 
#
# 1 94.0817 20.1396 49.1093 0.0000 0.0000 0.0000
# 2 20.1396 56.0202 28.6266 0.0000 0.0000 0.0000
# 3 49.1093 28.6266 101.8613 0.0000 0.0000 0.0000
# 4 0.0000 0.0000 0.0000 15.7546 0.0000 0.0000
# 5 0.0000 0.0000 0.0000 0.0000 15.2611 0.0000
# 6 0.0000 0.0000 0.0000 0.0000 0.0000 18.7432
#
#
#
# Elastic Compliance Matrix: (Units=1/GPa)
#
#
# Indices 1 2 3 4 5 6 
#
# 1 0.014374 -0.001899 -0.006396 0.000000 0.000000 0.000000
# 2 -0.001899 0.021095 -0.005013 0.000000 0.000000 0.000000
# 3 -0.006396 -0.005013 0.014310 0.000000 0.000000 0.000000
# 4 0.000000 0.000000 0.000000 0.063473 0.000000 0.000000
# 5 0.000000 0.000000 0.000000 0.000000 0.065526 0.000000
# 6 0.000000 0.000000 0.000000 0.000000 0.000000 0.053353
#
#
# Mechanical properties :
#
#
# Convention : Reuss Voigt Hill
#
# Bulk Modulus (GPa) = 43.17314 49.74604 46.45959
# Shear Modulus (GPa) = 18.76390 20.22431 19.49410
#
# Velocity S-wave (km/s) = 3.22783 3.35109 3.29003
# Velocity P-wave (km/s) = 6.15339 6.52649 6.34269
#
# Compressibility (1/GPa) = 0.02316255
#
# Stress axis : x y z
#
# Youngs Moduli (GPa) = 69.56786 47.40453 69.88154
#
# Poissons Ratio (x) = 0.09002 0.44700
# Poissons Ratio (y) = 0.13211 0.35031
# Poissons Ratio (z) = 0.44499 0.23763
#
# Static dielectric constant tensor:
#      x y z
#    x 3.141300 0.000000 0.000000 
#    y 0.000000 3.270020 0.000000 
#    z 0.000000 0.000000 3.336650 
# 
# 
# High freq. dielectric constant tensor:
#      x y z
#    x 1.664270 0.000000 0.000000 
#    y 0.000000 1.701380 0.000000 
#    z 0.000000 0.000000 1.700910 
# 
# From -- ./inp_files/19005.got.cif
#   From: 2010.03.12/outbox.cif.g09.slc.cpg/sg51_10_cif.got.tgz:19005.got - 2010.04.16 13:43:02.
