data_PCOD8209579
_publ_section_title
;
Structure prediction by ZEFSAII (Michael W. Deem and Ramdas Pophale) SiO2 
 PCOD8209579
Probable space group: P M M A
;
_chemical_formula_sum "Si O2"
_cell_formula_units_Z 56
_cell_length_a 18.163005
_cell_length_b 9.247846
_cell_length_c 19.349563
_cell_angle_alpha 90.000000
_cell_angle_beta 90.000000
_cell_angle_gamma 90.000000
_cell_volume 3250.120423
_symmetry_space_group_name_H-M "P M M A"
_symmetry_group_IT_number 51
_symmetry_cell_setting 'orthorhombic'
loop_
_space_group_symop_operation_xyz
x,y,z
1/2-x,-y,z
1/2+x,-y,-z
-x,y,-z
-x,-y,-z
1/2+x,y,-z
1/2-x,y,z
x,-y,z
loop_
_atom_site_type_symbol
_atom_site_label
_atom_site_fract_x
_atom_site_fract_y
_atom_site_fract_z
Si Si1 0.543980 0.668435 0.068656
Si Si2 0.832003 0.337356 0.875212
Si Si3 0.164298 0.830775 0.443961
Si Si4 0.430105 0.662631 0.548660
Si Si5 0.335006 0.833015 0.991807
Si Si6 0.473215 0.170034 0.349171
Si Si7 0.464646 0.663911 0.210899
O O1 0.560829 0.500000 0.065398
O O2 0.620600 0.755324 0.069395
O O3 0.504292 0.709320 0.139895
O O4 0.500000 0.717827 0.000000
O O5 0.750000 0.298075 0.852644
O O6 0.839466 0.500000 0.905573
O O7 0.878118 0.323144 0.805231
O O8 0.860322 0.231062 0.934611
O O9 0.250000 0.791966 0.425297
O O10 0.138886 0.740910 0.511394
O O11 0.107466 0.790673 0.381557
O O12 0.157486 0.000000 0.461524
O O13 0.500000 0.653559 0.500000
O O14 0.405849 0.500000 0.570540
O O15 0.457225 0.755648 0.613650
O O16 0.250000 0.801090 0.977938
O O17 0.354257 0.000000 0.992331
O O18 0.480349 0.223561 0.270983
O O19 0.485965 0.000000 0.352182
O O20 0.485542 0.500000 0.233570
#
# Coordination Sequence:
#
# PCOD8209579 Si02
#       7
#     8   8   8   8   8   8   8
#     4  10  19  34  53  73  96 129 173 219 263 311
#     4   9  17  31  49  67  93 131 168 202 248 305
#     4   9  18  33  53  78 108 140 171 203 242 294
#     4   9  17  31  52  76 101 131 169 211 247 283
#     4  10  20  32  48  72  98 123 157 207 262 311
#     4  10  20  33  50  73 104 142 176 204 249 308
#     4  10  20  33  49  72 101 132 171 217 259 302
#
# _framework density 17.230132000000001
#
# number of rings (size 3 to 8) (size 9 to 14) (size 15 to 20)
#    0.000    2.429    1.429    1.286    0.000    5.429 
#    0.000    0.000    0.000    0.857    0.000    4.000 
#    0.000    0.000    0.000    0.000    0.000    0.000 
#
# Total GULP energy -694090.106185 kJ/mol
# GULP energy per Si atom -12394.466182 kJ/mol
# Density = 1.719092 g / cm^3
# Si number density = 17.230132 Si / 1000 Ang^3
#
#
#
# Elastic Constant Matrix: (Units=GPa)
#
#
# Indices 1 2 3 4 5 6 
#
# 1 51.8372 40.5153 43.8002 0.0000 0.0000 0.0000
# 2 40.5153 77.1373 53.0613 0.0000 0.0000 0.0000
# 3 43.8002 53.0613 104.7347 0.0000 0.0000 0.0000
# 4 0.0000 0.0000 0.0000 28.3640 0.0000 0.0000
# 5 0.0000 0.0000 0.0000 0.0000 18.2518 0.0000
# 6 0.0000 0.0000 0.0000 0.0000 0.0000 25.7923
#
#
#
# Elastic Compliance Matrix: (Units=1/GPa)
#
#
# Indices 1 2 3 4 5 6 
#
# 1 0.037261 -0.013587 -0.008699 0.000000 0.000000 0.000000
# 2 -0.013587 0.024853 -0.006909 0.000000 0.000000 0.000000
# 3 -0.008699 -0.006909 0.016686 0.000000 0.000000 0.000000
# 4 0.000000 0.000000 0.000000 0.035256 0.000000 0.000000
# 5 0.000000 0.000000 0.000000 0.000000 0.054789 0.000000
# 6 0.000000 0.000000 0.000000 0.000000 0.000000 0.038771
#
#
# Mechanical properties :
#
#
# Convention : Reuss Voigt Hill
#
# Bulk Modulus (GPa) = 48.99576 56.49585 52.74581
# Shear Modulus (GPa) = 18.32785 20.90380 19.61583
#
# Velocity S-wave (km/s) = 3.26499 3.48690 3.37777
# Velocity P-wave (km/s) = 6.53540 7.00510 6.77432
#
# Compressibility (1/GPa) = 0.02040993
#
# Stress axis : x y z
#
# Youngs Moduli (GPa) = 26.83793 40.23704 59.92976
#
# Poissons Ratio (x) = 0.54669 0.52133
# Poissons Ratio (y) = 0.36464 0.41406
# Poissons Ratio (z) = 0.23347 0.27800
#
# Static dielectric constant tensor:
#      x y z
#    x 3.334630 0.000000 0.000000 
#    y 0.000000 3.304820 0.000000 
#    z 0.000000 0.000000 3.014840 
# 
# 
# High freq. dielectric constant tensor:
#      x y z
#    x 1.658530 0.000000 0.000000 
#    y 0.000000 1.670460 0.000000 
#    z 0.000000 0.000000 1.639270 
# 
# From -- ./inp_files/33709.got.cif
#   From: 2010.03.12/outbox.cif.g09.slc.cpg/sg51_17_cif.got.tgz:33709.got - 2010.04.16 13:43:02.
