data_PCOD8209913
_publ_section_title
;
Structure prediction by ZEFSAII (Michael W. Deem and Ramdas Pophale) SiO2 
 PCOD8209913
Probable space group: P M M A
;
_chemical_formula_sum "Si O2"
_cell_formula_units_Z 56
_cell_length_a 16.007034
_cell_length_b 18.862855
_cell_length_c 9.421341
_cell_angle_alpha 90.000000
_cell_angle_beta 90.000000
_cell_angle_gamma 90.000000
_cell_volume 2844.664263
_symmetry_space_group_name_H-M "P M M A"
_symmetry_group_IT_number 51
_symmetry_cell_setting 'orthorhombic'
loop_
_space_group_symop_operation_xyz
x,y,z
1/2-x,-y,z
1/2+x,-y,-z
-x,y,-z
-x,-y,-z
1/2+x,y,-z
1/2-x,y,z
x,-y,z
loop_
_atom_site_type_symbol
_atom_site_label
_atom_site_fract_x
_atom_site_fract_y
_atom_site_fract_z
Si Si1 0.463397 0.843037 0.348888
Si Si2 0.656124 0.276639 0.549915
Si Si3 0.346569 0.917622 0.138228
Si Si4 0.528630 0.420736 0.149045
Si Si5 0.580478 0.578292 0.593165
Si Si6 0.343282 0.694286 0.765111
Si Si7 0.576502 0.184731 0.089614
O O1 0.500000 0.870035 0.500000
O O2 0.414746 0.767643 0.366322
O O3 0.396334 0.897352 0.281816
O O4 0.541733 0.839341 0.242651
O O5 0.750000 0.252922 0.595102
O O6 0.649605 0.361021 0.577067
O O7 0.641917 0.264422 0.382744
O O8 0.250000 0.898290 0.162301
O O9 0.359594 0.000000 0.108205
O O10 0.380398 0.878692 0.997091
O O11 0.565616 0.500000 0.128792
O O12 0.445769 0.423179 0.243277
O O13 0.598045 0.373454 0.224410
O O14 0.500000 0.387576 0.000000
O O15 0.500000 0.597954 0.500000
O O16 0.615341 0.500000 0.548748
O O17 0.250000 0.665069 0.778056
O O18 0.358694 0.751365 0.889394
O O19 0.500000 0.216160 0.000000
#
# Coordination Sequence:
#
# PCOD8209913 Si02
#       7
#     8   8   8   8   8   8   8
#     4  11  21  38  63  90 121 159 200 242 291 350
#     4  11  22  35  56  86 122 154 193 252 303 347
#     4  10  23  44  66  91 125 159 193 239 296 354
#     4  10  21  37  55  78 109 149 193 243 299 351
#     4  10  19  35  57  78 108 151 200 246 292 351
#     4  11  21  34  55  84 115 149 194 245 296 353
#     4  10  21  37  62  87 116 155 197 243 285 346
#
# _framework density 19.685979
#
# number of rings (size 3 to 8) (size 9 to 14) (size 15 to 20)
#    0.000    1.571    2.857    2.571    0.000    4.571 
#    0.000    5.000    0.000    4.286    0.000    0.000 
#    0.000    0.000    0.000    0.000    0.000    0.000 
#
# Total GULP energy -694253.351542 kJ/mol
# GULP energy per Si atom -12397.381278 kJ/mol
# Density = 1.964117 g / cm^3
# Si number density = 19.685979 Si / 1000 Ang^3
#
#
#
# Elastic Constant Matrix: (Units=GPa)
#
#
# Indices 1 2 3 4 5 6 
#
# 1 91.4939 43.9734 39.9861 0.0000 0.0000 0.0000
# 2 43.9734 96.9338 27.7759 0.0000 0.0000 0.0000
# 3 39.9861 27.7759 108.5613 0.0000 0.0000 0.0000
# 4 0.0000 0.0000 0.0000 29.0099 0.0000 0.0000
# 5 0.0000 0.0000 0.0000 0.0000 29.1416 0.0000
# 6 0.0000 0.0000 0.0000 0.0000 0.0000 27.4256
#
#
#
# Elastic Compliance Matrix: (Units=1/GPa)
#
#
# Indices 1 2 3 4 5 6 
#
# 1 0.015603 -0.005861 -0.004247 0.000000 0.000000 0.000000
# 2 -0.005861 0.013334 -0.001253 0.000000 0.000000 0.000000
# 3 -0.004247 -0.001253 0.011096 0.000000 0.000000 0.000000
# 4 0.000000 0.000000 0.000000 0.034471 0.000000 0.000000
# 5 0.000000 0.000000 0.000000 0.000000 0.034315 0.000000
# 6 0.000000 0.000000 0.000000 0.000000 0.000000 0.036462
#
#
# Mechanical properties :
#
#
# Convention : Reuss Voigt Hill
#
# Bulk Modulus (GPa) = 57.76728 57.82886 57.79807
# Shear Modulus (GPa) = 28.77290 29.46566 29.11928
#
# Velocity S-wave (km/s) = 3.82723 3.87303 3.85019
# Velocity P-wave (km/s) = 6.99559 7.03135 7.01349
#
# Compressibility (1/GPa) = 0.01731084
#
# Stress axis : x y z
#
# Youngs Moduli (GPa) = 64.09078 74.99542 90.11981
#
# Poissons Ratio (x) = 0.43955 0.38277
# Poissons Ratio (y) = 0.37564 0.11290
# Poissons Ratio (z) = 0.27222 0.09395
#
# Static dielectric constant tensor:
#      x y z
#    x 3.530640 0.000000 0.000000 
#    y 0.000000 3.427480 0.000000 
#    z 0.000000 0.000000 3.766370 
# 
# 
# High freq. dielectric constant tensor:
#      x y z
#    x 1.758860 0.000000 0.000000 
#    y 0.000000 1.756850 0.000000 
#    z 0.000000 0.000000 1.775170 
# 
# From -- ./inp_files/8586.got.cif
#   From: 2010.03.12/outbox.cif.g09.slc.cpg/sg51_5_cif.got.tgz:8586.got - 2010.04.16 13:43:02.
