data_PCOD8209231
_publ_section_title
;
Structure prediction by ZEFSAII (Michael W. Deem and Ramdas Pophale) SiO2 
 PCOD8209231
Probable space group: P M M A
;
_chemical_formula_sum "Si O2"
_cell_formula_units_Z 64
_cell_length_a 9.206581
_cell_length_b 20.097280
_cell_length_c 19.737957
_cell_angle_alpha 90.000000
_cell_angle_beta 90.000000
_cell_angle_gamma 90.000000
_cell_volume 3652.059632
_symmetry_space_group_name_H-M "P M M A"
_symmetry_group_IT_number 51
_symmetry_cell_setting 'orthorhombic'
loop_
_space_group_symop_operation_xyz
x,y,z
1/2-x,-y,z
1/2+x,-y,-z
-x,y,-z
-x,-y,-z
1/2+x,y,-z
1/2-x,y,z
x,-y,z
loop_
_atom_site_type_symbol
_atom_site_label
_atom_site_fract_x
_atom_site_fract_y
_atom_site_fract_z
Si Si1 0.915169 0.425686 0.099274
Si Si2 0.080343 0.923570 0.568451
Si Si3 0.920506 0.749232 0.788122
Si Si4 0.918233 0.183224 0.323951
Si Si5 0.080959 0.289788 0.563740
Si Si6 0.579285 0.428908 0.389108
Si Si7 0.421090 0.294865 0.064759
Si Si8 0.914049 0.379729 0.245928
O O1 0.750000 0.408480 0.076955
O O2 0.958910 0.500000 0.074463
O O3 0.926778 0.425718 0.180357
O O4 0.023795 0.371169 0.068872
O O5 0.250000 0.910720 0.555764
O O6 0.026422 0.880278 0.632647
O O7 0.000000 0.900956 0.500000
O O8 0.045542 0.000000 0.585695
O O9 0.750000 0.755833 0.778170
O O10 0.961801 0.748077 0.868290
O O11 0.995704 0.810329 0.747413
O O12 0.974213 0.680822 0.756023
O O13 0.750000 0.174890 0.305815
O O14 0.949106 0.248873 0.368273
O O15 0.250000 0.289953 0.546967
O O16 0.014656 0.364336 0.573195
O O17 0.000000 0.256505 0.500000
O O18 0.750000 0.428235 0.401186
O O19 0.514244 0.500000 0.415464
O O20 0.544934 0.425167 0.309409
O O21 0.250000 0.296212 0.053170
O O22 0.500000 0.260911 0.000000
O O23 0.750000 0.350290 0.253567
#
# Coordination Sequence:
#
# PCOD8209231 Si02
#       8
#     8   8   8   8   8   8   8   8
#     4   9  17  28  45  68  89 114 151 193 241 300
#     4   9  18  32  51  77 110 144 175 205 238 281
#     4  10  20  32  49  73  97 119 153 199 245 283
#     4  10  19  33  52  73  97 129 167 199 235 282
#     4  10  20  32  45  64  87 117 155 196 239 284
#     4   9  16  27  44  62  81 109 148 194 241 289
#     4  10  21  35  49  67  92 124 156 194 244 298
#     4   9  15  28  47  65  86 113 149 192 241 295
#
# _framework density 17.524357999999999
#
# number of rings (size 3 to 8) (size 9 to 14) (size 15 to 20)
#    0.000    2.500    1.250    1.500    0.000    4.750 
#    0.000    0.000    0.000    1.875    0.000    0.000 
#    0.000    0.500    0.000    1.125    0.000    1.750 
#
# Total GULP energy -793206.834897 kJ/mol
# GULP energy per Si atom -12393.856795 kJ/mol
# Density = 1.748447 g / cm^3
# Si number density = 17.524358 Si / 1000 Ang^3
#
#
#
# Elastic Constant Matrix: (Units=GPa)
#
#
# Indices 1 2 3 4 5 6 
#
# 1 61.9938 29.7076 52.7186 0.0000 0.0000 0.0000
# 2 29.7076 77.3517 39.8751 0.0000 0.0000 0.0000
# 3 52.7186 39.8751 111.6742 0.0000 0.0000 0.0000
# 4 0.0000 0.0000 0.0000 18.6601 0.0000 0.0000
# 5 0.0000 0.0000 0.0000 0.0000 27.9145 0.0000
# 6 0.0000 0.0000 0.0000 0.0000 0.0000 14.2670
#
#
#
# Elastic Compliance Matrix: (Units=1/GPa)
#
#
# Indices 1 2 3 4 5 6 
#
# 1 0.028385 -0.004895 -0.011652 0.000000 0.000000 0.000000
# 2 -0.004895 0.016689 -0.003648 0.000000 0.000000 0.000000
# 3 -0.011652 -0.003648 0.015758 0.000000 0.000000 0.000000
# 4 0.000000 0.000000 0.000000 0.053590 0.000000 0.000000
# 5 0.000000 0.000000 0.000000 0.000000 0.035824 0.000000
# 6 0.000000 0.000000 0.000000 0.000000 0.000000 0.070092
#
#
# Mechanical properties :
#
#
# Convention : Reuss Voigt Hill
#
# Bulk Modulus (GPa) = 48.92063 55.06914 51.99489
# Shear Modulus (GPa) = 18.68873 20.74955 19.71914
#
# Velocity S-wave (km/s) = 3.26919 3.44472 3.35810
# Velocity P-wave (km/s) = 6.49819 6.87852 6.69106
#
# Compressibility (1/GPa) = 0.02044127
#
# Stress axis : x y z
#
# Youngs Moduli (GPa) = 35.22991 59.92139 63.46025
#
# Poissons Ratio (x) = 0.29331 0.73944
# Poissons Ratio (y) = 0.17244 0.23151
# Poissons Ratio (z) = 0.41050 0.21860
#
# Static dielectric constant tensor:
#      x y z
#    x 3.100110 0.000000 0.000000 
#    y 0.000000 3.138460 0.000000 
#    z 0.000000 0.000000 3.425640 
# 
# 
# High freq. dielectric constant tensor:
#      x y z
#    x 1.661690 0.000000 0.000000 
#    y 0.000000 1.641100 0.000000 
#    z 0.000000 0.000000 1.681130 
# 
# From -- ./inp_files/32608.got.cif
#   From: 2010.03.12/outbox.cif.g09.slc.cpg/sg51_17_cif.got.tgz:32608.got - 2010.04.16 13:43:02.
