data_PCOD8209444
_publ_section_title
;
Structure prediction by ZEFSAII (Michael W. Deem and Ramdas Pophale) SiO2 
 PCOD8209444
Probable space group: P M M A
;
_chemical_formula_sum "Si O2"
_cell_formula_units_Z 48
_cell_length_a 25.386371
_cell_length_b 8.964511
_cell_length_c 11.731692
_cell_angle_alpha 90.000000
_cell_angle_beta 90.000000
_cell_angle_gamma 90.000000
_cell_volume 2669.856256
_symmetry_space_group_name_H-M "P M M A"
_symmetry_group_IT_number 51
_symmetry_cell_setting 'orthorhombic'
loop_
_space_group_symop_operation_xyz
x,y,z
1/2-x,-y,z
1/2+x,-y,-z
-x,y,-z
-x,-y,-z
1/2+x,y,-z
1/2-x,y,z
x,-y,z
loop_
_atom_site_type_symbol
_atom_site_label
_atom_site_fract_x
_atom_site_fract_y
_atom_site_fract_z
Si Si1 0.191918 0.177619 0.378857
Si Si2 0.688882 0.171163 0.363418
Si Si3 0.904975 0.176419 0.763618
Si Si4 0.400887 0.675871 0.763006
Si Si5 0.060893 0.825040 0.989183
Si Si6 0.006940 0.172811 0.633078
O O1 0.250000 0.238490 0.344175
O O2 0.178035 0.226969 0.507544
O O3 0.148325 0.243943 0.292024
O O4 0.192895 0.000000 0.374491
O O5 0.750000 0.188153 0.332606
O O6 0.656891 0.272644 0.275596
O O7 0.670595 0.000000 0.350198
O O8 0.908425 0.221120 0.895791
O O9 0.955873 0.238775 0.697205
O O10 0.904459 0.000000 0.748285
O O11 0.403700 0.500000 0.765851
O O12 0.442454 0.736836 0.672184
O O13 0.411852 0.735955 0.888705
O O14 0.065560 0.000000 0.963745
O O15 0.000000 0.778576 0.000000
O O16 0.000000 0.196296 0.500000
O O17 0.015677 0.000000 0.664980
#
# Coordination Sequence:
#
# PCOD8209444 Si02
#       6
#     8   8   8   8   8   8
#     4   8  14  27  51  83 110 128 159 215 276 324
#     4   9  18  35  59  82 105 137 178 221 265 321
#     4   9  16  28  49  76 102 134 173 219 269 311
#     4  12  24  35  51  77 112 145 177 220 274 334
#     4  10  19  35  55  73 102 144 191 231 260 309
#     4  10  19  33  55  79 104 136 177 223 270 322
#
# _framework density 17.978494999999999
#
# number of rings (size 3 to 8) (size 9 to 14) (size 15 to 20)
#    0.000    2.333    1.667    3.500    0.000    3.667 
#    0.000    0.833    0.000    4.000    0.000    0.000 
#    0.000    0.000    0.000    0.000    0.000    0.000 
#
# Total GULP energy -595190.622809 kJ/mol
# GULP energy per Si atom -12399.804642 kJ/mol
# Density = 1.793758 g / cm^3
# Si number density = 17.978495 Si / 1000 Ang^3
#
#
#
# Elastic Constant Matrix: (Units=GPa)
#
#
# Indices 1 2 3 4 5 6 
#
# 1 119.1622 40.6349 71.9133 0.0000 0.0000 0.0000
# 2 40.6349 56.9785 50.3459 0.0000 0.0000 0.0000
# 3 71.9133 50.3459 121.1467 0.0000 0.0000 0.0000
# 4 0.0000 0.0000 0.0000 4.0988 0.0000 0.0000
# 5 0.0000 0.0000 0.0000 0.0000 32.4699 0.0000
# 6 0.0000 0.0000 0.0000 0.0000 0.0000 9.2326
#
#
#
# Elastic Compliance Matrix: (Units=1/GPa)
#
#
# Indices 1 2 3 4 5 6 
#
# 1 0.013648 -0.004069 -0.006411 0.000000 0.000000 0.000000
# 2 -0.004069 0.028948 -0.009615 0.000000 0.000000 0.000000
# 3 -0.006411 -0.009615 0.016056 0.000000 0.000000 0.000000
# 4 0.000000 0.000000 0.000000 0.243975 0.000000 0.000000
# 5 0.000000 0.000000 0.000000 0.000000 0.030798 0.000000
# 6 0.000000 0.000000 0.000000 0.000000 0.000000 0.108311
#
#
# Mechanical properties :
#
#
# Convention : Reuss Voigt Hill
#
# Bulk Modulus (GPa) = 54.16279 69.23062 61.69670
# Shear Modulus (GPa) = 10.24424 18.11982 14.18203
#
# Velocity S-wave (km/s) = 2.38965 3.17813 2.81166
# Velocity P-wave (km/s) = 6.14864 7.21515 6.70314
#
# Compressibility (1/GPa) = 0.01846286
#
# Stress axis : x y z
#
# Youngs Moduli (GPa) = 73.26942 34.54488 62.28376
#
# Poissons Ratio (x) = 0.14056 0.39928
# Poissons Ratio (y) = 0.29813 0.59884
# Poissons Ratio (z) = 0.46971 0.33214
#
# Static dielectric constant tensor:
#      x y z
#    x 3.575110 0.000000 0.000000 
#    y 0.000000 2.898400 0.000000 
#    z 0.000000 0.000000 3.398430 
# 
# 
# High freq. dielectric constant tensor:
#      x y z
#    x 1.703340 0.000000 0.000000 
#    y 0.000000 1.648250 0.000000 
#    z 0.000000 0.000000 1.700950 
# 
# From -- ./inp_files/18570.got.cif
#   From: 2010.03.12/outbox.cif.g09.slc.cpg/sg51_10_cif.got.tgz:18570.got - 2010.04.16 13:43:02.
