data_PCOD8209026
_publ_section_title
;
Structure prediction by ZEFSAII (Michael W. Deem and Ramdas Pophale) SiO2 
 PCOD8209026
Probable space group: P M M A
;
_chemical_formula_sum "Si O2"
_cell_formula_units_Z 64
_cell_length_a 23.622224
_cell_length_b 8.869995
_cell_length_c 15.648357
_cell_angle_alpha 90.000000
_cell_angle_beta 90.000000
_cell_angle_gamma 90.000000
_cell_volume 3278.784731
_symmetry_space_group_name_H-M "P M M A"
_symmetry_group_IT_number 51
_symmetry_cell_setting 'orthorhombic'
loop_
_space_group_symop_operation_xyz
x,y,z
1/2-x,-y,z
1/2+x,-y,-z
-x,y,-z
-x,-y,-z
1/2+x,y,-z
1/2-x,y,z
x,-y,z
loop_
_atom_site_type_symbol
_atom_site_label
_atom_site_fract_x
_atom_site_fract_y
_atom_site_fract_z
Si Si1 0.388784 0.175530 0.376790
Si Si2 0.314142 0.320541 0.042047
Si Si3 0.130963 0.673764 0.868359
Si Si4 0.877343 0.677816 0.453556
Si Si5 0.887638 0.676956 0.800984
Si Si6 0.683728 0.174124 0.295775
Si Si7 0.979834 0.173998 0.374730
Si Si8 0.515556 0.328483 0.203537
O O1 0.356226 0.254913 0.455458
O O2 0.368901 0.243688 0.286666
O O3 0.454892 0.209611 0.390236
O O4 0.374523 0.000000 0.376695
O O5 0.250000 0.259885 0.045475
O O6 0.316006 0.500000 0.042489
O O7 0.347987 0.258075 0.123998
O O8 0.344204 0.259535 0.956304
O O9 0.149156 0.500000 0.856573
O O10 0.155467 0.766598 0.790122
O O11 0.062169 0.688245 0.871546
O O12 0.873338 0.500000 0.457441
O O13 0.837718 0.736728 0.378195
O O14 0.942176 0.729211 0.439466
O O15 0.878817 0.500000 0.788533
O O16 0.952573 0.715269 0.827654
O O17 0.750000 0.200171 0.287373
O O18 0.667652 0.000000 0.307892
O O19 0.963608 0.218407 0.278412
O O20 0.965367 0.000000 0.390629
O O21 0.515129 0.500000 0.238962
#
# Coordination Sequence:
#
# PCOD8209026 Si02
#       8
#     8   8   8   8   8   8   8   8
#     4  10  21  36  55  80 111 147 186 228 280 335
#     4   9  18  33  55  82 110 144 188 235 280 329
#     4  10  19  33  56  84 112 144 183 228 281 339
#     4  12  23  35  55  82 111 146 187 229 274 328
#     4   9  18  34  54  78 111 147 188 237 284 334
#     4  11  24  40  57  79 111 150 189 231 279 333
#     4  10  19  32  52  79 113 150 183 221 272 330
#     4   9  17  29  49  80 113 146 183 226 281 337
#
# _framework density 19.519427
#
# number of rings (size 3 to 8) (size 9 to 14) (size 15 to 20)
#    0.000    2.000    1.250    3.000    0.000    5.000 
#    0.000    3.750    0.000    3.375    0.000    4.375 
#    0.000    0.000    0.000    0.000    0.000    0.000 
#
# Total GULP energy -793586.500667 kJ/mol
# GULP energy per Si atom -12399.789073 kJ/mol
# Density = 1.947500 g / cm^3
# Si number density = 19.519427 Si / 1000 Ang^3
#
#
#
# Elastic Constant Matrix: (Units=GPa)
#
#
# Indices 1 2 3 4 5 6 
#
# 1 65.3938 25.3193 80.7192 0.0000 0.0000 0.0000
# 2 25.3193 79.2793 52.1790 0.0000 0.0000 0.0000
# 3 80.7192 52.1790 162.3762 0.0000 0.0000 0.0000
# 4 0.0000 0.0000 0.0000 5.8014 0.0000 0.0000
# 5 0.0000 0.0000 0.0000 0.0000 17.9132 0.0000
# 6 0.0000 0.0000 0.0000 0.0000 0.0000 19.7134
#
#
#
# Elastic Compliance Matrix: (Units=1/GPa)
#
#
# Indices 1 2 3 4 5 6 
#
# 1 0.039587 0.000392 -0.019805 0.000000 0.000000 0.000000
# 2 0.000392 0.016001 -0.005337 0.000000 0.000000 0.000000
# 3 -0.019805 -0.005337 0.017719 0.000000 0.000000 0.000000
# 4 0.000000 0.000000 0.000000 0.172372 0.000000 0.000000
# 5 0.000000 0.000000 0.000000 0.000000 0.055825 0.000000
# 6 0.000000 0.000000 0.000000 0.000000 0.000000 0.050727
#
#
# Mechanical properties :
#
#
# Convention : Reuss Voigt Hill
#
# Bulk Modulus (GPa) = 42.00421 69.27600 55.64011
# Shear Modulus (GPa) = 12.20512 18.60772 15.40642
#
# Velocity S-wave (km/s) = 2.50327 3.09089 2.81247
# Velocity P-wave (km/s) = 5.47002 6.95025 6.25408
#
# Compressibility (1/GPa) = 0.02380713
#
# Stress axis : x y z
#
# Youngs Moduli (GPa) = 25.26114 62.49657 56.43716
#
# Poissons Ratio (x) = -0.02452 1.11774
# Poissons Ratio (y) = -0.00991 0.30120
# Poissons Ratio (z) = 0.50030 0.33353
#
# Static dielectric constant tensor:
#      x y z
#    x 3.598890 0.000000 0.000000 
#    y 0.000000 3.414540 0.000000 
#    z 0.000000 0.000000 3.658010 
# 
# 
# High freq. dielectric constant tensor:
#      x y z
#    x 1.750560 0.000000 0.000000 
#    y 0.000000 1.746020 0.000000 
#    z 0.000000 0.000000 1.762320 
# 
# From -- ./inp_files/26219.got.cif
#   From: 2010.03.12/outbox.cif.g09.slc.cpg/sg51_14_cif.got.tgz:26219.got - 2010.04.16 13:43:02.
