data_PCOD8209963
_publ_section_title
;
Structure prediction by ZEFSAII (Michael W. Deem and Ramdas Pophale) SiO2 
 PCOD8209963
Probable space group: P M M A
;
_chemical_formula_sum "Si O2"
_cell_formula_units_Z 64
_cell_length_a 9.039288
_cell_length_b 25.005640
_cell_length_c 14.389671
_cell_angle_alpha 90.000000
_cell_angle_beta 90.000000
_cell_angle_gamma 90.000000
_cell_volume 3252.543118
_symmetry_space_group_name_H-M "P M M A"
_symmetry_group_IT_number 51
_symmetry_cell_setting 'orthorhombic'
loop_
_space_group_symop_operation_xyz
x,y,z
1/2-x,-y,z
1/2+x,-y,-z
-x,y,-z
-x,-y,-z
1/2+x,y,-z
1/2-x,y,z
x,-y,z
loop_
_atom_site_type_symbol
_atom_site_label
_atom_site_fract_x
_atom_site_fract_y
_atom_site_fract_z
Si Si1 0.922493 0.844329 0.597531
Si Si2 0.915697 0.936306 0.089404
Si Si3 0.919527 0.439118 0.722173
Si Si4 0.420596 0.245749 0.709805
Si Si5 0.923415 0.353423 0.402358
Si Si6 0.078716 0.717610 0.909488
Si Si7 0.425488 0.594339 0.905866
Si Si8 0.922125 0.939532 0.726829
O O1 0.750000 0.837315 0.581249
O O2 0.961478 0.902486 0.639330
O O3 0.000000 0.837594 0.500000
O O4 0.974979 0.798726 0.666907
O O5 0.750000 0.913541 0.088433
O O6 0.993260 0.916746 0.183508
O O7 0.917481 0.000000 0.085427
O O8 0.000000 0.912570 0.000000
O O9 0.750000 0.419419 0.733857
O O10 0.923686 0.500000 0.686906
O O11 0.002161 0.404547 0.644604
O O12 0.004246 0.436657 0.819875
O O13 0.250000 0.228978 0.696890
O O14 0.450221 0.302653 0.662964
O O15 0.464706 0.249152 0.818100
O O16 0.750000 0.364763 0.416736
O O17 0.000000 0.341263 0.500000
O O18 0.250000 0.721514 0.929940
O O19 0.032440 0.656356 0.893387
O O20 0.000000 0.742344 0.000000
O O21 0.250000 0.584484 0.908450
O O22 0.500000 0.571981 0.000000
O O23 0.750000 0.937413 0.751598
O O24 0.971916 0.000000 0.702030
#
# Coordination Sequence:
#
# PCOD8209963 Si02
#       8
#     8   8   8   8   8   8   8   8
#     4  11  24  40  60  87 115 149 192 238 294 346
#     4   9  16  27  48  79 112 147 188 232 279 331
#     4  11  24  40  58  84 117 154 197 243 292 346
#     4  10  21  40  63  88 119 151 189 236 285 340
#     4  11  23  41  63  87 113 147 193 241 294 352
#     4   9  18  34  57  88 119 150 187 228 277 336
#     4  10  19  35  58  86 118 154 195 238 287 343
#     4   9  19  37  58  81 114 154 196 240 284 338
#
# _framework density 19.676909999999999
#
# number of rings (size 3 to 8) (size 9 to 14) (size 15 to 20)
#    0.000    2.000    1.250    2.250    0.000    7.250 
#    0.000    0.625    0.000    1.500    0.000    0.000 
#    0.000    0.000    0.000    0.000    0.000    0.000 
#
# Total GULP energy -793784.580458 kJ/mol
# GULP energy per Si atom -12402.884070 kJ/mol
# Density = 1.963212 g / cm^3
# Si number density = 19.676910 Si / 1000 Ang^3
#
#
#
# Elastic Constant Matrix: (Units=GPa)
#
#
# Indices 1 2 3 4 5 6 
#
# 1 101.9040 41.6249 54.9794 0.0000 0.0000 0.0000
# 2 41.6249 71.9241 41.2690 0.0000 0.0000 0.0000
# 3 54.9794 41.2690 128.6335 0.0000 0.0000 0.0000
# 4 0.0000 0.0000 0.0000 21.3527 0.0000 0.0000
# 5 0.0000 0.0000 0.0000 0.0000 40.7589 0.0000
# 6 0.0000 0.0000 0.0000 0.0000 0.0000 23.9849
#
#
#
# Elastic Compliance Matrix: (Units=1/GPa)
#
#
# Indices 1 2 3 4 5 6 
#
# 1 0.014577 -0.005958 -0.004319 0.000000 0.000000 0.000000
# 2 -0.005958 0.019476 -0.003702 0.000000 0.000000 0.000000
# 3 -0.004319 -0.003702 0.010808 0.000000 0.000000 0.000000
# 4 0.000000 0.000000 0.000000 0.046833 0.000000 0.000000
# 5 0.000000 0.000000 0.000000 0.000000 0.024534 0.000000
# 6 0.000000 0.000000 0.000000 0.000000 0.000000 0.041693
#
#
# Mechanical properties :
#
#
# Convention : Reuss Voigt Hill
#
# Bulk Modulus (GPa) = 59.16160 64.24533 61.70347
# Shear Modulus (GPa) = 26.10803 28.19185 27.14994
#
# Velocity S-wave (km/s) = 3.64653 3.78926 3.71858
# Velocity P-wave (km/s) = 6.91819 7.20178 7.06141
#
# Compressibility (1/GPa) = 0.01690286
#
# Stress axis : x y z
#
# Youngs Moduli (GPa) = 68.60130 51.34599 92.52772
#
# Poissons Ratio (x) = 0.30592 0.39961
# Poissons Ratio (y) = 0.40873 0.34252
# Poissons Ratio (z) = 0.29628 0.19007
#
# Static dielectric constant tensor:
#      x y z
#    x 3.680670 0.000000 0.000000 
#    y 0.000000 3.452290 0.000000 
#    z 0.000000 0.000000 3.743210 
# 
# 
# High freq. dielectric constant tensor:
#      x y z
#    x 1.774780 0.000000 0.000000 
#    y 0.000000 1.748980 0.000000 
#    z 0.000000 0.000000 1.776410 
# 
# From -- ./inp_files/22323.got.cif
#   From: 2010.03.12/outbox.cif.g09.slc.cpg/sg51_12_cif.got.tgz:22323.got - 2010.04.16 13:43:02.
