data_PCOD8209887
_publ_section_title
;
Structure prediction by ZEFSAII (Michael W. Deem and Ramdas Pophale) SiO2 
 PCOD8209887
Probable space group: P M M A
;
_chemical_formula_sum "Si O2"
_cell_formula_units_Z 48
_cell_length_a 9.112704
_cell_length_b 14.715559
_cell_length_c 19.636945
_cell_angle_alpha 90.000000
_cell_angle_beta 90.000000
_cell_angle_gamma 90.000000
_cell_volume 2633.285524
_symmetry_space_group_name_H-M "P M M A"
_symmetry_group_IT_number 51
_symmetry_cell_setting 'orthorhombic'
loop_
_space_group_symop_operation_xyz
x,y,z
1/2-x,-y,z
1/2+x,-y,-z
-x,y,-z
-x,-y,-z
1/2+x,y,-z
1/2-x,y,z
x,-y,z
loop_
_atom_site_type_symbol
_atom_site_label
_atom_site_fract_x
_atom_site_fract_y
_atom_site_fract_z
Si Si1 0.919734 0.500000 0.930537
Si Si2 0.586108 0.396954 0.299292
Si Si3 0.420667 0.000000 0.073595
Si Si4 0.919855 0.893367 0.432197
Si Si5 0.081086 0.176131 0.161224
Si Si6 0.919605 0.783408 0.682460
Si Si7 0.587563 0.649183 0.142831
O O1 0.750000 0.500000 0.943290
O O2 0.964240 0.410289 0.891504
O O3 0.000000 0.500000 0.000000
O O4 0.750000 0.383389 0.330347
O O5 0.530035 0.500000 0.315809
O O6 0.475010 0.320649 0.327003
O O7 0.596589 0.383775 0.219362
O O8 0.462859 0.084669 0.121742
O O9 0.250000 0.000000 0.056140
O O10 0.500000 0.000000 0.000000
O O11 0.750000 0.867332 0.437799
O O12 0.000000 0.857667 0.500000
O O13 0.988390 0.846552 0.366837
O O14 0.944295 0.000000 0.423226
O O15 0.250000 0.202720 0.146089
O O16 0.057732 0.172936 0.242780
O O17 0.967303 0.248791 0.132251
O O18 0.750000 0.784356 0.661534
O O19 0.750000 0.639642 0.109555
#
# Coordination Sequence:
#
# PCOD8209887 Si02
#       7
#     4   8   4   8   8   8   8
#     4  12  24  36  52  74 102 136 175 218 271 336
#     4   9  17  32  54  78 109 144 178 221 270 320
#     4  10  22  40  58  76 105 142 185 230 279 334
#     4  10  21  37  57  83 116 153 189 227 274 330
#     4   9  20  37  56  80 108 144 185 229 278 328
#     4  10  20  33  55  85 114 146 186 230 276 326
#     4  10  19  35  55  77 105 135 172 221 274 326
#
# _framework density 18.228179000000001
#
# number of rings (size 3 to 8) (size 9 to 14) (size 15 to 20)
#    0.000    2.167    0.833    2.250    1.167    4.000 
#    0.000    1.667    0.000    0.500    0.000    0.000 
#    0.000    0.000    0.000    0.000    0.000    0.000 
#
# Total GULP energy -594969.551218 kJ/mol
# GULP energy per Si atom -12395.198984 kJ/mol
# Density = 1.818669 g / cm^3
# Si number density = 18.228179 Si / 1000 Ang^3
#
#
#
# Elastic Constant Matrix: (Units=GPa)
#
#
# Indices 1 2 3 4 5 6 
#
# 1 132.4947 65.4390 50.3443 0.0000 0.0000 0.0000
# 2 65.4390 102.7774 52.1309 0.0000 0.0000 0.0000
# 3 50.3443 52.1309 68.5662 0.0000 0.0000 0.0000
# 4 0.0000 0.0000 0.0000 23.7245 0.0000 0.0000
# 5 0.0000 0.0000 0.0000 0.0000 32.4394 0.0000
# 6 0.0000 0.0000 0.0000 0.0000 0.0000 33.9599
#
#
#
# Elastic Compliance Matrix: (Units=1/GPa)
#
#
# Indices 1 2 3 4 5 6 
#
# 1 0.011927 -0.005131 -0.004856 0.000000 0.000000 0.000000
# 2 -0.005131 0.018044 -0.009952 0.000000 0.000000 0.000000
# 3 -0.004856 -0.009952 0.025717 0.000000 0.000000 0.000000
# 4 0.000000 0.000000 0.000000 0.042150 0.000000 0.000000
# 5 0.000000 0.000000 0.000000 0.000000 0.030827 0.000000
# 6 0.000000 0.000000 0.000000 0.000000 0.000000 0.029447
#
#
# Mechanical properties :
#
#
# Convention : Reuss Voigt Hill
#
# Bulk Modulus (GPa) = 63.25156 71.07406 67.16281
# Shear Modulus (GPa) = 24.59913 27.08637 25.84275
#
# Velocity S-wave (km/s) = 3.67755 3.85900 3.76937
# Velocity P-wave (km/s) = 7.26689 7.67670 7.47461
#
# Compressibility (1/GPa) = 0.01580989
#
# Stress axis : x y z
#
# Youngs Moduli (GPa) = 83.84523 55.41915 38.88527
#
# Poissons Ratio (x) = 0.28433 0.18884
# Poissons Ratio (y) = 0.43017 0.38699
# Poissons Ratio (z) = 0.40718 0.55153
#
# Static dielectric constant tensor:
#      x y z
#    x 3.469820 0.000000 0.000000 
#    y 0.000000 3.443840 0.000000 
#    z 0.000000 0.000000 3.128190 
# 
# 
# High freq. dielectric constant tensor:
#      x y z
#    x 1.718360 0.000000 0.000000 
#    y 0.000000 1.711430 0.000000 
#    z 0.000000 0.000000 1.685200 
# 
# From -- ./inp_files/27649.got.cif
#   From: 2010.03.12/outbox.cif.g09.slc.cpg/sg51_14_cif.got.tgz:27649.got - 2010.04.16 13:43:02.
