data_PCOD8209741
_publ_section_title
;
Structure prediction by ZEFSAII (Michael W. Deem and Ramdas Pophale) SiO2 
 PCOD8209741
Probable space group: P M M A
;
_chemical_formula_sum "Si O2"
_cell_formula_units_Z 56
_cell_length_a 22.054379
_cell_length_b 9.036539
_cell_length_c 14.748000
_cell_angle_alpha 90.000000
_cell_angle_beta 90.000000
_cell_angle_gamma 90.000000
_cell_volume 2939.206435
_symmetry_space_group_name_H-M "P M M A"
_symmetry_group_IT_number 51
_symmetry_cell_setting 'orthorhombic'
loop_
_space_group_symop_operation_xyz
x,y,z
1/2-x,-y,z
1/2+x,-y,-z
-x,y,-z
-x,-y,-z
1/2+x,y,-z
1/2-x,y,z
x,-y,z
loop_
_atom_site_type_symbol
_atom_site_label
_atom_site_fract_x
_atom_site_fract_y
_atom_site_fract_z
Si Si1 0.181189 0.828190 0.366243
Si Si2 0.058913 0.665959 0.046674
Si Si3 0.750000 0.670789 0.349943
Si Si4 0.631447 0.665671 0.131881
Si Si5 0.750000 0.826986 0.164517
Si Si6 0.418737 0.174844 0.230796
Si Si7 0.356749 0.169163 0.564028
Si Si8 0.947995 0.171037 0.281402
O O1 0.250000 0.757536 0.370858
O O2 0.139459 0.760253 0.285771
O O3 0.140045 0.805226 0.456283
O O4 0.190383 0.000000 0.348291
O O5 0.042631 0.500000 0.081182
O O6 0.082747 0.760518 0.130254
O O7 0.108958 0.660657 0.970078
O O8 0.000000 0.740171 0.000000
O O9 0.750000 0.500000 0.319925
O O10 0.750000 0.784841 0.268660
O O11 0.809623 0.706872 0.405854
O O12 0.646106 0.500000 0.166882
O O13 0.690918 0.761504 0.118840
O O14 0.585501 0.735532 0.204170
O O15 0.750000 0.000000 0.151448
O O16 0.481374 0.217916 0.282335
O O17 0.413317 0.000000 0.223177
O O18 0.419760 0.198745 0.617968
O O19 0.334685 0.000000 0.583575
O O20 0.940549 0.000000 0.253975
#
# Coordination Sequence:
#
# PCOD8209741 Si02
#       8
#     8   8   4   8   4   8   8   8
#     4   9  18  35  59  83 112 153 198 240 284 336
#     4  10  21  39  61  83 109 150 194 234 290 355
#     4  12  22  32  52  83 116 151 192 231 274 334
#     4  11  22  37  58  83 115 152 192 238 289 349
#     4  12  24  38  56  83 120 153 188 233 292 352
#     4  10  21  36  57  86 116 147 193 249 292 340
#     4  10  19  34  57  81 111 153 193 233 285 341
#     4  10  20  32  53  87 119 148 187 238 293 346
#
# _framework density 19.052759999999999
#
# number of rings (size 3 to 8) (size 9 to 14) (size 15 to 20)
#    0.000    1.714    3.571    1.714    0.000    2.000 
#    1.286    3.571    0.000    0.000    0.000    3.000 
#    0.000    0.000    0.000    0.000    0.000    0.000 
#
# Total GULP energy -694026.145360 kJ/mol
# GULP energy per Si atom -12393.324024 kJ/mol
# Density = 1.900940 g / cm^3
# Si number density = 19.052760 Si / 1000 Ang^3
#
#
#
# Elastic Constant Matrix: (Units=GPa)
#
#
# Indices 1 2 3 4 5 6 
#
# 1 121.6552 43.1570 64.7844 0.0000 0.0000 0.0000
# 2 43.1570 68.7342 27.1901 0.0000 0.0000 0.0000
# 3 64.7844 27.1901 121.6554 0.0000 0.0000 0.0000
# 4 0.0000 0.0000 0.0000 0.6157 0.0000 0.0000
# 5 0.0000 0.0000 0.0000 0.0000 24.9163 0.0000
# 6 0.0000 0.0000 0.0000 0.0000 0.0000 21.3001
#
#
#
# Elastic Compliance Matrix: (Units=1/GPa)
#
#
# Indices 1 2 3 4 5 6 
#
# 1 0.013508 -0.006182 -0.005812 0.000000 0.000000 0.000000
# 2 -0.006182 0.018790 -0.000907 0.000000 0.000000 0.000000
# 3 -0.005812 -0.000907 0.011517 0.000000 0.000000 0.000000
# 4 0.000000 0.000000 0.000000 1.624051 0.000000 0.000000
# 5 0.000000 0.000000 0.000000 0.000000 0.040134 0.000000
# 6 0.000000 0.000000 0.000000 0.000000 0.000000 0.046948
#
#
# Mechanical properties :
#
#
# Convention : Reuss Voigt Hill
#
# Bulk Modulus (GPa) = 55.51661 64.70088 60.10874
# Shear Modulus (GPa) = 2.79837 21.16066 11.97951
#
# Velocity S-wave (km/s) = 1.21323 3.33623 2.51022
# Velocity P-wave (km/s) = 5.58249 6.99093 6.32603
#
# Compressibility (1/GPa) = 0.01801263
#
# Stress axis : x y z
#
# Youngs Moduli (GPa) = 74.03052 53.22118 86.82464
#
# Poissons Ratio (x) = 0.32904 0.50458
# Poissons Ratio (y) = 0.45769 0.07877
# Poissons Ratio (z) = 0.43023 0.04828
#
# Static dielectric constant tensor:
#      x y z
#    x 3.858080 0.000000 0.000000 
#    y 0.000000 3.402580 0.000000 
#    z 0.000000 0.000000 3.461070 
# 
# 
# High freq. dielectric constant tensor:
#      x y z
#    x 1.744260 0.000000 0.000000 
#    y 0.000000 1.720880 0.000000 
#    z 0.000000 0.000000 1.737300 
# 
# From -- ./inp_files/25847.got.cif
#   From: 2010.03.12/outbox.cif.g09.slc.cpg/sg51_13_cif.got.tgz:25847.got - 2010.04.16 13:43:02.
