data_PCOD8209990
_publ_section_title
;
Structure prediction by ZEFSAII (Michael W. Deem and Ramdas Pophale) SiO2 
 PCOD8209990
Probable space group: P M M A
;
_chemical_formula_sum "Si O2"
_cell_formula_units_Z 64
_cell_length_a 30.683820
_cell_length_b 8.983137
_cell_length_c 11.984275
_cell_angle_alpha 90.000000
_cell_angle_beta 90.000000
_cell_angle_gamma 90.000000
_cell_volume 3303.309114
_symmetry_space_group_name_H-M "P M M A"
_symmetry_group_IT_number 51
_symmetry_cell_setting 'orthorhombic'
loop_
_space_group_symop_operation_xyz
x,y,z
1/2-x,-y,z
1/2+x,-y,-z
-x,y,-z
-x,-y,-z
1/2+x,y,-z
1/2-x,y,z
x,-y,z
loop_
_atom_site_type_symbol
_atom_site_label
_atom_site_fract_x
_atom_site_fract_y
_atom_site_fract_z
Si Si1 0.700730 0.673457 0.503650
Si Si2 0.330396 0.669377 0.253398
Si Si3 0.419082 0.825064 0.246221
Si Si4 0.048365 0.176835 0.484849
Si Si5 0.873903 0.823724 0.362437
Si Si6 0.950470 0.670739 0.965627
Si Si7 0.701408 0.669383 0.985836
Si Si8 0.876674 0.824042 0.107212
O O1 0.750000 0.717432 0.470991
O O2 0.692357 0.500000 0.484386
O O3 0.694006 0.715805 0.633381
O O4 0.668373 0.762208 0.424419
O O5 0.348112 0.500000 0.262434
O O6 0.369147 0.783080 0.229451
O O7 0.298395 0.686010 0.148318
O O8 0.434202 0.767485 0.366419
O O9 0.448301 0.743204 0.155615
O O10 0.425255 0.000000 0.231660
O O11 0.081680 0.236064 0.579388
O O12 0.000000 0.244602 0.500000
O O13 0.046302 0.000000 0.489892
O O14 0.874040 0.769539 0.234962
O O15 0.871539 0.000000 0.371455
O O16 0.935471 0.500000 0.959633
O O17 0.919189 0.752516 0.052639
O O18 0.000000 0.688549 0.000000
O O19 0.750000 0.710911 0.027323
O O20 0.689691 0.500000 0.019145
O O21 0.667235 0.777623 0.044315
O O22 0.881749 0.000000 0.098859
#
# Coordination Sequence:
#
# PCOD8209990 Si02
#       8
#     8   8   8   8   8   8   8   8
#     4  10  21  37  59  87 118 155 199 242 287 347
#     4  10  19  35  59  86 121 154 190 240 296 348
#     4  11  21  35  63  93 119 151 194 242 292 348
#     4   9  19  36  59  86 117 152 189 233 287 344
#     4  10  22  40  59  83 117 154 195 243 294 345
#     4  11  25  43  62  86 121 159 195 240 296 356
#     4  10  21  38  61  86 116 158 199 238 294 357
#     4  11  24  40  61  87 118 155 199 250 298 348
#
# _framework density 19.374510999999998
#
# number of rings (size 3 to 8) (size 9 to 14) (size 15 to 20)
#    0.000    1.750    2.500    1.500    1.750    4.500 
#    0.000    2.500    0.000    4.125    0.000    0.000 
#    0.000    0.000    0.000    0.000    0.000    0.000 
#
# Total GULP energy -793706.522179 kJ/mol
# GULP energy per Si atom -12401.664409 kJ/mol
# Density = 1.933041 g / cm^3
# Si number density = 19.374511 Si / 1000 Ang^3
#
#
#
# Elastic Constant Matrix: (Units=GPa)
#
#
# Indices 1 2 3 4 5 6 
#
# 1 108.8529 36.3037 46.3693 0.0000 0.0000 0.0000
# 2 36.3037 62.0034 43.4846 0.0000 0.0000 0.0000
# 3 46.3693 43.4846 138.6828 0.0000 0.0000 0.0000
# 4 0.0000 0.0000 0.0000 26.9082 0.0000 0.0000
# 5 0.0000 0.0000 0.0000 0.0000 20.6617 0.0000
# 6 0.0000 0.0000 0.0000 0.0000 0.0000 22.8685
#
#
#
# Elastic Compliance Matrix: (Units=1/GPa)
#
#
# Indices 1 2 3 4 5 6 
#
# 1 0.011968 -0.005385 -0.002313 0.000000 0.000000 0.000000
# 2 -0.005385 0.023098 -0.005442 0.000000 0.000000 0.000000
# 3 -0.002313 -0.005442 0.009690 0.000000 0.000000 0.000000
# 4 0.000000 0.000000 0.000000 0.037163 0.000000 0.000000
# 5 0.000000 0.000000 0.000000 0.000000 0.048399 0.000000
# 6 0.000000 0.000000 0.000000 0.000000 0.000000 0.043728
#
#
# Mechanical properties :
#
#
# Convention : Reuss Voigt Hill
#
# Bulk Modulus (GPa) = 54.12421 62.42825 58.27623
# Shear Modulus (GPa) = 24.21478 26.31311 25.26395
#
# Velocity S-wave (km/s) = 3.53912 3.68928 3.61498
# Velocity P-wave (km/s) = 6.68558 7.10208 6.89697
#
# Compressibility (1/GPa) = 0.01847602
#
# Stress axis : x y z
#
# Youngs Moduli (GPa) = 83.55578 43.29423 103.19513
#
# Poissons Ratio (x) = 0.23315 0.23869
# Poissons Ratio (y) = 0.44997 0.56157
# Poissons Ratio (z) = 0.19327 0.23560
#
# Static dielectric constant tensor:
#      x y z
#    x 3.641960 0.000000 0.000000 
#    y 0.000000 3.398970 0.000000 
#    z 0.000000 0.000000 3.794530 
# 
# 
# High freq. dielectric constant tensor:
#      x y z
#    x 1.763050 0.000000 0.000000 
#    y 0.000000 1.739310 0.000000 
#    z 0.000000 0.000000 1.764040 
# 
# From -- ./inp_files/19509.got.cif
#   From: 2010.03.12/outbox.cif.g09.slc.cpg/sg51_10_cif.got.tgz:19509.got - 2010.04.16 13:43:02.
