data_PCOD8209208
_publ_section_title
;
Structure prediction by ZEFSAII (Michael W. Deem and Ramdas Pophale) SiO2 
 PCOD8209208
Probable space group: P M M A
;
_chemical_formula_sum "Si O2"
_cell_formula_units_Z 52
_cell_length_a 8.949042
_cell_length_b 15.667605
_cell_length_c 21.769592
_cell_angle_alpha 90.000000
_cell_angle_beta 90.000000
_cell_angle_gamma 90.000000
_cell_volume 3052.315696
_symmetry_space_group_name_H-M "P M M A"
_symmetry_group_IT_number 51
_symmetry_cell_setting 'orthorhombic'
loop_
_space_group_symop_operation_xyz
x,y,z
1/2-x,-y,z
1/2+x,-y,-z
-x,y,-z
-x,-y,-z
1/2+x,y,-z
1/2-x,y,z
x,-y,z
loop_
_atom_site_type_symbol
_atom_site_label
_atom_site_fract_x
_atom_site_fract_y
_atom_site_fract_z
Si Si1 0.071623 0.500000 0.716398
Si Si2 0.585311 0.903799 0.217737
Si Si3 0.920962 0.346286 0.936047
Si Si4 0.076304 0.244781 0.172440
Si Si5 0.070916 0.678040 0.300830
Si Si6 0.928379 0.000000 0.433758
Si Si7 0.081010 0.500000 0.154886
Si Si8 0.921877 0.157979 0.351734
O O1 0.250000 0.500000 0.707599
O O2 0.002156 0.585452 0.684324
O O3 0.032134 0.500000 0.788463
O O4 0.750000 0.868388 0.200993
O O5 0.460536 0.853961 0.179916
O O6 0.558436 0.895087 0.289678
O O7 0.568236 0.000000 0.196957
O O8 0.750000 0.333378 0.953767
O O9 0.988438 0.269214 0.894880
O O10 0.948197 0.421922 0.889126
O O11 0.000000 0.360758 0.000000
O O12 0.250000 0.263057 0.170463
O O13 0.015186 0.297418 0.231645
O O14 0.250000 0.672222 0.305972
O O15 0.014503 0.752469 0.348023
O O16 0.981943 0.910853 0.401719
O O17 0.000000 0.000000 0.500000
O O18 0.750000 0.000000 0.435918
O O19 0.250000 0.500000 0.181873
O O20 0.750000 0.182818 0.364527
#
# Coordination Sequence:
#
# PCOD8209208 Si02
#       8
#     4   8   8   8   8   4   4   8
#     4  12  22  31  49  76 102 133 172 211 256 313
#     4   9  16  28  48  71  95 123 156 196 246 297
#     4  10  20  33  48  64  88 121 157 199 248 301
#     4   9  18  31  46  66  92 122 154 196 251 300
#     4  10  19  33  51  71 101 136 169 212 262 308
#     4  10  20  34  54  80 118 156 183 216 251 290
#     4  10  19  35  49  62  94 127 155 199 248 299
#     4   9  17  32  50  74 107 141 175 212 252 294
#
# _framework density 17.036245999999998
#
# number of rings (size 3 to 8) (size 9 to 14) (size 15 to 20)
#    0.000    2.308    2.308    1.385    0.000    2.769 
#    0.000    0.000    0.000    0.462    0.000    0.538 
#    0.000    0.000    0.000    0.000    0.000    0.000 
#
# Total GULP energy -644183.060590 kJ/mol
# GULP energy per Si atom -12388.135781 kJ/mol
# Density = 1.699747 g / cm^3
# Si number density = 17.036246 Si / 1000 Ang^3
#
#
#
# Elastic Constant Matrix: (Units=GPa)
#
#
# Indices 1 2 3 4 5 6 
#
# 1 60.1539 45.7281 28.7162 0.0000 0.0000 0.0000
# 2 45.7281 112.8741 37.8983 0.0000 0.0000 0.0000
# 3 28.7162 37.8983 53.9009 0.0000 0.0000 0.0000
# 4 0.0000 0.0000 0.0000 29.4879 0.0000 0.0000
# 5 0.0000 0.0000 0.0000 0.0000 20.3257 0.0000
# 6 0.0000 0.0000 0.0000 0.0000 0.0000 28.4868
#
#
#
# Elastic Compliance Matrix: (Units=1/GPa)
#
#
# Indices 1 2 3 4 5 6 
#
# 1 0.026816 -0.007942 -0.008702 0.000000 0.000000 0.000000
# 2 -0.007942 0.013949 -0.005577 0.000000 0.000000 0.000000
# 3 -0.008702 -0.005577 0.027110 0.000000 0.000000 0.000000
# 4 0.000000 0.000000 0.000000 0.033912 0.000000 0.000000
# 5 0.000000 0.000000 0.000000 0.000000 0.049199 0.000000
# 6 0.000000 0.000000 0.000000 0.000000 0.000000 0.035104
#
#
# Mechanical properties :
#
#
# Convention : Reuss Voigt Hill
#
# Bulk Modulus (GPa) = 42.67493 50.17934 46.42714
# Shear Modulus (GPa) = 20.97823 23.29919 22.13871
#
# Velocity S-wave (km/s) = 3.51292 3.70215 3.60878
# Velocity P-wave (km/s) = 6.44655 6.91325 6.68397
#
# Compressibility (1/GPa) = 0.02343296
#
# Stress axis : x y z
#
# Youngs Moduli (GPa) = 37.29186 71.68803 36.88694
#
# Poissons Ratio (x) = 0.56933 0.32100
# Poissons Ratio (y) = 0.29616 0.20571
# Poissons Ratio (z) = 0.32452 0.39979
#
# Static dielectric constant tensor:
#      x y z
#    x 3.156150 0.000000 0.000000 
#    y 0.000000 3.348980 0.000000 
#    z 0.000000 0.000000 3.000450 
# 
# 
# High freq. dielectric constant tensor:
#      x y z
#    x 1.649830 0.000000 0.000000 
#    y 0.000000 1.666900 0.000000 
#    z 0.000000 0.000000 1.619070 
# 
# From -- ./inp_files/31812.got.cif
#   From: 2010.03.12/outbox.cif.g09.slc.cpg/sg51_16_cif.got.tgz:31812.got - 2010.04.16 13:43:02.
