data_PCOD8209529
_publ_section_title
;
Structure prediction by ZEFSAII (Michael W. Deem and Ramdas Pophale) SiO2 
 PCOD8209529
Probable space group: P M M A
;
_chemical_formula_sum "Si O2"
_cell_formula_units_Z 52
_cell_length_a 21.297957
_cell_length_b 24.827171
_cell_length_c 5.115594
_cell_angle_alpha 90.000000
_cell_angle_beta 90.000000
_cell_angle_gamma 90.000000
_cell_volume 2704.962512
_symmetry_space_group_name_H-M "P M M A"
_symmetry_group_IT_number 51
_symmetry_cell_setting 'orthorhombic'
loop_
_space_group_symop_operation_xyz
x,y,z
1/2-x,-y,z
1/2+x,-y,-z
-x,y,-z
-x,-y,-z
1/2+x,y,-z
1/2-x,y,z
x,-y,z
loop_
_atom_site_type_symbol
_atom_site_label
_atom_site_fract_x
_atom_site_fract_y
_atom_site_fract_z
Si Si1 0.177296 0.940693 0.499775
Si Si2 0.680404 0.439935 0.929771
Si Si3 0.926666 0.218323 0.011769
Si Si4 0.428819 0.286633 0.490776
Si Si5 0.125101 0.598893 0.595850
Si Si6 0.542067 0.500000 0.252585
Si Si7 0.824191 0.126807 0.010538
O O1 0.250000 0.948014 0.558850
O O2 0.151808 0.900431 0.721429
O O3 0.145098 0.000000 0.514970
O O4 0.165723 0.916772 0.214955
O O5 0.750000 0.441309 0.813310
O O6 0.657224 0.500000 0.007454
O O7 0.637071 0.419655 0.697120
O O8 0.681521 0.403117 0.191746
O O9 0.913651 0.239915 0.301808
O O10 0.873425 0.174205 0.953399
O O11 0.913947 0.265172 0.799439
O O12 0.000000 0.197634 0.000000
O O13 0.500000 0.305159 0.500000
O O14 0.391470 0.339034 0.573680
O O15 0.077965 0.557438 0.738516
O O16 0.500000 0.500000 0.500000
O O17 0.500000 0.500000 0.000000
O O18 0.750000 0.145759 0.020560
#
# Coordination Sequence:
#
# PCOD8209529 Si02
#       7
#     8   8   8   8   8   4   8
#     4   9  17  30  52  84 119 152 187 226 280 343
#     4  11  22  39  59  80 108 145 182 213 262 343
#     4  10  21  39  59  80 107 153 199 233 281 343
#     4  10  22  39  59  79 107 145 185 230 282 344
#     4  12  22  40  59  84 110 141 178 229 283 336
#     4  12  24  36  55  86 113 134 166 218 286 344
#     4  10  19  33  56  84 113 148 189 240 284 319
#
# _framework density 19.223927
#
# number of rings (size 3 to 8) (size 9 to 14) (size 15 to 20)
#    0.000    1.538    1.538    4.154    0.000    4.923 
#    0.000    4.615    0.000    2.769    0.000    0.000 
#    0.000    0.000    0.000    0.000    0.000    0.000 
#
# Total GULP energy -644363.849024 kJ/mol
# GULP energy per Si atom -12391.612481 kJ/mol
# Density = 1.918017 g / cm^3
# Si number density = 19.223927 Si / 1000 Ang^3
#
#
#
# Elastic Constant Matrix: (Units=GPa)
#
#
# Indices 1 2 3 4 5 6 
#
# 1 62.6901 50.2307 17.9778 0.0000 0.0000 0.0000
# 2 50.2307 94.3085 17.4174 0.0000 0.0000 0.0000
# 3 17.9778 17.4174 108.5695 0.0000 0.0000 0.0000
# 4 0.0000 0.0000 0.0000 19.8777 0.0000 0.0000
# 5 0.0000 0.0000 0.0000 0.0000 23.9752 0.0000
# 6 0.0000 0.0000 0.0000 0.0000 0.0000 16.8965
#
#
#
# Elastic Compliance Matrix: (Units=1/GPa)
#
#
# Indices 1 2 3 4 5 6 
#
# 1 0.028395 -0.014691 -0.002345 0.000000 0.000000 0.000000
# 2 -0.014691 0.018528 -0.000540 0.000000 0.000000 0.000000
# 3 -0.002345 -0.000540 0.009686 0.000000 0.000000 0.000000
# 4 0.000000 0.000000 0.000000 0.050308 0.000000 0.000000
# 5 0.000000 0.000000 0.000000 0.000000 0.041710 0.000000
# 6 0.000000 0.000000 0.000000 0.000000 0.000000 0.059184
#
#
# Mechanical properties :
#
#
# Convention : Reuss Voigt Hill
#
# Bulk Modulus (GPa) = 46.60418 48.53556 47.56987
# Shear Modulus (GPa) = 19.99098 24.14603 22.06850
#
# Velocity S-wave (km/s) = 3.22825 3.54791 3.39185
# Velocity P-wave (km/s) = 6.17988 6.48736 6.33548
#
# Compressibility (1/GPa) = 0.02145730
#
# Stress axis : x y z
#
# Youngs Moduli (GPa) = 35.21752 53.97310 103.24611
#
# Poissons Ratio (x) = 0.79290 0.24212
# Poissons Ratio (y) = 0.51737 0.05573
# Poissons Ratio (z) = 0.08259 0.02913
#
# Static dielectric constant tensor:
#      x y z
#    x 3.489000 0.000000 0.000000 
#    y 0.000000 3.476850 0.000000 
#    z 0.000000 0.000000 3.784420 
# 
# 
# High freq. dielectric constant tensor:
#      x y z
#    x 1.725750 0.000000 0.000000 
#    y 0.000000 1.738590 0.000000 
#    z 0.000000 0.000000 1.776580 
# 
# From -- ./inp_files/2581.got.cif
#   From: 2010.03.12/outbox.cif.g09.slc.cpg/sg51_2_cif.got.tgz:2581.got - 2010.04.16 13:43:02.
