data_PCOD8209153
_publ_section_title
;
Structure prediction by ZEFSAII (Michael W. Deem and Ramdas Pophale) SiO2 
 PCOD8209153
Probable space group: P M M A
;
_chemical_formula_sum "Si O2"
_cell_formula_units_Z 48
_cell_length_a 9.734805
_cell_length_b 8.930466
_cell_length_c 29.130803
_cell_angle_alpha 90.000000
_cell_angle_beta 90.000000
_cell_angle_gamma 90.000000
_cell_volume 2532.525542
_symmetry_space_group_name_H-M "P M M A"
_symmetry_group_IT_number 51
_symmetry_cell_setting 'orthorhombic'
loop_
_space_group_symop_operation_xyz
x,y,z
1/2-x,-y,z
1/2+x,-y,-z
-x,y,-z
-x,-y,-z
1/2+x,y,-z
1/2-x,y,z
x,-y,z
loop_
_atom_site_type_symbol
_atom_site_label
_atom_site_fract_x
_atom_site_fract_y
_atom_site_fract_z
Si Si1 0.588066 0.334827 0.278691
Si Si2 0.750000 0.174780 0.932829
Si Si3 0.909000 0.822828 0.543055
Si Si4 0.978884 0.322772 0.099862
Si Si5 0.750000 0.174441 0.040877
Si Si6 0.405847 0.322057 0.618767
Si Si7 0.910477 0.835493 0.191946
O O1 0.750000 0.348691 0.271746
O O2 0.522079 0.500000 0.273567
O O3 0.557977 0.269997 0.329415
O O4 0.523879 0.228952 0.239143
O O5 0.626203 0.256970 0.908902
O O6 0.750000 0.000000 0.920809
O O7 0.750000 0.200675 0.986935
O O8 0.750000 0.768780 0.537990
O O9 0.000000 0.767790 0.500000
O O10 0.978602 0.752379 0.587601
O O11 0.914506 0.000000 0.547792
O O12 0.974712 0.500000 0.094548
O O13 0.883272 0.250550 0.061489
O O14 0.934751 0.279601 0.150901
O O15 0.750000 0.000000 0.054081
O O16 0.250000 0.269917 0.605639
O O17 0.414742 0.500000 0.614673
O O18 0.750000 0.854407 0.199162
O O19 0.975073 0.000000 0.181758
#
# Coordination Sequence:
#
# PCOD8209153 Si02
#       7
#     8   4   8   8   4   8   8
#     4   8  15  29  50  77 109 140 176 225 277 327
#     4  11  25  43  61  81 115 153 187 233 288 343
#     4  10  21  36  54  77 107 145 188 233 279 329
#     4  12  24  38  60  87 116 150 189 235 285 340
#     4  11  23  41  63  87 113 149 191 233 284 339
#     4   9  18  33  54  81 111 143 179 224 278 334
#     4  10  19  32  54  83 114 146 186 232 279 332
#
# _framework density 18.953413000000001
#
# number of rings (size 3 to 8) (size 9 to 14) (size 15 to 20)
#    0.000    2.000    0.833    4.500    0.000    6.333 
#    0.000    1.667    1.833    0.000    0.000    0.000 
#    0.000    0.000    0.000    0.000    0.000    0.000 
#
# Total GULP energy -595074.364567 kJ/mol
# GULP energy per Si atom -12397.382595 kJ/mol
# Density = 1.891027 g / cm^3
# Si number density = 18.953413 Si / 1000 Ang^3
#
#
#
# Elastic Constant Matrix: (Units=GPa)
#
#
# Indices 1 2 3 4 5 6 
#
# 1 70.7902 19.2040 18.6069 0.0000 0.0000 0.0000
# 2 19.2040 84.8955 42.1866 0.0000 0.0000 0.0000
# 3 18.6069 42.1866 96.9800 0.0000 0.0000 0.0000
# 4 0.0000 0.0000 0.0000 33.6209 0.0000 0.0000
# 5 0.0000 0.0000 0.0000 0.0000 16.4012 0.0000
# 6 0.0000 0.0000 0.0000 0.0000 0.0000 26.8468
#
#
#
# Elastic Compliance Matrix: (Units=1/GPa)
#
#
# Indices 1 2 3 4 5 6 
#
# 1 0.015299 -0.002554 -0.001824 0.000000 0.000000 0.000000
# 2 -0.002554 0.015454 -0.006233 0.000000 0.000000 0.000000
# 3 -0.001824 -0.006233 0.013373 0.000000 0.000000 0.000000
# 4 0.000000 0.000000 0.000000 0.029743 0.000000 0.000000
# 5 0.000000 0.000000 0.000000 0.000000 0.060971 0.000000
# 6 0.000000 0.000000 0.000000 0.000000 0.000000 0.037248
#
#
# Mechanical properties :
#
#
# Convention : Reuss Voigt Hill
#
# Bulk Modulus (GPa) = 43.66146 45.85121 44.75633
# Shear Modulus (GPa) = 24.88248 26.88498 25.88373
#
# Velocity S-wave (km/s) = 3.62722 3.77035 3.69948
# Velocity P-wave (km/s) = 6.37405 6.57253 6.47405
#
# Compressibility (1/GPa) = 0.02290350
#
# Stress axis : x y z
#
# Youngs Moduli (GPa) = 65.36530 64.70795 74.77999
#
# Poissons Ratio (x) = 0.16528 0.13641
# Poissons Ratio (y) = 0.16696 0.46607
# Poissons Ratio (z) = 0.11924 0.40329
#
# Static dielectric constant tensor:
#      x y z
#    x 3.315900 0.000000 0.000000 
#    y 0.000000 3.689080 0.000000 
#    z 0.000000 0.000000 3.686670 
# 
# 
# High freq. dielectric constant tensor:
#      x y z
#    x 1.709410 0.000000 0.000000 
#    y 0.000000 1.740440 0.000000 
#    z 0.000000 0.000000 1.750410 
# 
# From -- ./inp_files/37117.got.cif
#   From: 2010.03.12/outbox.cif.g09.slc.cpg/sg51_19_cif.got.tgz:37117.got - 2010.04.16 13:43:02.
