data_PCOD8209346
_publ_section_title
;
Structure prediction by ZEFSAII (Michael W. Deem and Ramdas Pophale) SiO2 
 PCOD8209346
Probable space group: P M M A
;
_chemical_formula_sum "Si O2"
_cell_formula_units_Z 64
_cell_length_a 14.977964
_cell_length_b 8.927815
_cell_length_c 24.374689
_cell_angle_alpha 90.000000
_cell_angle_beta 90.000000
_cell_angle_gamma 90.000000
_cell_volume 3259.395397
_symmetry_space_group_name_H-M "P M M A"
_symmetry_group_IT_number 51
_symmetry_cell_setting 'orthorhombic'
loop_
_space_group_symop_operation_xyz
x,y,z
1/2-x,-y,z
1/2+x,-y,-z
-x,y,-z
-x,-y,-z
1/2+x,y,-z
1/2-x,y,z
x,-y,z
loop_
_atom_site_type_symbol
_atom_site_label
_atom_site_fract_x
_atom_site_fract_y
_atom_site_fract_z
Si Si1 0.349842 0.668503 0.219908
Si Si2 0.407889 0.675999 0.886739
Si Si3 0.901789 0.823918 0.887375
Si Si4 0.493377 0.822371 0.293542
Si Si5 0.500758 0.821887 0.583390
Si Si6 0.148285 0.822064 0.500670
Si Si7 0.848173 0.170291 0.216873
Si Si8 0.606163 0.334336 0.994706
O O1 0.250000 0.666606 0.243468
O O2 0.387553 0.500000 0.213473
O O3 0.346452 0.747097 0.160780
O O4 0.407658 0.758505 0.263389
O O5 0.431397 0.500000 0.884132
O O6 0.496815 0.772989 0.881064
O O7 0.345677 0.724616 0.836717
O O8 0.357951 0.712232 0.944745
O O9 0.861678 0.777419 0.946908
O O10 0.893765 0.000000 0.880948
O O11 0.498249 0.756727 0.355064
O O12 0.581864 0.769460 0.261457
O O13 0.485408 0.000000 0.294668
O O14 0.591472 0.767998 0.552577
O O15 0.409637 0.766552 0.553304
O O16 0.499559 0.000000 0.583685
O O17 0.250000 0.754923 0.500842
O O18 0.155312 0.000000 0.500985
O O19 0.750000 0.178388 0.243783
O O20 0.871808 0.000000 0.199553
O O21 0.640477 0.500000 0.978880
O O22 0.500000 0.333749 0.000000
#
# Coordination Sequence:
#
# PCOD8209346 Si02
#       8
#     8   8   8   8   8   8   8   8
#     4  11  24  40  57  77 104 141 183 227 275 330
#     4  10  19  33  54  77 104 140 181 222 270 329
#     4  11  20  32  54  81 107 136 172 219 276 332
#     4  10  20  35  55  79 109 145 182 228 279 323
#     4   8  15  26  42  70 105 140 181 219 260 317
#     4   8  13  23  41  68 106 147 180 216 261 308
#     4  10  21  35  51  75 107 142 182 229 281 331
#     4   8  16  30  49  75 104 136 174 216 266 329
#
# _framework density 19.635542999999998
#
# number of rings (size 3 to 8) (size 9 to 14) (size 15 to 20)
#    0.000    2.500    1.250    3.375    0.000    5.000 
#    0.000    4.375    0.000    0.750    0.000    1.750 
#    0.000    1.000    0.000    0.000    0.000    0.000 
#
# Total GULP energy -793229.735544 kJ/mol
# GULP energy per Si atom -12394.214618 kJ/mol
# Density = 1.959085 g / cm^3
# Si number density = 19.635543 Si / 1000 Ang^3
#
#
#
# Elastic Constant Matrix: (Units=GPa)
#
#
# Indices 1 2 3 4 5 6 
#
# 1 113.4591 12.4378 59.4908 0.0000 0.0000 0.0000
# 2 12.4378 38.8157 28.4612 0.0000 0.0000 0.0000
# 3 59.4908 28.4612 169.3808 0.0000 0.0000 0.0000
# 4 0.0000 0.0000 0.0000 5.4025 0.0000 0.0000
# 5 0.0000 0.0000 0.0000 0.0000 -2.2439 0.0000
# 6 0.0000 0.0000 0.0000 0.0000 0.0000 11.7813
#
#
#
# Elastic Compliance Matrix: (Units=1/GPa)
#
#
# Indices 1 2 3 4 5 6 
#
# 1 0.010824 -0.000776 -0.003671 0.000000 0.000000 0.000000
# 2 -0.000776 0.029439 -0.004674 0.000000 0.000000 0.000000
# 3 -0.003671 -0.004674 0.007979 0.000000 0.000000 0.000000
# 4 0.000000 0.000000 0.000000 0.185101 0.000000 0.000000
# 5 0.000000 0.000000 0.000000 0.000000 -0.445658 0.000000
# 6 0.000000 0.000000 0.000000 0.000000 0.000000 0.084880
#
#
# Mechanical properties :
#
#
# Convention : Reuss Voigt Hill
#
# Bulk Modulus (GPa) = 33.33547 58.04836 45.69191
# Shear Modulus (GPa) = -50.40643 17.73903 -16.33370
#
# Velocity S-wave (km/s) = -5.07215 3.00895 -2.88730
# Velocity P-wave (km/s) = 4.15793 6.45746 3.49359
#
# Compressibility (1/GPa) = 0.02999808
#
# Stress axis : x y z
#
# Youngs Moduli (GPa) = 92.38924 33.96894 125.33526
#
# Poissons Ratio (x) = 0.02638 0.46012
# Poissons Ratio (y) = 0.07174 0.58580
# Poissons Ratio (z) = 0.33917 0.15877
#
# Static dielectric constant tensor:
#      x y z
#    x 3.514640 0.000000 0.000000 
#    y 0.000000 3.259910 0.000000 
#    z 0.000000 0.000000 3.929320 
# 
# 
# High freq. dielectric constant tensor:
#      x y z
#    x 1.759150 0.000000 0.000000 
#    y 0.000000 1.729850 0.000000 
#    z 0.000000 0.000000 1.766280 
# 
# From -- ./inp_files/35778.got.cif
#   From: 2010.03.12/outbox.cif.g09.slc.cpg/sg51_18_cif.got.tgz:35778.got - 2010.04.16 13:43:02.
