data_PCOD8209794
_publ_section_title
;
Structure prediction by ZEFSAII (Michael W. Deem and Ramdas Pophale) SiO2 
 PCOD8209794
Probable space group: P M M A
;
_chemical_formula_sum "Si O2"
_cell_formula_units_Z 64
_cell_length_a 29.124455
_cell_length_b 8.953081
_cell_length_c 12.737017
_cell_angle_alpha 90.000000
_cell_angle_beta 90.000000
_cell_angle_gamma 90.000000
_cell_volume 3321.223096
_symmetry_space_group_name_H-M "P M M A"
_symmetry_group_IT_number 51
_symmetry_cell_setting 'orthorhombic'
loop_
_space_group_symop_operation_xyz
x,y,z
1/2-x,-y,z
1/2+x,-y,-z
-x,y,-z
-x,-y,-z
1/2+x,y,-z
1/2-x,y,z
x,-y,z
loop_
_atom_site_type_symbol
_atom_site_label
_atom_site_fract_x
_atom_site_fract_y
_atom_site_fract_z
Si Si1 0.699219 0.675698 0.883941
Si Si2 0.302239 0.823647 0.554656
Si Si3 0.543440 0.322910 0.773825
Si Si4 0.111369 0.322968 0.620243
Si Si5 0.048527 0.176998 0.450563
Si Si6 0.558689 0.676767 0.174629
Si Si7 0.696058 0.837550 0.678058
Si Si8 0.605317 0.677508 0.966243
O O1 0.750000 0.744115 0.912082
O O2 0.703264 0.500000 0.884951
O O3 0.682180 0.721146 0.767752
O O4 0.659128 0.728883 0.963604
O O5 0.250000 0.773005 0.577410
O O6 0.335837 0.731023 0.630654
O O7 0.318522 0.779721 0.436663
O O8 0.307427 0.000000 0.572907
O O9 0.545015 0.500000 0.753891
O O10 0.554485 0.239743 0.666127
O O11 0.493798 0.271917 0.816573
O O12 0.579697 0.268169 0.861025
O O13 0.108355 0.500000 0.608644
O O14 0.088674 0.245891 0.520084
O O15 0.086044 0.264496 0.724407
O O16 0.000000 0.227154 0.500000
O O17 0.053653 0.000000 0.448129
O O18 0.562068 0.500000 0.168079
O O19 0.581378 0.747029 0.069456
O O20 0.750000 0.859316 0.674563
O O21 0.673516 0.000000 0.701901
O O22 0.602057 0.500000 0.970328
#
# Coordination Sequence:
#
# PCOD8209794 Si02
#       8
#     8   8   8   8   8   8   8   8
#     4   9  17  29  46  72 105 135 168 216 267 316
#     4   9  19  36  55  77 109 150 190 227 274 331
#     4  10  19  34  58  82 106 137 180 232 277 326
#     4  11  22  35  56  83 113 146 186 233 276 327
#     4  11  23  38  56  80 113 150 183 221 277 341
#     4   9  18  34  54  78 107 139 178 229 281 326
#     4   8  15  29  48  68  95 133 171 209 257 310
#     4   9  18  32  53  80 105 136 181 223 275 334
#
# _framework density 19.270009000000002
#
# number of rings (size 3 to 8) (size 9 to 14) (size 15 to 20)
#    0.000    2.500    1.250    1.875    1.750    2.750 
#    0.000    1.875    0.000    7.500    0.000    1.750 
#    0.000    0.000    0.000    0.000    0.000    0.000 
#
# Total GULP energy -793294.530290 kJ/mol
# GULP energy per Si atom -12395.227036 kJ/mol
# Density = 1.922615 g / cm^3
# Si number density = 19.270009 Si / 1000 Ang^3
#
#
#
# Elastic Constant Matrix: (Units=GPa)
#
#
# Indices 1 2 3 4 5 6 
#
# 1 135.0309 29.8887 65.3893 0.0000 0.0000 0.0000
# 2 29.8887 33.0907 25.1563 0.0000 0.0000 0.0000
# 3 65.3893 25.1563 117.3120 0.0000 0.0000 0.0000
# 4 0.0000 0.0000 0.0000 3.4946 0.0000 0.0000
# 5 0.0000 0.0000 0.0000 0.0000 25.3590 0.0000
# 6 0.0000 0.0000 0.0000 0.0000 0.0000 22.5433
#
#
#
# Elastic Compliance Matrix: (Units=1/GPa)
#
#
# Indices 1 2 3 4 5 6 
#
# 1 0.011174 -0.006401 -0.004856 0.000000 0.000000 0.000000
# 2 -0.006401 0.039773 -0.004961 0.000000 0.000000 0.000000
# 3 -0.004856 -0.004961 0.012295 0.000000 0.000000 0.000000
# 4 0.000000 0.000000 0.000000 0.286157 0.000000 0.000000
# 5 0.000000 0.000000 0.000000 0.000000 0.039434 0.000000
# 6 0.000000 0.000000 0.000000 0.000000 0.000000 0.044359
#
#
# Mechanical properties :
#
#
# Convention : Reuss Voigt Hill
#
# Bulk Modulus (GPa) = 32.46106 58.47802 45.46954
# Shear Modulus (GPa) = 10.50650 21.27934 15.89292
#
# Velocity S-wave (km/s) = 2.33754 3.32666 2.87496
# Velocity P-wave (km/s) = 4.91604 6.72072 5.88793
#
# Compressibility (1/GPa) = 0.03080614
#
# Stress axis : x y z
#
# Youngs Moduli (GPa) = 89.49345 25.14250 81.33663
#
# Poissons Ratio (x) = 0.16095 0.39494
# Poissons Ratio (y) = 0.57288 0.40350
# Poissons Ratio (z) = 0.43455 0.12473
#
# Static dielectric constant tensor:
#      x y z
#    x 3.817580 0.000000 0.000000 
#    y 0.000000 3.232850 0.000000 
#    z 0.000000 0.000000 3.684720 
# 
# 
# High freq. dielectric constant tensor:
#      x y z
#    x 1.763960 0.000000 0.000000 
#    y 0.000000 1.714950 0.000000 
#    z 0.000000 0.000000 1.737970 
# 
# From -- ./inp_files/19634.got.cif
#   From: 2010.03.12/outbox.cif.g09.slc.cpg/sg51_10_cif.got.tgz:19634.got - 2010.04.16 13:43:02.
