data_PCOD8209148
_publ_section_title
;
Structure prediction by ZEFSAII (Michael W. Deem and Ramdas Pophale) SiO2 
 PCOD8209148
Probable space group: P M M A
;
_chemical_formula_sum "Si O2"
_cell_formula_units_Z 56
_cell_length_a 14.343199
_cell_length_b 20.804562
_cell_length_c 9.910221
_cell_angle_alpha 90.000000
_cell_angle_beta 90.000000
_cell_angle_gamma 90.000000
_cell_volume 2957.249318
_symmetry_space_group_name_H-M "P M M A"
_symmetry_group_IT_number 51
_symmetry_cell_setting 'orthorhombic'
loop_
_space_group_symop_operation_xyz
x,y,z
1/2-x,-y,z
1/2+x,-y,-z
-x,y,-z
-x,-y,-z
1/2+x,y,-z
1/2-x,y,z
x,-y,z
loop_
_atom_site_type_symbol
_atom_site_label
_atom_site_fract_x
_atom_site_fract_y
_atom_site_fract_z
Si Si1 0.642024 0.390630 0.561002
Si Si2 0.545098 0.305640 0.144464
Si Si3 0.460039 0.571812 0.706106
Si Si4 0.074343 0.255963 0.388711
Si Si5 0.644875 0.853174 0.782382
Si Si6 0.855828 0.181607 0.083393
Si Si7 0.519902 0.069738 0.156315
O O1 0.750000 0.410588 0.590679
O O2 0.605611 0.422453 0.424170
O O3 0.570283 0.415312 0.675937
O O4 0.636694 0.313032 0.547837
O O5 0.579712 0.377057 0.185183
O O6 0.472455 0.282824 0.254998
O O7 0.627680 0.253233 0.139633
O O8 0.500000 0.310904 0.000000
O O9 0.450020 0.500000 0.765114
O O10 0.137613 0.196207 0.342484
O O11 0.000000 0.232717 0.500000
O O12 0.750000 0.879492 0.789123
O O13 0.574730 0.912798 0.761862
O O14 0.614850 0.820067 0.925205
O O15 0.750000 0.162973 0.101054
O O16 0.908321 0.128516 0.175198
O O17 0.556215 0.000000 0.210860
O O18 0.500000 0.061442 0.000000
#
# Coordination Sequence:
#
# PCOD8209148 Si02
#       7
#     8   8   8   8   8   8   8
#     4  10  19  34  57  79 106 144 182 229 284 333
#     4  11  19  37  58  76 112 148 182 230 286 340
#     4  10  22  37  53  81 111 140 187 235 279 343
#     4  11  19  35  56  85 113 140 186 241 282 330
#     4  10  19  32  54  82 114 149 190 235 281 333
#     4  10  19  32  54  83 114 151 192 231 278 335
#     4   9  17  31  52  81 118 150 183 232 280 325
#
# _framework density 18.936518
#
# number of rings (size 3 to 8) (size 9 to 14) (size 15 to 20)
#    0.000    1.857    5.714    1.714    0.000    2.571 
#    0.000    2.857    0.000    0.429    0.000    2.000 
#    0.000    0.000    0.000    0.000    0.000    0.000 
#
# Total GULP energy -693955.599945 kJ/mol
# GULP energy per Si atom -12392.064285 kJ/mol
# Density = 1.889342 g / cm^3
# Si number density = 18.936518 Si / 1000 Ang^3
#
#
#
# Elastic Constant Matrix: (Units=GPa)
#
#
# Indices 1 2 3 4 5 6 
#
# 1 85.1783 48.2143 20.5017 0.0000 0.0000 0.0000
# 2 48.2143 157.7782 28.2212 0.0000 0.0000 0.0000
# 3 20.5017 28.2212 54.9271 0.0000 0.0000 0.0000
# 4 0.0000 0.0000 0.0000 3.9682 0.0000 0.0000
# 5 0.0000 0.0000 0.0000 0.0000 18.3408 0.0000
# 6 0.0000 0.0000 0.0000 0.0000 0.0000 52.7724
#
#
#
# Elastic Compliance Matrix: (Units=1/GPa)
#
#
# Indices 1 2 3 4 5 6 
#
# 1 0.014789 -0.003889 -0.003522 0.000000 0.000000 0.000000
# 2 -0.003889 0.008002 -0.002660 0.000000 0.000000 0.000000
# 3 -0.003522 -0.002660 0.020887 0.000000 0.000000 0.000000
# 4 0.000000 0.000000 0.000000 0.252003 0.000000 0.000000
# 5 0.000000 0.000000 0.000000 0.000000 0.054523 0.000000
# 6 0.000000 0.000000 0.000000 0.000000 0.000000 0.018949
#
#
# Mechanical properties :
#
#
# Convention : Reuss Voigt Hill
#
# Bulk Modulus (GPa) = 42.48691 54.63976 48.56333
# Shear Modulus (GPa) = 12.58997 28.41271 20.50134
#
# Velocity S-wave (km/s) = 2.58127 3.87773 3.29391
# Velocity P-wave (km/s) = 5.60082 6.99756 6.33778
#
# Compressibility (1/GPa) = 0.02353666
#
# Stress axis : x y z
#
# Youngs Moduli (GPa) = 67.61635 124.96405 47.87653
#
# Poissons Ratio (x) = 0.48604 0.16861
# Poissons Ratio (y) = 0.26299 0.12734
# Poissons Ratio (z) = 0.23813 0.33238
#
# Static dielectric constant tensor:
#      x y z
#    x 3.034450 0.000000 0.000000 
#    y 0.000000 3.867660 0.000000 
#    z 0.000000 0.000000 3.049310 
# 
# 
# High freq. dielectric constant tensor:
#      x y z
#    x 1.721730 0.000000 0.000000 
#    y 0.000000 1.739890 0.000000 
#    z 0.000000 0.000000 1.697640 
# 
# From -- ./inp_files/8476.got.cif
#   From: 2010.03.12/outbox.cif.g09.slc.cpg/sg51_5_cif.got.tgz:8476.got - 2010.04.16 13:43:02.
