data_PCOD8209107
_publ_section_title
;
Structure prediction by ZEFSAII (Michael W. Deem and Ramdas Pophale) SiO2 
 PCOD8209107
Probable space group: P M M A
;
_chemical_formula_sum "Si O2"
_cell_formula_units_Z 56
_cell_length_a 8.850719
_cell_length_b 20.251681
_cell_length_c 15.423116
_cell_angle_alpha 90.000000
_cell_angle_beta 90.000000
_cell_angle_gamma 90.000000
_cell_volume 2764.469199
_symmetry_space_group_name_H-M "P M M A"
_symmetry_group_IT_number 51
_symmetry_cell_setting 'orthorhombic'
loop_
_space_group_symop_operation_xyz
x,y,z
1/2-x,-y,z
1/2+x,-y,-z
-x,y,-z
-x,-y,-z
1/2+x,y,-z
1/2-x,y,z
x,-y,z
loop_
_atom_site_type_symbol
_atom_site_label
_atom_site_fract_x
_atom_site_fract_y
_atom_site_fract_z
Si Si1 0.424205 0.075235 0.763716
Si Si2 0.928453 0.881759 0.587596
Si Si3 0.074764 0.428862 0.237266
Si Si4 0.422848 0.603846 0.585635
Si Si5 0.924698 0.164030 0.909597
Si Si6 0.423092 0.750822 0.633117
Si Si7 0.424055 0.712663 0.194375
O O1 0.250000 0.096388 0.755281
O O2 0.502350 0.082105 0.670597
O O3 0.503788 0.121604 0.833197
O O4 0.440136 0.000000 0.795307
O O5 0.750000 0.892212 0.586671
O O6 0.000000 0.912789 0.500000
O O7 0.967871 0.804083 0.589212
O O8 0.250000 0.425673 0.258827
O O9 0.034543 0.500000 0.191964
O O10 0.031534 0.364913 0.177810
O O11 0.992085 0.427330 0.328736
O O12 0.500000 0.573919 0.500000
O O13 0.250000 0.583134 0.584057
O O14 0.446168 0.682429 0.583847
O O15 0.750000 0.145327 0.915396
O O16 0.947617 0.242615 0.891088
O O17 0.000000 0.145480 0.000000
O O18 0.250000 0.775364 0.628540
O O19 0.467440 0.742795 0.733316
O O20 0.250000 0.717862 0.225943
#
# Coordination Sequence:
#
# PCOD8209107 Si02
#       7
#     8   8   8   8   8   8   8
#     4  11  25  45  67  92 125 162 201 249 302 359
#     4  12  24  38  59  87 121 163 208 253 299 353
#     4   9  18  33  53  76 105 145 191 239 293 353
#     4  10  20  31  45  69 102 143 190 243 297 350
#     4  11  23  40  66  97 126 159 198 246 301 364
#     4  10  19  32  53  80 111 149 194 246 302 353
#     4   9  18  34  57  85 115 150 193 241 295 351
#
# _framework density 20.257052000000002
#
# number of rings (size 3 to 8) (size 9 to 14) (size 15 to 20)
#    0.000    1.714    1.429    3.429    0.000    5.714 
#    0.000    0.000    0.000    0.429    0.000    0.000 
#    0.000    0.000    0.000    0.000    0.000    0.143 
#
# Total GULP energy -694228.911220 kJ/mol
# GULP energy per Si atom -12396.944843 kJ/mol
# Density = 2.021095 g / cm^3
# Si number density = 20.257052 Si / 1000 Ang^3
#
#
#
# Elastic Constant Matrix: (Units=GPa)
#
#
# Indices 1 2 3 4 5 6 
#
# 1 117.5493 38.3829 47.7451 0.0000 0.0000 0.0000
# 2 38.3829 106.8586 39.5784 0.0000 0.0000 0.0000
# 3 47.7451 39.5784 101.7649 0.0000 0.0000 0.0000
# 4 0.0000 0.0000 0.0000 1.2102 0.0000 0.0000
# 5 0.0000 0.0000 0.0000 0.0000 29.7786 0.0000
# 6 0.0000 0.0000 0.0000 0.0000 0.0000 20.0403
#
#
#
# Elastic Compliance Matrix: (Units=1/GPa)
#
#
# Indices 1 2 3 4 5 6 
#
# 1 0.011006 -0.002384 -0.004237 0.000000 0.000000 0.000000
# 2 -0.002384 0.011450 -0.003334 0.000000 0.000000 0.000000
# 3 -0.004237 -0.003334 0.013111 0.000000 0.000000 0.000000
# 4 0.000000 0.000000 0.000000 0.826330 0.000000 0.000000
# 5 0.000000 0.000000 0.000000 0.000000 0.033581 0.000000
# 6 0.000000 0.000000 0.000000 0.000000 0.000000 0.049900
#
#
# Mechanical properties :
#
#
# Convention : Reuss Voigt Hill
#
# Bulk Modulus (GPa) = 63.87078 64.17616 64.02347
# Shear Modulus (GPa) = 5.15195 23.57024 14.36109
#
# Velocity S-wave (km/s) = 1.59650 3.41480 2.66549
# Velocity P-wave (km/s) = 5.91583 6.87731 6.41461
#
# Compressibility (1/GPa) = 0.01565661
#
# Stress axis : x y z
#
# Youngs Moduli (GPa) = 90.85655 87.33978 76.27170
#
# Poissons Ratio (x) = 0.20824 0.32313
# Poissons Ratio (y) = 0.21663 0.25431
# Poissons Ratio (z) = 0.38492 0.29122
#
# Static dielectric constant tensor:
#      x y z
#    x 3.751050 0.000000 0.000000 
#    y 0.000000 4.011270 0.000000 
#    z 0.000000 0.000000 3.377850 
# 
# 
# High freq. dielectric constant tensor:
#      x y z
#    x 1.799830 0.000000 0.000000 
#    y 0.000000 1.802260 0.000000 
#    z 0.000000 0.000000 1.759070 
# 
# From -- ./inp_files/21837.got.cif
#   From: 2010.03.12/outbox.cif.g09.slc.cpg/sg51_11_cif.got.tgz:21837.got - 2010.04.16 13:43:02.
