data_PCOD8209166
_publ_section_title
;
Structure prediction by ZEFSAII (Michael W. Deem and Ramdas Pophale) SiO2 
 PCOD8209166
Probable space group: P M M A
;
_chemical_formula_sum "Si O2"
_cell_formula_units_Z 48
_cell_length_a 23.085488
_cell_length_b 9.246436
_cell_length_c 12.686308
_cell_angle_alpha 90.000000
_cell_angle_beta 90.000000
_cell_angle_gamma 90.000000
_cell_volume 2708.000115
_symmetry_space_group_name_H-M "P M M A"
_symmetry_group_IT_number 51
_symmetry_cell_setting 'orthorhombic'
loop_
_space_group_symop_operation_xyz
x,y,z
1/2-x,-y,z
1/2+x,-y,-z
-x,y,-z
-x,-y,-z
1/2+x,y,-z
1/2-x,y,z
x,-y,z
loop_
_atom_site_type_symbol
_atom_site_label
_atom_site_fract_x
_atom_site_fract_y
_atom_site_fract_z
Si Si1 0.502029 0.168739 0.379490
Si Si2 0.314061 0.328689 0.121080
Si Si3 0.183730 0.665891 0.506799
Si Si4 0.817647 0.667068 0.116089
Si Si5 0.107248 0.671394 0.309149
Si Si6 0.130067 0.830527 0.695119
O O1 0.500000 0.222592 0.500000
O O2 0.455305 0.255276 0.311298
O O3 0.564059 0.206794 0.331634
O O4 0.487305 0.000000 0.372678
O O5 0.250000 0.264344 0.144525
O O6 0.310077 0.500000 0.130973
O O7 0.359836 0.268354 0.205674
O O8 0.333705 0.286650 0.003143
O O9 0.250000 0.684684 0.470983
O O10 0.170207 0.500000 0.535772
O O11 0.143753 0.719530 0.411193
O O12 0.172329 0.761410 0.609127
O O13 0.750000 0.693786 0.138146
O O14 0.833212 0.500000 0.136433
O O15 0.856209 0.766362 0.190817
O O16 0.099488 0.500000 0.304638
O O17 0.141776 0.000000 0.696089
#
# Coordination Sequence:
#
# PCOD8209166 Si02
#       6
#     8   8   8   8   8   8
#     4  10  21  38  53  68 100 144 179 211 257 306
#     4   8  15  31  55  81 108 136 165 204 259 313
#     4  10  20  32  49  77 109 133 158 204 262 312
#     4   9  18  34  56  79 105 137 169 206 256 309
#     4  10  19  32  55  82 103 129 172 215 251 301
#     4  11  22  35  52  73 100 137 178 215 253 299
#
# _framework density 17.725259000000001
#
# number of rings (size 3 to 8) (size 9 to 14) (size 15 to 20)
#    0.000    2.333    1.667    2.500    0.000    6.333 
#    0.000    1.667    0.000    7.500    0.000    0.000 
#    0.000    0.000    0.000    0.000    0.000    0.000 
#
# Total GULP energy -595294.070609 kJ/mol
# GULP energy per Si atom -12401.959804 kJ/mol
# Density = 1.768492 g / cm^3
# Si number density = 17.725259 Si / 1000 Ang^3
#
#
#
# Elastic Constant Matrix: (Units=GPa)
#
#
# Indices 1 2 3 4 5 6 
#
# 1 90.3520 38.5470 54.5764 0.0000 0.0000 0.0000
# 2 38.5470 46.2737 38.5311 0.0000 0.0000 0.0000
# 3 54.5764 38.5311 123.5233 0.0000 0.0000 0.0000
# 4 0.0000 0.0000 0.0000 14.8409 0.0000 0.0000
# 5 0.0000 0.0000 0.0000 0.0000 30.4162 0.0000
# 6 0.0000 0.0000 0.0000 0.0000 0.0000 22.2131
#
#
#
# Elastic Compliance Matrix: (Units=1/GPa)
#
#
# Indices 1 2 3 4 5 6 
#
# 1 0.018970 -0.011919 -0.004663 0.000000 0.000000 0.000000
# 2 -0.011919 0.036682 -0.006176 0.000000 0.000000 0.000000
# 3 -0.004663 -0.006176 0.012083 0.000000 0.000000 0.000000
# 4 0.000000 0.000000 0.000000 0.067381 0.000000 0.000000
# 5 0.000000 0.000000 0.000000 0.000000 0.032877 0.000000
# 6 0.000000 0.000000 0.000000 0.000000 0.000000 0.045019
#
#
# Mechanical properties :
#
#
# Convention : Reuss Voigt Hill
#
# Bulk Modulus (GPa) = 45.01030 58.16199 51.58614
# Shear Modulus (GPa) = 18.80157 22.06032 20.43094
#
# Velocity S-wave (km/s) = 3.26041 3.53167 3.39875
# Velocity P-wave (km/s) = 6.29461 7.03666 6.67595
#
# Compressibility (1/GPa) = 0.02221714
#
# Stress axis : x y z
#
# Youngs Moduli (GPa) = 52.71522 27.26118 82.76320
#
# Poissons Ratio (x) = 0.32493 0.38596
# Poissons Ratio (y) = 0.62832 0.51116
# Poissons Ratio (z) = 0.24584 0.16837
#
# Static dielectric constant tensor:
#      x y z
#    x 3.298860 0.000000 0.000000 
#    y 0.000000 3.050000 0.000000 
#    z 0.000000 0.000000 3.412260 
# 
# 
# High freq. dielectric constant tensor:
#      x y z
#    x 1.685470 0.000000 0.000000 
#    y 0.000000 1.663430 0.000000 
#    z 0.000000 0.000000 1.689770 
# 
# From -- ./inp_files/18539.got.cif
#   From: 2010.03.12/outbox.cif.g09.slc.cpg/sg51_10_cif.got.tgz:18539.got - 2010.04.16 13:43:02.
