data_PCOD8209547
_publ_section_title
;
Structure prediction by ZEFSAII (Michael W. Deem and Ramdas Pophale) SiO2 
 PCOD8209547
Probable space group: P M M A
;
_chemical_formula_sum "Si O2"
_cell_formula_units_Z 64
_cell_length_a 25.136867
_cell_length_b 14.536413
_cell_length_c 9.262507
_cell_angle_alpha 90.000000
_cell_angle_beta 90.000000
_cell_angle_gamma 90.000000
_cell_volume 3384.518949
_symmetry_space_group_name_H-M "P M M A"
_symmetry_group_IT_number 51
_symmetry_cell_setting 'orthorhombic'
loop_
_space_group_symop_operation_xyz
x,y,z
1/2-x,-y,z
1/2+x,-y,-z
-x,y,-z
-x,-y,-z
1/2+x,y,-z
1/2-x,y,z
x,-y,z
loop_
_atom_site_type_symbol
_atom_site_label
_atom_site_fract_x
_atom_site_fract_y
_atom_site_fract_z
Si Si1 0.498545 0.704660 0.172436
Si Si2 0.105861 0.392888 0.834892
Si Si3 0.311989 0.269750 0.676025
Si Si4 0.188003 0.272079 0.343279
Si Si5 0.355704 0.104252 0.848265
Si Si6 0.480693 0.901126 0.837483
Si Si7 0.811824 0.103177 0.847049
Si Si8 0.892562 0.606621 0.826018
O O1 0.552260 0.654762 0.225492
O O2 0.494126 0.809684 0.234990
O O3 0.447675 0.650207 0.231057
O O4 0.500000 0.706913 0.000000
O O5 0.102505 0.500000 0.797455
O O6 0.156647 0.349775 0.757456
O O7 0.113592 0.375803 0.004353
O O8 0.250000 0.290042 0.697527
O O9 0.328620 0.272549 0.509349
O O10 0.325379 0.168981 0.736291
O O11 0.250000 0.293600 0.321820
O O12 0.173089 0.171364 0.282316
O O13 0.156879 0.350244 0.257227
O O14 0.418056 0.114233 0.828690
O O15 0.335707 0.000000 0.822048
O O16 0.343302 0.135577 0.011302
O O17 0.495688 0.000000 0.761884
O O18 0.500000 0.908007 0.000000
O O19 0.750000 0.107619 0.885794
O O20 0.828673 0.000000 0.800100
O O21 0.894181 0.500000 0.787996
#
# Coordination Sequence:
#
# PCOD8209547 Si02
#       8
#     8   8   8   8   8   8   8   8
#     4   9  17  32  56  84 114 143 175 224 282 335
#     4  10  20  36  59  84 109 139 183 239 290 333
#     4  11  23  38  54  78 113 153 192 229 279 338
#     4  10  23  39  55  77 112 155 190 227 278 337
#     4  10  19  33  57  86 113 144 186 232 276 325
#     4   9  17  28  49  85 118 143 173 215 272 334
#     4   9  18  33  54  81 109 139 182 232 274 318
#     4  10  21  37  60  86 108 140 187 235 283 335
#
# _framework density 18.909628999999999
#
# number of rings (size 3 to 8) (size 9 to 14) (size 15 to 20)
#    0.000    2.250    1.250    1.500    3.500    5.250 
#    0.000    4.375    0.000    1.500    0.000    1.750 
#    0.000    0.000    0.000    0.000    0.000    0.000 
#
# Total GULP energy -793476.537627 kJ/mol
# GULP energy per Si atom -12398.070900 kJ/mol
# Density = 1.886659 g / cm^3
# Si number density = 18.909629 Si / 1000 Ang^3
#
#
#
# Elastic Constant Matrix: (Units=GPa)
#
#
# Indices 1 2 3 4 5 6 
#
# 1 79.7579 64.1130 40.6821 0.0000 0.0000 0.0000
# 2 64.1130 170.8052 60.5062 0.0000 0.0000 0.0000
# 3 40.6821 60.5062 64.6793 0.0000 0.0000 0.0000
# 4 0.0000 0.0000 0.0000 15.9685 0.0000 0.0000
# 5 0.0000 0.0000 0.0000 0.0000 7.8433 0.0000
# 6 0.0000 0.0000 0.0000 0.0000 0.0000 36.9510
#
#
#
# Elastic Compliance Matrix: (Units=1/GPa)
#
#
# Indices 1 2 3 4 5 6 
#
# 1 0.020736 -0.004731 -0.008617 0.000000 0.000000 0.000000
# 2 -0.004731 0.009836 -0.006225 0.000000 0.000000 0.000000
# 3 -0.008617 -0.006225 0.026705 0.000000 0.000000 0.000000
# 4 0.000000 0.000000 0.000000 0.062623 0.000000 0.000000
# 5 0.000000 0.000000 0.000000 0.000000 0.127497 0.000000
# 6 0.000000 0.000000 0.000000 0.000000 0.000000 0.027063
#
#
# Mechanical properties :
#
#
# Convention : Reuss Voigt Hill
#
# Bulk Modulus (GPa) = 55.15792 71.76057 63.45924
# Shear Modulus (GPa) = 15.64215 22.14865 18.89540
#
# Velocity S-wave (km/s) = 2.87924 3.42612 3.16452
# Velocity P-wave (km/s) = 6.34712 7.32685 6.85451
#
# Compressibility (1/GPa) = 0.01812976
#
# Stress axis : x y z
#
# Youngs Moduli (GPa) = 48.22495 101.67000 37.44677
#
# Poissons Ratio (x) = 0.48100 0.32268
# Poissons Ratio (y) = 0.22815 0.23312
# Poissons Ratio (z) = 0.41555 0.63294
#
# Static dielectric constant tensor:
#      x y z
#    x 3.477910 0.000000 0.000000 
#    y 0.000000 3.851470 0.000000 
#    z 0.000000 0.000000 3.118080 
# 
# 
# High freq. dielectric constant tensor:
#      x y z
#    x 1.741820 0.000000 0.000000 
#    y 0.000000 1.754810 0.000000 
#    z 0.000000 0.000000 1.691720 
# 
# From -- ./inp_files/11851.got.cif
#   From: 2010.03.12/outbox.cif.g09.slc.cpg/sg51_6_cif.got.tgz:11851.got - 2010.04.16 13:43:02.
