data_PCOD8209505
_publ_section_title
;
Structure prediction by ZEFSAII (Michael W. Deem and Ramdas Pophale) SiO2 
 PCOD8209505
Probable space group: P M M A
;
_chemical_formula_sum "Si O2"
_cell_formula_units_Z 64
_cell_length_a 19.642120
_cell_length_b 9.063915
_cell_length_c 19.948738
_cell_angle_alpha 90.000000
_cell_angle_beta 90.000000
_cell_angle_gamma 90.000000
_cell_volume 3551.563717
_symmetry_space_group_name_H-M "P M M A"
_symmetry_group_IT_number 51
_symmetry_cell_setting 'orthorhombic'
loop_
_space_group_symop_operation_xyz
x,y,z
1/2-x,-y,z
1/2+x,-y,-z
-x,y,-z
-x,-y,-z
1/2+x,y,-z
1/2-x,y,z
x,-y,z
loop_
_atom_site_type_symbol
_atom_site_label
_atom_site_fract_x
_atom_site_fract_y
_atom_site_fract_z
Si Si1 0.416588 0.827870 0.670962
Si Si2 0.670917 0.328765 0.592158
Si Si3 0.549176 0.327583 0.829298
Si Si4 0.069939 0.827166 0.035408
Si Si5 0.671956 0.170393 0.455119
Si Si6 0.327916 0.832823 0.922073
Si Si7 0.393664 0.328904 0.804111
Si Si8 0.928805 0.173889 0.693925
O O1 0.378228 0.777560 0.603804
O O2 0.381074 0.745257 0.732471
O O3 0.496285 0.786148 0.665434
O O4 0.406639 0.000000 0.683976
O O5 0.750000 0.302492 0.608908
O O6 0.651234 0.500000 0.596023
O O7 0.653532 0.270424 0.518357
O O8 0.627360 0.237742 0.644765
O O9 0.565156 0.500000 0.823749
O O10 0.581488 0.263359 0.896744
O O11 0.468985 0.293970 0.830836
O O12 0.583128 0.246617 0.766263
O O13 0.071612 0.000000 0.052699
O O14 0.129827 0.777131 0.985857
O O15 0.000000 0.781450 0.000000
O O16 0.750000 0.194402 0.432229
O O17 0.658969 0.000000 0.474230
O O18 0.250000 0.821212 0.943188
O O19 0.340432 0.733994 0.857145
O O20 0.349563 0.000000 0.904249
O O21 0.379938 0.500000 0.795184
O O22 0.918851 0.000000 0.700656
#
# Coordination Sequence:
#
# PCOD8209505 Si02
#       8
#     8   8   8   8   8   8   8   8
#     4   9  19  34  53  79 110 142 179 222 264 308
#     4  10  21  37  56  78 106 139 176 221 273 326
#     4  10  20  34  54  80 108 137 174 218 266 317
#     4  10  19  33  56  80 101 134 180 223 262 312
#     4   9  18  34  55  77 103 139 182 221 260 315
#     4  10  21  36  53  75 105 139 175 217 264 314
#     4  10  20  33  51  76 106 139 175 215 261 315
#     4  10  20  35  56  80 108 141 179 223 266 314
#
# _framework density 18.020232
#
# number of rings (size 3 to 8) (size 9 to 14) (size 15 to 20)
#    0.000    2.250    1.250    1.500    0.000    4.750 
#    0.000    4.375    0.000    2.250    0.000    0.000 
#    0.000    0.000    0.000    0.000    0.000    0.000 
#
# Total GULP energy -793867.281844 kJ/mol
# GULP energy per Si atom -12404.176279 kJ/mol
# Density = 1.797922 g / cm^3
# Si number density = 18.020232 Si / 1000 Ang^3
#
#
#
# Elastic Constant Matrix: (Units=GPa)
#
#
# Indices 1 2 3 4 5 6 
#
# 1 78.4488 40.2166 68.3811 0.0000 0.0000 0.0000
# 2 40.2166 79.7895 66.1342 0.0000 0.0000 0.0000
# 3 68.3811 66.1342 146.3635 0.0000 0.0000 0.0000
# 4 0.0000 0.0000 0.0000 1.2444 0.0000 0.0000
# 5 0.0000 0.0000 0.0000 0.0000 31.6706 0.0000
# 6 0.0000 0.0000 0.0000 0.0000 0.0000 22.5720
#
#
#
# Elastic Compliance Matrix: (Units=1/GPa)
#
#
# Indices 1 2 3 4 5 6 
#
# 1 0.022341 -0.004172 -0.008553 0.000000 0.000000 0.000000
# 2 -0.004172 0.020816 -0.007457 0.000000 0.000000 0.000000
# 3 -0.008553 -0.007457 0.014198 0.000000 0.000000 0.000000
# 4 0.000000 0.000000 0.000000 0.803613 0.000000 0.000000
# 5 0.000000 0.000000 0.000000 0.000000 0.031575 0.000000
# 6 0.000000 0.000000 0.000000 0.000000 0.000000 0.044303
#
#
# Mechanical properties :
#
#
# Convention : Reuss Voigt Hill
#
# Bulk Modulus (GPa) = 58.85005 72.67395 65.76200
# Shear Modulus (GPa) = 5.08713 19.75540 12.42127
#
# Velocity S-wave (km/s) = 1.68201 3.31462 2.62829
# Velocity P-wave (km/s) = 6.04159 7.42062 6.76633
#
# Compressibility (1/GPa) = 0.01699234
#
# Stress axis : x y z
#
# Youngs Moduli (GPa) = 44.76109 48.03938 70.43479
#
# Poissons Ratio (x) = 0.20040 0.60241
# Poissons Ratio (y) = 0.18672 0.52522
# Poissons Ratio (z) = 0.38283 0.35822
#
# Static dielectric constant tensor:
#      x y z
#    x 3.241620 0.000000 0.000000 
#    y 0.000000 3.328750 0.000000 
#    z 0.000000 0.000000 3.355850 
# 
# 
# High freq. dielectric constant tensor:
#      x y z
#    x 1.684800 0.000000 0.000000 
#    y 0.000000 1.701770 0.000000 
#    z 0.000000 0.000000 1.703290 
# 
# From -- ./inp_files/30557.got.cif
#   From: 2010.03.12/outbox.cif.g09.slc.cpg/sg51_16_cif.got.tgz:30557.got - 2010.04.16 13:43:02.
