data_PCOD8209551
_publ_section_title
;
Structure prediction by ZEFSAII (Michael W. Deem and Ramdas Pophale) SiO2 
 PCOD8209551
Probable space group: P M M A
;
_chemical_formula_sum "Si O2"
_cell_formula_units_Z 64
_cell_length_a 17.407121
_cell_length_b 14.626842
_cell_length_c 12.416553
_cell_angle_alpha 90.000000
_cell_angle_beta 90.000000
_cell_angle_gamma 90.000000
_cell_volume 3161.393565
_symmetry_space_group_name_H-M "P M M A"
_symmetry_group_IT_number 51
_symmetry_cell_setting 'orthorhombic'
loop_
_space_group_symop_operation_xyz
x,y,z
1/2-x,-y,z
1/2+x,-y,-z
-x,y,-z
-x,-y,-z
1/2+x,y,-z
1/2-x,y,z
x,-y,z
loop_
_atom_site_type_symbol
_atom_site_label
_atom_site_fract_x
_atom_site_fract_y
_atom_site_fract_z
Si Si1 0.919485 0.659633 0.693434
Si Si2 0.161650 0.161493 0.234582
Si Si3 0.662125 0.902535 0.533470
Si Si4 0.164381 0.598204 0.114041
Si Si5 0.340649 0.713511 0.913040
Si Si6 0.839270 0.704050 0.484126
Si Si7 0.092288 0.390214 0.714044
Si Si8 0.840954 0.900869 0.998339
O O1 0.897152 0.756621 0.743969
O O2 0.889177 0.587948 0.781225
O O3 0.881308 0.645769 0.576651
O O4 0.009232 0.643082 0.676754
O O5 0.250000 0.196787 0.221982
O O6 0.155734 0.095079 0.336801
O O7 0.133072 0.113029 0.125461
O O8 0.750000 0.904284 0.496530
O O9 0.626183 0.808976 0.482456
O O10 0.624199 0.000000 0.493653
O O11 0.250000 0.621618 0.154027
O O12 0.161925 0.500000 0.054412
O O13 0.137340 0.674573 0.030178
O O14 0.250000 0.702761 0.888695
O O15 0.388669 0.656499 0.827283
O O16 0.367644 0.819951 0.920064
O O17 0.750000 0.710073 0.514910
O O18 0.848514 0.651199 0.372352
O O19 0.099806 0.500000 0.721184
O O20 0.750000 0.901808 0.000400
O O21 0.873161 0.000000 0.037515
#
# Coordination Sequence:
#
# PCOD8209551 Si02
#       8
#     8   8   8   8   8   8   8   8
#     4  11  21  37  59  86 120 147 184 240 301 347
#     4   9  15  28  54  88 123 155 184 225 284 346
#     4   8  14  27  53  89 119 141 175 228 287 343
#     4  10  19  33  57  87 114 144 187 241 296 341
#     4  10  21  39  60  83 115 153 196 241 283 338
#     4  10  22  40  64  89 113 148 195 244 295 347
#     4  12  27  43  58  78 112 160 206 241 288 356
#     4   9  16  29  56  91 120 149 191 240 285 334
#
# _framework density 20.244236999999998
#
# number of rings (size 3 to 8) (size 9 to 14) (size 15 to 20)
#    0.000    2.125    1.250    3.750    0.000    5.000 
#    0.000    1.875    0.000   14.250    0.000    0.000 
#    0.000    0.000    0.000    0.000    0.000    0.000 
#
# Total GULP energy -792932.229179 kJ/mol
# GULP energy per Si atom -12389.566081 kJ/mol
# Density = 2.019816 g / cm^3
# Si number density = 20.244237 Si / 1000 Ang^3
#
#
#
# Elastic Constant Matrix: (Units=GPa)
#
#
# Indices 1 2 3 4 5 6 
#
# 1 40.8900 20.0149 15.7714 0.0000 0.0000 0.0000
# 2 20.0149 158.5801 40.1931 0.0000 0.0000 0.0000
# 3 15.7714 40.1931 68.9224 0.0000 0.0000 0.0000
# 4 0.0000 0.0000 0.0000 24.5620 0.0000 0.0000
# 5 0.0000 0.0000 0.0000 0.0000 22.2763 0.0000
# 6 0.0000 0.0000 0.0000 0.0000 0.0000 14.2162
#
#
#
# Elastic Compliance Matrix: (Units=1/GPa)
#
#
# Indices 1 2 3 4 5 6 
#
# 1 0.027461 -0.002198 -0.005002 0.000000 0.000000 0.000000
# 2 -0.002198 0.007576 -0.003915 0.000000 0.000000 0.000000
# 3 -0.005002 -0.003915 0.017937 0.000000 0.000000 0.000000
# 4 0.000000 0.000000 0.000000 0.040713 0.000000 0.000000
# 5 0.000000 0.000000 0.000000 0.000000 0.044891 0.000000
# 6 0.000000 0.000000 0.000000 0.000000 0.000000 0.070342
#
#
# Mechanical properties :
#
#
# Convention : Reuss Voigt Hill
#
# Bulk Modulus (GPa) = 32.52731 46.70571 39.61651
# Shear Modulus (GPa) = 20.71273 25.03845 22.87559
#
# Velocity S-wave (km/s) = 3.20213 3.52066 3.36516
# Velocity P-wave (km/s) = 5.45654 6.29666 5.89159
#
# Compressibility (1/GPa) = 0.03074339
#
# Stress axis : x y z
#
# Youngs Moduli (GPa) = 36.41517 132.00210 55.75173
#
# Poissons Ratio (x) = 0.29016 0.27887
# Poissons Ratio (y) = 0.08005 0.21826
# Poissons Ratio (z) = 0.18215 0.51677
#
# Static dielectric constant tensor:
#      x y z
#    x 3.266620 0.000000 0.000000 
#    y 0.000000 4.135050 0.000000 
#    z 0.000000 0.000000 3.537050 
# 
# 
# High freq. dielectric constant tensor:
#      x y z
#    x 1.745600 0.000000 0.000000 
#    y 0.000000 1.809160 0.000000 
#    z 0.000000 0.000000 1.776440 
# 
# From -- ./inp_files/17606.got.cif
#   From: 2010.03.12/outbox.cif.g09.slc.cpg/sg51_9_cif.got.tgz:17606.got - 2010.04.16 13:43:02.
