data_PCOD8209638
_publ_section_title
;
Structure prediction by ZEFSAII (Michael W. Deem and Ramdas Pophale) SiO2 
 PCOD8209638
Probable space group: P M M A
;
_chemical_formula_sum "Si O2"
_cell_formula_units_Z 56
_cell_length_a 16.899707
_cell_length_b 15.214403
_cell_length_c 11.122685
_cell_angle_alpha 90.000000
_cell_angle_beta 90.000000
_cell_angle_gamma 90.000000
_cell_volume 2859.853120
_symmetry_space_group_name_H-M "P M M A"
_symmetry_group_IT_number 51
_symmetry_cell_setting 'orthorhombic'
loop_
_space_group_symop_operation_xyz
x,y,z
1/2-x,-y,z
1/2+x,-y,-z
-x,y,-z
-x,-y,-z
1/2+x,y,-z
1/2-x,y,z
x,-y,z
loop_
_atom_site_type_symbol
_atom_site_label
_atom_site_fract_x
_atom_site_fract_y
_atom_site_fract_z
Si Si1 0.051725 0.719286 0.700244
Si Si2 0.159541 0.756061 0.485331
Si Si3 0.091558 0.600867 0.351160
Si Si4 0.659061 0.902307 0.708870
Si Si5 0.049841 0.180008 0.115815
Si Si6 0.338911 0.596031 0.846571
Si Si7 0.839991 0.343425 0.893464
O O1 0.102731 0.768672 0.599174
O O2 0.107428 0.670483 0.793167
O O3 0.993709 0.647914 0.639382
O O4 0.007615 0.793498 0.775440
O O5 0.250000 0.772107 0.524281
O O6 0.151418 0.656987 0.433970
O O7 0.132523 0.827635 0.386161
O O8 0.086438 0.500000 0.396537
O O9 0.123483 0.601127 0.215375
O O10 0.750000 0.886642 0.745340
O O11 0.606139 0.895816 0.829858
O O12 0.647616 0.000000 0.653582
O O13 0.106224 0.259659 0.077362
O O14 0.000000 0.146806 0.000000
O O15 0.250000 0.613693 0.801685
O O16 0.367771 0.500000 0.803030
O O17 0.342344 0.595152 0.990680
O O18 0.750000 0.314034 0.862483
#
# Coordination Sequence:
#
# PCOD8209638 Si02
#       7
#     8   8   8   8   8   8   8
#     4  11  22  37  55  82 122 155 198 246 301 355
#     4  11  23  40  60  84 116 157 204 248 296 360
#     4  11  23  35  56  84 116 156 202 255 302 347
#     4  10  22  43  70  94 118 154 199 248 301 361
#     4  11  21  37  61  92 120 153 191 241 304 368
#     4  10  20  33  51  78 115 164 214 251 292 350
#     4  10  19  34  55  81 115 156 208 257 294 342
#
# _framework density 19.581424999999999
#
# number of rings (size 3 to 8) (size 9 to 14) (size 15 to 20)
#    0.000    1.429    4.286    2.571    0.000    3.714 
#    0.000    3.571    0.000    0.000    0.000    2.000 
#    0.000    0.000    0.000    0.000    0.000    0.000 
#
# Total GULP energy -694384.624563 kJ/mol
# GULP energy per Si atom -12399.725439 kJ/mol
# Density = 1.953686 g / cm^3
# Si number density = 19.581425 Si / 1000 Ang^3
#
#
#
# Elastic Constant Matrix: (Units=GPa)
#
#
# Indices 1 2 3 4 5 6 
#
# 1 103.9605 26.9771 51.4357 0.0000 0.0000 0.0000
# 2 26.9771 82.8568 32.0891 0.0000 0.0000 0.0000
# 3 51.4357 32.0891 82.0857 0.0000 0.0000 0.0000
# 4 0.0000 0.0000 0.0000 13.5219 0.0000 0.0000
# 5 0.0000 0.0000 0.0000 0.0000 39.6884 0.0000
# 6 0.0000 0.0000 0.0000 0.0000 0.0000 21.7948
#
#
#
# Elastic Compliance Matrix: (Units=1/GPa)
#
#
# Indices 1 2 3 4 5 6 
#
# 1 0.014073 -0.001375 -0.008281 0.000000 0.000000 0.000000
# 2 -0.001375 0.014357 -0.004751 0.000000 0.000000 0.000000
# 3 -0.008281 -0.004751 0.019228 0.000000 0.000000 0.000000
# 4 0.000000 0.000000 0.000000 0.073954 0.000000 0.000000
# 5 0.000000 0.000000 0.000000 0.000000 0.025196 0.000000
# 6 0.000000 0.000000 0.000000 0.000000 0.000000 0.045882
#
#
# Mechanical properties :
#
#
# Convention : Reuss Voigt Hill
#
# Bulk Modulus (GPa) = 53.06457 54.43409 53.74933
# Shear Modulus (GPa) = 21.95054 25.56109 23.75582
#
# Velocity S-wave (km/s) = 3.35175 3.61692 3.48685
# Velocity P-wave (km/s) = 6.49132 6.73067 6.61208
#
# Compressibility (1/GPa) = 0.01884497
#
# Stress axis : x y z
#
# Youngs Moduli (GPa) = 71.05921 69.65453 52.00668
#
# Poissons Ratio (x) = 0.09577 0.43065
# Poissons Ratio (y) = 0.09770 0.24707
# Poissons Ratio (z) = 0.58842 0.33091
#
# Static dielectric constant tensor:
#      x y z
#    x 3.807560 0.000000 0.000000 
#    y 0.000000 3.309880 0.000000 
#    z 0.000000 0.000000 3.477800 
# 
# 
# High freq. dielectric constant tensor:
#      x y z
#    x 1.778700 0.000000 0.000000 
#    y 0.000000 1.736490 0.000000 
#    z 0.000000 0.000000 1.757300 
# 
# From -- ./inp_files/16598.got.cif
#   From: 2010.03.12/outbox.cif.g09.slc.cpg/sg51_9_cif.got.tgz:16598.got - 2010.04.16 13:43:02.
