data_PCOD8209490
_publ_section_title
;
Structure prediction by ZEFSAII (Michael W. Deem and Ramdas Pophale) SiO2 
 PCOD8209490
Probable space group: P M M A
;
_chemical_formula_sum "Si O2"
_cell_formula_units_Z 48
_cell_length_a 15.500852
_cell_length_b 8.935850
_cell_length_c 17.123303
_cell_angle_alpha 90.000000
_cell_angle_beta 90.000000
_cell_angle_gamma 90.000000
_cell_volume 2371.805006
_symmetry_space_group_name_H-M "P M M A"
_symmetry_group_IT_number 51
_symmetry_cell_setting 'orthorhombic'
loop_
_space_group_symop_operation_xyz
x,y,z
1/2-x,-y,z
1/2+x,-y,-z
-x,y,-z
-x,-y,-z
1/2+x,y,-z
1/2-x,y,z
x,-y,z
loop_
_atom_site_type_symbol
_atom_site_label
_atom_site_fract_x
_atom_site_fract_y
_atom_site_fract_z
Si Si1 0.905964 0.323547 0.839385
Si Si2 0.397498 0.834610 0.007263
Si Si3 0.345426 0.328412 0.691852
Si Si4 0.846912 0.828141 0.688568
Si Si5 0.590586 0.823777 0.162050
Si Si6 0.493670 0.676395 0.411058
O O1 0.903884 0.500000 0.832181
O O2 0.867866 0.277154 0.924289
O O3 0.847645 0.254071 0.771848
O O4 0.002469 0.266263 0.826890
O O5 0.362816 0.000000 0.028614
O O6 0.500000 0.837293 0.000000
O O7 0.363826 0.784647 0.921366
O O8 0.250000 0.310410 0.654109
O O9 0.362626 0.500000 0.715931
O O10 0.346470 0.226221 0.769052
O O11 0.417413 0.274150 0.630597
O O12 0.750000 0.813783 0.654686
O O13 0.912230 0.755015 0.627761
O O14 0.873504 0.000000 0.700924
O O15 0.570311 0.000000 0.165985
O O16 0.500000 0.730465 0.500000
O O17 0.478847 0.500000 0.405195
#
# Coordination Sequence:
#
# PCOD8209490 Si02
#       6
#     8   8   8   8   8   8
#     4  11  20  32  55  85 117 155 199 247 300 352
#     4   8  16  30  49  77 113 154 199 244 292 347
#     4  10  21  37  58  87 122 158 196 241 294 351
#     4  11  24  41  62  89 122 160 201 247 298 352
#     4  10  19  33  55  82 115 157 202 246 294 348
#     4  10  22  41  66  94 122 155 194 239 296 360
#
# _framework density 20.237752
#
# number of rings (size 3 to 8) (size 9 to 14) (size 15 to 20)
#    0.000    2.000    1.667    3.500    0.000    6.333 
#    0.000    2.500    0.000    1.000    0.000    0.000 
#    0.000    0.000    0.000    0.000    0.000    0.000 
#
# Total GULP energy -595133.752574 kJ/mol
# GULP energy per Si atom -12398.619845 kJ/mol
# Density = 2.019169 g / cm^3
# Si number density = 20.237752 Si / 1000 Ang^3
#
#
#
# Elastic Constant Matrix: (Units=GPa)
#
#
# Indices 1 2 3 4 5 6 
#
# 1 100.7253 38.0309 61.7306 0.0000 0.0000 0.0000
# 2 38.0309 94.2544 62.2299 0.0000 0.0000 0.0000
# 3 61.7306 62.2299 164.8231 0.0000 0.0000 0.0000
# 4 0.0000 0.0000 0.0000 29.2350 0.0000 0.0000
# 5 0.0000 0.0000 0.0000 0.0000 6.4761 0.0000
# 6 0.0000 0.0000 0.0000 0.0000 0.0000 22.5240
#
#
#
# Elastic Compliance Matrix: (Units=1/GPa)
#
#
# Indices 1 2 3 4 5 6 
#
# 1 0.013415 -0.002792 -0.003970 0.000000 0.000000 0.000000
# 2 -0.002792 0.014713 -0.004510 0.000000 0.000000 0.000000
# 3 -0.003970 -0.004510 0.009257 0.000000 0.000000 0.000000
# 4 0.000000 0.000000 0.000000 0.034206 0.000000 0.000000
# 5 0.000000 0.000000 0.000000 0.000000 0.154414 0.000000
# 6 0.000000 0.000000 0.000000 0.000000 0.000000 0.044397
#
#
# Mechanical properties :
#
#
# Convention : Reuss Voigt Hill
#
# Bulk Modulus (GPa) = 67.37516 75.97617 71.67567
# Shear Modulus (GPa) = 16.78457 24.83445 20.80951
#
# Velocity S-wave (km/s) = 2.88300 3.50685 3.21012
# Velocity P-wave (km/s) = 6.66681 7.34987 7.01666
#
# Compressibility (1/GPa) = 0.01484226
#
# Stress axis : x y z
#
# Youngs Moduli (GPa) = 74.54171 67.96550 108.02919
#
# Poissons Ratio (x) = 0.18973 0.42892
# Poissons Ratio (y) = 0.20809 0.48717
# Poissons Ratio (z) = 0.29596 0.30650
#
# Static dielectric constant tensor:
#      x y z
#    x 3.447300 0.000000 0.000000 
#    y 0.000000 3.628510 0.000000 
#    z 0.000000 0.000000 3.936110 
# 
# 
# High freq. dielectric constant tensor:
#      x y z
#    x 1.775560 0.000000 0.000000 
#    y 0.000000 1.786530 0.000000 
#    z 0.000000 0.000000 1.792320 
# 
# From -- ./inp_files/29434.got.cif
#   From: 2010.03.12/outbox.cif.g09.slc.cpg/sg51_15_cif.got.tgz:29434.got - 2010.04.16 13:43:02.
