data_PCOD8209561
_publ_section_title
;
Structure prediction by ZEFSAII (Michael W. Deem and Ramdas Pophale) SiO2 
 PCOD8209561
Probable space group: P M M A
;
_chemical_formula_sum "Si O2"
_cell_formula_units_Z 64
_cell_length_a 30.521519
_cell_length_b 8.399181
_cell_length_c 14.513040
_cell_angle_alpha 90.000000
_cell_angle_beta 90.000000
_cell_angle_gamma 90.000000
_cell_volume 3720.501435
_symmetry_space_group_name_H-M "P M M A"
_symmetry_group_IT_number 51
_symmetry_cell_setting 'orthorhombic'
loop_
_space_group_symop_operation_xyz
x,y,z
1/2-x,-y,z
1/2+x,-y,-z
-x,y,-z
-x,-y,-z
1/2+x,y,-z
1/2-x,y,z
x,-y,z
loop_
_atom_site_type_symbol
_atom_site_label
_atom_site_fract_x
_atom_site_fract_y
_atom_site_fract_z
Si Si1 0.700988 0.813612 0.651597
Si Si2 0.424926 0.683239 0.262248
Si Si3 0.385206 0.818441 0.437855
Si Si4 0.958094 0.684245 0.439709
Si Si5 0.017287 0.183170 0.744685
Si Si6 0.458547 0.311177 0.936621
Si Si7 0.702090 0.312364 0.850799
Si Si8 0.885559 0.311357 0.928325
O O1 0.750000 0.764377 0.619206
O O2 0.666372 0.768591 0.570454
O O3 0.688168 0.724520 0.745980
O O4 0.698239 0.000000 0.673004
O O5 0.411649 0.500000 0.281888
O O6 0.404113 0.801266 0.335711
O O7 0.476964 0.697246 0.266086
O O8 0.410240 0.745287 0.163037
O O9 0.412301 0.706778 0.506529
O O10 0.390275 0.000000 0.470890
O O11 0.964189 0.500000 0.416420
O O12 0.953051 0.783674 0.345296
O O13 0.000000 0.744780 0.500000
O O14 0.042327 0.223460 0.838948
O O15 0.002560 0.000000 0.746253
O O16 0.459074 0.500000 0.921372
O O17 0.500000 0.261268 0.000000
O O18 0.413377 0.249892 0.984566
O O19 0.750000 0.236393 0.873598
O O20 0.704858 0.500000 0.860873
O O21 0.664857 0.247256 0.922060
O O22 0.885524 0.500000 0.930937
#
# Coordination Sequence:
#
# PCOD8209561 Si02
#       8
#     8   8   8   8   8   8   8   8
#     4   9  18  31  46  69 103 137 164 194 243 300
#     4  11  19  31  49  70  99 135 171 201 239 291
#     4  11  21  32  49  75 102 133 169 209 247 284
#     4  11  23  37  54  72  95 133 171 203 246 302
#     4  12  24  36  50  72 101 128 163 211 252 287
#     4  10  19  34  52  69  94 132 170 201 240 293
#     4   9  16  27  45  70  98 128 165 205 239 277
#     4   9  17  29  47  70  96 131 169 201 237 284
#
# _framework density 17.201982000000001
#
# number of rings (size 3 to 8) (size 9 to 14) (size 15 to 20)
#    0.000    1.750    3.750    2.250    0.000    1.250 
#    0.000    0.625    0.000    0.000    0.000    0.875 
#    0.000    3.000    0.000    0.000    0.000    0.000 
#
# Total GULP energy -793263.451261 kJ/mol
# GULP energy per Si atom -12394.741426 kJ/mol
# Density = 1.716283 g / cm^3
# Si number density = 17.201982 Si / 1000 Ang^3
#
#
#
# Elastic Constant Matrix: (Units=GPa)
#
#
# Indices 1 2 3 4 5 6 
#
# 1 121.7407 15.4548 48.2147 0.0000 0.0000 0.0000
# 2 15.4548 34.9697 20.7208 0.0000 0.0000 0.0000
# 3 48.2147 20.7208 98.0238 0.0000 0.0000 0.0000
# 4 0.0000 0.0000 0.0000 17.9032 0.0000 0.0000
# 5 0.0000 0.0000 0.0000 0.0000 25.8094 0.0000
# 6 0.0000 0.0000 0.0000 0.0000 0.0000 14.7931
#
#
#
# Elastic Compliance Matrix: (Units=1/GPa)
#
#
# Indices 1 2 3 4 5 6 
#
# 1 0.010297 -0.001772 -0.004690 0.000000 0.000000 0.000000
# 2 -0.001772 0.032996 -0.006103 0.000000 0.000000 0.000000
# 3 -0.004690 -0.006103 0.013799 0.000000 0.000000 0.000000
# 4 0.000000 0.000000 0.000000 0.055856 0.000000 0.000000
# 5 0.000000 0.000000 0.000000 0.000000 0.038746 0.000000
# 6 0.000000 0.000000 0.000000 0.000000 0.000000 0.067599
#
#
# Mechanical properties :
#
#
# Convention : Reuss Voigt Hill
#
# Bulk Modulus (GPa) = 31.28832 47.05720 39.17276
# Shear Modulus (GPa) = 19.60209 23.05741 21.32975
#
# Velocity S-wave (km/s) = 3.37935 3.66511 3.52513
# Velocity P-wave (km/s) = 5.78402 6.73244 6.27617
#
# Compressibility (1/GPa) = 0.03196081
#
# Stress axis : x y z
#
# Youngs Moduli (GPa) = 97.12003 30.30704 72.47077
#
# Poissons Ratio (x) = 0.05369 0.33989
# Poissons Ratio (y) = 0.17205 0.44232
# Poissons Ratio (z) = 0.45550 0.18498
#
# Static dielectric constant tensor:
#      x y z
#    x 3.713970 0.000000 0.000000 
#    y 0.000000 3.012860 0.000000 
#    z 0.000000 0.000000 3.113830 
# 
# 
# High freq. dielectric constant tensor:
#      x y z
#    x 1.662160 0.000000 0.000000 
#    y 0.000000 1.654550 0.000000 
#    z 0.000000 0.000000 1.632680 
# 
# From -- ./inp_files/26645.got.cif
#   From: 2010.03.12/outbox.cif.g09.slc.cpg/sg51_14_cif.got.tgz:26645.got - 2010.04.16 13:43:02.
