data_PCOD8209726
_publ_section_title
;
Structure prediction by ZEFSAII (Michael W. Deem and Ramdas Pophale) SiO2 
 PCOD8209726
Probable space group: P M M A
;
_chemical_formula_sum "Si O2"
_cell_formula_units_Z 56
_cell_length_a 16.272035
_cell_length_b 9.372455
_cell_length_c 18.727358
_cell_angle_alpha 90.000000
_cell_angle_beta 90.000000
_cell_angle_gamma 90.000000
_cell_volume 2856.089064
_symmetry_space_group_name_H-M "P M M A"
_symmetry_group_IT_number 51
_symmetry_cell_setting 'orthorhombic'
loop_
_space_group_symop_operation_xyz
x,y,z
1/2-x,-y,z
1/2+x,-y,-z
-x,y,-z
-x,-y,-z
1/2+x,y,-z
1/2-x,y,z
x,-y,z
loop_
_atom_site_type_symbol
_atom_site_label
_atom_site_fract_x
_atom_site_fract_y
_atom_site_fract_z
Si Si1 0.923009 0.837118 0.206437
Si Si2 0.425044 0.335795 0.046043
Si Si3 0.506744 0.165188 0.584042
Si Si4 0.925006 0.334883 0.794555
Si Si5 0.840520 0.337062 0.090323
Si Si6 0.842664 0.334442 0.652923
Si Si7 0.660173 0.164275 0.348354
O O1 0.903701 0.763066 0.131270
O O2 0.848961 0.821795 0.262689
O O3 0.001623 0.757809 0.239638
O O4 0.945061 0.000000 0.190880
O O5 0.447321 0.500000 0.058638
O O6 0.406593 0.272778 0.125246
O O7 0.500000 0.265930 0.000000
O O8 0.345766 0.315081 0.995401
O O9 0.500000 0.180550 0.500000
O O10 0.588207 0.246377 0.610602
O O11 0.420618 0.232685 0.614257
O O12 0.514863 0.000000 0.608331
O O13 0.951015 0.500000 0.797537
O O14 0.850206 0.313824 0.739116
O O15 0.750000 0.295234 0.115109
O O16 0.861793 0.500000 0.110134
O O17 0.750000 0.284456 0.631793
O O18 0.855108 0.500000 0.632907
O O19 0.750000 0.233506 0.368803
O O20 0.662876 0.000000 0.371730
#
# Coordination Sequence:
#
# PCOD8209726 Si02
#       7
#     8   8   8   8   8   8   8
#     4  11  20  32  53  77 106 143 183 225 280 336
#     4   9  16  29  50  73  98 132 178 230 281 328
#     4  10  21  38  62  90 117 149 189 229 275 333
#     4  10  19  34  57  79 106 144 191 237 279 330
#     4  10  20  33  50  74 103 136 178 228 279 332
#     4  10  22  39  60  87 119 155 193 236 287 338
#     4   9  18  33  53  79 111 143 179 225 275 328
#
# _framework density 19.607230999999999
#
# number of rings (size 3 to 8) (size 9 to 14) (size 15 to 20)
#    0.000    2.143    2.857    0.857    0.000    2.571 
#    0.000    5.714    0.000    1.286    0.000    2.000 
#    0.000    0.000    0.000    0.000    0.000    0.000 
#
# Total GULP energy -693741.091362 kJ/mol
# GULP energy per Si atom -12388.233774 kJ/mol
# Density = 1.956260 g / cm^3
# Si number density = 19.607231 Si / 1000 Ang^3
#
#
#
# Elastic Constant Matrix: (Units=GPa)
#
#
# Indices 1 2 3 4 5 6 
#
# 1 147.4287 48.0411 47.1756 0.0000 0.0000 0.0000
# 2 48.0411 58.8537 26.1944 0.0000 0.0000 0.0000
# 3 47.1756 26.1944 85.0678 0.0000 0.0000 0.0000
# 4 0.0000 0.0000 0.0000 17.9437 0.0000 0.0000
# 5 0.0000 0.0000 0.0000 0.0000 20.7157 0.0000
# 6 0.0000 0.0000 0.0000 0.0000 0.0000 23.3429
#
#
#
# Elastic Compliance Matrix: (Units=1/GPa)
#
#
# Indices 1 2 3 4 5 6 
#
# 1 0.010086 -0.006655 -0.003544 0.000000 0.000000 0.000000
# 2 -0.006655 0.024082 -0.003724 0.000000 0.000000 0.000000
# 3 -0.003544 -0.003724 0.014867 0.000000 0.000000 0.000000
# 4 0.000000 0.000000 0.000000 0.055730 0.000000 0.000000
# 5 0.000000 0.000000 0.000000 0.000000 0.048273 0.000000
# 6 0.000000 0.000000 0.000000 0.000000 0.000000 0.042840
#
#
# Mechanical properties :
#
#
# Convention : Reuss Voigt Hill
#
# Bulk Modulus (GPa) = 47.19783 59.35246 53.27514
# Shear Modulus (GPa) = 21.66503 23.72973 22.69738
#
# Velocity S-wave (km/s) = 3.32769 3.48264 3.40605
# Velocity P-wave (km/s) = 6.23607 6.81969 6.53440
#
# Compressibility (1/GPa) = 0.02118742
#
# Stress axis : x y z
#
# Youngs Moduli (GPa) = 99.15070 41.52534 67.26120
#
# Poissons Ratio (x) = 0.27637 0.23836
# Poissons Ratio (y) = 0.65989 0.25051
# Poissons Ratio (z) = 0.35137 0.15466
#
# Static dielectric constant tensor:
#      x y z
#    x 3.696310 0.000000 0.000000 
#    y 0.000000 3.247220 0.000000 
#    z 0.000000 0.000000 3.616310 
# 
# 
# High freq. dielectric constant tensor:
#      x y z
#    x 1.765960 0.000000 0.000000 
#    y 0.000000 1.719030 0.000000 
#    z 0.000000 0.000000 1.767920 
# 
# From -- ./inp_files/33403.got.cif
#   From: 2010.03.12/outbox.cif.g09.slc.cpg/sg51_17_cif.got.tgz:33403.got - 2010.04.16 13:43:02.
