data_PCOD8209964
_publ_section_title
;
Structure prediction by ZEFSAII (Michael W. Deem and Ramdas Pophale) SiO2 
 PCOD8209964
Probable space group: P M M A
;
_chemical_formula_sum "Si O2"
_cell_formula_units_Z 64
_cell_length_a 9.094777
_cell_length_b 15.297202
_cell_length_c 23.522210
_cell_angle_alpha 90.000000
_cell_angle_beta 90.000000
_cell_angle_gamma 90.000000
_cell_volume 3272.519020
_symmetry_space_group_name_H-M "P M M A"
_symmetry_group_IT_number 51
_symmetry_cell_setting 'orthorhombic'
loop_
_space_group_symop_operation_xyz
x,y,z
1/2-x,-y,z
1/2+x,-y,-z
-x,y,-z
-x,-y,-z
1/2+x,y,-z
1/2-x,y,z
x,-y,z
loop_
_atom_site_type_symbol
_atom_site_label
_atom_site_fract_x
_atom_site_fract_y
_atom_site_fract_z
Si Si1 0.083566 0.403432 0.552652
Si Si2 0.413633 0.898626 0.554629
Si Si3 0.419944 0.728296 0.145354
Si Si4 0.077432 0.856014 0.328443
Si Si5 0.416685 0.684434 0.668872
Si Si6 0.423226 0.400917 0.939805
Si Si7 0.923260 0.903563 0.795874
Si Si8 0.413149 0.594780 0.244905
O O1 0.250000 0.413802 0.534336
O O2 0.019379 0.500000 0.567708
O O3 0.065576 0.336395 0.603263
O O4 0.000000 0.360424 0.500000
O O5 0.500000 0.857317 0.500000
O O6 0.250000 0.855483 0.558410
O O7 0.494187 0.887904 0.615159
O O8 0.395239 0.000000 0.542348
O O9 0.250000 0.733205 0.125060
O O10 0.515573 0.678960 0.098030
O O11 0.483412 0.825434 0.162752
O O12 0.438444 0.671136 0.200939
O O13 0.250000 0.869675 0.338944
O O14 0.023220 0.902953 0.270174
O O15 0.037408 0.756330 0.316356
O O16 0.250000 0.712981 0.683324
O O17 0.463365 0.601087 0.706176
O O18 0.250000 0.386951 0.946684
O O19 0.455378 0.500000 0.915867
O O20 0.500000 0.391055 0.000000
O O21 0.750000 0.888805 0.794036
O O22 0.965223 0.000000 0.820832
O O23 0.250000 0.601959 0.271557
O O24 0.433648 0.500000 0.215348
#
# Coordination Sequence:
#
# PCOD8209964 Si02
#       8
#     8   8   8   8   8   8   8   8
#     4   9  19  35  52  69  90 122 167 218 272 333
#     4  10  21  37  56  79 105 134 174 226 289 359
#     4  10  19  35  58  86 120 155 196 242 287 338
#     4  11  21  36  56  78 108 143 186 236 291 352
#     4  11  22  35  51  73 105 138 177 227 282 342
#     4  10  21  37  59  90 127 166 205 241 284 336
#     4   9  18  34  58  85 113 150 196 242 292 351
#     4  10  20  34  53  79 111 148 188 229 281 344
#
# _framework density 19.556799999999999
#
# number of rings (size 3 to 8) (size 9 to 14) (size 15 to 20)
#    0.000    2.000    1.250    2.625    0.000    5.250 
#    0.000    2.500    0.000    2.250    0.000    0.000 
#    0.000    0.000    0.000    0.000    0.000    0.000 
#
# Total GULP energy -792952.615535 kJ/mol
# GULP energy per Si atom -12389.884618 kJ/mol
# Density = 1.951229 g / cm^3
# Si number density = 19.556800 Si / 1000 Ang^3
#
#
#
# Elastic Constant Matrix: (Units=GPa)
#
#
# Indices 1 2 3 4 5 6 
#
# 1 83.9605 37.0045 52.2579 0.0000 0.0000 0.0000
# 2 37.0045 120.1676 46.0447 0.0000 0.0000 0.0000
# 3 52.2579 46.0447 91.0448 0.0000 0.0000 0.0000
# 4 0.0000 0.0000 0.0000 23.1310 0.0000 0.0000
# 5 0.0000 0.0000 0.0000 0.0000 32.0138 0.0000
# 6 0.0000 0.0000 0.0000 0.0000 0.0000 -10.7100
#
#
#
# Elastic Compliance Matrix: (Units=1/GPa)
#
#
# Indices 1 2 3 4 5 6 
#
# 1 0.018935 -0.002067 -0.009823 0.000000 0.000000 0.000000
# 2 -0.002067 0.010548 -0.004148 0.000000 0.000000 0.000000
# 3 -0.009823 -0.004148 0.018720 0.000000 0.000000 0.000000
# 4 0.000000 0.000000 0.000000 0.043232 0.000000 0.000000
# 5 0.000000 0.000000 0.000000 0.000000 0.031236 0.000000
# 6 0.000000 0.000000 0.000000 0.000000 0.000000 -0.093371
#
#
# Mechanical properties :
#
#
# Convention : Reuss Voigt Hill
#
# Bulk Modulus (GPa) = 62.00977 62.86522 62.43749
# Shear Modulus (GPa) = 74.90425 19.54469 47.22447
#
# Velocity S-wave (km/s) = 6.19548 3.16473 4.91933
# Velocity P-wave (km/s) = 9.10797 6.75046 8.01635
#
# Compressibility (1/GPa) = 0.01612649
#
# Stress axis : x y z
#
# Youngs Moduli (GPa) = 52.81106 94.80849 53.41987
#
# Poissons Ratio (x) = 0.19597 0.52475
# Poissons Ratio (y) = 0.10916 0.22158
# Poissons Ratio (z) = 0.51877 0.39325
#
# Static dielectric constant tensor:
#      x y z
#    x 3.531360 0.000000 0.000000 
#    y 0.000000 3.723450 0.000000 
#    z 0.000000 0.000000 3.464970 
# 
# 
# High freq. dielectric constant tensor:
#      x y z
#    x 1.751550 0.000000 0.000000 
#    y 0.000000 1.766460 0.000000 
#    z 0.000000 0.000000 1.741750 
# 
# From -- ./inp_files/34862.got.cif
#   From: 2010.03.12/outbox.cif.g09.slc.cpg/sg51_18_cif.got.tgz:34862.got - 2010.04.16 13:43:02.
