data_PCOD8209036
_publ_section_title
;
Structure prediction by ZEFSAII (Michael W. Deem and Ramdas Pophale) SiO2 
 PCOD8209036
Probable space group: P M M A
;
_chemical_formula_sum "Si O2"
_cell_formula_units_Z 48
_cell_length_a 20.665979
_cell_length_b 8.593319
_cell_length_c 15.196387
_cell_angle_alpha 90.000000
_cell_angle_beta 90.000000
_cell_angle_gamma 90.000000
_cell_volume 2698.716490
_symmetry_space_group_name_H-M "P M M A"
_symmetry_group_IT_number 51
_symmetry_cell_setting 'orthorhombic'
loop_
_space_group_symop_operation_xyz
x,y,z
1/2-x,-y,z
1/2+x,-y,-z
-x,y,-z
-x,-y,-z
1/2+x,y,-z
1/2-x,y,z
x,-y,z
loop_
_atom_site_type_symbol
_atom_site_label
_atom_site_fract_x
_atom_site_fract_y
_atom_site_fract_z
Si Si1 0.040915 0.315803 0.419767
Si Si2 0.142492 0.819942 0.193052
Si Si3 0.820267 0.319266 0.631310
Si Si4 0.320798 0.677784 0.019167
Si Si5 0.443389 0.182109 0.933670
Si Si6 0.990817 0.318964 0.773878
O O1 0.036496 0.500000 0.425490
O O2 0.117149 0.264697 0.425976
O O3 0.009132 0.259949 0.327721
O O4 0.000000 0.240102 0.500000
O O5 0.183528 0.779080 0.279332
O O6 0.183126 0.783075 0.106494
O O7 0.079596 0.711731 0.186732
O O8 0.121929 0.000000 0.194644
O O9 0.750000 0.294285 0.583079
O O10 0.829941 0.500000 0.656017
O O11 0.250000 0.693695 0.973411
O O12 0.334635 0.500000 0.045553
O O13 0.375917 0.734940 0.953338
O O14 0.458571 0.222460 0.832204
O O15 0.433839 0.000000 0.945837
O O16 0.500000 0.241521 0.000000
O O17 0.008139 0.500000 0.780316
#
# Coordination Sequence:
#
# PCOD8209036 Si02
#       6
#     8   8   8   8   8   8
#     4   8  15  29  50  75 100 126 162 207 255 301
#     4  11  20  30  46  71 102 134 166 202 251 307
#     4   9  17  29  46  69  97 129 163 199 245 304
#     4  11  23  36  51  72 100 136 176 216 257 304
#     4  11  22  35  53  77 103 136 175 213 252 301
#     4  10  19  32  53  76 100 135 172 212 256 299
#
# _framework density 17.786232999999999
#
# number of rings (size 3 to 8) (size 9 to 14) (size 15 to 20)
#    0.000    2.000    1.667    4.500    0.000    4.333 
#    0.000    0.000    0.000   13.500    0.000    4.667 
#    0.000    0.000    0.000    0.000    0.000    0.000 
#
# Total GULP energy -594914.526171 kJ/mol
# GULP energy per Si atom -12394.052629 kJ/mol
# Density = 1.774575 g / cm^3
# Si number density = 17.786233 Si / 1000 Ang^3
#
#
#
# Elastic Constant Matrix: (Units=GPa)
#
#
# Indices 1 2 3 4 5 6 
#
# 1 135.6553 19.5891 69.7694 0.0000 0.0000 0.0000
# 2 19.5891 43.5896 18.4266 0.0000 0.0000 0.0000
# 3 69.7694 18.4266 94.1533 0.0000 0.0000 0.0000
# 4 0.0000 0.0000 0.0000 10.2484 0.0000 0.0000
# 5 0.0000 0.0000 0.0000 0.0000 23.2714 0.0000
# 6 0.0000 0.0000 0.0000 0.0000 0.0000 12.9721
#
#
#
# Elastic Compliance Matrix: (Units=1/GPa)
#
#
# Indices 1 2 3 4 5 6 
#
# 1 0.012037 -0.001787 -0.008570 0.000000 0.000000 0.000000
# 2 -0.001787 0.025276 -0.003623 0.000000 0.000000 0.000000
# 3 -0.008570 -0.003623 0.017681 0.000000 0.000000 0.000000
# 4 0.000000 0.000000 0.000000 0.097577 0.000000 0.000000
# 5 0.000000 0.000000 0.000000 0.000000 0.042971 0.000000
# 6 0.000000 0.000000 0.000000 0.000000 0.000000 0.077088
#
#
# Mechanical properties :
#
#
# Convention : Reuss Voigt Hill
#
# Bulk Modulus (GPa) = 36.98992 54.32984 45.65988
# Shear Modulus (GPa) = 16.14983 20.33925 18.24454
#
# Velocity S-wave (km/s) = 3.01657 3.38529 3.20623
# Velocity P-wave (km/s) = 5.74238 6.77441 6.27963
#
# Compressibility (1/GPa) = 0.02703439
#
# Stress axis : x y z
#
# Youngs Moduli (GPa) = 83.07393 39.56388 56.55872
#
# Poissons Ratio (x) = 0.07069 0.48473
# Poissons Ratio (y) = 0.14843 0.20489
# Poissons Ratio (z) = 0.71197 0.14333
#
# Static dielectric constant tensor:
#      x y z
#    x 3.456260 0.000000 0.000000 
#    y 0.000000 3.150450 0.000000 
#    z 0.000000 0.000000 3.273650 
# 
# 
# High freq. dielectric constant tensor:
#      x y z
#    x 1.688660 0.000000 0.000000 
#    y 0.000000 1.679950 0.000000 
#    z 0.000000 0.000000 1.652170 
# 
# From -- ./inp_files/25436.got.cif
#   From: 2010.03.12/outbox.cif.g09.slc.cpg/sg51_13_cif.got.tgz:25436.got - 2010.04.16 13:43:02.
