data_PCOD8209274
_publ_section_title
;
Structure prediction by ZEFSAII (Michael W. Deem and Ramdas Pophale) SiO2 
 PCOD8209274
Probable space group: P M M A
;
_chemical_formula_sum "Si O2"
_cell_formula_units_Z 44
_cell_length_a 8.792577
_cell_length_b 28.179109
_cell_length_c 9.809248
_cell_angle_alpha 90.000000
_cell_angle_beta 90.000000
_cell_angle_gamma 90.000000
_cell_volume 2430.407809
_symmetry_space_group_name_H-M "P M M A"
_symmetry_group_IT_number 51
_symmetry_cell_setting 'orthorhombic'
loop_
_space_group_symop_operation_xyz
x,y,z
1/2-x,-y,z
1/2+x,-y,-z
-x,y,-z
-x,-y,-z
1/2+x,y,-z
1/2-x,y,z
x,-y,z
loop_
_atom_site_type_symbol
_atom_site_label
_atom_site_fract_x
_atom_site_fract_y
_atom_site_fract_z
Si Si1 0.930079 0.125130 0.349821
Si Si2 0.070722 0.602716 0.850551
Si Si3 0.425848 0.500000 0.855735
Si Si4 0.073611 0.218008 0.353560
Si Si5 0.074327 0.944303 0.141503
Si Si6 0.573362 0.677138 0.648072
O O1 0.750000 0.124494 0.358396
O O2 0.000000 0.121075 0.500000
O O3 0.987481 0.174459 0.277789
O O4 0.986693 0.080707 0.263791
O O5 0.250000 0.610619 0.862706
O O6 0.030915 0.550315 0.784495
O O7 0.002917 0.641249 0.750960
O O8 0.000000 0.608491 0.000000
O O9 0.250000 0.500000 0.885624
O O10 0.500000 0.500000 0.000000
O O11 0.250000 0.204562 0.365895
O O12 0.051011 0.269977 0.286573
O O13 0.000000 0.222363 0.500000
O O14 0.250000 0.929223 0.140830
O O15 0.053704 0.000000 0.164510
O O16 0.000000 0.927973 0.000000
O O17 0.500000 0.672084 0.500000
O O18 0.750000 0.665098 0.632348
#
# Coordination Sequence:
#
# PCOD8209274 Si02
#       6
#     8   8   4   8   8   8
#     4  11  21  34  55  81 108 137 173 216 258 301
#     4  10  19  33  53  76 103 133 169 212 256 305
#     4   8  16  30  49  72  97 130 168 206 252 304
#     4   9  17  31  51  74 102 134 170 210 254 306
#     4  10  21  38  58  79 106 140 175 211 256 310
#     4  10  20  34  53  77 104 136 172 210 255 306
#
# _framework density 18.103957000000001
#
# number of rings (size 3 to 8) (size 9 to 14) (size 15 to 20)
#    0.000    2.182    0.000    4.909    0.000    4.364 
#    0.000    1.364    0.000    4.364    0.000    0.000 
#    0.000    0.000    0.000    0.000    0.000    0.000 
#
# Total GULP energy -545207.933426 kJ/mol
# GULP energy per Si atom -12391.089396 kJ/mol
# Density = 1.806275 g / cm^3
# Si number density = 18.103957 Si / 1000 Ang^3
#
#
#
# Elastic Constant Matrix: (Units=GPa)
#
#
# Indices 1 2 3 4 5 6 
#
# 1 147.9075 71.5688 51.5055 0.0000 0.0000 0.0000
# 2 71.5688 115.4985 59.2130 0.0000 0.0000 0.0000
# 3 51.5055 59.2130 75.7747 0.0000 0.0000 0.0000
# 4 0.0000 0.0000 0.0000 92.2540 0.0000 0.0000
# 5 0.0000 0.0000 0.0000 0.0000 31.7032 0.0000
# 6 0.0000 0.0000 0.0000 0.0000 0.0000 32.1028
#
#
#
# Elastic Compliance Matrix: (Units=1/GPa)
#
#
# Indices 1 2 3 4 5 6 
#
# 1 0.010129 -0.004583 -0.003304 0.000000 0.000000 0.000000
# 2 -0.004583 0.016518 -0.009793 0.000000 0.000000 0.000000
# 3 -0.003304 -0.009793 0.023095 0.000000 0.000000 0.000000
# 4 0.000000 0.000000 0.000000 0.010840 0.000000 0.000000
# 5 0.000000 0.000000 0.000000 0.000000 0.031543 0.000000
# 6 0.000000 0.000000 0.000000 0.000000 0.000000 0.031150
#
#
# Mechanical properties :
#
#
# Convention : Reuss Voigt Hill
#
# Bulk Modulus (GPa) = 69.52389 78.19504 73.85946
# Shear Modulus (GPa) = 30.59443 41.67158 36.13301
#
# Velocity S-wave (km/s) = 4.11534 4.80291 4.47235
# Velocity P-wave (km/s) = 7.81456 8.60484 8.21920
#
# Compressibility (1/GPa) = 0.01438354
#
# Stress axis : x y z
#
# Youngs Moduli (GPa) = 98.72789 60.53840 43.29873
#
# Poissons Ratio (x) = 0.27742 0.14305
# Poissons Ratio (y) = 0.45243 0.42403
# Poissons Ratio (z) = 0.32617 0.59286
#
# Static dielectric constant tensor:
#      x y z
#    x 3.561920 0.000000 0.000000 
#    y 0.000000 4.240550 0.000000 
#    z 0.000000 0.000000 2.966400 
# 
# 
# High freq. dielectric constant tensor:
#      x y z
#    x 1.723550 0.000000 0.000000 
#    y 0.000000 1.724480 0.000000 
#    z 0.000000 0.000000 1.658860 
# 
# From -- ./inp_files/5750.got.cif
#   From: 2010.03.12/outbox.cif.g09.slc.cpg/sg51_3_cif.got.tgz:5750.got - 2010.04.16 13:43:02.
