data_PCOD8209788
_publ_section_title
;
Structure prediction by ZEFSAII (Michael W. Deem and Ramdas Pophale) SiO2 
 PCOD8209788
Probable space group: P M M A
;
_chemical_formula_sum "Si O2"
_cell_formula_units_Z 44
_cell_length_a 8.796716
_cell_length_b 17.879325
_cell_length_c 14.341647
_cell_angle_alpha 90.000000
_cell_angle_beta 90.000000
_cell_angle_gamma 90.000000
_cell_volume 2255.644836
_symmetry_space_group_name_H-M "P M M A"
_symmetry_group_IT_number 51
_symmetry_cell_setting 'orthorhombic'
loop_
_space_group_symop_operation_xyz
x,y,z
1/2-x,-y,z
1/2+x,-y,-z
-x,y,-z
-x,-y,-z
1/2+x,y,-z
1/2-x,y,z
x,-y,z
loop_
_atom_site_type_symbol
_atom_site_label
_atom_site_fract_x
_atom_site_fract_y
_atom_site_fract_z
Si Si1 0.930662 0.417038 0.284499
Si Si2 0.430260 0.855329 0.284780
Si Si3 0.930305 0.277302 0.399816
Si Si4 0.571091 0.174868 0.095872
Si Si5 0.927609 0.348737 0.094358
Si Si6 0.571435 0.000000 0.600876
O O1 0.750000 0.415996 0.278871
O O2 0.991788 0.500000 0.309528
O O3 0.983904 0.359175 0.364273
O O4 0.995316 0.392560 0.183507
O O5 0.250000 0.844422 0.285286
O O6 0.510428 0.782719 0.326585
O O7 0.489911 0.868485 0.180165
O O8 0.482687 0.926801 0.344001
O O9 0.750000 0.270985 0.405766
O O10 0.000000 0.260948 0.500000
O O11 0.750000 0.159397 0.097354
O O12 0.531375 0.262059 0.106885
O O13 0.500000 0.143797 0.000000
O O14 0.750000 0.361381 0.086233
O O15 0.000000 0.381516 0.000000
O O16 0.500000 0.000000 0.500000
O O17 0.750000 0.000000 0.588699
#
# Coordination Sequence:
#
# PCOD8209788 Si02
#       6
#     8   8   8   8   8   4
#     4   9  18  34  54  76 109 150 188 231 283 337
#     4  11  22  39  62  88 117 151 188 234 284 341
#     4  11  22  38  58  83 110 145 192 238 287 344
#     4  10  19  34  57  88 119 153 192 235 280 335
#     4   9  17  31  51  78 109 144 184 226 274 328
#     4  10  24  42  61  88 119 150 189 234 288 342
#
# _framework density 19.506616999999999
#
# number of rings (size 3 to 8) (size 9 to 14) (size 15 to 20)
#    0.000    2.000    1.818    2.182    0.000    4.364 
#    0.000    0.455    0.000    3.818    0.000    0.000 
#    0.000    0.000    0.000    0.000    0.000    0.000 
#
# Total GULP energy -545668.904836 kJ/mol
# GULP energy per Si atom -12401.566019 kJ/mol
# Density = 1.946222 g / cm^3
# Si number density = 19.506617 Si / 1000 Ang^3
#
#
#
# Elastic Constant Matrix: (Units=GPa)
#
#
# Indices 1 2 3 4 5 6 
#
# 1 57.3441 35.0104 40.6418 0.0000 0.0000 0.0000
# 2 35.0104 98.0080 51.7397 0.0000 0.0000 0.0000
# 3 40.6418 51.7397 153.7704 0.0000 0.0000 0.0000
# 4 0.0000 0.0000 0.0000 30.8953 0.0000 0.0000
# 5 0.0000 0.0000 0.0000 0.0000 37.4894 0.0000
# 6 0.0000 0.0000 0.0000 0.0000 0.0000 20.3267
#
#
#
# Elastic Compliance Matrix: (Units=1/GPa)
#
#
# Indices 1 2 3 4 5 6 
#
# 1 0.024417 -0.006464 -0.004279 0.000000 0.000000 0.000000
# 2 -0.006464 0.014118 -0.003042 0.000000 0.000000 0.000000
# 3 -0.004279 -0.003042 0.008658 0.000000 0.000000 0.000000
# 4 0.000000 0.000000 0.000000 0.032367 0.000000 0.000000
# 5 0.000000 0.000000 0.000000 0.000000 0.026674 0.000000
# 6 0.000000 0.000000 0.000000 0.000000 0.000000 0.049196
#
#
# Mechanical properties :
#
#
# Convention : Reuss Voigt Hill
#
# Bulk Modulus (GPa) = 50.95698 62.65626 56.80662
# Shear Modulus (GPa) = 26.37948 29.85763 28.11856
#
# Velocity S-wave (km/s) = 3.68140 3.91659 3.80081
# Velocity P-wave (km/s) = 6.65206 7.25556 6.96035
#
# Compressibility (1/GPa) = 0.01962440
#
# Stress axis : x y z
#
# Youngs Moduli (GPa) = 40.95455 70.83111 115.50485
#
# Poissons Ratio (x) = 0.45782 0.49421
# Poissons Ratio (y) = 0.26471 0.35137
# Poissons Ratio (z) = 0.17523 0.21547
#
# Static dielectric constant tensor:
#      x y z
#    x 3.366640 0.000000 0.000000 
#    y 0.000000 3.622320 0.000000 
#    z 0.000000 0.000000 3.754020 
# 
# 
# High freq. dielectric constant tensor:
#      x y z
#    x 1.744840 0.000000 0.000000 
#    y 0.000000 1.747670 0.000000 
#    z 0.000000 0.000000 1.776260 
# 
# From -- ./inp_files/20873.got.cif
#   From: 2010.03.12/outbox.cif.g09.slc.cpg/sg51_11_cif.got.tgz:20873.got - 2010.04.16 13:43:02.
