data_PCOD8209137
_publ_section_title
;
Structure prediction by ZEFSAII (Michael W. Deem and Ramdas Pophale) SiO2 
 PCOD8209137
Probable space group: P M M A
;
_chemical_formula_sum "Si O2"
_cell_formula_units_Z 64
_cell_length_a 14.279262
_cell_length_b 9.348621
_cell_length_c 25.174191
_cell_angle_alpha 90.000000
_cell_angle_beta 90.000000
_cell_angle_gamma 90.000000
_cell_volume 3360.538217
_symmetry_space_group_name_H-M "P M M A"
_symmetry_group_IT_number 51
_symmetry_cell_setting 'orthorhombic'
loop_
_space_group_symop_operation_xyz
x,y,z
1/2-x,-y,z
1/2+x,-y,-z
-x,y,-z
-x,-y,-z
1/2+x,y,-z
1/2-x,y,z
x,-y,z
loop_
_atom_site_type_symbol
_atom_site_label
_atom_site_fract_x
_atom_site_fract_y
_atom_site_fract_z
Si Si1 0.475944 0.667473 0.375614
Si Si2 0.642585 0.832308 0.415692
Si Si3 0.893126 0.160449 0.016121
Si Si4 0.648012 0.658915 0.919433
Si Si5 0.355908 0.669794 0.275674
Si Si6 0.643653 0.337730 0.521602
Si Si7 0.142687 0.166362 0.865372
Si Si8 0.476902 0.670347 0.175953
O O1 0.498187 0.500000 0.369231
O O2 0.573747 0.754418 0.373910
O O3 0.409232 0.722557 0.328423
O O4 0.424012 0.702630 0.430427
O O5 0.750000 0.801866 0.398673
O O6 0.622423 0.769366 0.473883
O O7 0.621021 0.000000 0.416744
O O8 0.875126 0.223685 0.074735
O O9 0.853034 0.000000 0.014454
O O10 0.838852 0.252032 0.972935
O O11 0.000000 0.166619 0.000000
O O12 0.750000 0.653666 0.891556
O O13 0.614366 0.500000 0.935111
O O14 0.575684 0.724618 0.877246
O O15 0.250000 0.733286 0.274238
O O16 0.349542 0.500000 0.274915
O O17 0.416170 0.725107 0.225691
O O18 0.750000 0.322413 0.542019
O O19 0.624614 0.500000 0.501811
O O20 0.250000 0.192477 0.848959
O O21 0.078650 0.255241 0.824225
O O22 0.115296 0.000000 0.861599
O O23 0.488738 0.500000 0.177497
#
# Coordination Sequence:
#
# PCOD8209137 Si02
#       8
#     8   8   8   8   8   8   8   8
#     4  10  19  32  54  81 105 135 176 219 263 309
#     4  10  21  35  50  72 106 147 183 214 256 309
#     4  10  19  33  53  75 101 135 173 212 253 304
#     4  10  20  32  49  76 107 136 166 203 252 308
#     4   9  18  35  59  84 108 134 167 211 263 315
#     4   9  17  30  50  78 110 140 173 215 260 310
#     4  10  21  37  55  75 103 139 176 214 259 309
#     4  10  20  35  56  79 104 134 171 213 257 306
#
# _framework density 19.044568999999999
#
# number of rings (size 3 to 8) (size 9 to 14) (size 15 to 20)
#    0.000    2.250    1.250    1.875    0.000    7.500 
#    0.000    1.250    0.000    6.750    0.000    0.000 
#    0.000    0.000    0.000    0.000    0.000    0.000 
#
# Total GULP energy -793539.507200 kJ/mol
# GULP energy per Si atom -12399.054800 kJ/mol
# Density = 1.900122 g / cm^3
# Si number density = 19.044569 Si / 1000 Ang^3
#
#
#
# Elastic Constant Matrix: (Units=GPa)
#
#
# Indices 1 2 3 4 5 6 
#
# 1 142.7514 49.3500 65.0399 0.0000 0.0000 0.0000
# 2 49.3500 57.9999 38.2819 0.0000 0.0000 0.0000
# 3 65.0399 38.2819 86.8776 0.0000 0.0000 0.0000
# 4 0.0000 0.0000 0.0000 9.9828 0.0000 0.0000
# 5 0.0000 0.0000 0.0000 0.0000 32.1797 0.0000
# 6 0.0000 0.0000 0.0000 0.0000 0.0000 13.5763
#
#
#
# Elastic Compliance Matrix: (Units=1/GPa)
#
#
# Indices 1 2 3 4 5 6 
#
# 1 0.011954 -0.006013 -0.006300 0.000000 0.000000 0.000000
# 2 -0.006013 0.027337 -0.007544 0.000000 0.000000 0.000000
# 3 -0.006300 -0.007544 0.019551 0.000000 0.000000 0.000000
# 4 0.000000 0.000000 0.000000 0.100173 0.000000 0.000000
# 5 0.000000 0.000000 0.000000 0.000000 0.031076 0.000000
# 6 0.000000 0.000000 0.000000 0.000000 0.000000 0.073658
#
#
# Mechanical properties :
#
#
# Convention : Reuss Voigt Hill
#
# Bulk Modulus (GPa) = 52.27908 65.88582 59.08245
# Shear Modulus (GPa) = 16.13740 20.14488 18.14114
#
# Velocity S-wave (km/s) = 2.91408 3.25587 3.08971
# Velocity P-wave (km/s) = 6.23161 6.98606 6.61959
#
# Compressibility (1/GPa) = 0.01912811
#
# Stress axis : x y z
#
# Youngs Moduli (GPa) = 83.65184 36.57990 51.14864
#
# Poissons Ratio (x) = 0.21997 0.32222
# Poissons Ratio (y) = 0.50304 0.38587
# Poissons Ratio (z) = 0.52698 0.27596
#
# Static dielectric constant tensor:
#      x y z
#    x 3.672830 0.000000 0.000000 
#    y 0.000000 3.268480 0.000000 
#    z 0.000000 0.000000 3.341010 
# 
# 
# High freq. dielectric constant tensor:
#      x y z
#    x 1.758730 0.000000 0.000000 
#    y 0.000000 1.714130 0.000000 
#    z 0.000000 0.000000 1.719990 
# 
# From -- ./inp_files/35599.got.cif
#   From: 2010.03.12/outbox.cif.g09.slc.cpg/sg51_18_cif.got.tgz:35599.got - 2010.04.16 13:43:02.
