data_PCOD8209688
_publ_section_title
;
Structure prediction by ZEFSAII (Michael W. Deem and Ramdas Pophale) SiO2 
 PCOD8209688
Probable space group: P M M A
;
_chemical_formula_sum "Si O2"
_cell_formula_units_Z 44
_cell_length_a 8.893945
_cell_length_b 27.808876
_cell_length_c 9.624830
_cell_angle_alpha 90.000000
_cell_angle_beta 90.000000
_cell_angle_gamma 90.000000
_cell_volume 2380.515110
_symmetry_space_group_name_H-M "P M M A"
_symmetry_group_IT_number 51
_symmetry_cell_setting 'orthorhombic'
loop_
_space_group_symop_operation_xyz
x,y,z
1/2-x,-y,z
1/2+x,-y,-z
-x,y,-z
-x,-y,-z
1/2+x,y,-z
1/2-x,y,z
x,-y,z
loop_
_atom_site_type_symbol
_atom_site_label
_atom_site_fract_x
_atom_site_fract_y
_atom_site_fract_z
Si Si1 0.078398 0.000000 0.356076
Si Si2 0.577075 0.446146 0.852460
Si Si3 0.074592 0.265533 0.641721
Si Si4 0.571950 0.183036 0.151115
Si Si5 0.427317 0.625401 0.642819
Si Si6 0.572180 0.895389 0.652768
O O1 0.039897 0.949103 0.281963
O O2 0.000000 0.000000 0.500000
O O3 0.250000 0.000000 0.396052
O O4 0.750000 0.430261 0.865448
O O5 0.564514 0.500000 0.789417
O O6 0.488186 0.408662 0.760847
O O7 0.500000 0.444800 0.000000
O O8 0.250000 0.262843 0.614113
O O9 0.027286 0.232362 0.770828
O O10 0.023271 0.319855 0.676297
O O11 0.000000 0.246383 0.500000
O O12 0.750000 0.176783 0.137627
O O13 0.505655 0.139369 0.238456
O O14 0.500000 0.184474 0.000000
O O15 0.500000 0.607941 0.500000
O O16 0.250000 0.620125 0.631656
O O17 0.500000 0.889094 0.500000
O O18 0.750000 0.884611 0.642155
#
# Coordination Sequence:
#
# PCOD8209688 Si02
#       6
#     4   8   8   8   8   8
#     4   8  16  30  51  78 107 136 172 216 260 308
#     4  10  21  37  56  79 108 143 181 220 264 315
#     4   9  20  37  57  80 106 137 175 217 264 316
#     4  11  23  38  54  77 108 142 179 220 266 316
#     4  10  20  36  57  82 110 140 176 219 265 314
#     4  10  19  34  56  82 109 140 177 218 263 313
#
# _framework density 18.483394000000001
#
# number of rings (size 3 to 8) (size 9 to 14) (size 15 to 20)
#    0.000    2.182    0.000    2.727    0.000    6.545 
#    0.000    2.273    0.000    0.000    0.000    0.000 
#    0.000    0.000    0.000    0.000    0.000    0.000 
#
# Total GULP energy -545416.948356 kJ/mol
# GULP energy per Si atom -12395.839735 kJ/mol
# Density = 1.844133 g / cm^3
# Si number density = 18.483394 Si / 1000 Ang^3
#
#
#
# Elastic Constant Matrix: (Units=GPa)
#
#
# Indices 1 2 3 4 5 6 
#
# 1 89.6458 54.1073 52.0662 0.0000 0.0000 0.0000
# 2 54.1073 117.0502 74.3467 0.0000 0.0000 0.0000
# 3 52.0662 74.3467 120.9813 0.0000 0.0000 0.0000
# 4 0.0000 0.0000 0.0000 77.3719 0.0000 0.0000
# 5 0.0000 0.0000 0.0000 0.0000 36.6154 0.0000
# 6 0.0000 0.0000 0.0000 0.0000 0.0000 28.0860
#
#
#
# Elastic Compliance Matrix: (Units=1/GPa)
#
#
# Indices 1 2 3 4 5 6 
#
# 1 0.016560 -0.005131 -0.003974 0.000000 0.000000 0.000000
# 2 -0.005131 0.015603 -0.007380 0.000000 0.000000 0.000000
# 3 -0.003974 -0.007380 0.014511 0.000000 0.000000 0.000000
# 4 0.000000 0.000000 0.000000 0.012925 0.000000 0.000000
# 5 0.000000 0.000000 0.000000 0.000000 0.027311 0.000000
# 6 0.000000 0.000000 0.000000 0.000000 0.000000 0.035605
#
#
# Mechanical properties :
#
#
# Convention : Reuss Voigt Hill
#
# Bulk Modulus (GPa) = 72.97024 76.52417 74.74721
# Shear Modulus (GPa) = 31.23985 38.22514 34.73249
#
# Velocity S-wave (km/s) = 4.11561 4.55255 4.33958
# Velocity P-wave (km/s) = 7.88346 8.31419 8.10168
#
# Compressibility (1/GPa) = 0.01370422
#
# Stress axis : x y z
#
# Youngs Moduli (GPa) = 60.38738 64.09078 68.91206
#
# Poissons Ratio (x) = 0.32885 0.27383
# Poissons Ratio (y) = 0.30984 0.50859
# Poissons Ratio (z) = 0.23996 0.47301
#
# Static dielectric constant tensor:
#      x y z
#    x 3.543920 0.000000 0.000000 
#    y 0.000000 3.855230 0.000000 
#    z 0.000000 0.000000 3.238850 
# 
# 
# High freq. dielectric constant tensor:
#      x y z
#    x 1.732190 0.000000 0.000000 
#    y 0.000000 1.734410 0.000000 
#    z 0.000000 0.000000 1.699280 
# 
# From -- ./inp_files/5861.got.cif
#   From: 2010.03.12/outbox.cif.g09.slc.cpg/sg51_3_cif.got.tgz:5861.got - 2010.04.16 13:43:02.
