data_PCOD8209247
_publ_section_title
;
Structure prediction by ZEFSAII (Michael W. Deem and Ramdas Pophale) SiO2 
 PCOD8209247
Probable space group: P M M A
;
_chemical_formula_sum "Si O2"
_cell_formula_units_Z 64
_cell_length_a 28.548178
_cell_length_b 9.101173
_cell_length_c 12.586277
_cell_angle_alpha 90.000000
_cell_angle_beta 90.000000
_cell_angle_gamma 90.000000
_cell_volume 3270.190490
_symmetry_space_group_name_H-M "P M M A"
_symmetry_group_IT_number 51
_symmetry_cell_setting 'orthorhombic'
loop_
_space_group_symop_operation_xyz
x,y,z
1/2-x,-y,z
1/2+x,-y,-z
-x,y,-z
-x,-y,-z
1/2+x,y,-z
1/2-x,y,z
x,-y,z
loop_
_atom_site_type_symbol
_atom_site_label
_atom_site_fract_x
_atom_site_fract_y
_atom_site_fract_z
Si Si1 0.433307 0.165357 0.004517
Si Si2 0.196757 0.325546 0.521840
Si Si3 0.955825 0.326860 0.201063
Si Si4 0.851035 0.327574 0.261796
Si Si5 0.173288 0.834969 0.940569
Si Si6 0.634429 0.324949 0.674764
Si Si7 0.301168 0.664067 0.136087
Si Si8 0.046165 0.825933 0.244623
O O1 0.459749 0.269418 0.920528
O O2 0.378903 0.172922 0.983103
O O3 0.452535 0.000000 0.988165
O O4 0.441534 0.219812 0.124022
O O5 0.250000 0.262378 0.516164
O O6 0.199060 0.500000 0.519479
O O7 0.170509 0.270738 0.627914
O O8 0.165187 0.268433 0.424384
O O9 0.964703 0.500000 0.201806
O O10 0.905955 0.285324 0.253753
O O11 0.995559 0.245231 0.270896
O O12 0.844379 0.500000 0.247299
O O13 0.821210 0.250178 0.169803
O O14 0.204295 0.761058 0.031051
O O15 0.190835 0.000000 0.922479
O O16 0.627324 0.500000 0.670690
O O17 0.584193 0.244816 0.675521
O O18 0.661902 0.272644 0.779947
O O19 0.250000 0.661238 0.191417
O O20 0.316631 0.500000 0.102459
O O21 0.044947 0.000000 0.262101
#
# Coordination Sequence:
#
# PCOD8209247 Si02
#       8
#     8   8   8   8   8   8   8   8
#     4   9  18  32  49  72 106 146 183 219 263 321
#     4   9  18  36  63  88 107 136 182 233 283 332
#     4  10  20  32  50  79 111 145 186 229 272 319
#     4   9  19  36  57  82 113 145 182 230 279 328
#     4  10  19  33  52  77 110 146 180 218 268 326
#     4  10  20  35  57  83 109 138 181 232 277 325
#     4  10  20  33  51  77 109 141 174 219 276 334
#     4  11  21  34  52  76 110 150 187 222 271 332
#
# _framework density 19.570724999999999
#
# number of rings (size 3 to 8) (size 9 to 14) (size 15 to 20)
#    0.000    2.250    1.250    1.875    0.000    5.750 
#    0.000    2.500    0.000    5.625    0.000    0.000 
#    0.000    0.000    0.000    0.000    0.000    0.000 
#
# Total GULP energy -793540.609637 kJ/mol
# GULP energy per Si atom -12399.072026 kJ/mol
# Density = 1.952618 g / cm^3
# Si number density = 19.570725 Si / 1000 Ang^3
#
#
#
# Elastic Constant Matrix: (Units=GPa)
#
#
# Indices 1 2 3 4 5 6 
#
# 1 81.1032 28.1357 46.9686 0.0000 0.0000 0.0000
# 2 28.1357 62.8386 37.7264 0.0000 0.0000 0.0000
# 3 46.9686 37.7264 113.9100 0.0000 0.0000 0.0000
# 4 0.0000 0.0000 0.0000 12.8813 0.0000 0.0000
# 5 0.0000 0.0000 0.0000 0.0000 24.1018 0.0000
# 6 0.0000 0.0000 0.0000 0.0000 0.0000 12.8883
#
#
#
# Elastic Compliance Matrix: (Units=1/GPa)
#
#
# Indices 1 2 3 4 5 6 
#
# 1 0.017067 -0.004265 -0.005625 0.000000 0.000000 0.000000
# 2 -0.004265 0.020929 -0.005173 0.000000 0.000000 0.000000
# 3 -0.005625 -0.005173 0.012811 0.000000 0.000000 0.000000
# 4 0.000000 0.000000 0.000000 0.077632 0.000000 0.000000
# 5 0.000000 0.000000 0.000000 0.000000 0.041491 0.000000
# 6 0.000000 0.000000 0.000000 0.000000 0.000000 0.077590
#
#
# Mechanical properties :
#
#
# Convention : Reuss Voigt Hill
#
# Bulk Modulus (GPa) = 48.35071 53.72369 51.03720
# Shear Modulus (GPa) = 17.57230 19.64236 18.60733
#
# Velocity S-wave (km/s) = 2.99973 3.17150 3.08681
# Velocity P-wave (km/s) = 6.06276 6.39702 6.23213
#
# Compressibility (1/GPa) = 0.02068222
#
# Stress axis : x y z
#
# Youngs Moduli (GPa) = 58.59304 47.78045 78.05528
#
# Poissons Ratio (x) = 0.20377 0.43904
# Poissons Ratio (y) = 0.24988 0.40379
# Poissons Ratio (z) = 0.32957 0.24717
#
# Static dielectric constant tensor:
#      x y z
#    x 3.694010 0.000000 0.000000 
#    y 0.000000 3.402380 0.000000 
#    z 0.000000 0.000000 3.470690 
# 
# 
# High freq. dielectric constant tensor:
#      x y z
#    x 1.776230 0.000000 0.000000 
#    y 0.000000 1.743360 0.000000 
#    z 0.000000 0.000000 1.740700 
# 
# From -- ./inp_files/19622.got.cif
#   From: 2010.03.12/outbox.cif.g09.slc.cpg/sg51_10_cif.got.tgz:19622.got - 2010.04.16 13:43:02.
