data_PCOD8209371
_publ_section_title
;
Structure prediction by ZEFSAII (Michael W. Deem and Ramdas Pophale) SiO2 
 PCOD8209371
Probable space group: P M M A
;
_chemical_formula_sum "Si O2"
_cell_formula_units_Z 48
_cell_length_a 8.902323
_cell_length_b 30.502373
_cell_length_c 9.611763
_cell_angle_alpha 90.000000
_cell_angle_beta 90.000000
_cell_angle_gamma 90.000000
_cell_volume 2609.997125
_symmetry_space_group_name_H-M "P M M A"
_symmetry_group_IT_number 51
_symmetry_cell_setting 'orthorhombic'
loop_
_space_group_symop_operation_xyz
x,y,z
1/2-x,-y,z
1/2+x,-y,-z
-x,y,-z
-x,-y,-z
1/2+x,y,-z
1/2-x,y,z
x,-y,z
loop_
_atom_site_type_symbol
_atom_site_label
_atom_site_fract_x
_atom_site_fract_y
_atom_site_fract_z
Si Si1 0.076652 0.840870 0.641681
Si Si2 0.075169 0.261669 0.644541
Si Si3 0.926572 0.594792 0.650393
Si Si4 0.426637 0.094408 0.150310
Si Si5 0.571077 0.327329 0.848741
Si Si6 0.422768 0.000000 0.146004
Si Si7 0.075490 0.500000 0.353575
O O1 0.250000 0.853338 0.633089
O O2 0.051627 0.789676 0.668731
O O3 0.000000 0.856099 0.500000
O O4 0.000069 0.866743 0.765062
O O5 0.250000 0.274643 0.640274
O O6 0.000000 0.277037 0.500000
O O7 0.992364 0.284386 0.773204
O O8 0.750000 0.599346 0.627288
O O9 0.983260 0.630599 0.760164
O O10 0.969129 0.546599 0.717653
O O11 0.000000 0.602607 0.500000
O O12 0.250000 0.103271 0.138486
O O13 0.460952 0.046344 0.222932
O O14 0.500000 0.095382 0.000000
O O15 0.750000 0.324131 0.861109
O O16 0.500000 0.331274 0.000000
O O17 0.250000 0.000000 0.108331
O O18 0.500000 0.000000 0.000000
O O19 0.250000 0.500000 0.381482
O O20 0.000000 0.500000 0.500000
#
# Coordination Sequence:
#
# PCOD8209371 Si02
#       7
#     8   8   8   8   8   4   4
#     4  10  21  37  56  79 106 136 171 212 260 311
#     4  10  21  38  59  80 103 134 172 213 258 311
#     4   9  18  32  53  78 103 134 171 212 256 305
#     4  10  19  33  54  79 107 139 176 216 258 305
#     4  11  23  37  53  76 106 139 175 216 262 309
#     4   8  16  30  49  74 103 136 174 214 254 300
#     4   8  14  28  49  74 102 130 166 210 253 298
#
# _framework density 18.390825
#
# number of rings (size 3 to 8) (size 9 to 14) (size 15 to 20)
#    0.000    2.333    0.000    2.500    0.000    6.000 
#    0.000    0.833    0.000    0.000    0.000    0.000 
#    0.000    0.000    0.000    0.000    0.000    0.000 
#
# Total GULP energy -594807.631831 kJ/mol
# GULP energy per Si atom -12391.825663 kJ/mol
# Density = 1.834897 g / cm^3
# Si number density = 18.390825 Si / 1000 Ang^3
#
#
#
# Elastic Constant Matrix: (Units=GPa)
#
#
# Indices 1 2 3 4 5 6 
#
# 1 93.0280 55.6584 52.3366 0.0000 0.0000 0.0000
# 2 55.6584 97.2179 64.2489 0.0000 0.0000 0.0000
# 3 52.3366 64.2489 112.8232 0.0000 0.0000 0.0000
# 4 0.0000 0.0000 0.0000 24.4319 0.0000 0.0000
# 5 0.0000 0.0000 0.0000 0.0000 33.6053 0.0000
# 6 0.0000 0.0000 0.0000 0.0000 0.0000 34.1905
#
#
#
# Elastic Compliance Matrix: (Units=1/GPa)
#
#
# Indices 1 2 3 4 5 6 
#
# 1 0.017324 -0.007387 -0.003829 0.000000 0.000000 0.000000
# 2 -0.007387 0.019644 -0.007759 0.000000 0.000000 0.000000
# 3 -0.003829 -0.007759 0.015059 0.000000 0.000000 0.000000
# 4 0.000000 0.000000 0.000000 0.040930 0.000000 0.000000
# 5 0.000000 0.000000 0.000000 0.000000 0.029757 0.000000
# 6 0.000000 0.000000 0.000000 0.000000 0.000000 0.029248
#
#
# Mechanical properties :
#
#
# Convention : Reuss Voigt Hill
#
# Bulk Modulus (GPa) = 71.05545 71.95078 71.50311
# Shear Modulus (GPa) = 25.69321 27.16723 26.43022
#
# Velocity S-wave (km/s) = 3.74179 3.84763 3.79508
# Velocity P-wave (km/s) = 7.57550 7.67770 7.62677
#
# Compressibility (1/GPa) = 0.01407352
#
# Stress axis : x y z
#
# Youngs Moduli (GPa) = 57.72497 50.90740 66.40754
#
# Poissons Ratio (x) = 0.37607 0.25429
# Poissons Ratio (y) = 0.42643 0.51529
# Poissons Ratio (z) = 0.22105 0.39502
#
# Static dielectric constant tensor:
#      x y z
#    x 3.484510 0.000000 0.000000 
#    y 0.000000 4.071510 0.000000 
#    z 0.000000 0.000000 3.109430 
# 
# 
# High freq. dielectric constant tensor:
#      x y z
#    x 1.725580 0.000000 0.000000 
#    y 0.000000 1.736120 0.000000 
#    z 0.000000 0.000000 1.682740 
# 
# From -- ./inp_files/6237.got.cif
#   From: 2010.03.12/outbox.cif.g09.slc.cpg/sg51_4_cif.got.tgz:6237.got - 2010.04.16 13:43:02.
