data_PCOD8209828
_publ_section_title
;
Structure prediction by ZEFSAII (Michael W. Deem and Ramdas Pophale) SiO2 
 PCOD8209828
Probable space group: P M M A
;
_chemical_formula_sum "Si O2"
_cell_formula_units_Z 48
_cell_length_a 27.595948
_cell_length_b 13.846384
_cell_length_c 6.562342
_cell_angle_alpha 90.000000
_cell_angle_beta 90.000000
_cell_angle_gamma 90.000000
_cell_volume 2507.497737
_symmetry_space_group_name_H-M "P M M A"
_symmetry_group_IT_number 51
_symmetry_cell_setting 'orthorhombic'
loop_
_space_group_symop_operation_xyz
x,y,z
1/2-x,-y,z
1/2+x,-y,-z
-x,y,-z
-x,-y,-z
1/2+x,y,-z
1/2-x,y,z
x,-y,z
loop_
_atom_site_type_symbol
_atom_site_label
_atom_site_fract_x
_atom_site_fract_y
_atom_site_fract_z
Si Si1 0.193013 0.736041 0.856153
Si Si2 0.856600 0.891799 0.422295
Si Si3 0.866514 0.739075 0.756237
Si Si4 0.032087 0.893842 0.689932
Si Si5 0.048736 0.714276 0.931612
Si Si6 0.121933 0.386596 0.629865
O O1 0.250000 0.735841 0.830268
O O2 0.171570 0.833316 0.754108
O O3 0.171424 0.641987 0.743931
O O4 0.179092 0.726449 0.093408
O O5 0.854211 0.838099 0.639250
O O6 0.912021 0.897397 0.366245
O O7 0.834376 0.000000 0.441640
O O8 0.873494 0.650499 0.600784
O O9 0.915840 0.740448 0.883861
O O10 0.025194 0.814935 0.861725
O O11 0.000000 0.860799 0.500000
O O12 0.015209 0.000000 0.766245
O O13 0.076243 0.660499 0.747590
O O14 0.000000 0.654423 0.000000
O O15 0.114753 0.500000 0.628396
#
# Coordination Sequence:
#
# PCOD8209828 Si02
#       6
#     8   8   8   8   8   8
#     4  10  22  41  63  88 118 155 199 250 308 368
#     4  10  20  37  59  86 125 163 198 244 294 350
#     4  10  20  38  59  89 115 160 197 248 295 361
#     4  10  19  34  58  89 122 160 202 240 284 343
#     4  11  22  36  62  88 124 161 201 244 298 351
#     4  10  23  43  62  86 117 152 196 253 311 364
#
# _framework density 19.142590999999999
#
# number of rings (size 3 to 8) (size 9 to 14) (size 15 to 20)
#    0.000    1.833    5.000    1.000    0.000    8.000 
#    0.000    0.833    0.000    0.000    0.000    0.000 
#    0.000    0.000    0.000    0.000    0.000    0.000 
#
# Total GULP energy -594903.830061 kJ/mol
# GULP energy per Si atom -12393.829793 kJ/mol
# Density = 1.909902 g / cm^3
# Si number density = 19.142591 Si / 1000 Ang^3
#
#
#
# Elastic Constant Matrix: (Units=GPa)
#
#
# Indices 1 2 3 4 5 6 
#
# 1 128.1098 29.3547 49.3075 0.0000 0.0000 0.0000
# 2 29.3547 140.1886 65.1408 0.0000 0.0000 0.0000
# 3 49.3075 65.1408 133.0972 0.0000 0.0000 0.0000
# 4 0.0000 0.0000 0.0000 9.6408 0.0000 0.0000
# 5 0.0000 0.0000 0.0000 0.0000 22.2842 0.0000
# 6 0.0000 0.0000 0.0000 0.0000 0.0000 14.4010
#
#
#
# Elastic Compliance Matrix: (Units=1/GPa)
#
#
# Indices 1 2 3 4 5 6 
#
# 1 0.009125 -0.000440 -0.003165 0.000000 0.000000 0.000000
# 2 -0.000440 0.009254 -0.004366 0.000000 0.000000 0.000000
# 3 -0.003165 -0.004366 0.010823 0.000000 0.000000 0.000000
# 4 0.000000 0.000000 0.000000 0.103726 0.000000 0.000000
# 5 0.000000 0.000000 0.000000 0.000000 0.044875 0.000000
# 6 0.000000 0.000000 0.000000 0.000000 0.000000 0.069440
#
#
# Mechanical properties :
#
#
# Convention : Reuss Voigt Hill
#
# Bulk Modulus (GPa) = 75.41905 76.55574 75.98739
# Shear Modulus (GPa) = 18.68425 26.43802 22.56114
#
# Velocity S-wave (km/s) = 3.12758 3.72036 3.43677
# Velocity P-wave (km/s) = 7.24751 7.65075 7.45186
#
# Compressibility (1/GPa) = 0.01325925
#
# Stress axis : x y z
#
# Youngs Moduli (GPa) = 109.59137 108.05890 92.39777
#
# Poissons Ratio (x) = 0.04754 0.29244
# Poissons Ratio (y) = 0.04822 0.40343
# Poissons Ratio (z) = 0.34686 0.47181
#
# Static dielectric constant tensor:
#      x y z
#    x 3.262730 0.000000 0.000000 
#    y 0.000000 3.735670 0.000000 
#    z 0.000000 0.000000 3.619260 
# 
# 
# High freq. dielectric constant tensor:
#      x y z
#    x 1.741850 0.000000 0.000000 
#    y 0.000000 1.733180 0.000000 
#    z 0.000000 0.000000 1.755730 
# 
# From -- ./inp_files/3526.got.cif
#   From: 2010.03.12/outbox.cif.g09.slc.cpg/sg51_2_cif.got.tgz:3526.got - 2010.04.16 13:43:02.
