data_PCOD8209242
_publ_section_title
;
Structure prediction by ZEFSAII (Michael W. Deem and Ramdas Pophale) SiO2 
 PCOD8209242
Probable space group: P M M A
;
_chemical_formula_sum "Si O2"
_cell_formula_units_Z 52
_cell_length_a 8.870543
_cell_length_b 22.729825
_cell_length_c 14.208683
_cell_angle_alpha 90.000000
_cell_angle_beta 90.000000
_cell_angle_gamma 90.000000
_cell_volume 2864.838356
_symmetry_space_group_name_H-M "P M M A"
_symmetry_group_IT_number 51
_symmetry_cell_setting 'orthorhombic'
loop_
_space_group_symop_operation_xyz
x,y,z
1/2-x,-y,z
1/2+x,-y,-z
-x,y,-z
-x,-y,-z
1/2+x,y,-z
1/2-x,y,z
x,-y,z
loop_
_atom_site_type_symbol
_atom_site_label
_atom_site_fract_x
_atom_site_fract_y
_atom_site_fract_z
Si Si1 0.424899 0.280633 0.097647
Si Si2 0.928188 0.360680 0.403251
Si Si3 0.425816 0.775578 0.594766
Si Si4 0.926536 0.934428 0.097077
Si Si5 0.572501 0.822578 0.208746
Si Si6 0.426172 0.395598 0.216041
Si Si7 0.070772 0.500000 0.897744
O O1 0.250000 0.270539 0.079189
O O2 0.494111 0.220459 0.135333
O O3 0.455282 0.331588 0.172820
O O4 0.500000 0.299421 0.000000
O O5 0.750000 0.371744 0.402736
O O6 0.969371 0.292274 0.389965
O O7 0.000000 0.384129 0.500000
O O8 0.006713 0.397288 0.320683
O O9 0.500000 0.801054 0.500000
O O10 0.250000 0.783994 0.582082
O O11 0.486424 0.811709 0.685049
O O12 0.750000 0.934166 0.079570
O O13 0.969932 0.889301 0.180236
O O14 0.982956 0.000000 0.125428
O O15 0.000000 0.913228 0.000000
O O16 0.750000 0.810209 0.203354
O O17 0.250000 0.411922 0.217940
O O18 0.516692 0.442242 0.155433
O O19 0.250000 0.500000 0.905751
O O20 0.000000 0.500000 0.000000
#
# Coordination Sequence:
#
# PCOD8209242 Si02
#       7
#     8   8   8   8   8   8   4
#     4  11  23  35  52  78 109 141 175 218 270 321
#     4  10  19  34  57  84 114 146 181 224 273 329
#     4   9  18  31  50  76 106 140 175 217 266 322
#     4   9  18  32  50  72 101 139 181 222 266 319
#     4  10  19  33  52  76 106 138 177 222 271 321
#     4  11  23  40  60  84 112 146 185 226 272 327
#     4  12  26  44  65  86 111 148 190 230 272 324
#
# _framework density 18.151111
#
# number of rings (size 3 to 8) (size 9 to 14) (size 15 to 20)
#    0.000    1.846    1.538    3.000    0.000    6.154 
#    0.000    0.385    0.000    0.462    0.000    0.000 
#    0.000    0.000    0.000    0.000    0.000    0.000 
#
# Total GULP energy -644943.504396 kJ/mol
# GULP energy per Si atom -12402.759700 kJ/mol
# Density = 1.810980 g / cm^3
# Si number density = 18.151111 Si / 1000 Ang^3
#
#
#
# Elastic Constant Matrix: (Units=GPa)
#
#
# Indices 1 2 3 4 5 6 
#
# 1 82.7675 42.4142 57.0384 0.0000 0.0000 0.0000
# 2 42.4142 78.4806 49.2946 0.0000 0.0000 0.0000
# 3 57.0384 49.2946 153.8730 0.0000 0.0000 0.0000
# 4 0.0000 0.0000 0.0000 22.5815 0.0000 0.0000
# 5 0.0000 0.0000 0.0000 0.0000 36.0562 0.0000
# 6 0.0000 0.0000 0.0000 0.0000 0.0000 20.2738
#
#
#
# Elastic Compliance Matrix: (Units=1/GPa)
#
#
# Indices 1 2 3 4 5 6 
#
# 1 0.019110 -0.007359 -0.004726 0.000000 0.000000 0.000000
# 2 -0.007359 0.018786 -0.003290 0.000000 0.000000 0.000000
# 3 -0.004726 -0.003290 0.009305 0.000000 0.000000 0.000000
# 4 0.000000 0.000000 0.000000 0.044284 0.000000 0.000000
# 5 0.000000 0.000000 0.000000 0.000000 0.027735 0.000000
# 6 0.000000 0.000000 0.000000 0.000000 0.000000 0.049325
#
#
# Mechanical properties :
#
#
# Convention : Reuss Voigt Hill
#
# Bulk Modulus (GPa) = 60.79249 68.06838 64.43043
# Shear Modulus (GPa) = 24.41646 26.87387 25.64517
#
# Velocity S-wave (km/s) = 3.67164 3.85198 3.76289
# Velocity P-wave (km/s) = 7.17912 7.57404 7.37922
#
# Compressibility (1/GPa) = 0.01644940
#
# Stress axis : x y z
#
# Youngs Moduli (GPa) = 52.32739 53.23112 107.47041
#
# Poissons Ratio (x) = 0.39175 0.50794
# Poissons Ratio (y) = 0.38510 0.35360
# Poissons Ratio (z) = 0.24731 0.17514
#
# Static dielectric constant tensor:
#      x y z
#    x 3.379320 0.000000 0.000000 
#    y 0.000000 3.379390 0.000000 
#    z 0.000000 0.000000 3.567510 
# 
# 
# High freq. dielectric constant tensor:
#      x y z
#    x 1.708710 0.000000 0.000000 
#    y 0.000000 1.686110 0.000000 
#    z 0.000000 0.000000 1.712140 
# 
# From -- ./inp_files/21611.got.cif
#   From: 2010.03.12/outbox.cif.g09.slc.cpg/sg51_11_cif.got.tgz:21611.got - 2010.04.16 13:43:02.
