data_PCOD8209498
_publ_section_title
;
Structure prediction by ZEFSAII (Michael W. Deem and Ramdas Pophale) SiO2 
 PCOD8209498
Probable space group: P M M A
;
_chemical_formula_sum "Si O2"
_cell_formula_units_Z 56
_cell_length_a 9.315321
_cell_length_b 20.908769
_cell_length_c 14.305861
_cell_angle_alpha 90.000000
_cell_angle_beta 90.000000
_cell_angle_gamma 90.000000
_cell_volume 2786.379656
_symmetry_space_group_name_H-M "P M M A"
_symmetry_group_IT_number 51
_symmetry_cell_setting 'orthorhombic'
loop_
_space_group_symop_operation_xyz
x,y,z
1/2-x,-y,z
1/2+x,-y,-z
-x,y,-z
-x,-y,-z
1/2+x,y,-z
1/2-x,y,z
x,-y,z
loop_
_atom_site_type_symbol
_atom_site_label
_atom_site_fract_x
_atom_site_fract_y
_atom_site_fract_z
Si Si1 0.086191 0.744572 0.911233
Si Si2 0.417917 0.892954 0.908560
Si Si3 0.587371 0.071002 0.731846
Si Si4 0.587625 0.569628 0.263640
Si Si5 0.905693 0.573107 0.919587
Si Si6 0.585019 0.293401 0.294682
Si Si7 0.580107 0.813907 0.597007
O O1 0.250000 0.734408 0.937275
O O2 0.050080 0.818496 0.893693
O O3 0.044643 0.707869 0.815770
O O4 0.000000 0.717479 0.000000
O O5 0.250000 0.908517 0.918359
O O6 0.480724 0.928724 0.819128
O O7 0.500000 0.918700 0.000000
O O8 0.750000 0.085861 0.765546
O O9 0.539881 0.123255 0.655928
O O10 0.578382 0.000000 0.686561
O O11 0.750000 0.571539 0.224002
O O12 0.561235 0.500000 0.314261
O O13 0.479700 0.577334 0.179554
O O14 0.565847 0.632380 0.329471
O O15 0.750000 0.607055 0.913952
O O16 0.883439 0.500000 0.949394
O O17 0.000000 0.607791 0.000000
O O18 0.750000 0.270021 0.309022
O O19 0.477298 0.249497 0.352115
O O20 0.500000 0.821653 0.500000
O O21 0.750000 0.806615 0.581274
#
# Coordination Sequence:
#
# PCOD8209498 Si02
#       7
#     8   8   8   8   8   8   8
#     4   9  18  31  50  77 110 149 192 238 283 328
#     4  10  19  33  55  83 118 160 203 243 284 331
#     4  10  22  40  61  88 122 157 193 234 281 335
#     4   9  18  32  51  76 107 144 183 226 282 343
#     4   9  16  26  41  62  94 138 185 231 275 324
#     4  10  20  37  59  84 116 151 191 239 287 340
#     4  11  24  42  66  91 116 147 186 233 287 345
#
# _framework density 20.097764999999999
#
# number of rings (size 3 to 8) (size 9 to 14) (size 15 to 20)
#    0.000    2.286    1.429    1.286    0.000    5.429 
#    0.000    1.429    0.000    0.429    0.000    0.000 
#    0.000    0.000    0.000    0.000    0.000    0.000 
#
# Total GULP energy -694104.578337 kJ/mol
# GULP energy per Si atom -12394.724613 kJ/mol
# Density = 2.005202 g / cm^3
# Si number density = 20.097765 Si / 1000 Ang^3
#
#
#
# Elastic Constant Matrix: (Units=GPa)
#
#
# Indices 1 2 3 4 5 6 
#
# 1 113.5528 51.7270 50.0801 0.0000 0.0000 0.0000
# 2 51.7270 132.3161 48.9337 0.0000 0.0000 0.0000
# 3 50.0801 48.9337 92.8794 0.0000 0.0000 0.0000
# 4 0.0000 0.0000 0.0000 1.9297 0.0000 0.0000
# 5 0.0000 0.0000 0.0000 0.0000 33.3798 0.0000
# 6 0.0000 0.0000 0.0000 0.0000 0.0000 19.7162
#
#
#
# Elastic Compliance Matrix: (Units=1/GPa)
#
#
# Indices 1 2 3 4 5 6 
#
# 1 0.012419 -0.002954 -0.005140 0.000000 0.000000 0.000000
# 2 -0.002954 0.010089 -0.003723 0.000000 0.000000 0.000000
# 3 -0.005140 -0.003723 0.015499 0.000000 0.000000 0.000000
# 4 0.000000 0.000000 0.000000 0.518203 0.000000 0.000000
# 5 0.000000 0.000000 0.000000 0.000000 0.029958 0.000000
# 6 0.000000 0.000000 0.000000 0.000000 0.000000 0.050720
#
#
# Mechanical properties :
#
#
# Convention : Reuss Voigt Hill
#
# Bulk Modulus (GPa) = 69.56908 71.13667 70.35288
# Shear Modulus (GPa) = 7.51526 23.53898 15.52712
#
# Velocity S-wave (km/s) = 1.93584 3.42603 2.78255
# Velocity P-wave (km/s) = 6.29977 7.14999 6.73830
#
# Compressibility (1/GPa) = 0.01437420
#
# Stress axis : x y z
#
# Youngs Moduli (GPa) = 80.52155 99.11493 64.51885
#
# Poissons Ratio (x) = 0.29280 0.33162
# Poissons Ratio (y) = 0.23788 0.24018
# Poissons Ratio (z) = 0.41387 0.36897
#
# Static dielectric constant tensor:
#      x y z
#    x 3.764810 0.000000 0.000000 
#    y 0.000000 3.950490 0.000000 
#    z 0.000000 0.000000 3.258220 
# 
# 
# High freq. dielectric constant tensor:
#      x y z
#    x 1.791080 0.000000 0.000000 
#    y 0.000000 1.801090 0.000000 
#    z 0.000000 0.000000 1.738530 
# 
# From -- ./inp_files/21753.got.cif
#   From: 2010.03.12/outbox.cif.g09.slc.cpg/sg51_11_cif.got.tgz:21753.got - 2010.04.16 13:43:02.
