data_PCOD8209185
_publ_section_title
;
Structure prediction by ZEFSAII (Michael W. Deem and Ramdas Pophale) SiO2 
 PCOD8209185
Probable space group: P M M A
;
_chemical_formula_sum "Si O2"
_cell_formula_units_Z 64
_cell_length_a 20.009471
_cell_length_b 16.871210
_cell_length_c 10.943253
_cell_angle_alpha 90.000000
_cell_angle_beta 90.000000
_cell_angle_gamma 90.000000
_cell_volume 3694.266981
_symmetry_space_group_name_H-M "P M M A"
_symmetry_group_IT_number 51
_symmetry_cell_setting 'orthorhombic'
loop_
_space_group_symop_operation_xyz
x,y,z
1/2-x,-y,z
1/2+x,-y,-z
-x,y,-z
-x,-y,-z
1/2+x,y,-z
1/2-x,y,z
x,-y,z
loop_
_atom_site_type_symbol
_atom_site_label
_atom_site_fract_x
_atom_site_fract_y
_atom_site_fract_z
Si Si1 0.907756 0.230711 0.742992
Si Si2 0.323251 0.179191 0.918538
Si Si3 0.926743 0.699355 0.485413
Si Si4 0.827189 0.089369 0.847479
Si Si5 0.608364 0.589304 0.130015
Si Si6 0.177574 0.590224 0.618085
Si Si7 0.443070 0.251305 0.781002
Si Si8 0.824239 0.331994 0.915355
O O1 0.910565 0.243282 0.597934
O O2 0.869754 0.148774 0.764619
O O3 0.870679 0.307621 0.800806
O O4 0.981688 0.220520 0.801647
O O5 0.250000 0.167985 0.851920
O O6 0.387157 0.190659 0.831655
O O7 0.337579 0.105177 0.007807
O O8 0.317235 0.255825 0.001329
O O9 0.873771 0.629339 0.475431
O O10 0.925078 0.749318 0.361395
O O11 0.000000 0.660131 0.500000
O O12 0.750000 0.102108 0.812285
O O13 0.850585 0.000000 0.819559
O O14 0.576257 0.500000 0.135381
O O15 0.662014 0.599313 0.238287
O O16 0.556272 0.660879 0.155474
O O17 0.642671 0.598477 0.997107
O O18 0.250000 0.629844 0.598463
O O19 0.178838 0.500000 0.578386
O O20 0.750000 0.358692 0.870714
#
# Coordination Sequence:
#
# PCOD8209185 Si02
#       8
#     8   8   8   8   8   8   8   8
#     4  10  19  33  49  68  97 130 163 197 231 281
#     4   8  15  29  48  70  96 122 150 191 240 284
#     4   9  19  33  48  66  93 131 167 199 239 283
#     4   9  18  33  54  78 102 128 154 184 230 287
#     4   9  17  30  48  68  93 125 160 203 252 293
#     4   9  17  29  47  70  91 116 161 215 252 281
#     4   9  18  32  50  71  95 126 167 208 239 277
#     4   9  17  28  43  65  92 123 155 190 239 290
#
# _framework density 17.32414
#
# number of rings (size 3 to 8) (size 9 to 14) (size 15 to 20)
#    0.000    3.000    0.000    1.500    0.000    9.500 
#    0.000    5.000    0.000    4.125    0.000    1.750 
#    0.000    0.000    0.000    0.000    0.000    0.000 
#
# Total GULP energy -792974.460684 kJ/mol
# GULP energy per Si atom -12390.225948 kJ/mol
# Density = 1.728471 g / cm^3
# Si number density = 17.324140 Si / 1000 Ang^3
#
#
#
# Elastic Constant Matrix: (Units=GPa)
#
#
# Indices 1 2 3 4 5 6 
#
# 1 115.7868 46.6080 43.2126 0.0000 0.0000 0.0000
# 2 46.6080 87.8312 31.3435 0.0000 0.0000 0.0000
# 3 43.2126 31.3435 70.3917 0.0000 0.0000 0.0000
# 4 0.0000 0.0000 0.0000 16.6702 0.0000 0.0000
# 5 0.0000 0.0000 0.0000 0.0000 21.5475 0.0000
# 6 0.0000 0.0000 0.0000 0.0000 0.0000 22.4238
#
#
#
# Elastic Compliance Matrix: (Units=1/GPa)
#
#
# Indices 1 2 3 4 5 6 
#
# 1 0.012639 -0.004682 -0.005674 0.000000 0.000000 0.000000
# 2 -0.004682 0.015271 -0.003925 0.000000 0.000000 0.000000
# 3 -0.005674 -0.003925 0.019437 0.000000 0.000000 0.000000
# 4 0.000000 0.000000 0.000000 0.059987 0.000000 0.000000
# 5 0.000000 0.000000 0.000000 0.000000 0.046409 0.000000
# 6 0.000000 0.000000 0.000000 0.000000 0.000000 0.044595
#
#
# Mechanical properties :
#
#
# Convention : Reuss Voigt Hill
#
# Bulk Modulus (GPa) = 53.23684 57.37088 55.30386
# Shear Modulus (GPa) = 21.44420 22.31801 21.88110
#
# Velocity S-wave (km/s) = 3.52209 3.59313 3.55778
# Velocity P-wave (km/s) = 6.88017 7.09945 6.99067
#
# Compressibility (1/GPa) = 0.01878398
#
# Stress axis : x y z
#
# Youngs Moduli (GPa) = 79.12132 65.48428 51.44736
#
# Poissons Ratio (x) = 0.30660 0.29191
# Poissons Ratio (y) = 0.37045 0.20195
# Poissons Ratio (z) = 0.44894 0.25706
#
# Static dielectric constant tensor:
#      x y z
#    x 3.549810 0.000000 0.000000 
#    y 0.000000 3.138450 0.000000 
#    z 0.000000 0.000000 3.172210 
# 
# 
# High freq. dielectric constant tensor:
#      x y z
#    x 1.678560 0.000000 0.000000 
#    y 0.000000 1.637130 0.000000 
#    z 0.000000 0.000000 1.651620 
# 
# From -- ./inp_files/17621.got.cif
#   From: 2010.03.12/outbox.cif.g09.slc.cpg/sg51_9_cif.got.tgz:17621.got - 2010.04.16 13:43:02.
