data_PCOD8209763
_publ_section_title
;
Structure prediction by ZEFSAII (Michael W. Deem and Ramdas Pophale) SiO2 
 PCOD8209763
Probable space group: P M M A
;
_chemical_formula_sum "Si O2"
_cell_formula_units_Z 64
_cell_length_a 29.676219
_cell_length_b 12.525426
_cell_length_c 8.762714
_cell_angle_alpha 90.000000
_cell_angle_beta 90.000000
_cell_angle_gamma 90.000000
_cell_volume 3257.164631
_symmetry_space_group_name_H-M "P M M A"
_symmetry_group_IT_number 51
_symmetry_cell_setting 'orthorhombic'
loop_
_space_group_symop_operation_xyz
x,y,z
1/2-x,-y,z
1/2+x,-y,-z
-x,y,-z
-x,-y,-z
1/2+x,y,-z
1/2-x,y,z
x,-y,z
loop_
_atom_site_type_symbol
_atom_site_label
_atom_site_fract_x
_atom_site_fract_y
_atom_site_fract_z
Si Si1 0.698434 0.124563 0.274769
Si Si2 0.364723 0.738127 0.946319
Si Si3 0.800679 0.621831 0.827443
Si Si4 0.978690 0.747462 0.667403
Si Si5 0.553697 0.382259 0.204336
Si Si6 0.335092 0.773145 0.428050
Si Si7 0.592121 0.614443 0.524027
Si Si8 0.403656 0.121819 0.208927
O O1 0.750000 0.142107 0.220971
O O2 0.664756 0.190007 0.167585
O O3 0.694861 0.163497 0.450118
O O4 0.685409 0.000000 0.265479
O O5 0.400617 0.665158 0.860629
O O6 0.332752 0.657149 0.035849
O O7 0.393013 0.812507 0.057688
O O8 0.750000 0.629374 0.889241
O O9 0.812290 0.500000 0.779279
O O10 0.804786 0.701924 0.684484
O O11 0.937806 0.662095 0.660852
O O12 0.954323 0.853936 0.729710
O O13 0.000000 0.771489 0.500000
O O14 0.012500 0.702805 0.798882
O O15 0.542788 0.500000 0.131294
O O16 0.559347 0.401202 0.383152
O O17 0.367067 0.691806 0.520148
O O18 0.365617 0.857229 0.336398
O O19 0.611269 0.500000 0.578707
O O20 0.401925 0.000000 0.161313
#
# Coordination Sequence:
#
# PCOD8209763 Si02
#       8
#     8   8   8   8   8   8   8   8
#     4  11  23  39  60  86 115 149 194 248 298 340
#     4  11  22  39  58  82 117 153 193 235 287 349
#     4  10  21  37  57  83 117 154 190 233 290 354
#     4   9  19  35  56  85 116 146 187 236 284 332
#     4  10  19  34  57  83 114 149 186 225 277 342
#     4  10  19  36  59  86 113 145 193 241 286 340
#     4   9  16  30  55  84 115 145 177 224 280 337
#     4  10  22  39  59  81 112 155 196 236 284 340
#
# _framework density 19.648992
#
# number of rings (size 3 to 8) (size 9 to 14) (size 15 to 20)
#    0.000    2.000    1.250    2.625    0.000    2.250 
#    0.000    4.375    0.000    9.000    0.000    0.000 
#    0.000    0.000    0.000    0.000    0.000    0.000 
#
# Total GULP energy -793238.491927 kJ/mol
# GULP energy per Si atom -12394.351436 kJ/mol
# Density = 1.960427 g / cm^3
# Si number density = 19.648992 Si / 1000 Ang^3
#
#
#
# Elastic Constant Matrix: (Units=GPa)
#
#
# Indices 1 2 3 4 5 6 
#
# 1 105.4943 47.1665 34.1556 0.0000 0.0000 0.0000
# 2 47.1665 101.8198 26.2841 0.0000 0.0000 0.0000
# 3 34.1556 26.2841 71.0604 0.0000 0.0000 0.0000
# 4 0.0000 0.0000 0.0000 15.9349 0.0000 0.0000
# 5 0.0000 0.0000 0.0000 0.0000 24.7615 0.0000
# 6 0.0000 0.0000 0.0000 0.0000 0.0000 -1.2606
#
#
#
# Elastic Compliance Matrix: (Units=1/GPa)
#
#
# Indices 1 2 3 4 5 6 
#
# 1 0.013136 -0.004925 -0.004492 0.000000 0.000000 0.000000
# 2 -0.004925 0.012705 -0.002332 0.000000 0.000000 0.000000
# 3 -0.004492 -0.002332 0.017094 0.000000 0.000000 0.000000
# 4 0.000000 0.000000 0.000000 0.062755 0.000000 0.000000
# 5 0.000000 0.000000 0.000000 0.000000 0.040385 0.000000
# 6 0.000000 0.000000 0.000000 0.000000 0.000000 -0.793276
#
#
# Mechanical properties :
#
#
# Convention : Reuss Voigt Hill
#
# Bulk Modulus (GPa) = 51.45020 54.84297 53.14658
# Shear Modulus (GPa) = -8.10079 19.27170 5.58545
#
# Velocity S-wave (km/s) = -2.03266 3.13517 1.68784
# Velocity P-wave (km/s) = 4.55330 6.40918 5.55924
#
# Compressibility (1/GPa) = 0.01943627
#
# Stress axis : x y z
#
# Youngs Moduli (GPa) = 76.12882 78.71024 58.49954
#
# Poissons Ratio (x) = 0.38767 0.26277
# Poissons Ratio (y) = 0.37496 0.13642
# Poissons Ratio (z) = 0.34196 0.18355
#
# Static dielectric constant tensor:
#      x y z
#    x 3.602940 0.000000 0.000000 
#    y 0.000000 3.691600 0.000000 
#    z 0.000000 0.000000 3.385220 
# 
# 
# High freq. dielectric constant tensor:
#      x y z
#    x 1.771400 0.000000 0.000000 
#    y 0.000000 1.768810 0.000000 
#    z 0.000000 0.000000 1.753630 
# 
# From -- ./inp_files/13178.got.cif
#   From: 2010.03.12/outbox.cif.g09.slc.cpg/sg51_7_cif.got.tgz:13178.got - 2010.04.16 13:43:02.
