data_PCOD8209469
_publ_section_title
;
Structure prediction by ZEFSAII (Michael W. Deem and Ramdas Pophale) SiO2 
 PCOD8209469
Probable space group: P M M A
;
_chemical_formula_sum "Si O2"
_cell_formula_units_Z 64
_cell_length_a 18.098310
_cell_length_b 8.810997
_cell_length_c 21.542103
_cell_angle_alpha 90.000000
_cell_angle_beta 90.000000
_cell_angle_gamma 90.000000
_cell_volume 3435.193254
_symmetry_space_group_name_H-M "P M M A"
_symmetry_group_IT_number 51
_symmetry_cell_setting 'orthorhombic'
loop_
_space_group_symop_operation_xyz
x,y,z
1/2-x,-y,z
1/2+x,-y,-z
-x,y,-z
-x,-y,-z
1/2+x,y,-z
1/2-x,y,z
x,-y,z
loop_
_atom_site_type_symbol
_atom_site_label
_atom_site_fract_x
_atom_site_fract_y
_atom_site_fract_z
Si Si1 0.921394 0.676545 0.624048
Si Si2 0.952903 0.677844 0.190314
Si Si3 0.834273 0.178196 0.266789
Si Si4 0.163788 0.674560 0.500585
Si Si5 0.973403 0.321848 0.935341
Si Si6 0.167275 0.321874 0.135620
Si Si7 0.406503 0.820913 0.249126
Si Si8 0.921339 0.177507 0.389914
O O1 0.923325 0.500000 0.640532
O O2 0.868616 0.712318 0.566610
O O3 0.886551 0.765993 0.682047
O O4 0.003490 0.729538 0.607735
O O5 0.961289 0.500000 0.202150
O O6 0.871846 0.735682 0.208788
O O7 0.967353 0.717755 0.118129
O O8 0.011600 0.762752 0.233555
O O9 0.750000 0.232992 0.270557
O O10 0.874114 0.226792 0.330136
O O11 0.839849 0.000000 0.254962
O O12 0.250000 0.710619 0.499176
O O13 0.147864 0.500000 0.518793
O O14 0.126169 0.785193 0.549715
O O15 0.967039 0.500000 0.945686
O O16 0.892147 0.260718 0.914933
O O17 0.000000 0.244706 0.000000
O O18 0.250000 0.285124 0.111949
O O19 0.155164 0.500000 0.146444
O O20 0.154142 0.242242 0.201470
O O21 0.406056 0.000000 0.246263
O O22 0.940063 0.000000 0.388326
#
# Coordination Sequence:
#
# PCOD8209469 Si02
#       8
#     8   8   8   8   8   8   8   8
#     4  11  22  37  58  82 107 141 184 227 273 330
#     4  10  19  33  55  81 108 141 181 222 266 320
#     4  10  21  36  54  78 110 146 180 221 275 325
#     4  10  23  41  57  76 106 143 181 225 276 327
#     4   8  15  30  53  81 111 143 182 229 274 318
#     4   9  18  33  54  80 110 147 189 230 275 326
#     4  11  21  34  54  80 109 142 178 222 277 329
#     4  11  22  37  58  82 107 141 183 226 273 327
#
# _framework density 18.630685
#
# number of rings (size 3 to 8) (size 9 to 14) (size 15 to 20)
#    0.000    2.000    1.250    3.750    0.000    4.750 
#    0.000    1.875    0.000   11.625    0.000    0.000 
#    0.000    0.000    0.000    0.000    0.000    0.000 
#
# Total GULP energy -793726.211653 kJ/mol
# GULP energy per Si atom -12401.972057 kJ/mol
# Density = 1.858828 g / cm^3
# Si number density = 18.630685 Si / 1000 Ang^3
#
#
#
# Elastic Constant Matrix: (Units=GPa)
#
#
# Indices 1 2 3 4 5 6 
#
# 1 58.8332 22.8025 36.3247 0.0000 0.0000 0.0000
# 2 22.8025 57.7872 31.1690 0.0000 0.0000 0.0000
# 3 36.3247 31.1690 117.6569 0.0000 0.0000 0.0000
# 4 0.0000 0.0000 0.0000 11.9461 0.0000 0.0000
# 5 0.0000 0.0000 0.0000 0.0000 23.5644 0.0000
# 6 0.0000 0.0000 0.0000 0.0000 0.0000 22.7089
#
#
#
# Elastic Compliance Matrix: (Units=1/GPa)
#
#
# Indices 1 2 3 4 5 6 
#
# 1 0.022670 -0.006032 -0.005401 0.000000 0.000000 0.000000
# 2 -0.006032 0.021795 -0.003911 0.000000 0.000000 0.000000
# 3 -0.005401 -0.003911 0.011203 0.000000 0.000000 0.000000
# 4 0.000000 0.000000 0.000000 0.083710 0.000000 0.000000
# 5 0.000000 0.000000 0.000000 0.000000 0.042437 0.000000
# 6 0.000000 0.000000 0.000000 0.000000 0.000000 0.044036
#
#
# Mechanical properties :
#
#
# Convention : Reuss Voigt Hill
#
# Bulk Modulus (GPa) = 40.03450 46.09663 43.06557
# Shear Modulus (GPa) = 18.87754 21.24261 20.06007
#
# Velocity S-wave (km/s) = 3.18661 3.38034 3.28490
# Velocity P-wave (km/s) = 5.92237 6.32706 6.12805
#
# Compressibility (1/GPa) = 0.02497845
#
# Stress axis : x y z
#
# Youngs Moduli (GPa) = 44.11162 45.88236 89.26244
#
# Poissons Ratio (x) = 0.27677 0.48210
# Poissons Ratio (y) = 0.26609 0.34914
# Poissons Ratio (z) = 0.23824 0.17947
#
# Static dielectric constant tensor:
#      x y z
#    x 3.512770 0.000000 0.000000 
#    y 0.000000 3.289420 0.000000 
#    z 0.000000 0.000000 3.578520 
# 
# 
# High freq. dielectric constant tensor:
#      x y z
#    x 1.723620 0.000000 0.000000 
#    y 0.000000 1.713270 0.000000 
#    z 0.000000 0.000000 1.722020 
# 
# From -- ./inp_files/33823.got.cif
#   From: 2010.03.12/outbox.cif.g09.slc.cpg/sg51_17_cif.got.tgz:33823.got - 2010.04.16 13:43:02.
