data_PCOD8209336
_publ_section_title
;
Structure prediction by ZEFSAII (Michael W. Deem and Ramdas Pophale) SiO2 
 PCOD8209336
Probable space group: P M M A
;
_chemical_formula_sum "Si O2"
_cell_formula_units_Z 48
_cell_length_a 17.394821
_cell_length_b 16.570344
_cell_length_c 9.242640
_cell_angle_alpha 90.000000
_cell_angle_beta 90.000000
_cell_angle_gamma 90.000000
_cell_volume 2664.081619
_symmetry_space_group_name_H-M "P M M A"
_symmetry_group_IT_number 51
_symmetry_cell_setting 'orthorhombic'
loop_
_space_group_symop_operation_xyz
x,y,z
1/2-x,-y,z
1/2+x,-y,-z
-x,y,-z
-x,-y,-z
1/2+x,y,-z
1/2-x,y,z
x,-y,z
loop_
_atom_site_type_symbol
_atom_site_label
_atom_site_fract_x
_atom_site_fract_y
_atom_site_fract_z
Si Si1 0.841845 0.729946 0.820790
Si Si2 0.333791 0.172526 0.920304
Si Si3 0.658258 0.090669 0.352330
Si Si4 0.587773 0.592596 0.003706
Si Si5 0.334824 0.666301 0.737201
Si Si6 0.409448 0.760305 0.489962
O O1 0.750000 0.734991 0.802184
O O2 0.884851 0.740868 0.671716
O O3 0.873420 0.802463 0.927553
O O4 0.862531 0.643640 0.889524
O O5 0.250000 0.137379 0.958964
O O6 0.375120 0.109014 0.811249
O O7 0.325594 0.253871 0.830045
O O8 0.750000 0.102694 0.350589
O O9 0.623513 0.151999 0.468180
O O10 0.634913 0.000000 0.396519
O O11 0.594360 0.500000 0.955274
O O12 0.618489 0.601267 0.168247
O O13 0.500000 0.622865 0.000000
O O14 0.250000 0.631947 0.699295
O O15 0.378959 0.687419 0.589351
O O16 0.500000 0.763890 0.500000
#
# Coordination Sequence:
#
# PCOD8209336 Si02
#       6
#     8   8   8   8   8   8
#     4  10  19  33  54  77 102 133 173 217 258 305
#     4   7  13  27  48  71  91 119 162 208 247 287
#     4   9  17  32  53  74 100 136 175 212 253 308
#     4  10  20  34  53  79 109 136 165 208 262 311
#     4   9  17  32  52  71  95 132 177 211 242 301
#     4  11  21  33  51  75 106 139 172 215 266 313
#
# _framework density 18.017465999999999
#
# number of rings (size 3 to 8) (size 9 to 14) (size 15 to 20)
#    0.000    2.667    0.000    5.000    0.000    1.667 
#    0.000    1.667    0.000    9.000    0.000    0.000 
#    0.000    0.000    0.000    0.000    0.000    0.000 
#
# Total GULP energy -594714.004412 kJ/mol
# GULP energy per Si atom -12389.875092 kJ/mol
# Density = 1.797646 g / cm^3
# Si number density = 18.017466 Si / 1000 Ang^3
#
#
#
# Elastic Constant Matrix: (Units=GPa)
#
#
# Indices 1 2 3 4 5 6 
#
# 1 71.9473 17.3988 18.5627 0.0000 0.0000 0.0000
# 2 17.3988 60.7963 30.7505 0.0000 0.0000 0.0000
# 3 18.5627 30.7505 119.4587 0.0000 0.0000 0.0000
# 4 0.0000 0.0000 0.0000 21.1704 0.0000 0.0000
# 5 0.0000 0.0000 0.0000 0.0000 24.3216 0.0000
# 6 0.0000 0.0000 0.0000 0.0000 0.0000 49.8361
#
#
#
# Elastic Compliance Matrix: (Units=1/GPa)
#
#
# Indices 1 2 3 4 5 6 
#
# 1 0.015140 -0.003613 -0.001422 0.000000 0.000000 0.000000
# 2 -0.003613 0.019773 -0.004528 0.000000 0.000000 0.000000
# 3 -0.001422 -0.004528 0.009758 0.000000 0.000000 0.000000
# 4 0.000000 0.000000 0.000000 0.047236 0.000000 0.000000
# 5 0.000000 0.000000 0.000000 0.000000 0.041116 0.000000
# 6 0.000000 0.000000 0.000000 0.000000 0.000000 0.020066
#
#
# Mechanical properties :
#
#
# Convention : Reuss Voigt Hill
#
# Bulk Modulus (GPa) = 39.15077 42.84737 40.99907
# Shear Modulus (GPa) = 27.66555 31.43162 29.54859
#
# Velocity S-wave (km/s) = 3.92278 4.18126 4.05408
# Velocity P-wave (km/s) = 6.50339 6.86609 6.68720
#
# Compressibility (1/GPa) = 0.02554228
#
# Stress axis : x y z
#
# Youngs Moduli (GPa) = 66.05078 50.57440 102.48216
#
# Poissons Ratio (x) = 0.18274 0.14578
# Poissons Ratio (y) = 0.23866 0.46408
# Poissons Ratio (z) = 0.09396 0.22902
#
# Static dielectric constant tensor:
#      x y z
#    x 3.279450 0.000000 0.000000 
#    y 0.000000 3.243940 0.000000 
#    z 0.000000 0.000000 3.546140 
# 
# 
# High freq. dielectric constant tensor:
#      x y z
#    x 1.687710 0.000000 0.000000 
#    y 0.000000 1.674580 0.000000 
#    z 0.000000 0.000000 1.698330 
# 
# From -- ./inp_files/8204.got.cif
#   From: 2010.03.12/outbox.cif.g09.slc.cpg/sg51_5_cif.got.tgz:8204.got - 2010.04.16 13:43:02.
