data_PCOD8209078
_publ_section_title
;
Structure prediction by ZEFSAII (Michael W. Deem and Ramdas Pophale) SiO2 
 PCOD8209078
Probable space group: P M M A
;
_chemical_formula_sum "Si O2"
_cell_formula_units_Z 64
_cell_length_a 17.856148
_cell_length_b 9.302638
_cell_length_c 21.328689
_cell_angle_alpha 90.000000
_cell_angle_beta 90.000000
_cell_angle_gamma 90.000000
_cell_volume 3542.893193
_symmetry_space_group_name_H-M "P M M A"
_symmetry_group_IT_number 51
_symmetry_cell_setting 'orthorhombic'
loop_
_space_group_symop_operation_xyz
x,y,z
1/2-x,-y,z
1/2+x,-y,-z
-x,y,-z
-x,-y,-z
1/2+x,y,-z
1/2-x,y,z
x,-y,z
loop_
_atom_site_type_symbol
_atom_site_label
_atom_site_fract_x
_atom_site_fract_y
_atom_site_fract_z
Si Si1 0.908068 0.336477 0.613751
Si Si2 0.334206 0.666565 0.122034
Si Si3 0.916460 0.333507 0.394062
Si Si4 0.163406 0.831715 0.495822
Si Si5 0.549156 0.831493 0.191532
Si Si6 0.532780 0.832148 0.934349
Si Si7 0.416687 0.336280 0.246616
Si Si8 0.163447 0.332134 0.734223
O O1 0.892434 0.500000 0.592291
O O2 0.860787 0.229763 0.571219
O O3 0.880790 0.311092 0.685137
O O4 0.995876 0.302450 0.610132
O O5 0.250000 0.721160 0.110379
O O6 0.342508 0.500000 0.105161
O O7 0.388881 0.753240 0.076694
O O8 0.353416 0.694347 0.194929
O O9 0.899463 0.500000 0.407992
O O10 0.884992 0.240315 0.450348
O O11 0.876604 0.285092 0.330040
O O12 0.250000 0.796675 0.507640
O O13 0.147196 0.000000 0.495994
O O14 0.527235 0.795323 0.119817
O O15 0.486051 0.770167 0.237756
O O16 0.627623 0.755357 0.207823
O O17 0.556799 0.000000 0.203025
O O18 0.550744 0.000000 0.936191
O O19 0.500000 0.776909 0.000000
O O20 0.447536 0.500000 0.241663
O O21 0.250000 0.289575 0.729463
O O22 0.152293 0.500000 0.747398
#
# Coordination Sequence:
#
# PCOD8209078 Si02
#       8
#     8   8   8   8   8   8   8   8
#     4  10  20  35  58  82 102 132 176 220 261 314
#     4   9  18  32  53  83 114 141 175 221 269 314
#     4  10  20  37  59  80 100 130 177 222 261 315
#     4  11  25  40  51  71 106 142 175 217 269 318
#     4  10  19  32  53  79 107 137 172 217 261 307
#     4   9  19  36  56  78 106 146 190 222 256 308
#     4   9  17  33  55  78 106 138 171 211 260 317
#     4  10  20  35  56  80 107 139 173 215 267 318
#
# _framework density 18.064332
#
# number of rings (size 3 to 8) (size 9 to 14) (size 15 to 20)
#    0.000    2.250    1.250    1.500    0.000    6.250 
#    0.000    1.875    0.000    3.750    0.000    0.000 
#    0.000    0.000    0.000    0.000    0.000    0.000 
#
# Total GULP energy -793768.882599 kJ/mol
# GULP energy per Si atom -12402.638791 kJ/mol
# Density = 1.802322 g / cm^3
# Si number density = 18.064332 Si / 1000 Ang^3
#
#
#
# Elastic Constant Matrix: (Units=GPa)
#
#
# Indices 1 2 3 4 5 6 
#
# 1 72.6422 37.4992 42.6164 0.0000 0.0000 0.0000
# 2 37.4992 60.2284 44.4049 0.0000 0.0000 0.0000
# 3 42.6164 44.4049 111.4012 0.0000 0.0000 0.0000
# 4 0.0000 0.0000 0.0000 27.9205 0.0000 0.0000
# 5 0.0000 0.0000 0.0000 0.0000 22.3022 0.0000
# 6 0.0000 0.0000 0.0000 0.0000 0.0000 28.2675
#
#
#
# Elastic Compliance Matrix: (Units=1/GPa)
#
#
# Indices 1 2 3 4 5 6 
#
# 1 0.021530 -0.010384 -0.004097 0.000000 0.000000 0.000000
# 2 -0.010384 0.028522 -0.007397 0.000000 0.000000 0.000000
# 3 -0.004097 -0.007397 0.013492 0.000000 0.000000 0.000000
# 4 0.000000 0.000000 0.000000 0.035816 0.000000 0.000000
# 5 0.000000 0.000000 0.000000 0.000000 0.044839 0.000000
# 6 0.000000 0.000000 0.000000 0.000000 0.000000 0.035376
#
#
# Mechanical properties :
#
#
# Convention : Reuss Voigt Hill
#
# Bulk Modulus (GPa) = 50.53408 54.81253 52.67330
# Shear Modulus (GPa) = 21.74595 23.68149 22.71372
#
# Velocity S-wave (km/s) = 3.47335 3.62464 3.54980
# Velocity P-wave (km/s) = 6.64235 6.92287 6.78406
#
# Compressibility (1/GPa) = 0.01978863
#
# Stress axis : x y z
#
# Youngs Moduli (GPa) = 46.44602 35.06042 74.11688
#
# Poissons Ratio (x) = 0.36408 0.30367
# Poissons Ratio (y) = 0.48231 0.54821
# Poissons Ratio (z) = 0.19030 0.25932
#
# Static dielectric constant tensor:
#      x y z
#    x 3.322160 0.000000 0.000000 
#    y 0.000000 3.305760 0.000000 
#    z 0.000000 0.000000 3.403200 
# 
# 
# High freq. dielectric constant tensor:
#      x y z
#    x 1.695910 0.000000 0.000000 
#    y 0.000000 1.696450 0.000000 
#    z 0.000000 0.000000 1.699030 
# 
# From -- ./inp_files/35754.got.cif
#   From: 2010.03.12/outbox.cif.g09.slc.cpg/sg51_18_cif.got.tgz:35754.got - 2010.04.16 13:43:02.
