data_PCOD8209895
_publ_section_title
;
Structure prediction by ZEFSAII (Michael W. Deem and Ramdas Pophale) SiO2 
 PCOD8209895
Probable space group: P M M A
;
_chemical_formula_sum "Si O2"
_cell_formula_units_Z 64
_cell_length_a 22.283820
_cell_length_b 8.888869
_cell_length_c 17.414128
_cell_angle_alpha 90.000000
_cell_angle_beta 90.000000
_cell_angle_gamma 90.000000
_cell_volume 3449.354894
_symmetry_space_group_name_H-M "P M M A"
_symmetry_group_IT_number 51
_symmetry_cell_setting 'orthorhombic'
loop_
_space_group_symop_operation_xyz
x,y,z
1/2-x,-y,z
1/2+x,-y,-z
-x,y,-z
-x,-y,-z
1/2+x,y,-z
1/2-x,y,z
x,-y,z
loop_
_atom_site_type_symbol
_atom_site_label
_atom_site_fract_x
_atom_site_fract_y
_atom_site_fract_z
Si Si1 0.818327 0.672306 0.561115
Si Si2 0.913587 0.822214 0.142715
Si Si3 0.588142 0.328300 0.686760
Si Si4 0.147400 0.823390 0.595586
Si Si5 0.929319 0.669081 0.988812
Si Si6 0.949702 0.823451 0.836741
Si Si7 0.974716 0.328802 0.418417
Si Si8 0.182683 0.326387 0.747014
O O1 0.750000 0.685162 0.588674
O O2 0.836075 0.500000 0.541267
O O3 0.859690 0.731650 0.630499
O O4 0.828433 0.773442 0.486869
O O5 0.865185 0.762656 0.202618
O O6 0.980557 0.771140 0.168337
O O7 0.908634 0.000000 0.138703
O O8 0.897869 0.756263 0.058929
O O9 0.600704 0.500000 0.711244
O O10 0.586702 0.225253 0.761641
O O11 0.524794 0.313579 0.645472
O O12 0.077753 0.783209 0.605628
O O13 0.184481 0.738548 0.661067
O O14 0.156794 0.000000 0.605244
O O15 0.903854 0.500000 0.986845
O O16 0.915067 0.749681 0.908515
O O17 0.000000 0.671194 0.000000
O O18 0.946110 0.000000 0.847578
O O19 0.950558 0.500000 0.424503
O O20 0.000000 0.275636 0.500000
O O21 0.250000 0.308858 0.781144
O O22 0.163079 0.500000 0.744456
#
# Coordination Sequence:
#
# PCOD8209895 Si02
#       8
#     8   8   8   8   8   8   8   8
#     4  10  21  39  59  75  97 136 185 229 269 318
#     4  10  20  35  56  83 114 144 175 218 275 328
#     4  10  20  34  54  79 105 137 178 223 271 321
#     4  12  24  36  54  80 110 140 177 226 278 328
#     4   9  17  31  54  82 111 143 176 210 254 314
#     4  10  20  33  52  82 116 145 175 217 273 330
#     4  10  19  35  56  77 105 140 179 221 269 327
#     4  11  24  40  57  77 105 146 193 233 269 320
#
# _framework density 18.554193999999999
#
# number of rings (size 3 to 8) (size 9 to 14) (size 15 to 20)
#    0.000    1.750    1.250    3.750    0.000    9.000 
#    0.000    0.000    0.000    0.750    0.000    1.750 
#    0.000    0.000    0.000    0.000    0.000    0.000 
#
# Total GULP energy -793803.224227 kJ/mol
# GULP energy per Si atom -12403.175379 kJ/mol
# Density = 1.851196 g / cm^3
# Si number density = 18.554194 Si / 1000 Ang^3
#
#
#
# Elastic Constant Matrix: (Units=GPa)
#
#
# Indices 1 2 3 4 5 6 
#
# 1 71.1416 25.3937 35.6562 0.0000 0.0000 0.0000
# 2 25.3937 89.9145 45.5562 0.0000 0.0000 0.0000
# 3 35.6562 45.5562 129.3908 0.0000 0.0000 0.0000
# 4 0.0000 0.0000 0.0000 29.6894 0.0000 0.0000
# 5 0.0000 0.0000 0.0000 0.0000 13.3760 0.0000
# 6 0.0000 0.0000 0.0000 0.0000 0.0000 19.0207
#
#
#
# Elastic Compliance Matrix: (Units=1/GPa)
#
#
# Indices 1 2 3 4 5 6 
#
# 1 0.016925 -0.002942 -0.003628 0.000000 0.000000 0.000000
# 2 -0.002942 0.014048 -0.004135 0.000000 0.000000 0.000000
# 3 -0.003628 -0.004135 0.010184 0.000000 0.000000 0.000000
# 4 0.000000 0.000000 0.000000 0.033682 0.000000 0.000000
# 5 0.000000 0.000000 0.000000 0.000000 0.074761 0.000000
# 6 0.000000 0.000000 0.000000 0.000000 0.000000 0.052574
#
#
# Mechanical properties :
#
#
# Convention : Reuss Voigt Hill
#
# Bulk Modulus (GPa) = 50.64196 55.96212 53.30204
# Shear Modulus (GPa) = 21.72337 24.67327 23.19832
#
# Velocity S-wave (km/s) = 3.42542 3.65059 3.53980
# Velocity P-wave (km/s) = 6.55728 6.92792 6.74515
#
# Compressibility (1/GPa) = 0.01974647
#
# Stress axis : x y z
#
# Youngs Moduli (GPa) = 59.08423 71.18623 98.18990
#
# Poissons Ratio (x) = 0.20940 0.35626
# Poissons Ratio (y) = 0.17380 0.40605
# Poissons Ratio (z) = 0.21438 0.29438
#
# Static dielectric constant tensor:
#      x y z
#    x 3.297090 0.000000 0.000000 
#    y 0.000000 3.413580 0.000000 
#    z 0.000000 0.000000 3.476210 
# 
# 
# High freq. dielectric constant tensor:
#      x y z
#    x 1.697360 0.000000 0.000000 
#    y 0.000000 1.722510 0.000000 
#    z 0.000000 0.000000 1.723530 
# 
# From -- ./inp_files/30645.got.cif
#   From: 2010.03.12/outbox.cif.g09.slc.cpg/sg51_16_cif.got.tgz:30645.got - 2010.04.16 13:43:02.
