data_PCOD8209116
_publ_section_title
;
Structure prediction by ZEFSAII (Michael W. Deem and Ramdas Pophale) SiO2 
 PCOD8209116
Probable space group: P M M A
;
_chemical_formula_sum "Si O2"
_cell_formula_units_Z 56
_cell_length_a 8.596927
_cell_length_b 14.594657
_cell_length_c 23.460461
_cell_angle_alpha 90.000000
_cell_angle_beta 90.000000
_cell_angle_gamma 90.000000
_cell_volume 2943.565293
_symmetry_space_group_name_H-M "P M M A"
_symmetry_group_IT_number 51
_symmetry_cell_setting 'orthorhombic'
loop_
_space_group_symop_operation_xyz
x,y,z
1/2-x,-y,z
1/2+x,-y,-z
-x,y,-z
-x,-y,-z
1/2+x,y,-z
1/2-x,y,z
x,-y,z
loop_
_atom_site_type_symbol
_atom_site_label
_atom_site_fract_x
_atom_site_fract_y
_atom_site_fract_z
Si Si1 0.565206 0.500000 0.061832
Si Si2 0.576846 0.399515 0.242815
Si Si3 0.429469 0.659870 0.134048
Si Si4 0.571726 0.740942 0.342719
Si Si5 0.935065 0.603698 0.438547
Si Si6 0.568851 0.146411 0.148140
Si Si7 0.570664 0.105062 0.728561
Si Si8 0.067394 0.000000 0.063947
O O1 0.750000 0.500000 0.065756
O O2 0.496708 0.591577 0.088147
O O3 0.500000 0.500000 0.000000
O O4 0.750000 0.389153 0.215612
O O5 0.559388 0.500000 0.270841
O O6 0.445617 0.387535 0.195428
O O7 0.551362 0.324482 0.289648
O O8 0.250000 0.682729 0.121853
O O9 0.533628 0.749933 0.132228
O O10 0.750000 0.766932 0.354733
O O11 0.501325 0.683122 0.395932
O O12 0.482412 0.834218 0.326018
O O13 0.750000 0.606031 0.438654
O O14 0.990495 0.500000 0.421534
O O15 0.000000 0.630247 0.500000
O O16 0.750000 0.125046 0.143358
O O17 0.519502 0.126401 0.213113
O O18 0.481616 0.087613 0.100623
O O19 0.750000 0.125311 0.741253
O O20 0.541894 0.000000 0.710871
O O21 0.250000 0.000000 0.056761
O O22 0.000000 0.000000 0.000000
#
# Coordination Sequence:
#
# PCOD8209116 Si02
#       8
#     4   8   8   8   8   8   8   4
#     4  12  26  46  66  86 114 154 201 246 295 358
#     4  10  19  32  53  82 117 153 189 233 289 351
#     4  12  24  39  60  88 119 153 193 242 295 351
#     4  10  20  34  56  86 119 156 202 247 296 355
#     4   9  18  34  56  85 122 165 206 248 295 353
#     4  12  24  41  65  91 119 157 198 241 298 363
#     4  11  23  38  58  86 121 156 193 245 306 362
#     4  12  26  46  68  94 122 152 193 246 303 364
#
# _framework density 19.024547999999999
#
# number of rings (size 3 to 8) (size 9 to 14) (size 15 to 20)
#    0.000    1.143    2.857    4.714    0.000    3.714 
#    0.000    2.857    0.000    3.000    0.000    0.000 
#    0.000    0.000    0.000    0.000    0.000    0.000 
#
# Total GULP energy -694265.015958 kJ/mol
# GULP energy per Si atom -12397.589571 kJ/mol
# Density = 1.898125 g / cm^3
# Si number density = 19.024548 Si / 1000 Ang^3
#
#
#
# Elastic Constant Matrix: (Units=GPa)
#
#
# Indices 1 2 3 4 5 6 
#
# 1 96.9103 33.9203 37.3938 0.0000 0.0000 0.0000
# 2 33.9203 132.0355 55.3865 0.0000 0.0000 0.0000
# 3 37.3938 55.3865 102.2630 0.0000 0.0000 0.0000
# 4 0.0000 0.0000 0.0000 72.1120 0.0000 0.0000
# 5 0.0000 0.0000 0.0000 0.0000 31.1008 0.0000
# 6 0.0000 0.0000 0.0000 0.0000 0.0000 31.3821
#
#
#
# Elastic Compliance Matrix: (Units=1/GPa)
#
#
# Indices 1 2 3 4 5 6 
#
# 1 0.012284 -0.001645 -0.003601 0.000000 0.000000 0.000000
# 2 -0.001645 0.010021 -0.004826 0.000000 0.000000 0.000000
# 3 -0.003601 -0.004826 0.013709 0.000000 0.000000 0.000000
# 4 0.000000 0.000000 0.000000 0.013867 0.000000 0.000000
# 5 0.000000 0.000000 0.000000 0.000000 0.032153 0.000000
# 6 0.000000 0.000000 0.000000 0.000000 0.000000 0.031865
#
#
# Mechanical properties :
#
#
# Convention : Reuss Voigt Hill
#
# Bulk Modulus (GPa) = 63.01070 64.95666 63.98368
# Shear Modulus (GPa) = 35.88516 40.55286 38.21901
#
# Velocity S-wave (km/s) = 4.34782 4.62194 4.48697
# Velocity P-wave (km/s) = 7.64181 7.91839 7.78133
#
# Compressibility (1/GPa) = 0.01587032
#
# Stress axis : x y z
#
# Youngs Moduli (GPa) = 81.40601 99.79349 72.94503
#
# Poissons Ratio (x) = 0.16420 0.26265
# Poissons Ratio (y) = 0.13395 0.35201
# Poissons Ratio (z) = 0.29312 0.48157
#
# Static dielectric constant tensor:
#      x y z
#    x 3.556860 0.000000 0.000000 
#    y 0.000000 3.745070 0.000000 
#    z 0.000000 0.000000 4.119200 
# 
# 
# High freq. dielectric constant tensor:
#      x y z
#    x 1.742720 0.000000 0.000000 
#    y 0.000000 1.752150 0.000000 
#    z 0.000000 0.000000 1.724970 
# 
# From -- ./inp_files/32140.got.cif
#   From: 2010.03.12/outbox.cif.g09.slc.cpg/sg51_17_cif.got.tgz:32140.got - 2010.04.16 13:43:02.
