data_PCOD8209660
_publ_section_title
;
Structure prediction by ZEFSAII (Michael W. Deem and Ramdas Pophale) SiO2 
 PCOD8209660
Probable space group: P M M A
;
_chemical_formula_sum "Si O2"
_cell_formula_units_Z 64
_cell_length_a 25.539194
_cell_length_b 9.447529
_cell_length_c 14.379321
_cell_angle_alpha 90.000000
_cell_angle_beta 90.000000
_cell_angle_gamma 90.000000
_cell_volume 3469.475298
_symmetry_space_group_name_H-M "P M M A"
_symmetry_group_IT_number 51
_symmetry_cell_setting 'orthorhombic'
loop_
_space_group_symop_operation_xyz
x,y,z
1/2-x,-y,z
1/2+x,-y,-z
-x,y,-z
-x,-y,-z
1/2+x,y,-z
1/2-x,y,z
x,-y,z
loop_
_atom_site_type_symbol
_atom_site_label
_atom_site_fract_x
_atom_site_fract_y
_atom_site_fract_z
Si Si1 0.979936 0.834857 0.101072
Si Si2 0.690411 0.664839 0.255055
Si Si3 0.858568 0.835757 0.093290
Si Si4 0.809389 0.665425 0.722097
Si Si5 0.189700 0.162526 0.099318
Si Si6 0.901615 0.332650 0.592779
Si Si7 0.598554 0.667677 0.385859
Si Si8 0.495753 0.668242 0.277534
O O1 0.918817 0.800071 0.111038
O O2 0.010618 0.744369 0.178259
O O3 0.991859 0.000000 0.117101
O O4 0.000000 0.787013 0.000000
O O5 0.750000 0.694403 0.286182
O O6 0.680764 0.500000 0.234899
O O7 0.678235 0.746958 0.160811
O O8 0.652287 0.718841 0.337296
O O9 0.845881 0.000000 0.109772
O O10 0.845184 0.792121 0.988118
O O11 0.750000 0.707851 0.695918
O O12 0.814689 0.500000 0.742599
O O13 0.828900 0.744128 0.814206
O O14 0.846127 0.712388 0.636966
O O15 0.250000 0.191876 0.074373
O O16 0.180287 0.000000 0.126307
O O17 0.906328 0.500000 0.585251
O O18 0.904822 0.265824 0.489419
O O19 0.948993 0.277318 0.656522
O O20 0.597415 0.500000 0.393961
O O21 0.549524 0.719825 0.325244
O O22 0.494258 0.500000 0.262043
#
# Coordination Sequence:
#
# PCOD8209660 Si02
#       8
#     8   8   8   8   8   8   8   8
#     4  10  22  37  53  77 108 139 169 209 263 314
#     4  10  20  33  52  80 109 137 173 217 262 305
#     4  10  20  35  54  74 101 138 176 210 253 314
#     4   9  18  32  49  73 104 132 162 207 257 300
#     4   9  18  32  50  71  95 128 169 205 241 295
#     4   9  18  31  52  79 102 132 173 211 253 308
#     4   9  17  32  52  76 105 134 167 212 259 301
#     4  10  19  34  56  79 102 133 174 215 253 302
#
# _framework density 18.446593
#
# number of rings (size 3 to 8) (size 9 to 14) (size 15 to 20)
#    0.000    2.500    1.250    0.750    1.750    3.500 
#    0.000    3.750    0.000    3.750    0.000    1.750 
#    0.000    0.000    0.000    0.000    0.000    0.000 
#
# Total GULP energy -793675.568555 kJ/mol
# GULP energy per Si atom -12401.180759 kJ/mol
# Density = 1.840461 g / cm^3
# Si number density = 18.446593 Si / 1000 Ang^3
#
#
#
# Elastic Constant Matrix: (Units=GPa)
#
#
# Indices 1 2 3 4 5 6 
#
# 1 101.7613 26.7241 61.2198 0.0000 0.0000 0.0000
# 2 26.7241 32.6385 42.4316 0.0000 0.0000 0.0000
# 3 61.2198 42.4316 150.9029 0.0000 0.0000 0.0000
# 4 0.0000 0.0000 0.0000 -0.3984 0.0000 0.0000
# 5 0.0000 0.0000 0.0000 0.0000 33.0809 0.0000
# 6 0.0000 0.0000 0.0000 0.0000 0.0000 18.0039
#
#
#
# Elastic Compliance Matrix: (Units=1/GPa)
#
#
# Indices 1 2 3 4 5 6 
#
# 1 0.013782 -0.006330 -0.003812 0.000000 0.000000 0.000000
# 2 -0.006330 0.051199 -0.011828 0.000000 0.000000 0.000000
# 3 -0.003812 -0.011828 0.011499 0.000000 0.000000 0.000000
# 4 0.000000 0.000000 0.000000 -2.510315 0.000000 0.000000
# 5 0.000000 0.000000 0.000000 0.000000 0.030229 0.000000
# 6 0.000000 0.000000 0.000000 0.000000 0.000000 0.055543
#
#
# Mechanical properties :
#
#
# Convention : Reuss Voigt Hill
#
# Bulk Modulus (GPa) = 30.73054 60.67265 45.70159
# Shear Modulus (GPa) = -2.18029 20.46578 9.14275
#
# Velocity S-wave (km/s) = -1.08835 3.33447 2.22870
# Velocity P-wave (km/s) = 3.88793 6.91284 5.60818
#
# Compressibility (1/GPa) = 0.03254092
#
# Stress axis : x y z
#
# Youngs Moduli (GPa) = 72.55750 19.53170 86.96364
#
# Poissons Ratio (x) = 0.12363 0.33146
# Poissons Ratio (y) = 0.45926 1.02865
# Poissons Ratio (z) = 0.27655 0.23103
#
# Static dielectric constant tensor:
#      x y z
#    x 3.529740 0.000000 0.000000 
#    y 0.000000 3.061230 0.000000 
#    z 0.000000 0.000000 3.531290 
# 
# 
# High freq. dielectric constant tensor:
#      x y z
#    x 1.726010 0.000000 0.000000 
#    y 0.000000 1.678080 0.000000 
#    z 0.000000 0.000000 1.721220 
# 
# From -- ./inp_files/18881.got.cif
#   From: 2010.03.12/outbox.cif.g09.slc.cpg/sg51_10_cif.got.tgz:18881.got - 2010.04.16 13:43:02.
