data_PCOD8209301
_publ_section_title
;
Structure prediction by ZEFSAII (Michael W. Deem and Ramdas Pophale) SiO2 
 PCOD8209301
Probable space group: P M M A
;
_chemical_formula_sum "Si O2"
_cell_formula_units_Z 52
_cell_length_a 8.858420
_cell_length_b 23.000591
_cell_length_c 14.313151
_cell_angle_alpha 90.000000
_cell_angle_beta 90.000000
_cell_angle_gamma 90.000000
_cell_volume 2916.288705
_symmetry_space_group_name_H-M "P M M A"
_symmetry_group_IT_number 51
_symmetry_cell_setting 'orthorhombic'
loop_
_space_group_symop_operation_xyz
x,y,z
1/2-x,-y,z
1/2+x,-y,-z
-x,y,-z
-x,-y,-z
1/2+x,y,-z
1/2-x,y,z
x,-y,z
loop_
_atom_site_type_symbol
_atom_site_label
_atom_site_fract_x
_atom_site_fract_y
_atom_site_fract_z
Si Si1 0.073965 0.844334 0.904558
Si Si2 0.070205 0.000000 0.602322
Si Si3 0.426233 0.435009 0.404811
Si Si4 0.929292 0.771774 0.399253
Si Si5 0.927798 0.671101 0.720821
Si Si6 0.429327 0.885430 0.707583
Si Si7 0.427751 0.709202 0.903595
O O1 0.250000 0.853976 0.916817
O O2 0.011368 0.879967 0.814675
O O3 0.035651 0.776960 0.886631
O O4 0.000000 0.867754 0.000000
O O5 0.010950 0.944296 0.659946
O O6 0.000000 0.000000 0.500000
O O7 0.250000 0.000000 0.592478
O O8 0.500000 0.411627 0.500000
O O9 0.250000 0.435457 0.423351
O O10 0.485007 0.500000 0.379940
O O11 0.467815 0.392109 0.320498
O O12 0.750000 0.770644 0.406691
O O13 0.988674 0.831591 0.353651
O O14 0.000000 0.765033 0.500000
O O15 0.982521 0.719056 0.336360
O O16 0.750000 0.684305 0.717555
O O17 0.989195 0.671113 0.825713
O O18 0.250000 0.884262 0.710089
O O19 0.250000 0.697091 0.902655
O O20 0.500000 0.688103 0.000000
#
# Coordination Sequence:
#
# PCOD8209301 Si02
#       7
#     8   4   8   8   8   8   8
#     4   9  17  32  51  74 101 132 165 203 253 307
#     4  10  20  36  57  74  96 134 177 216 253 306
#     4   9  19  35  53  74 103 139 177 216 256 304
#     4  11  21  34  49  72 105 136 169 214 265 313
#     4  11  21  33  52  79 106 136 174 212 260 313
#     4   9  18  34  53  73 100 135 171 209 259 310
#     4  10  19  33  53  77 108 139 171 212 259 313
#
# _framework density 17.830881999999999
#
# number of rings (size 3 to 8) (size 9 to 14) (size 15 to 20)
#    0.000    2.154    1.538    2.308    0.000    3.077 
#    0.000    1.923    0.000    0.462    0.000    0.000 
#    0.000    0.000    0.000    0.000    0.000    0.000 
#
# Total GULP energy -644821.577881 kJ/mol
# GULP energy per Si atom -12400.414959 kJ/mol
# Density = 1.779030 g / cm^3
# Si number density = 17.830882 Si / 1000 Ang^3
#
#
#
# Elastic Constant Matrix: (Units=GPa)
#
#
# Indices 1 2 3 4 5 6 
#
# 1 47.2231 32.3970 38.8184 0.0000 0.0000 0.0000
# 2 32.3970 99.7808 66.0106 0.0000 0.0000 0.0000
# 3 38.8184 66.0106 163.1470 0.0000 0.0000 0.0000
# 4 0.0000 0.0000 0.0000 28.6462 0.0000 0.0000
# 5 0.0000 0.0000 0.0000 0.0000 33.5749 0.0000
# 6 0.0000 0.0000 0.0000 0.0000 0.0000 17.7879
#
#
#
# Elastic Compliance Matrix: (Units=1/GPa)
#
#
# Indices 1 2 3 4 5 6 
#
# 1 0.029262 -0.006684 -0.004258 0.000000 0.000000 0.000000
# 2 -0.006684 0.015212 -0.004564 0.000000 0.000000 0.000000
# 3 -0.004258 -0.004564 0.008989 0.000000 0.000000 0.000000
# 4 0.000000 0.000000 0.000000 0.034909 0.000000 0.000000
# 5 0.000000 0.000000 0.000000 0.000000 0.029784 0.000000
# 6 0.000000 0.000000 0.000000 0.000000 0.000000 0.056218
#
#
# Mechanical properties :
#
#
# Convention : Reuss Voigt Hill
#
# Bulk Modulus (GPa) = 44.54317 64.95591 54.74954
# Shear Modulus (GPa) = 23.48855 27.53013 25.50934
#
# Velocity S-wave (km/s) = 3.63339 3.93359 3.78647
# Velocity P-wave (km/s) = 6.52972 7.55902 7.06314
#
# Compressibility (1/GPa) = 0.02245013
#
# Stress axis : x y z
#
# Youngs Moduli (GPa) = 34.17442 65.73874 111.24197
#
# Poissons Ratio (x) = 0.43938 0.47368
# Poissons Ratio (y) = 0.22841 0.50776
# Poissons Ratio (z) = 0.14552 0.30006
#
# Static dielectric constant tensor:
#      x y z
#    x 3.203130 0.000000 0.000000 
#    y 0.000000 3.434720 0.000000 
#    z 0.000000 0.000000 3.503240 
# 
# 
# High freq. dielectric constant tensor:
#      x y z
#    x 1.681030 0.000000 0.000000 
#    y 0.000000 1.673320 0.000000 
#    z 0.000000 0.000000 1.702690 
# 
# From -- ./inp_files/21623.got.cif
#   From: 2010.03.12/outbox.cif.g09.slc.cpg/sg51_11_cif.got.tgz:21623.got - 2010.04.16 13:43:02.
