data_PCOD8209778
_publ_section_title
;
Structure prediction by ZEFSAII (Michael W. Deem and Ramdas Pophale) SiO2 
 PCOD8209778
Probable space group: P M M A
;
_chemical_formula_sum "Si O2"
_cell_formula_units_Z 52
_cell_length_a 8.853536
_cell_length_b 22.621934
_cell_length_c 14.153570
_cell_angle_alpha 90.000000
_cell_angle_beta 90.000000
_cell_angle_gamma 90.000000
_cell_volume 2834.735129
_symmetry_space_group_name_H-M "P M M A"
_symmetry_group_IT_number 51
_symmetry_cell_setting 'orthorhombic'
loop_
_space_group_symop_operation_xyz
x,y,z
1/2-x,-y,z
1/2+x,-y,-z
-x,y,-z
-x,-y,-z
1/2+x,y,-z
1/2-x,y,z
x,-y,z
loop_
_atom_site_type_symbol
_atom_site_label
_atom_site_fract_x
_atom_site_fract_y
_atom_site_fract_z
Si Si1 0.073601 0.775416 0.599189
Si Si2 0.573269 0.431752 0.401421
Si Si3 0.926058 0.849531 0.093863
Si Si4 0.427455 0.331692 0.291693
Si Si5 0.077726 0.105188 0.706777
Si Si6 0.572533 0.276650 0.904746
Si Si7 0.925902 0.000000 0.601744
O O1 0.250000 0.763220 0.585953
O O2 0.041744 0.829833 0.668479
O O3 0.000000 0.792029 0.500000
O O4 0.997827 0.717426 0.640857
O O5 0.500000 0.411573 0.500000
O O6 0.750000 0.418879 0.407119
O O7 0.537778 0.500000 0.380323
O O8 0.499410 0.394803 0.316642
O O9 0.750000 0.837824 0.076760
O O10 0.952085 0.894222 0.180750
O O11 0.003348 0.787255 0.116713
O O12 0.000000 0.878177 0.000000
O O13 0.250000 0.332966 0.309798
O O14 0.466340 0.319436 0.182361
O O15 0.250000 0.087162 0.684148
O O16 0.968751 0.058069 0.659743
O O17 0.750000 0.269459 0.919113
O O18 0.500000 0.303991 0.000000
O O19 0.000000 0.000000 0.500000
O O20 0.750000 0.000000 0.584752
#
# Coordination Sequence:
#
# PCOD8209778 Si02
#       7
#     8   8   8   8   8   8   4
#     4  11  22  36  54  79 111 145 181 226 278 328
#     4  10  21  37  57  80 109 148 190 231 275 327
#     4  10  19  34  57  85 114 146 181 224 276 330
#     4  11  22  35  54  82 113 146 183 227 277 329
#     4  10  22  40  60  82 111 147 187 229 276 328
#     4  10  20  33  53  81 113 147 183 224 273 330
#     4  12  26  42  63  84 109 146 189 232 278 334
#
# _framework density 18.343865999999998
#
# number of rings (size 3 to 8) (size 9 to 14) (size 15 to 20)
#    0.000    1.538    1.538    4.846    0.000    6.462 
#    0.000    0.385    0.000    0.462    0.000    0.000 
#    0.000    0.000    0.000    0.000    0.000    0.000 
#
# Total GULP energy -644999.798186 kJ/mol
# GULP energy per Si atom -12403.842273 kJ/mol
# Density = 1.830211 g / cm^3
# Si number density = 18.343866 Si / 1000 Ang^3
#
#
#
# Elastic Constant Matrix: (Units=GPa)
#
#
# Indices 1 2 3 4 5 6 
#
# 1 122.4896 44.4547 65.8538 0.0000 0.0000 0.0000
# 2 44.4547 74.5158 46.4008 0.0000 0.0000 0.0000
# 3 65.8538 46.4008 134.0585 0.0000 0.0000 0.0000
# 4 0.0000 0.0000 0.0000 27.4422 0.0000 0.0000
# 5 0.0000 0.0000 0.0000 0.0000 33.8371 0.0000
# 6 0.0000 0.0000 0.0000 0.0000 0.0000 29.1707
#
#
#
# Elastic Compliance Matrix: (Units=1/GPa)
#
#
# Indices 1 2 3 4 5 6 
#
# 1 0.012178 -0.004513 -0.004420 0.000000 0.000000 0.000000
# 2 -0.004513 0.018779 -0.004283 0.000000 0.000000 0.000000
# 3 -0.004420 -0.004283 0.011113 0.000000 0.000000 0.000000
# 4 0.000000 0.000000 0.000000 0.036440 0.000000 0.000000
# 5 0.000000 0.000000 0.000000 0.000000 0.029553 0.000000
# 6 0.000000 0.000000 0.000000 0.000000 0.000000 0.034281
#
#
# Mechanical properties :
#
#
# Convention : Reuss Voigt Hill
#
# Bulk Modulus (GPa) = 63.94534 71.60915 67.77725
# Shear Modulus (GPa) = 28.73715 29.71365 29.22540
#
# Velocity S-wave (km/s) = 3.96230 4.02906 3.99582
# Velocity P-wave (km/s) = 7.47449 7.79527 7.63657
#
# Compressibility (1/GPa) = 0.01563836
#
# Stress axis : x y z
#
# Youngs Moduli (GPa) = 82.11337 53.25015 89.98181
#
# Poissons Ratio (x) = 0.24031 0.39775
# Poissons Ratio (y) = 0.37056 0.38540
# Poissons Ratio (z) = 0.36297 0.22808
#
# Static dielectric constant tensor:
#      x y z
#    x 3.528250 0.000000 0.000000 
#    y 0.000000 3.220010 0.000000 
#    z 0.000000 0.000000 3.614410 
# 
# 
# High freq. dielectric constant tensor:
#      x y z
#    x 1.728470 0.000000 0.000000 
#    y 0.000000 1.690720 0.000000 
#    z 0.000000 0.000000 1.722250 
# 
# From -- ./inp_files/21641.got.cif
#   From: 2010.03.12/outbox.cif.g09.slc.cpg/sg51_11_cif.got.tgz:21641.got - 2010.04.16 13:43:02.
