data_PCOD8209161
_publ_section_title
;
Structure prediction by ZEFSAII (Michael W. Deem and Ramdas Pophale) SiO2 
 PCOD8209161
Probable space group: P M M A
;
_chemical_formula_sum "Si O2"
_cell_formula_units_Z 64
_cell_length_a 16.897131
_cell_length_b 18.921129
_cell_length_c 10.404392
_cell_angle_alpha 90.000000
_cell_angle_beta 90.000000
_cell_angle_gamma 90.000000
_cell_volume 3326.417251
_symmetry_space_group_name_H-M "P M M A"
_symmetry_group_IT_number 51
_symmetry_cell_setting 'orthorhombic'
loop_
_space_group_symop_operation_xyz
x,y,z
1/2-x,-y,z
1/2+x,-y,-z
-x,y,-z
-x,-y,-z
1/2+x,y,-z
1/2-x,y,z
x,-y,z
loop_
_atom_site_type_symbol
_atom_site_label
_atom_site_fract_x
_atom_site_fract_y
_atom_site_fract_z
Si Si1 0.407940 0.783943 0.522176
Si Si2 0.108654 0.712279 0.267179
Si Si3 0.156672 0.655419 0.668575
Si Si4 0.955598 0.681875 0.124670
Si Si5 0.156750 0.578786 0.409374
Si Si6 0.157078 0.924543 0.930719
Si Si7 0.838112 0.778313 0.981691
Si Si8 0.342313 0.080736 0.641337
O O1 0.500000 0.768866 0.500000
O O2 0.368402 0.761044 0.387529
O O3 0.368997 0.735602 0.633664
O O4 0.391077 0.865935 0.550258
O O5 0.122373 0.629723 0.299633
O O6 0.165346 0.739732 0.154866
O O7 0.018193 0.717950 0.220610
O O8 0.250000 0.651001 0.700941
O O9 0.103704 0.631013 0.793039
O O10 0.132521 0.604227 0.551787
O O11 0.901102 0.744762 0.075790
O O12 0.000000 0.645403 0.000000
O O13 0.250000 0.579443 0.396420
O O14 0.122594 0.500000 0.387595
O O15 0.250000 0.934145 0.919028
O O16 0.126420 0.908109 0.786665
O O17 0.121077 0.000000 0.979818
O O18 0.135947 0.861032 0.028633
O O19 0.750000 0.772763 0.042374
O O20 0.250000 0.099128 0.628099
O O21 0.358566 0.000000 0.596800
#
# Coordination Sequence:
#
# PCOD8209161 Si02
#       8
#     8   8   8   8   8   8   8   8
#     4  11  20  32  53  77 110 147 177 227 288 341
#     4  10  21  35  52  80 117 141 175 226 282 334
#     4  10  19  34  58  84 107 140 190 234 273 329
#     4  10  20  34  52  77 110 144 181 230 277 327
#     4   9  19  36  60  87 113 145 184 226 274 332
#     4   8  15  29  50  76 103 134 183 239 280 321
#     4  10  19  32  55  80 104 143 190 231 279 333
#     4   9  18  32  50  74 103 139 188 237 278 331
#
# _framework density 19.239919
#
# number of rings (size 3 to 8) (size 9 to 14) (size 15 to 20)
#    0.000    2.375    1.250    2.625    0.000    2.750 
#    0.000    1.875    0.000   11.625    0.000    7.000 
#    0.000    0.000    0.000    0.000    0.000    0.000 
#
# Total GULP energy -793048.002467 kJ/mol
# GULP energy per Si atom -12391.375039 kJ/mol
# Density = 1.919613 g / cm^3
# Si number density = 19.239919 Si / 1000 Ang^3
#
#
#
# Elastic Constant Matrix: (Units=GPa)
#
#
# Indices 1 2 3 4 5 6 
#
# 1 62.7964 31.0099 32.0682 0.0000 0.0000 0.0000
# 2 31.0099 137.4170 61.4992 0.0000 0.0000 0.0000
# 3 32.0682 61.4992 100.4461 0.0000 0.0000 0.0000
# 4 0.0000 0.0000 0.0000 23.5430 0.0000 0.0000
# 5 0.0000 0.0000 0.0000 0.0000 33.4266 0.0000
# 6 0.0000 0.0000 0.0000 0.0000 0.0000 8.9201
#
#
#
# Elastic Compliance Matrix: (Units=1/GPa)
#
#
# Indices 1 2 3 4 5 6 
#
# 1 0.019508 -0.002224 -0.004866 0.000000 0.000000 0.000000
# 2 -0.002224 0.010277 -0.005582 0.000000 0.000000 0.000000
# 3 -0.004866 -0.005582 0.014927 0.000000 0.000000 0.000000
# 4 0.000000 0.000000 0.000000 0.042475 0.000000 0.000000
# 5 0.000000 0.000000 0.000000 0.000000 0.029916 0.000000
# 6 0.000000 0.000000 0.000000 0.000000 0.000000 0.112106
#
#
# Mechanical properties :
#
#
# Convention : Reuss Voigt Hill
#
# Bulk Modulus (GPa) = 51.63535 61.09047 56.36291
# Shear Modulus (GPa) = 19.15628 24.91677 22.03652
#
# Velocity S-wave (km/s) = 3.15882 3.60259 3.38798
# Velocity P-wave (km/s) = 6.34035 7.00898 6.68303
#
# Compressibility (1/GPa) = 0.01936658
#
# Stress axis : x y z
#
# Youngs Moduli (GPa) = 51.26124 97.30130 66.99306
#
# Poissons Ratio (x) = 0.21644 0.32600
# Poissons Ratio (y) = 0.11403 0.37397
# Poissons Ratio (z) = 0.24944 0.54316
#
# Static dielectric constant tensor:
#      x y z
#    x 3.454530 0.000000 0.000000 
#    y 0.000000 3.548840 0.000000 
#    z 0.000000 0.000000 3.610000 
# 
# 
# High freq. dielectric constant tensor:
#      x y z
#    x 1.742280 0.000000 0.000000 
#    y 0.000000 1.728640 0.000000 
#    z 0.000000 0.000000 1.740770 
# 
# From -- ./inp_files/17671.got.cif
#   From: 2010.03.12/outbox.cif.g09.slc.cpg/sg51_9_cif.got.tgz:17671.got - 2010.04.16 13:43:02.
