data_PCOD8209888
_publ_section_title
;
Structure prediction by ZEFSAII (Michael W. Deem and Ramdas Pophale) SiO2 
 PCOD8209888
Probable space group: P M M A
;
_chemical_formula_sum "Si O2"
_cell_formula_units_Z 48
_cell_length_a 20.625293
_cell_length_b 8.379749
_cell_length_c 14.564172
_cell_angle_alpha 90.000000
_cell_angle_beta 90.000000
_cell_angle_gamma 90.000000
_cell_volume 2517.195440
_symmetry_space_group_name_H-M "P M M A"
_symmetry_group_IT_number 51
_symmetry_cell_setting 'orthorhombic'
loop_
_space_group_symop_operation_xyz
x,y,z
1/2-x,-y,z
1/2+x,-y,-z
-x,y,-z
-x,-y,-z
1/2+x,y,-z
1/2-x,y,z
x,-y,z
loop_
_atom_site_type_symbol
_atom_site_label
_atom_site_fract_x
_atom_site_fract_y
_atom_site_fract_z
Si Si1 0.874342 0.185263 0.745510
Si Si2 0.485099 0.314593 0.752743
Si Si3 0.561092 0.688578 0.443866
Si Si4 0.438648 0.188318 0.937802
Si Si5 0.177899 0.189471 0.061637
Si Si6 0.178607 0.313058 0.440689
O O1 0.950941 0.207860 0.756639
O O2 0.839964 0.252108 0.837114
O O3 0.846445 0.284784 0.661706
O O4 0.858948 0.000000 0.729681
O O5 0.504702 0.500000 0.748112
O O6 0.443855 0.265119 0.662948
O O7 0.441406 0.278912 0.841152
O O8 0.500000 0.760463 0.500000
O O9 0.561944 0.500000 0.458337
O O10 0.627543 0.761459 0.486234
O O11 0.436714 0.000000 0.920082
O O12 0.500000 0.235148 0.000000
O O13 0.373778 0.253048 0.987469
O O14 0.250000 0.249177 0.034840
O O15 0.173809 0.000000 0.063396
O O16 0.250000 0.235256 0.455058
O O17 0.183860 0.500000 0.456503
#
# Coordination Sequence:
#
# PCOD8209888 Si02
#       6
#     8   8   8   8   8   8
#     4  11  20  33  54  81 112 139 173 220 273 322
#     4  11  21  34  55  81 107 137 181 224 266 312
#     4   9  17  33  54  74 103 140 175 212 258 317
#     4  10  19  35  55  77 106 139 177 218 264 323
#     4   9  18  33  53  75 103 141 176 207 258 326
#     4  10  20  35  55  79 106 140 180 220 266 319
#
# _framework density 19.068840999999999
#
# number of rings (size 3 to 8) (size 9 to 14) (size 15 to 20)
#    0.000    2.000    3.333    1.500    0.000    1.333 
#    0.000    3.333    0.000    3.500    0.000    0.000 
#    0.000    0.000    0.000    0.000    0.000    0.000 
#
# Total GULP energy -595188.288698 kJ/mol
# GULP energy per Si atom -12399.756015 kJ/mol
# Density = 1.902544 g / cm^3
# Si number density = 19.068841 Si / 1000 Ang^3
#
#
#
# Elastic Constant Matrix: (Units=GPa)
#
#
# Indices 1 2 3 4 5 6 
#
# 1 168.6458 4.4897 82.0322 0.0000 0.0000 0.0000
# 2 4.4897 16.0525 9.7565 0.0000 0.0000 0.0000
# 3 82.0322 9.7565 154.0100 0.0000 0.0000 0.0000
# 4 0.0000 0.0000 0.0000 11.1645 0.0000 0.0000
# 5 0.0000 0.0000 0.0000 0.0000 26.3819 0.0000
# 6 0.0000 0.0000 0.0000 0.0000 0.0000 12.6407
#
#
#
# Elastic Compliance Matrix: (Units=1/GPa)
#
#
# Indices 1 2 3 4 5 6 
#
# 1 0.008005 0.000367 -0.004287 0.000000 0.000000 0.000000
# 2 0.000367 0.064807 -0.004301 0.000000 0.000000 0.000000
# 3 -0.004287 -0.004301 0.009049 0.000000 0.000000 0.000000
# 4 0.000000 0.000000 0.000000 0.089570 0.000000 0.000000
# 5 0.000000 0.000000 0.000000 0.000000 0.037905 0.000000
# 6 0.000000 0.000000 0.000000 0.000000 0.000000 0.079110
#
#
# Mechanical properties :
#
#
# Convention : Reuss Voigt Hill
#
# Bulk Modulus (GPa) = 15.28616 59.02945 37.15781
# Shear Modulus (GPa) = 15.30483 26.19940 20.75211
#
# Velocity S-wave (km/s) = 2.83611 3.71069 3.30248
# Velocity P-wave (km/s) = 4.33110 7.02724 5.83697
#
# Compressibility (1/GPa) = 0.06541865
#
# Stress axis : x y z
#
# Youngs Moduli (GPa) = 124.91955 15.43045 110.50902
#
# Poissons Ratio (x) = -0.00566 0.47376
# Poissons Ratio (y) = -0.04581 0.47528
# Poissons Ratio (z) = 0.53554 0.06636
#
# Static dielectric constant tensor:
#      x y z
#    x 3.885920 0.000000 0.000000 
#    y 0.000000 3.077360 0.000000 
#    z 0.000000 0.000000 3.595600 
# 
# 
# High freq. dielectric constant tensor:
#      x y z
#    x 1.743540 0.000000 0.000000 
#    y 0.000000 1.705370 0.000000 
#    z 0.000000 0.000000 1.744130 
# 
# From -- ./inp_files/24723.got.cif
#   From: 2010.03.12/outbox.cif.g09.slc.cpg/sg51_13_cif.got.tgz:24723.got - 2010.04.16 13:43:02.
