data_PCOD8209202
_publ_section_title
;
Structure prediction by ZEFSAII (Michael W. Deem and Ramdas Pophale) SiO2 
 PCOD8209202
Probable space group: P M M A
;
_chemical_formula_sum "Si O2"
_cell_formula_units_Z 64
_cell_length_a 9.522821
_cell_length_b 25.680087
_cell_length_c 14.472851
_cell_angle_alpha 90.000000
_cell_angle_beta 90.000000
_cell_angle_gamma 90.000000
_cell_volume 3539.290438
_symmetry_space_group_name_H-M "P M M A"
_symmetry_group_IT_number 51
_symmetry_cell_setting 'orthorhombic'
loop_
_space_group_symop_operation_xyz
x,y,z
1/2-x,-y,z
1/2+x,-y,-z
-x,y,-z
-x,-y,-z
1/2+x,y,-z
1/2-x,y,z
x,-y,z
loop_
_atom_site_type_symbol
_atom_site_label
_atom_site_fract_x
_atom_site_fract_y
_atom_site_fract_z
Si Si1 0.916528 0.942008 0.778462
Si Si2 0.589518 0.101065 0.586143
Si Si3 0.905302 0.438274 0.581340
Si Si4 0.082661 0.151252 0.094373
Si Si5 0.417027 0.442342 0.215618
Si Si6 0.415647 0.248878 0.213853
Si Si7 0.916488 0.347048 0.906310
Si Si8 0.910475 0.224187 0.586453
O O1 0.750000 0.939630 0.773163
O O2 0.974184 0.925277 0.678132
O O3 0.967202 0.902226 0.857171
O O4 0.970600 0.000000 0.803358
O O5 0.500000 0.080395 0.500000
O O6 0.750000 0.084325 0.569454
O O7 0.576210 0.162592 0.597932
O O8 0.750000 0.413680 0.571748
O O9 0.895595 0.500000 0.570398
O O10 0.971194 0.425320 0.682336
O O11 0.000000 0.413744 0.500000
O O12 0.250000 0.152998 0.076972
O O13 0.029784 0.198950 0.157664
O O14 0.000000 0.156073 0.000000
O O15 0.250000 0.443821 0.221776
O O16 0.474289 0.500000 0.188897
O O17 0.466805 0.401438 0.138745
O O18 0.250000 0.244240 0.220508
O O19 0.462585 0.301439 0.163010
O O20 0.472861 0.249254 0.319119
O O21 0.750000 0.346104 0.925789
O O22 0.000000 0.338844 0.000000
O O23 0.750000 0.240946 0.569319
O O24 0.000000 0.245037 0.500000
#
# Coordination Sequence:
#
# PCOD8209202 Si02
#       8
#     8   8   8   8   8   8   8   8
#     4   9  17  30  48  68  92 125 160 190 228 283
#     4   9  16  28  47  69  93 122 155 189 226 273
#     4   8  13  23  41  64  89 118 152 187 222 264
#     4  10  19  33  51  70  91 119 157 198 237 279
#     4   8  15  29  48  69  95 128 161 190 229 285
#     4   9  17  32  53  72  94 125 158 189 229 284
#     4  10  20  34  52  72  94 123 159 199 239 279
#     4   9  16  29  49  72  96 124 155 187 226 275
#
# _framework density 18.082719999999998
#
# number of rings (size 3 to 8) (size 9 to 14) (size 15 to 20)
#    0.000    3.000    1.250    1.125    0.000    0.750 
#    0.000    3.125    0.000    1.500    0.000    0.000 
#    0.000    0.000    0.000    0.000    0.000    0.000 
#
# Total GULP energy -793309.541633 kJ/mol
# GULP energy per Si atom -12395.461588 kJ/mol
# Density = 1.804156 g / cm^3
# Si number density = 18.082720 Si / 1000 Ang^3
#
#
#
# Elastic Constant Matrix: (Units=GPa)
#
#
# Indices 1 2 3 4 5 6 
#
# 1 40.7133 24.2854 47.3212 0.0000 0.0000 0.0000
# 2 24.2854 96.0721 68.8844 0.0000 0.0000 0.0000
# 3 47.3212 68.8844 171.2299 0.0000 0.0000 0.0000
# 4 0.0000 0.0000 0.0000 24.2222 0.0000 0.0000
# 5 0.0000 0.0000 0.0000 0.0000 33.1249 0.0000
# 6 0.0000 0.0000 0.0000 0.0000 0.0000 7.8200
#
#
#
# Elastic Compliance Matrix: (Units=1/GPa)
#
#
# Indices 1 2 3 4 5 6 
#
# 1 0.036721 -0.002819 -0.009014 0.000000 0.000000 0.000000
# 2 -0.002819 0.014845 -0.005193 0.000000 0.000000 0.000000
# 3 -0.009014 -0.005193 0.010420 0.000000 0.000000 0.000000
# 4 0.000000 0.000000 0.000000 0.041284 0.000000 0.000000
# 5 0.000000 0.000000 0.000000 0.000000 0.030189 0.000000
# 6 0.000000 0.000000 0.000000 0.000000 0.000000 0.127877
#
#
# Mechanical properties :
#
#
# Convention : Reuss Voigt Hill
#
# Bulk Modulus (GPa) = 35.79922 65.44413 50.62168
# Shear Modulus (GPa) = 16.40961 24.20173 20.30567
#
# Velocity S-wave (km/s) = 3.01570 3.66237 3.35465
# Velocity P-wave (km/s) = 5.65388 7.35894 6.56203
#
# Compressibility (1/GPa) = 0.02793357
#
# Stress axis : x y z
#
# Youngs Moduli (GPa) = 27.23267 67.36376 95.96728
#
# Poissons Ratio (x) = 0.18992 0.86504
# Poissons Ratio (y) = 0.07678 0.49834
# Poissons Ratio (z) = 0.24547 0.34981
#
# Static dielectric constant tensor:
#      x y z
#    x 2.450740 0.000000 0.000000 
#    y 0.000000 3.433160 0.000000 
#    z 0.000000 0.000000 3.529630 
# 
# 
# High freq. dielectric constant tensor:
#      x y z
#    x 1.651070 0.000000 0.000000 
#    y 0.000000 1.691140 0.000000 
#    z 0.000000 0.000000 1.712380 
# 
# From -- ./inp_files/15689.got.cif
#   From: 2010.03.12/outbox.cif.g09.slc.cpg/sg51_8_cif.got.tgz:15689.got - 2010.04.16 13:43:02.
