data_PCOD8209757
_publ_section_title
;
Structure prediction by ZEFSAII (Michael W. Deem and Ramdas Pophale) SiO2 
 PCOD8209757
Probable space group: P M M A
;
_chemical_formula_sum "Si O2"
_cell_formula_units_Z 64
_cell_length_a 25.468190
_cell_length_b 9.069039
_cell_length_c 14.406702
_cell_angle_alpha 90.000000
_cell_angle_beta 90.000000
_cell_angle_gamma 90.000000
_cell_volume 3327.544895
_symmetry_space_group_name_H-M "P M M A"
_symmetry_group_IT_number 51
_symmetry_cell_setting 'orthorhombic'
loop_
_space_group_symop_operation_xyz
x,y,z
1/2-x,-y,z
1/2+x,-y,-z
-x,y,-z
-x,-y,-z
1/2+x,y,-z
1/2-x,y,z
x,-y,z
loop_
_atom_site_type_symbol
_atom_site_label
_atom_site_fract_x
_atom_site_fract_y
_atom_site_fract_z
Si Si1 0.189169 0.672245 0.787733
Si Si2 0.810363 0.829230 0.398164
Si Si3 0.367669 0.828115 0.415058
Si Si4 0.307835 0.173325 0.232412
Si Si5 0.476722 0.674156 0.401447
Si Si6 0.596264 0.175342 0.886415
Si Si7 0.493588 0.825599 0.778685
Si Si8 0.895284 0.173873 0.096207
O O1 0.250000 0.710553 0.803758
O O2 0.178162 0.500000 0.787985
O O3 0.169773 0.735850 0.689270
O O4 0.157535 0.747626 0.870474
O O5 0.750000 0.794868 0.421755
O O6 0.844777 0.781164 0.485807
O O7 0.818571 0.000000 0.373900
O O8 0.323928 0.792694 0.338122
O O9 0.417792 0.731051 0.392086
O O10 0.383555 0.000000 0.412233
O O11 0.250000 0.243076 0.214008
O O12 0.350915 0.240015 0.161390
O O13 0.304788 0.000000 0.216223
O O14 0.500000 0.724337 0.500000
O O15 0.477999 0.500000 0.389392
O O16 0.511839 0.747264 0.320827
O O17 0.545528 0.233556 0.830989
O O18 0.596141 0.000000 0.881734
O O19 0.592987 0.229650 0.992216
O O20 0.443745 0.778893 0.839653
O O21 0.495763 0.000000 0.763159
O O22 0.885886 0.000000 0.098523
#
# Coordination Sequence:
#
# PCOD8209757 Si02
#       8
#     8   8   8   8   8   8   8   8
#     4  10  22  39  56  77 112 155 191 227 276 333
#     4   9  18  33  55  83 111 140 180 229 275 323
#     4  10  19  34  57  83 111 144 183 229 280 333
#     4   9  16  28  52  86 117 145 181 226 278 334
#     4  11  25  40  54  79 114 151 186 227 277 332
#     4   9  17  33  56  86 118 144 177 230 288 334
#     4  10  20  38  61  85 112 145 186 233 283 338
#     4  10  21  35  59  89 112 141 186 237 285 335
#
# _framework density 19.233398999999999
#
# number of rings (size 3 to 8) (size 9 to 14) (size 15 to 20)
#    0.000    2.250    1.250    1.500    1.750    6.250 
#    0.000    1.875    0.000    2.625    0.000    0.000 
#    0.000    0.000    0.000    0.000    0.000    0.000 
#
# Total GULP energy -793729.440159 kJ/mol
# GULP energy per Si atom -12402.022502 kJ/mol
# Density = 1.918962 g / cm^3
# Si number density = 19.233399 Si / 1000 Ang^3
#
#
#
# Elastic Constant Matrix: (Units=GPa)
#
#
# Indices 1 2 3 4 5 6 
#
# 1 99.7848 28.8864 54.9426 0.0000 0.0000 0.0000
# 2 28.8864 36.5563 39.7025 0.0000 0.0000 0.0000
# 3 54.9426 39.7025 150.8800 0.0000 0.0000 0.0000
# 4 0.0000 0.0000 0.0000 5.2736 0.0000 0.0000
# 5 0.0000 0.0000 0.0000 0.0000 35.0891 0.0000
# 6 0.0000 0.0000 0.0000 0.0000 0.0000 18.7679
#
#
#
# Elastic Compliance Matrix: (Units=1/GPa)
#
#
# Indices 1 2 3 4 5 6 
#
# 1 0.013927 -0.007697 -0.003046 0.000000 0.000000 0.000000
# 2 -0.007697 0.042554 -0.008395 0.000000 0.000000 0.000000
# 3 -0.003046 -0.008395 0.009946 0.000000 0.000000 0.000000
# 4 0.000000 0.000000 0.000000 0.189624 0.000000 0.000000
# 5 0.000000 0.000000 0.000000 0.000000 0.028499 0.000000
# 6 0.000000 0.000000 0.000000 0.000000 0.000000 0.053282
#
#
# Mechanical properties :
#
#
# Convention : Reuss Voigt Hill
#
# Bulk Modulus (GPa) = 35.52173 59.36490 47.44332
# Shear Modulus (GPa) = 12.97045 22.73878 17.85462
#
# Velocity S-wave (km/s) = 2.59968 3.44212 3.05013
# Velocity P-wave (km/s) = 5.24595 6.83595 6.09304
#
# Compressibility (1/GPa) = 0.02815178
#
# Stress axis : x y z
#
# Youngs Moduli (GPa) = 71.80365 23.49942 100.54184
#
# Poissons Ratio (x) = 0.18086 0.30627
# Poissons Ratio (y) = 0.55264 0.84405
# Poissons Ratio (z) = 0.21873 0.19728
#
# Static dielectric constant tensor:
#      x y z
#    x 3.649410 0.000000 0.000000 
#    y 0.000000 3.138700 0.000000 
#    z 0.000000 0.000000 3.707140 
# 
# 
# High freq. dielectric constant tensor:
#      x y z
#    x 1.756420 0.000000 0.000000 
#    y 0.000000 1.708090 0.000000 
#    z 0.000000 0.000000 1.760370 
# 
# From -- ./inp_files/26283.got.cif
#   From: 2010.03.12/outbox.cif.g09.slc.cpg/sg51_14_cif.got.tgz:26283.got - 2010.04.16 13:43:02.
