data_PCOD8209207
_publ_section_title
;
Structure prediction by ZEFSAII (Michael W. Deem and Ramdas Pophale) SiO2 
 PCOD8209207
Probable space group: P M M A
;
_chemical_formula_sum "Si O2"
_cell_formula_units_Z 64
_cell_length_a 29.984015
_cell_length_b 8.622848
_cell_length_c 14.732717
_cell_angle_alpha 90.000000
_cell_angle_beta 90.000000
_cell_angle_gamma 90.000000
_cell_volume 3809.108677
_symmetry_space_group_name_H-M "P M M A"
_symmetry_group_IT_number 51
_symmetry_cell_setting 'orthorhombic'
loop_
_space_group_symop_operation_xyz
x,y,z
1/2-x,-y,z
1/2+x,-y,-z
-x,y,-z
-x,-y,-z
1/2+x,y,-z
1/2-x,y,z
x,-y,z
loop_
_atom_site_type_symbol
_atom_site_label
_atom_site_fract_x
_atom_site_fract_y
_atom_site_fract_z
Si Si1 0.800627 0.681191 0.854672
Si Si2 0.545826 0.314804 0.048860
Si Si3 0.612282 0.821981 0.567261
Si Si4 0.300082 0.180465 0.339069
Si Si5 0.423686 0.325494 0.258960
Si Si6 0.883968 0.819178 0.916912
Si Si7 0.042152 0.683199 0.557590
Si Si8 0.527394 0.675352 0.245418
O O1 0.750000 0.730172 0.875886
O O2 0.808352 0.500000 0.869550
O O3 0.812136 0.721824 0.750084
O O4 0.831391 0.777742 0.925500
O O5 0.549911 0.500000 0.043768
O O6 0.547030 0.250902 0.152856
O O7 0.500000 0.261445 0.000000
O O8 0.588613 0.235715 0.003883
O O9 0.664512 0.776322 0.581441
O O10 0.586585 0.793343 0.660954
O O11 0.589530 0.721780 0.488038
O O12 0.607229 0.000000 0.539487
O O13 0.250000 0.218242 0.373993
O O14 0.305076 0.000000 0.313119
O O15 0.410610 0.500000 0.289235
O O16 0.397642 0.280853 0.169479
O O17 0.474889 0.315964 0.233983
O O18 0.891722 0.000000 0.900609
O O19 0.035745 0.500000 0.564595
O O20 0.042047 0.756610 0.659610
O O21 0.000000 0.750756 0.500000
O O22 0.544497 0.500000 0.249313
#
# Coordination Sequence:
#
# PCOD8209207 Si02
#       8
#     8   8   8   8   8   8   8   8
#     4  10  20  33  51  74  98 129 170 208 244 295
#     4  10  19  34  54  73  96 131 174 213 249 294
#     4  11  21  31  46  74 102 131 167 205 251 297
#     4   9  18  32  48  68  99 133 161 198 250 301
#     4  11  19  32  51  70  97 135 174 208 241 288
#     4  12  23  33  47  74 106 137 168 203 254 306
#     4  10  19  33  51  70  96 133 172 205 243 296
#     4   9  18  33  51  71  94 129 174 212 247 285
#
# _framework density 16.801831
#
# number of rings (size 3 to 8) (size 9 to 14) (size 15 to 20)
#    0.000    1.750    3.750    2.250    0.000    1.750 
#    0.000    0.625    0.000    0.000    0.000    0.875 
#    0.000    5.000    0.000    0.000    0.000    0.000 
#
# Total GULP energy -793338.899107 kJ/mol
# GULP energy per Si atom -12395.920299 kJ/mol
# Density = 1.676359 g / cm^3
# Si number density = 16.801831 Si / 1000 Ang^3
#
#
#
# Elastic Constant Matrix: (Units=GPa)
#
#
# Indices 1 2 3 4 5 6 
#
# 1 103.6884 26.2626 60.1928 0.0000 0.0000 0.0000
# 2 26.2626 26.2943 14.1764 0.0000 0.0000 0.0000
# 3 60.1928 14.1764 104.6343 0.0000 0.0000 0.0000
# 4 0.0000 0.0000 0.0000 15.0817 0.0000 0.0000
# 5 0.0000 0.0000 0.0000 0.0000 20.7923 0.0000
# 6 0.0000 0.0000 0.0000 0.0000 0.0000 22.2681
#
#
#
# Elastic Compliance Matrix: (Units=1/GPa)
#
#
# Indices 1 2 3 4 5 6 
#
# 1 0.017983 -0.013359 -0.008535 0.000000 0.000000 0.000000
# 2 -0.013359 0.050953 0.000782 0.000000 0.000000 0.000000
# 3 -0.008535 0.000782 0.014361 0.000000 0.000000 0.000000
# 4 0.000000 0.000000 0.000000 0.066306 0.000000 0.000000
# 5 0.000000 0.000000 0.000000 0.000000 0.048095 0.000000
# 6 0.000000 0.000000 0.000000 0.000000 0.000000 0.044907
#
#
# Mechanical properties :
#
#
# Convention : Reuss Voigt Hill
#
# Bulk Modulus (GPa) = 24.34767 48.43117 36.38942
# Shear Modulus (GPa) = 16.74934 20.56076 18.65505
#
# Velocity S-wave (km/s) = 3.16076 3.50197 3.33573
# Velocity P-wave (km/s) = 5.27665 6.72601 6.04493
#
# Compressibility (1/GPa) = 0.04107169
#
# Stress axis : x y z
#
# Youngs Moduli (GPa) = 55.60935 19.62603 69.63319
#
# Poissons Ratio (x) = 0.26219 0.59431
# Poissons Ratio (y) = 0.74291 -0.05445
# Poissons Ratio (z) = 0.47462 -0.01535
#
# Static dielectric constant tensor:
#      x y z
#    x 3.401350 0.000000 0.000000 
#    y 0.000000 3.066420 0.000000 
#    z 0.000000 0.000000 3.212400 
# 
# 
# High freq. dielectric constant tensor:
#      x y z
#    x 1.644320 0.000000 0.000000 
#    y 0.000000 1.637710 0.000000 
#    z 0.000000 0.000000 1.621460 
# 
# From -- ./inp_files/26699.got.cif
#   From: 2010.03.12/outbox.cif.g09.slc.cpg/sg51_14_cif.got.tgz:26699.got - 2010.04.16 13:43:02.
