data_PCOD8209916
_publ_section_title
;
Structure prediction by ZEFSAII (Michael W. Deem and Ramdas Pophale) SiO2 
 PCOD8209916
Probable space group: P M M A
;
_chemical_formula_sum "Si O2"
_cell_formula_units_Z 56
_cell_length_a 8.740422
_cell_length_b 19.091391
_cell_length_c 18.521190
_cell_angle_alpha 90.000000
_cell_angle_beta 90.000000
_cell_angle_gamma 90.000000
_cell_volume 3090.571965
_symmetry_space_group_name_H-M "P M M A"
_symmetry_group_IT_number 51
_symmetry_cell_setting 'orthorhombic'
loop_
_space_group_symop_operation_xyz
x,y,z
1/2-x,-y,z
1/2+x,-y,-z
-x,y,-z
-x,-y,-z
1/2+x,y,-z
1/2-x,y,z
x,-y,z
loop_
_atom_site_type_symbol
_atom_site_label
_atom_site_fract_x
_atom_site_fract_y
_atom_site_fract_z
Si Si1 0.432293 0.644208 0.423986
Si Si2 0.572414 0.299205 0.797662
Si Si3 0.069748 0.788834 0.923549
Si Si4 0.073752 0.419747 0.713288
Si Si5 0.073236 0.779494 0.349239
Si Si6 0.432634 0.075469 0.308994
Si Si7 0.426980 0.079085 0.144648
O O1 0.500000 0.619827 0.500000
O O2 0.250000 0.642575 0.426307
O O3 0.487158 0.591086 0.362583
O O4 0.497266 0.722542 0.404565
O O5 0.750000 0.310676 0.814452
O O6 0.490265 0.267940 0.866925
O O7 0.499297 0.373755 0.777022
O O8 0.547570 0.245277 0.732405
O O9 0.250000 0.783927 0.927760
O O10 0.023660 0.868124 0.903834
O O11 0.000000 0.767923 0.000000
O O12 0.250000 0.398637 0.702701
O O13 0.055240 0.500000 0.736741
O O14 0.250000 0.784147 0.368003
O O15 0.001834 0.858385 0.355482
O O16 0.250000 0.077116 0.309325
O O17 0.487602 0.083125 0.226663
O O18 0.490080 0.000000 0.340306
O O19 0.250000 0.102038 0.140723
O O20 0.448741 0.000000 0.115082
#
# Coordination Sequence:
#
# PCOD8209916 Si02
#       7
#     8   8   8   8   8   8   8
#     4  10  20  33  51  76 108 145 180 218 259 310
#     4  10  19  35  57  79 106 136 175 219 257 310
#     4  12  24  36  52  74 104 142 182 225 273 321
#     4  10  21  37  58  85 114 141 170 206 252 310
#     4   8  14  26  47  72  97 128 170 215 260 307
#     4   8  12  21  43  72  97 123 163 216 267 312
#     4   9  17  31  51  73 100 135 175 222 276 329
#
# _framework density 18.119623000000001
#
# number of rings (size 3 to 8) (size 9 to 14) (size 15 to 20)
#    0.000    2.429    1.429    4.286    0.000    2.000 
#    0.000    0.000    0.000    0.857    0.000    0.000 
#    0.000    0.000    0.000    0.000    0.000    0.571 
#
# Total GULP energy -694074.457809 kJ/mol
# GULP energy per Si atom -12394.186747 kJ/mol
# Density = 1.807838 g / cm^3
# Si number density = 18.119623 Si / 1000 Ang^3
#
#
#
# Elastic Constant Matrix: (Units=GPa)
#
#
# Indices 1 2 3 4 5 6 
#
# 1 95.9301 45.2569 36.4625 0.0000 0.0000 0.0000
# 2 45.2569 108.1881 29.9588 0.0000 0.0000 0.0000
# 3 36.4625 29.9588 67.1117 0.0000 0.0000 0.0000
# 4 0.0000 0.0000 0.0000 21.7825 0.0000 0.0000
# 5 0.0000 0.0000 0.0000 0.0000 23.3508 0.0000
# 6 0.0000 0.0000 0.0000 0.0000 0.0000 25.3278
#
#
#
# Elastic Compliance Matrix: (Units=1/GPa)
#
#
# Indices 1 2 3 4 5 6 
#
# 1 0.014867 -0.004544 -0.006049 0.000000 0.000000 0.000000
# 2 -0.004544 0.011936 -0.002859 0.000000 0.000000 0.000000
# 3 -0.006049 -0.002859 0.019463 0.000000 0.000000 0.000000
# 4 0.000000 0.000000 0.000000 0.045908 0.000000 0.000000
# 5 0.000000 0.000000 0.000000 0.000000 0.042825 0.000000
# 6 0.000000 0.000000 0.000000 0.000000 0.000000 0.039482
#
#
# Mechanical properties :
#
#
# Convention : Reuss Voigt Hill
#
# Bulk Modulus (GPa) = 51.64870 54.95403 53.30136
# Shear Modulus (GPa) = 24.05685 24.72901 24.39293
#
# Velocity S-wave (km/s) = 3.64767 3.69828 3.67306
# Velocity P-wave (km/s) = 6.80491 6.97357 6.88976
#
# Compressibility (1/GPa) = 0.01936157
#
# Stress axis : x y z
#
# Youngs Moduli (GPa) = 67.26188 83.78134 51.37840
#
# Poissons Ratio (x) = 0.38072 0.31079
# Poissons Ratio (y) = 0.30565 0.14691
# Poissons Ratio (z) = 0.40687 0.23956
#
# Static dielectric constant tensor:
#      x y z
#    x 3.164560 0.000000 0.000000 
#    y 0.000000 3.663510 0.000000 
#    z 0.000000 0.000000 3.148220 
# 
# 
# High freq. dielectric constant tensor:
#      x y z
#    x 1.683740 0.000000 0.000000 
#    y 0.000000 1.710350 0.000000 
#    z 0.000000 0.000000 1.671910 
# 
# From -- ./inp_files/28272.got.cif
#   From: 2010.03.12/outbox.cif.g09.slc.cpg/sg51_15_cif.got.tgz:28272.got - 2010.04.16 13:43:02.
