data_PCOD8209265
_publ_section_title
;
Structure prediction by ZEFSAII (Michael W. Deem and Ramdas Pophale) SiO2 
 PCOD8209265
Probable space group: P M M A
;
_chemical_formula_sum "Si O2"
_cell_formula_units_Z 52
_cell_length_a 8.933701
_cell_length_b 19.584536
_cell_length_c 15.661919
_cell_angle_alpha 90.000000
_cell_angle_beta 90.000000
_cell_angle_gamma 90.000000
_cell_volume 2740.246762
_symmetry_space_group_name_H-M "P M M A"
_symmetry_group_IT_number 51
_symmetry_cell_setting 'orthorhombic'
loop_
_space_group_symop_operation_xyz
x,y,z
1/2-x,-y,z
1/2+x,-y,-z
-x,y,-z
-x,-y,-z
1/2+x,y,-z
1/2-x,y,z
x,-y,z
loop_
_atom_site_type_symbol
_atom_site_label
_atom_site_fract_x
_atom_site_fract_y
_atom_site_fract_z
Si Si1 0.587943 0.316459 0.186426
Si Si2 0.084593 0.361265 0.626208
Si Si3 0.927014 0.773561 0.583789
Si Si4 0.074437 0.922408 0.087190
Si Si5 0.425332 0.814083 0.226559
Si Si6 0.425097 0.423526 0.084744
Si Si7 0.570013 0.500000 0.592634
O O1 0.750000 0.317896 0.138523
O O2 0.618504 0.328326 0.284154
O O3 0.509415 0.244042 0.172744
O O4 0.475928 0.376081 0.160668
O O5 0.250000 0.373538 0.582597
O O6 0.985088 0.304708 0.578340
O O7 0.992269 0.431583 0.637017
O O8 0.750000 0.773378 0.573117
O O9 0.972246 0.813269 0.672381
O O10 0.000000 0.810814 0.500000
O O11 0.250000 0.917428 0.072097
O O12 0.030386 0.882803 0.175026
O O13 0.020544 0.000000 0.101858
O O14 0.000000 0.892822 0.000000
O O15 0.250000 0.799015 0.220843
O O16 0.250000 0.421819 0.073667
O O17 0.483093 0.500000 0.103367
O O18 0.500000 0.393748 0.000000
O O19 0.750000 0.500000 0.594444
O O20 0.500000 0.500000 0.500000
#
# Coordination Sequence:
#
# PCOD8209265 Si02
#       7
#     8   8   8   8   8   8   4
#     4  10  21  35  53  75 101 132 168 214 263 312
#     4  10  21  36  51  71  97 128 167 212 263 319
#     4  10  19  33  53  75 101 137 178 222 270 318
#     4   9  18  34  57  85 115 147 180 214 257 311
#     4   9  19  35  54  78 109 143 180 219 261 317
#     4  10  21  36  53  72  95 128 170 216 265 319
#     4  12  24  36  50  68  93 124 161 206 258 314
#
# _framework density 18.976393000000002
#
# number of rings (size 3 to 8) (size 9 to 14) (size 15 to 20)
#    0.000    2.154    0.000    3.000    1.077    4.615 
#    0.000    1.538    0.000    0.462    0.000    0.000 
#    0.000    0.000    0.000    0.000    0.000    0.462 
#
# Total GULP energy -644302.237972 kJ/mol
# GULP energy per Si atom -12390.427653 kJ/mol
# Density = 1.893320 g / cm^3
# Si number density = 18.976393 Si / 1000 Ang^3
#
#
#
# Elastic Constant Matrix: (Units=GPa)
#
#
# Indices 1 2 3 4 5 6 
#
# 1 90.0800 36.0725 37.1928 0.0000 0.0000 0.0000
# 2 36.0725 86.1298 52.5964 0.0000 0.0000 0.0000
# 3 37.1928 52.5964 98.0489 0.0000 0.0000 0.0000
# 4 0.0000 0.0000 0.0000 31.8938 0.0000 0.0000
# 5 0.0000 0.0000 0.0000 0.0000 31.0747 0.0000
# 6 0.0000 0.0000 0.0000 0.0000 0.0000 22.4302
#
#
#
# Elastic Compliance Matrix: (Units=1/GPa)
#
#
# Indices 1 2 3 4 5 6 
#
# 1 0.013989 -0.003894 -0.003218 0.000000 0.000000 0.000000
# 2 -0.003894 0.018350 -0.008367 0.000000 0.000000 0.000000
# 3 -0.003218 -0.008367 0.015908 0.000000 0.000000 0.000000
# 4 0.000000 0.000000 0.000000 0.031354 0.000000 0.000000
# 5 0.000000 0.000000 0.000000 0.000000 0.032181 0.000000
# 6 0.000000 0.000000 0.000000 0.000000 0.000000 0.044583
#
#
# Mechanical properties :
#
#
# Convention : Reuss Voigt Hill
#
# Bulk Modulus (GPa) = 57.83448 58.44246 58.13847
# Shear Modulus (GPa) = 25.89539 26.97287 26.43413
#
# Velocity S-wave (km/s) = 3.69807 3.77422 3.73634
# Velocity P-wave (km/s) = 6.98409 7.06097 7.02264
#
# Compressibility (1/GPa) = 0.01729072
#
# Stress axis : x y z
#
# Youngs Moduli (GPa) = 71.48429 54.49459 62.86277
#
# Poissons Ratio (x) = 0.21220 0.20227
# Poissons Ratio (y) = 0.27836 0.52595
# Poissons Ratio (z) = 0.23001 0.45594
#
# Static dielectric constant tensor:
#      x y z
#    x 3.764810 0.000000 0.000000 
#    y 0.000000 3.066080 0.000000 
#    z 0.000000 0.000000 5.729000 
# 
# 
# High freq. dielectric constant tensor:
#      x y z
#    x 1.750820 0.000000 0.000000 
#    y 0.000000 1.707250 0.000000 
#    z 0.000000 0.000000 1.737440 
# 
# From -- ./inp_files/21613.got.cif
#   From: 2010.03.12/outbox.cif.g09.slc.cpg/sg51_11_cif.got.tgz:21613.got - 2010.04.16 13:43:02.
