data_PCOD8209150
_publ_section_title
;
Structure prediction by ZEFSAII (Michael W. Deem and Ramdas Pophale) SiO2 
 PCOD8209150
Probable space group: P M M A
;
_chemical_formula_sum "Si O2"
_cell_formula_units_Z 56
_cell_length_a 18.422888
_cell_length_b 16.700711
_cell_length_c 10.142563
_cell_angle_alpha 90.000000
_cell_angle_beta 90.000000
_cell_angle_gamma 90.000000
_cell_volume 3120.616401
_symmetry_space_group_name_H-M "P M M A"
_symmetry_group_IT_number 51
_symmetry_cell_setting 'orthorhombic'
loop_
_space_group_symop_operation_xyz
x,y,z
1/2-x,-y,z
1/2+x,-y,-z
-x,y,-z
-x,-y,-z
1/2+x,y,-z
1/2-x,y,z
x,-y,z
loop_
_atom_site_type_symbol
_atom_site_label
_atom_site_fract_x
_atom_site_fract_y
_atom_site_fract_z
Si Si1 0.420046 0.832094 0.763710
Si Si2 0.409588 0.169499 0.251348
Si Si3 0.335964 0.587129 0.904045
Si Si4 0.910574 0.000000 0.645383
Si Si5 0.666717 0.409456 0.391889
Si Si6 0.836013 0.244209 0.997101
Si Si7 0.082210 0.000000 0.649504
Si Si8 0.083657 0.731157 0.508424
O O1 0.506179 0.825748 0.790331
O O2 0.376799 0.805853 0.891867
O O3 0.394861 0.922282 0.732184
O O4 0.396516 0.777762 0.641423
O O5 0.392870 0.214975 0.386350
O O6 0.384854 0.077703 0.273146
O O7 0.359149 0.209898 0.142816
O O8 0.250000 0.582671 0.894963
O O9 0.364495 0.500000 0.957941
O O10 0.365822 0.600561 0.755717
O O11 0.360175 0.661794 0.995029
O O12 0.879858 0.000000 0.495273
O O13 0.996509 0.000000 0.630055
O O14 0.750000 0.383527 0.392860
O O15 0.656678 0.500000 0.441818
O O16 0.625493 0.352755 0.494424
O O17 0.750000 0.235335 0.016855
O O18 0.000000 0.710204 0.500000
#
# Coordination Sequence:
#
# PCOD8209150 Si02
#       8
#     8   8   8   4   8   8   4   8
#     4  10  19  35  58  81 104 136 183 228 258 306
#     4  10  21  35  55  81 110 140 173 218 275 322
#     4   8  15  30  53  76  96 130 181 223 253 297
#     4   9  16  33  57  80 106 138 177 220 263 318
#     4   9  17  31  53  78 104 139 183 223 257 308
#     4  11  22  36  54  79 110 144 177 218 268 319
#     4   9  16  31  59  84 100 132 189 228 251 302
#     4  10  19  32  54  83 108 136 172 222 277 316
#
# _framework density 17.945171999999999
#
# number of rings (size 3 to 8) (size 9 to 14) (size 15 to 20)
#    0.000    2.429    2.857    1.286    0.000    1.429 
#    0.000    4.286    0.000    5.143    0.000    0.000 
#    0.000    0.000    0.000    0.000    0.000    0.000 
#
# Total GULP energy -694217.401733 kJ/mol
# GULP energy per Si atom -12396.739317 kJ/mol
# Density = 1.790433 g / cm^3
# Si number density = 17.945172 Si / 1000 Ang^3
#
#
#
# Elastic Constant Matrix: (Units=GPa)
#
#
# Indices 1 2 3 4 5 6 
#
# 1 23.1565 33.4597 19.8850 0.0000 0.0000 0.0000
# 2 33.4597 154.3526 46.0575 0.0000 0.0000 0.0000
# 3 19.8850 46.0575 59.6931 0.0000 0.0000 0.0000
# 4 0.0000 0.0000 0.0000 20.5325 0.0000 0.0000
# 5 0.0000 0.0000 0.0000 0.0000 21.5275 0.0000
# 6 0.0000 0.0000 0.0000 0.0000 0.0000 22.4989
#
#
#
# Elastic Compliance Matrix: (Units=1/GPa)
#
#
# Indices 1 2 3 4 5 6 
#
# 1 0.072622 -0.011073 -0.015648 0.000000 0.000000 0.000000
# 2 -0.011073 0.010105 -0.004108 0.000000 0.000000 0.000000
# 3 -0.015648 -0.004108 0.025134 0.000000 0.000000 0.000000
# 4 0.000000 0.000000 0.000000 0.048703 0.000000 0.000000
# 5 0.000000 0.000000 0.000000 0.000000 0.046452 0.000000
# 6 0.000000 0.000000 0.000000 0.000000 0.000000 0.044447
#
#
# Mechanical properties :
#
#
# Convention : Reuss Voigt Hill
#
# Bulk Modulus (GPa) = 21.64367 48.44520 35.04443
# Shear Modulus (GPa) = 15.40725 22.09845 18.75285
#
# Velocity S-wave (km/s) = 2.93332 3.51300 3.23617
# Velocity P-wave (km/s) = 4.85383 6.59619 5.79092
#
# Compressibility (1/GPa) = 0.04620288
#
# Stress axis : x y z
#
# Youngs Moduli (GPa) = 13.76996 98.96250 39.78595
#
# Poissons Ratio (x) = 1.09585 0.62257
# Poissons Ratio (y) = 0.15248 0.16343
# Poissons Ratio (z) = 0.21547 0.40652
#
# Static dielectric constant tensor:
#      x y z
#    x 3.005660 0.000000 0.000000 
#    y 0.000000 3.715740 0.000000 
#    z 0.000000 0.000000 3.243740 
# 
# 
# High freq. dielectric constant tensor:
#      x y z
#    x 1.658940 0.000000 0.000000 
#    y 0.000000 1.714390 0.000000 
#    z 0.000000 0.000000 1.682160 
# 
# From -- ./inp_files/11057.got.cif
#   From: 2010.03.12/outbox.cif.g09.slc.cpg/sg51_6_cif.got.tgz:11057.got - 2010.04.16 13:43:02.
