data_PCOD8209987
_publ_section_title
;
Structure prediction by ZEFSAII (Michael W. Deem and Ramdas Pophale) SiO2 
 PCOD8209987
Probable space group: P M M A
;
_chemical_formula_sum "Si O2"
_cell_formula_units_Z 64
_cell_length_a 30.741641
_cell_length_b 8.983328
_cell_length_c 11.827037
_cell_angle_alpha 90.000000
_cell_angle_beta 90.000000
_cell_angle_gamma 90.000000
_cell_volume 3266.181082
_symmetry_space_group_name_H-M "P M M A"
_symmetry_group_IT_number 51
_symmetry_cell_setting 'orthorhombic'
loop_
_space_group_symop_operation_xyz
x,y,z
1/2-x,-y,z
1/2+x,-y,-z
-x,y,-z
-x,-y,-z
1/2+x,y,-z
1/2-x,y,z
x,-y,z
loop_
_atom_site_type_symbol
_atom_site_label
_atom_site_fract_x
_atom_site_fract_y
_atom_site_fract_z
Si Si1 0.800052 0.171389 0.260307
Si Si2 0.327774 0.825814 0.493182
Si Si3 0.047484 0.172002 0.737878
Si Si4 0.201579 0.326411 0.271846
Si Si5 0.040039 0.675934 0.266514
Si Si6 0.874421 0.676551 0.131853
Si Si7 0.122602 0.676593 0.123917
Si Si8 0.072111 0.829379 0.483110
O O1 0.750000 0.190485 0.226419
O O2 0.807362 0.226281 0.388359
O O3 0.827397 0.273365 0.175755
O O4 0.815415 0.000000 0.249143
O O5 0.301910 0.745589 0.394488
O O6 0.378049 0.779066 0.491503
O O7 0.321524 0.000000 0.476072
O O8 0.088574 0.250889 0.792554
O O9 0.049288 0.191526 0.603291
O O10 0.003443 0.248362 0.782540
O O11 0.047871 0.000000 0.773074
O O12 0.250000 0.295185 0.223343
O O13 0.192988 0.500000 0.287824
O O14 0.165782 0.258924 0.185700
O O15 0.034386 0.500000 0.259829
O O16 0.080078 0.733345 0.190228
O O17 0.047745 0.723557 0.395456
O O18 0.878488 0.500000 0.139250
O O19 0.879297 0.735681 0.003831
O O20 0.124489 0.500000 0.124238
O O21 0.068021 0.000000 0.442074
#
# Coordination Sequence:
#
# PCOD8209987 Si02
#       8
#     8   8   8   8   8   8   8   8
#     4  10  21  39  61  86 120 158 191 232 292 349
#     4  10  19  35  59  85 116 153 188 226 283 347
#     4  11  23  41  61  85 120 154 189 233 291 349
#     4  10  20  36  59  86 116 151 191 235 285 340
#     4  11  22  38  61  88 118 150 191 237 288 345
#     4  11  23  40  62  85 112 151 201 245 285 335
#     4   9  21  40  58  81 115 154 190 238 294 340
#     4  10  20  36  59  85 116 154 188 228 287 350
#
# _framework density 19.594747999999999
#
# number of rings (size 3 to 8) (size 9 to 14) (size 15 to 20)
#    0.000    1.750    2.500    1.875    0.000    5.000 
#    0.000    7.500    0.000    0.000    0.000    0.000 
#    0.000    0.000    0.000    0.000    0.000    0.000 
#
# Total GULP energy -793849.565604 kJ/mol
# GULP energy per Si atom -12403.899463 kJ/mol
# Density = 1.955015 g / cm^3
# Si number density = 19.594748 Si / 1000 Ang^3
#
#
#
# Elastic Constant Matrix: (Units=GPa)
#
#
# Indices 1 2 3 4 5 6 
#
# 1 127.6470 43.7437 37.5798 0.0000 0.0000 0.0000
# 2 43.7437 67.2222 38.5464 0.0000 0.0000 0.0000
# 3 37.5798 38.5464 97.7304 0.0000 0.0000 0.0000
# 4 0.0000 0.0000 0.0000 -7.8237 0.0000 0.0000
# 5 0.0000 0.0000 0.0000 0.0000 9.2061 0.0000
# 6 0.0000 0.0000 0.0000 0.0000 0.0000 32.3985
#
#
#
# Elastic Compliance Matrix: (Units=1/GPa)
#
#
# Indices 1 2 3 4 5 6 
#
# 1 0.010297 -0.005725 -0.001701 0.000000 0.000000 0.000000
# 2 -0.005725 0.022407 -0.006636 0.000000 0.000000 0.000000
# 3 -0.001701 -0.006636 0.013504 0.000000 0.000000 0.000000
# 4 0.000000 0.000000 0.000000 -0.127817 0.000000 0.000000
# 5 0.000000 0.000000 0.000000 0.000000 0.108624 0.000000
# 6 0.000000 0.000000 0.000000 0.000000 0.000000 0.030866
#
#
# Mechanical properties :
#
#
# Convention : Reuss Voigt Hill
#
# Bulk Modulus (GPa) = 55.30216 59.14881 57.22548
# Shear Modulus (GPa) = 54.32846 18.27149 36.29998
#
# Velocity S-wave (km/s) = 5.27126 3.05695 4.30878
# Velocity P-wave (km/s) = 8.08285 6.53540 7.34997
#
# Compressibility (1/GPa) = 0.01808248
#
# Stress axis : x y z
#
# Youngs Moduli (GPa) = 97.11667 44.62947 74.05274
#
# Poissons Ratio (x) = 0.25550 0.12600
# Poissons Ratio (y) = 0.55598 0.49143
# Poissons Ratio (z) = 0.16524 0.29617
#
# Static dielectric constant tensor:
#      x y z
#    x 3.771150 0.000000 0.000000 
#    y 0.000000 3.407580 0.000000 
#    z 0.000000 0.000000 3.592640 
# 
# 
# High freq. dielectric constant tensor:
#      x y z
#    x 1.782480 0.000000 0.000000 
#    y 0.000000 1.748300 0.000000 
#    z 0.000000 0.000000 1.756980 
# 
# From -- ./inp_files/19519.got.cif
#   From: 2010.03.12/outbox.cif.g09.slc.cpg/sg51_10_cif.got.tgz:19519.got - 2010.04.16 13:43:02.
