data_PCOD8209112
_publ_section_title
;
Structure prediction by ZEFSAII (Michael W. Deem and Ramdas Pophale) SiO2 
 PCOD8209112
Probable space group: P M M A
;
_chemical_formula_sum "Si O2"
_cell_formula_units_Z 48
_cell_length_a 18.690887
_cell_length_b 8.838838
_cell_length_c 14.947486
_cell_angle_alpha 90.000000
_cell_angle_beta 90.000000
_cell_angle_gamma 90.000000
_cell_volume 2469.410221
_symmetry_space_group_name_H-M "P M M A"
_symmetry_group_IT_number 51
_symmetry_cell_setting 'orthorhombic'
loop_
_space_group_symop_operation_xyz
x,y,z
1/2-x,-y,z
1/2+x,-y,-z
-x,y,-z
-x,-y,-z
1/2+x,y,-z
1/2-x,y,z
x,-y,z
loop_
_atom_site_type_symbol
_atom_site_label
_atom_site_fract_x
_atom_site_fract_y
_atom_site_fract_z
Si Si1 0.057627 0.321036 0.630705
Si Si2 0.331951 0.321659 0.967372
Si Si3 0.907177 0.675323 0.558406
Si Si4 0.831003 0.674196 0.728642
Si Si5 0.920685 0.176502 0.874975
Si Si6 0.421561 0.178319 0.818359
O O1 0.062494 0.500000 0.649345
O O2 0.103915 0.265520 0.543340
O O3 0.086459 0.236478 0.717539
O O4 0.977338 0.262846 0.609614
O O5 0.250000 0.272492 0.987209
O O6 0.337955 0.500000 0.958894
O O7 0.356872 0.248656 0.874584
O O8 0.383855 0.268835 0.046245
O O9 0.922468 0.500000 0.545331
O O10 0.839552 0.708935 0.622387
O O11 0.750000 0.704282 0.756951
O O12 0.852817 0.500000 0.748728
O O13 0.880821 0.787292 0.782755
O O14 0.003101 0.226375 0.863821
O O15 0.914390 0.000000 0.897202
O O16 0.413807 0.000000 0.818032
#
# Coordination Sequence:
#
# PCOD8209112 Si02
#       6
#     8   8   8   8   8   8
#     4   9  16  31  56  80 107 146 189 234 278 322
#     4  11  25  43  62  84 109 143 188 234 282 336
#     4   8  15  29  51  79 109 144 188 234 279 325
#     4  10  19  32  53  81 113 149 190 236 285 336
#     4  11  23  38  57  84 116 149 185 227 279 338
#     4  11  23  38  58  87 117 148 186 230 280 336
#
# _framework density 19.437840000000001
#
# number of rings (size 3 to 8) (size 9 to 14) (size 15 to 20)
#    0.000    2.000    1.667    3.500    0.000    7.667 
#    0.000    3.333    0.000    3.000    0.000    0.000 
#    0.000    0.000    0.000    0.000    0.000    0.000 
#
# Total GULP energy -595018.485672 kJ/mol
# GULP energy per Si atom -12396.218451 kJ/mol
# Density = 1.939360 g / cm^3
# Si number density = 19.437840 Si / 1000 Ang^3
#
#
#
# Elastic Constant Matrix: (Units=GPa)
#
#
# Indices 1 2 3 4 5 6 
#
# 1 52.0666 27.7097 29.9845 0.0000 0.0000 0.0000
# 2 27.7097 51.8597 33.5900 0.0000 0.0000 0.0000
# 3 29.9845 33.5900 133.5480 0.0000 0.0000 0.0000
# 4 0.0000 0.0000 0.0000 -2.2688 0.0000 0.0000
# 5 0.0000 0.0000 0.0000 0.0000 19.6493 0.0000
# 6 0.0000 0.0000 0.0000 0.0000 0.0000 22.5591
#
#
#
# Elastic Compliance Matrix: (Units=1/GPa)
#
#
# Indices 1 2 3 4 5 6 
#
# 1 0.027805 -0.012918 -0.002994 0.000000 0.000000 0.000000
# 2 -0.012918 0.029037 -0.004403 0.000000 0.000000 0.000000
# 3 -0.002994 -0.004403 0.009268 0.000000 0.000000 0.000000
# 4 0.000000 0.000000 0.000000 -0.440758 0.000000 0.000000
# 5 0.000000 0.000000 0.000000 0.000000 0.050892 0.000000
# 6 0.000000 0.000000 0.000000 0.000000 0.000000 0.044328
#
#
# Mechanical properties :
#
#
# Convention : Reuss Voigt Hill
#
# Bulk Modulus (GPa) = 39.24580 46.67140 42.95860
# Shear Modulus (GPa) = -21.71032 17.73392 -1.98820
#
# Velocity S-wave (km/s) = -3.34565 3.02377 -1.01246
# Velocity P-wave (km/s) = 2.30430 6.02110 4.55870
#
# Compressibility (1/GPa) = 0.02548043
#
# Stress axis : x y z
#
# Youngs Moduli (GPa) = 35.96475 34.43897 107.90314
#
# Poissons Ratio (x) = 0.44487 0.32304
# Poissons Ratio (y) = 0.46458 0.47510
# Poissons Ratio (z) = 0.10767 0.15164
#
# Static dielectric constant tensor:
#      x y z
#    x 3.504030 0.000000 0.000000 
#    y 0.000000 3.332760 0.000000 
#    z 0.000000 0.000000 3.753980 
# 
# 
# High freq. dielectric constant tensor:
#      x y z
#    x 1.738900 0.000000 0.000000 
#    y 0.000000 1.735500 0.000000 
#    z 0.000000 0.000000 1.775100 
# 
# From -- ./inp_files/24712.got.cif
#   From: 2010.03.12/outbox.cif.g09.slc.cpg/sg51_13_cif.got.tgz:24712.got - 2010.04.16 13:43:02.
