data_PCOD8209836
_publ_section_title
;
Structure prediction by ZEFSAII (Michael W. Deem and Ramdas Pophale) SiO2 
 PCOD8209836
Probable space group: P M M A
;
_chemical_formula_sum "Si O2"
_cell_formula_units_Z 56
_cell_length_a 14.884881
_cell_length_b 8.716023
_cell_length_c 21.813048
_cell_angle_alpha 90.000000
_cell_angle_beta 90.000000
_cell_angle_gamma 90.000000
_cell_volume 2829.958648
_symmetry_space_group_name_H-M "P M M A"
_symmetry_group_IT_number 51
_symmetry_cell_setting 'orthorhombic'
loop_
_space_group_symop_operation_xyz
x,y,z
1/2-x,-y,z
1/2+x,-y,-z
-x,y,-z
-x,-y,-z
1/2+x,y,-z
1/2-x,y,z
x,-y,z
loop_
_atom_site_type_symbol
_atom_site_label
_atom_site_fract_x
_atom_site_fract_y
_atom_site_fract_z
Si Si1 0.250000 0.818525 0.885325
Si Si2 0.850073 0.173312 0.374964
Si Si3 0.750000 0.182331 0.975560
Si Si4 0.349267 0.676390 0.366808
Si Si5 0.441561 0.819190 0.838949
Si Si6 0.900922 0.178411 0.508588
Si Si7 0.938798 0.681405 0.943127
Si Si8 0.013691 0.321141 0.711159
O O1 0.340179 0.758222 0.851973
O O2 0.250000 0.000000 0.884558
O O3 0.250000 0.757090 0.954716
O O4 0.750000 0.184070 0.348044
O O5 0.845916 0.214141 0.446941
O O6 0.909883 0.295860 0.339510
O O7 0.888344 0.000000 0.366088
O O8 0.660018 0.244188 0.943382
O O9 0.750000 0.000000 0.971499
O O10 0.250000 0.702582 0.339093
O O11 0.372386 0.500000 0.376723
O O12 0.352073 0.750429 0.433450
O O13 0.420520 0.741582 0.317819
O O14 0.512275 0.731492 0.881242
O O15 0.465341 0.782703 0.769379
O O16 0.448780 0.000000 0.851494
O O17 0.000000 0.249094 0.500000
O O18 0.907357 0.000000 0.522703
O O19 0.927023 0.500000 0.944658
O O20 0.000000 0.739200 0.000000
O O21 0.009730 0.500000 0.729522
#
# Coordination Sequence:
#
# PCOD8209836 Si02
#       8
#     4   8   4   8   8   8   8   8
#     4   9  20  37  63  95 123 157 200 245 296 353
#     4  10  21  37  57  83 116 153 191 237 297 362
#     4  11  21  39  67  97 127 165 210 251 302 363
#     4  10  22  40  61  83 112 154 200 246 303 363
#     4  11  23  42  65  90 123 165 208 251 301 360
#     4  10  19  34  59  87 115 146 189 245 301 353
#     4  11  23  40  63  95 131 164 201 252 310 360
#     4  11  24  41  59  84 118 156 200 249 300 357
#
# _framework density 19.788274000000001
#
# number of rings (size 3 to 8) (size 9 to 14) (size 15 to 20)
#    0.000    1.571    2.857    1.929    1.000    3.143 
#    1.286    1.071    0.000    0.000    0.000    0.000 
#    0.000    0.000    0.000    0.000    0.000    0.000 
#
# Total GULP energy -694492.807437 kJ/mol
# GULP energy per Si atom -12401.657276 kJ/mol
# Density = 1.974324 g / cm^3
# Si number density = 19.788274 Si / 1000 Ang^3
#
#
#
# Elastic Constant Matrix: (Units=GPa)
#
#
# Indices 1 2 3 4 5 6 
#
# 1 152.1796 32.9725 57.9588 0.0000 0.0000 0.0000
# 2 32.9725 47.7036 20.9332 0.0000 0.0000 0.0000
# 3 57.9588 20.9332 101.6717 0.0000 0.0000 0.0000
# 4 0.0000 0.0000 0.0000 31.8689 0.0000 0.0000
# 5 0.0000 0.0000 0.0000 0.0000 15.0066 0.0000
# 6 0.0000 0.0000 0.0000 0.0000 0.0000 28.1617
#
#
#
# Elastic Compliance Matrix: (Units=1/GPa)
#
#
# Indices 1 2 3 4 5 6 
#
# 1 0.009179 -0.004451 -0.004316 0.000000 0.000000 0.000000
# 2 -0.004451 0.025203 -0.002652 0.000000 0.000000 0.000000
# 3 -0.004316 -0.002652 0.012842 0.000000 0.000000 0.000000
# 4 0.000000 0.000000 0.000000 0.031379 0.000000 0.000000
# 5 0.000000 0.000000 0.000000 0.000000 0.066637 0.000000
# 6 0.000000 0.000000 0.000000 0.000000 0.000000 0.035509
#
#
# Mechanical properties :
#
#
# Convention : Reuss Voigt Hill
#
# Bulk Modulus (GPa) = 41.00642 58.36487 49.68564
# Shear Modulus (GPa) = 23.61651 27.65347 25.63499
#
# Velocity S-wave (km/s) = 3.45840 3.74233 3.60316
# Velocity P-wave (km/s) = 6.05928 6.94493 6.51717
#
# Compressibility (1/GPa) = 0.02438643
#
# Stress axis : x y z
#
# Youngs Moduli (GPa) = 108.93873 39.67825 77.86811
#
# Poissons Ratio (x) = 0.17659 0.33612
# Poissons Ratio (y) = 0.48485 0.20649
# Poissons Ratio (z) = 0.47023 0.10522
#
# Static dielectric constant tensor:
#      x y z
#    x 3.838960 0.000000 0.000000 
#    y 0.000000 3.440120 0.000000 
#    z 0.000000 0.000000 3.512150 
# 
# 
# High freq. dielectric constant tensor:
#      x y z
#    x 1.787140 0.000000 0.000000 
#    y 0.000000 1.760300 0.000000 
#    z 0.000000 0.000000 1.764960 
# 
# From -- ./inp_files/33504.got.cif
#   From: 2010.03.12/outbox.cif.g09.slc.cpg/sg51_17_cif.got.tgz:33504.got - 2010.04.16 13:43:02.
