data_PCOD8209549
_publ_section_title
;
Structure prediction by ZEFSAII (Michael W. Deem and Ramdas Pophale) SiO2 
 PCOD8209549
Probable space group: P M M A
;
_chemical_formula_sum "Si O2"
_cell_formula_units_Z 40
_cell_length_a 28.540537
_cell_length_b 8.969452
_cell_length_c 7.768550
_cell_angle_alpha 90.000000
_cell_angle_beta 90.000000
_cell_angle_gamma 90.000000
_cell_volume 1988.694239
_symmetry_space_group_name_H-M "P M M A"
_symmetry_group_IT_number 51
_symmetry_cell_setting 'orthorhombic'
loop_
_space_group_symop_operation_xyz
x,y,z
1/2-x,-y,z
1/2+x,-y,-z
-x,y,-z
-x,-y,-z
1/2+x,y,-z
1/2-x,y,z
x,-y,z
loop_
_atom_site_type_symbol
_atom_site_label
_atom_site_fract_x
_atom_site_fract_y
_atom_site_fract_z
Si Si1 0.951060 0.324805 0.825570
Si Si2 0.043192 0.174352 0.809402
Si Si3 0.142335 0.826937 0.670316
Si Si4 0.195458 0.828151 0.006979
Si Si5 0.148300 0.326422 0.323006
O O1 0.957843 0.500000 0.856847
O O2 0.906159 0.289577 0.709798
O O3 0.997233 0.256766 0.732681
O O4 0.943915 0.243281 0.006573
O O5 0.086658 0.202028 0.682730
O O6 0.032710 0.000000 0.832205
O O7 0.167711 0.765044 0.841428
O O8 0.162840 0.742338 0.505696
O O9 0.154132 0.000000 0.647522
O O10 0.250000 0.805626 0.971497
O O11 0.182159 0.000000 0.037465
O O12 0.181036 0.739133 0.175691
O O13 0.158057 0.500000 0.329774
#
# Coordination Sequence:
#
# PCOD8209549 Si02
#       5
#     8   8   8   8   8
#     4  10  20  34  54  83 120 161 198 237 289 351
#     4  10  19  33  57  86 116 155 200 247 290 338
#     4  10  22  39  61  90 121 155 200 248 295 350
#     4  10  22  43  68  89 114 151 196 248 302 354
#     4  11  24  39  60  90 124 160 196 240 295 355
#
# _framework density 20.113700000000001
#
# number of rings (size 3 to 8) (size 9 to 14) (size 15 to 20)
#    0.000    1.800    2.000    3.000    0.000    6.800 
#    0.000    6.000    0.000    0.000    0.000    0.000 
#    0.000    0.000    0.000    0.000    0.000    0.000 
#
# Total GULP energy -496103.636672 kJ/mol
# GULP energy per Si atom -12402.590917 kJ/mol
# Density = 2.006792 g / cm^3
# Si number density = 20.113700 Si / 1000 Ang^3
#
#
#
# Elastic Constant Matrix: (Units=GPa)
#
#
# Indices 1 2 3 4 5 6 
#
# 1 71.8901 31.2805 30.2153 0.0000 0.0000 0.0000
# 2 31.2805 81.3031 36.9964 0.0000 0.0000 0.0000
# 3 30.2153 36.9964 107.2714 0.0000 0.0000 0.0000
# 4 0.0000 0.0000 0.0000 2.9478 0.0000 0.0000
# 5 0.0000 0.0000 0.0000 0.0000 15.2730 0.0000
# 6 0.0000 0.0000 0.0000 0.0000 0.0000 26.5120
#
#
#
# Elastic Compliance Matrix: (Units=1/GPa)
#
#
# Indices 1 2 3 4 5 6 
#
# 1 0.017534 -0.005336 -0.003099 0.000000 0.000000 0.000000
# 2 -0.005336 0.016213 -0.004089 0.000000 0.000000 0.000000
# 3 -0.003099 -0.004089 0.011605 0.000000 0.000000 0.000000
# 4 0.000000 0.000000 0.000000 0.339236 0.000000 0.000000
# 5 0.000000 0.000000 0.000000 0.000000 0.065475 0.000000
# 6 0.000000 0.000000 0.000000 0.000000 0.000000 0.037719
#
#
# Mechanical properties :
#
#
# Convention : Reuss Voigt Hill
#
# Bulk Modulus (GPa) = 49.24700 50.82766 50.03733
# Shear Modulus (GPa) = 9.62284 19.74473 14.68378
#
# Velocity S-wave (km/s) = 2.18966 3.13654 2.70485
# Velocity P-wave (km/s) = 5.56150 6.20018 5.88950
#
# Compressibility (1/GPa) = 0.02030580
#
# Stress axis : x y z
#
# Youngs Moduli (GPa) = 57.03112 61.67814 86.16953
#
# Poissons Ratio (x) = 0.32912 0.26700
# Poissons Ratio (y) = 0.30433 0.35232
# Poissons Ratio (z) = 0.17671 0.25218
#
# Static dielectric constant tensor:
#      x y z
#    x 3.772910 0.000000 0.000000 
#    y 0.000000 3.660650 0.000000 
#    z 0.000000 0.000000 3.475180 
# 
# 
# High freq. dielectric constant tensor:
#      x y z
#    x 1.788640 0.000000 0.000000 
#    y 0.000000 1.786210 0.000000 
#    z 0.000000 0.000000 1.777840 
# 
# From -- ./inp_files/12585.got.cif
#   From: 2010.03.12/outbox.cif.g09.slc.cpg/sg51_7_cif.got.tgz:12585.got - 2010.04.16 13:43:02.
