data_PCOD8209553
_publ_section_title
;
Structure prediction by ZEFSAII (Michael W. Deem and Ramdas Pophale) SiO2 
 PCOD8209553
Probable space group: P M M A
;
_chemical_formula_sum "Si O2"
_cell_formula_units_Z 64
_cell_length_a 23.986127
_cell_length_b 8.879557
_cell_length_c 15.429151
_cell_angle_alpha 90.000000
_cell_angle_beta 90.000000
_cell_angle_gamma 90.000000
_cell_volume 3286.195962
_symmetry_space_group_name_H-M "P M M A"
_symmetry_group_IT_number 51
_symmetry_cell_setting 'orthorhombic'
loop_
_space_group_symop_operation_xyz
x,y,z
1/2-x,-y,z
1/2+x,-y,-z
-x,y,-z
-x,-y,-z
1/2+x,y,-z
1/2-x,y,z
x,-y,z
loop_
_atom_site_type_symbol
_atom_site_label
_atom_site_fract_x
_atom_site_fract_y
_atom_site_fract_z
Si Si1 0.392368 0.826869 0.403315
Si Si2 0.186840 0.177557 0.248819
Si Si3 0.503152 0.322088 0.841352
Si Si4 0.121401 0.321510 0.096343
Si Si5 0.616928 0.172489 0.403425
Si Si6 0.114031 0.321249 0.903262
Si Si7 0.003732 0.322797 0.642793
Si Si8 0.186903 0.321084 0.744294
O O1 0.350049 0.766392 0.329962
O O2 0.362701 0.812333 0.496957
O O3 0.447165 0.724112 0.404629
O O4 0.409301 0.000000 0.385229
O O5 0.250000 0.229988 0.265889
O O6 0.166578 0.250495 0.159590
O O7 0.182823 0.000000 0.238650
O O8 0.504099 0.500000 0.851175
O O9 0.559735 0.256579 0.882731
O O10 0.448591 0.256655 0.889804
O O11 0.500366 0.272571 0.742127
O O12 0.122964 0.500000 0.108584
O O13 0.136443 0.273802 0.997877
O O14 0.554696 0.235983 0.399842
O O15 0.658755 0.264656 0.343437
O O16 0.617005 0.000000 0.372873
O O17 0.111795 0.500000 0.895142
O O18 0.154658 0.256776 0.828707
O O19 0.013471 0.500000 0.632248
O O20 0.250000 0.261157 0.748433
O O21 0.184765 0.500000 0.743374
#
# Coordination Sequence:
#
# PCOD8209553 Si02
#       8
#     8   8   8   8   8   8   8   8
#     4  10  22  39  58  81 111 147 188 231 276 333
#     4  10  22  40  58  76 106 149 189 228 277 328
#     4   9  16  29  53  84 113 141 174 218 271 324
#     4  10  19  33  58  88 112 140 182 229 273 324
#     4  11  23  38  58  84 113 147 188 232 278 333
#     4   9  17  32  56  84 115 146 179 223 275 331
#     4  11  20  34  59  87 116 147 180 224 280 338
#     4  10  21  38  58  81 111 148 191 236 282 331
#
# _framework density 19.475406
#
# number of rings (size 3 to 8) (size 9 to 14) (size 15 to 20)
#    0.000    2.000    2.500    1.500    0.000    5.500 
#    0.000    3.125    0.000    0.750    0.000    0.000 
#    0.000    0.000    0.000    0.000    0.000    0.000 
#
# Total GULP energy -793635.064284 kJ/mol
# GULP energy per Si atom -12400.547879 kJ/mol
# Density = 1.943108 g / cm^3
# Si number density = 19.475406 Si / 1000 Ang^3
#
#
#
# Elastic Constant Matrix: (Units=GPa)
#
#
# Indices 1 2 3 4 5 6 
#
# 1 126.9567 18.2999 50.2670 0.0000 0.0000 0.0000
# 2 18.2999 13.5730 14.2628 0.0000 0.0000 0.0000
# 3 50.2670 14.2628 120.7847 0.0000 0.0000 0.0000
# 4 0.0000 0.0000 0.0000 24.5711 0.0000 0.0000
# 5 0.0000 0.0000 0.0000 0.0000 14.3298 0.0000
# 6 0.0000 0.0000 0.0000 0.0000 0.0000 22.9196
#
#
#
# Elastic Compliance Matrix: (Units=1/GPa)
#
#
# Indices 1 2 3 4 5 6 
#
# 1 0.010732 -0.011161 -0.003148 0.000000 0.000000 0.000000
# 2 -0.011161 0.095720 -0.006658 0.000000 0.000000 0.000000
# 3 -0.003148 -0.006658 0.010376 0.000000 0.000000 0.000000
# 4 0.000000 0.000000 0.000000 0.040698 0.000000 0.000000
# 5 0.000000 0.000000 0.000000 0.000000 0.069785 0.000000
# 6 0.000000 0.000000 0.000000 0.000000 0.000000 0.043631
#
#
# Mechanical properties :
#
#
# Convention : Reuss Voigt Hill
#
# Bulk Modulus (GPa) = 13.35249 47.44154 30.39701
# Shear Modulus (GPa) = 14.79986 24.26308 19.53147
#
# Velocity S-wave (km/s) = 2.75967 3.53346 3.17026
# Velocity P-wave (km/s) = 4.12617 6.40779 5.38911
#
# Compressibility (1/GPa) = 0.07489241
#
# Stress axis : x y z
#
# Youngs Moduli (GPa) = 93.17851 10.44714 96.37915
#
# Poissons Ratio (x) = 0.11660 0.30344
# Poissons Ratio (y) = 1.03998 0.64170
# Poissons Ratio (z) = 0.29337 0.06956
#
# Static dielectric constant tensor:
#      x y z
#    x 3.673780 0.000000 0.000000 
#    y 0.000000 3.228530 0.000000 
#    z 0.000000 0.000000 3.746050 
# 
# 
# High freq. dielectric constant tensor:
#      x y z
#    x 1.756920 0.000000 0.000000 
#    y 0.000000 1.723610 0.000000 
#    z 0.000000 0.000000 1.774580 
# 
# From -- ./inp_files/26351.got.cif
#   From: 2010.03.12/outbox.cif.g09.slc.cpg/sg51_14_cif.got.tgz:26351.got - 2010.04.16 13:43:02.
