data_PCOD8209120
_publ_section_title
;
Structure prediction by ZEFSAII (Michael W. Deem and Ramdas Pophale) SiO2 
 PCOD8209120
Probable space group: P M M A
;
_chemical_formula_sum "Si O2"
_cell_formula_units_Z 64
_cell_length_a 16.343205
_cell_length_b 22.945294
_cell_length_c 9.101744
_cell_angle_alpha 90.000000
_cell_angle_beta 90.000000
_cell_angle_gamma 90.000000
_cell_volume 3413.150756
_symmetry_space_group_name_H-M "P M M A"
_symmetry_group_IT_number 51
_symmetry_cell_setting 'orthorhombic'
loop_
_space_group_symop_operation_xyz
x,y,z
1/2-x,-y,z
1/2+x,-y,-z
-x,y,-z
-x,-y,-z
1/2+x,y,-z
1/2-x,y,z
x,-y,z
loop_
_atom_site_type_symbol
_atom_site_label
_atom_site_fract_x
_atom_site_fract_y
_atom_site_fract_z
Si Si1 0.556951 0.741824 0.782065
Si Si2 0.657247 0.346878 0.940237
Si Si3 0.915500 0.065019 0.585083
Si Si4 0.343199 0.731223 0.511820
Si Si5 0.501392 0.128942 0.833307
Si Si6 0.467180 0.565068 0.164812
Si Si7 0.657568 0.144738 0.351530
Si Si8 0.412821 0.344735 0.751099
O O1 0.620808 0.716151 0.899138
O O2 0.592734 0.736216 0.618918
O O3 0.540015 0.807491 0.824766
O O4 0.472731 0.707372 0.795904
O O5 0.750000 0.348957 0.892213
O O6 0.615227 0.396953 0.840602
O O7 0.649298 0.356104 0.114747
O O8 0.935218 0.087229 0.748537
O O9 0.852793 0.107805 0.501820
O O10 0.000000 0.065227 0.500000
O O11 0.877786 0.000000 0.592406
O O12 0.250000 0.727424 0.453457
O O13 0.355476 0.787189 0.615247
O O14 0.363207 0.672709 0.604981
O O15 0.409048 0.125623 0.769178
O O16 0.500000 0.106880 0.000000
O O17 0.449767 0.500000 0.224298
O O18 0.533655 0.596253 0.271625
O O19 0.500000 0.563558 0.000000
O O20 0.750000 0.134009 0.292003
#
# Coordination Sequence:
#
# PCOD8209120 Si02
#       8
#     8   8   8   8   8   8   8   8
#     4  11  20  34  51  75 107 150 182 220 280 348
#     4  10  20  33  50  78 112 142 180 228 280 332
#     4   9  19  37  61  84 110 149 194 235 276 336
#     4  11  21  33  52  79 107 138 184 237 288 336
#     4  11  21  36  57  84 118 154 192 238 291 351
#     4   8  16  32  53  77 105 141 184 223 268 334
#     4  10  21  37  57  83 112 149 195 243 289 339
#     4  10  19  32  54  77 105 142 182 227 277 330
#
# _framework density 18.751003000000001
#
# number of rings (size 3 to 8) (size 9 to 14) (size 15 to 20)
#    0.000    2.000    2.500    3.000    0.000    0.750 
#    0.000    1.250    0.000    7.125    0.000    0.000 
#    0.000    0.000    0.000    0.000    0.000    0.000 
#
# Total GULP energy -793502.346357 kJ/mol
# GULP energy per Si atom -12398.474162 kJ/mol
# Density = 1.870833 g / cm^3
# Si number density = 18.751003 Si / 1000 Ang^3
#
#
#
# Elastic Constant Matrix: (Units=GPa)
#
#
# Indices 1 2 3 4 5 6 
#
# 1 89.9498 27.1665 23.1193 0.0000 0.0000 0.0000
# 2 27.1665 96.7546 19.2854 0.0000 0.0000 0.0000
# 3 23.1193 19.2854 84.6122 0.0000 0.0000 0.0000
# 4 0.0000 0.0000 0.0000 23.3960 0.0000 0.0000
# 5 0.0000 0.0000 0.0000 0.0000 23.9359 0.0000
# 6 0.0000 0.0000 0.0000 0.0000 0.0000 14.5794
#
#
#
# Elastic Compliance Matrix: (Units=1/GPa)
#
#
# Indices 1 2 3 4 5 6 
#
# 1 0.012748 -0.003022 -0.002794 0.000000 0.000000 0.000000
# 2 -0.003022 0.011544 -0.001805 0.000000 0.000000 0.000000
# 3 -0.002794 -0.001805 0.012994 0.000000 0.000000 0.000000
# 4 0.000000 0.000000 0.000000 0.042742 0.000000 0.000000
# 5 0.000000 0.000000 0.000000 0.000000 0.041778 0.000000
# 6 0.000000 0.000000 0.000000 0.000000 0.000000 0.068590
#
#
# Mechanical properties :
#
#
# Convention : Reuss Voigt Hill
#
# Bulk Modulus (GPa) = 45.36894 45.60654 45.48774
# Shear Modulus (GPa) = 23.47549 25.83196 24.65373
#
# Velocity S-wave (km/s) = 3.54214 3.71567 3.62994
# Velocity P-wave (km/s) = 6.40133 6.54089 6.47149
#
# Compressibility (1/GPa) = 0.02204151
#
# Stress axis : x y z
#
# Youngs Moduli (GPa) = 78.44127 86.62578 76.96060
#
# Poissons Ratio (x) = 0.26182 0.21506
# Poissons Ratio (y) = 0.23709 0.13894
# Poissons Ratio (z) = 0.21920 0.15639
#
# Static dielectric constant tensor:
#      x y z
#    x 3.407640 0.000000 0.000000 
#    y 0.000000 3.718120 0.000000 
#    z 0.000000 0.000000 3.342600 
# 
# 
# High freq. dielectric constant tensor:
#      x y z
#    x 1.723570 0.000000 0.000000 
#    y 0.000000 1.720140 0.000000 
#    z 0.000000 0.000000 1.709730 
# 
# From -- ./inp_files/8669.got.cif
#   From: 2010.03.12/outbox.cif.g09.slc.cpg/sg51_5_cif.got.tgz:8669.got - 2010.04.16 13:43:02.
