data_PCOD8209053
_publ_section_title
;
Structure prediction by ZEFSAII (Michael W. Deem and Ramdas Pophale) SiO2 
 PCOD8209053
Probable space group: P M M A
;
_chemical_formula_sum "Si O2"
_cell_formula_units_Z 48
_cell_length_a 9.656629
_cell_length_b 14.230713
_cell_length_c 20.502073
_cell_angle_alpha 90.000000
_cell_angle_beta 90.000000
_cell_angle_gamma 90.000000
_cell_volume 2817.409548
_symmetry_space_group_name_H-M "P M M A"
_symmetry_group_IT_number 51
_symmetry_cell_setting 'orthorhombic'
loop_
_space_group_symop_operation_xyz
x,y,z
1/2-x,-y,z
1/2+x,-y,-z
-x,y,-z
-x,-y,-z
1/2+x,y,-z
1/2-x,y,z
x,-y,z
loop_
_atom_site_type_symbol
_atom_site_label
_atom_site_fract_x
_atom_site_fract_y
_atom_site_fract_z
Si Si1 0.089600 0.796556 0.806083
Si Si2 0.908171 0.604497 0.624857
Si Si3 0.909373 0.207415 0.560183
Si Si4 0.090144 0.889808 0.305912
Si Si5 0.410034 0.108850 0.938913
Si Si6 0.408291 0.604135 0.748845
O O1 0.250000 0.823121 0.794659
O O2 0.040785 0.831001 0.876874
O O3 0.065852 0.683697 0.803489
O O4 0.001534 0.848105 0.751413
O O5 0.750000 0.611319 0.648858
O O6 0.942468 0.500000 0.597775
O O7 0.935606 0.680744 0.568655
O O8 0.000422 0.629708 0.686734
O O9 0.750000 0.185136 0.544276
O O10 0.957068 0.154256 0.625445
O O11 0.000000 0.170356 0.500000
O O12 0.250000 0.864818 0.291792
O O13 0.065004 0.000000 0.309702
O O14 0.250000 0.126851 0.955762
O O15 0.438518 0.000000 0.923019
O O16 0.500000 0.143243 0.000000
O O17 0.250000 0.606600 0.725076
O O18 0.445814 0.500000 0.776651
#
# Coordination Sequence:
#
# PCOD8209053 Si02
#       6
#     8   8   8   8   8   8
#     4  10  19  32  53  78 103 130 163 203 245 288
#     4   9  17  31  50  70  94 124 158 199 247 296
#     4  10  21  35  49  68  95 127 163 202 247 297
#     4  10  21  36  52  72  98 127 163 207 251 295
#     4   9  18  32  49  72 102 133 165 200 239 285
#     4   9  17  29  48  75 102 127 158 197 242 291
#
# _framework density 17.036926999999999
#
# number of rings (size 3 to 8) (size 9 to 14) (size 15 to 20)
#    0.000    2.500    1.667    0.500    0.000    3.667 
#    0.000    1.667    0.000    0.500    0.000    0.000 
#    0.000    0.000    0.000    0.000    0.000    0.000 
#
# Total GULP energy -595140.893496 kJ/mol
# GULP energy per Si atom -12398.768614 kJ/mol
# Density = 1.699815 g / cm^3
# Si number density = 17.036927 Si / 1000 Ang^3
#
#
#
# Elastic Constant Matrix: (Units=GPa)
#
#
# Indices 1 2 3 4 5 6 
#
# 1 62.9947 36.9449 65.6072 0.0000 0.0000 0.0000
# 2 36.9449 78.5440 55.8873 0.0000 0.0000 0.0000
# 3 65.6072 55.8873 134.5610 0.0000 0.0000 0.0000
# 4 0.0000 0.0000 0.0000 24.6137 0.0000 0.0000
# 5 0.0000 0.0000 0.0000 0.0000 32.6557 0.0000
# 6 0.0000 0.0000 0.0000 0.0000 0.0000 21.1705
#
#
#
# Elastic Compliance Matrix: (Units=1/GPa)
#
#
# Indices 1 2 3 4 5 6 
#
# 1 0.034121 -0.005979 -0.014153 0.000000 0.000000 0.000000
# 2 -0.005979 0.019120 -0.005026 0.000000 0.000000 0.000000
# 3 -0.014153 -0.005026 0.016419 0.000000 0.000000 0.000000
# 4 0.000000 0.000000 0.000000 0.040628 0.000000 0.000000
# 5 0.000000 0.000000 0.000000 0.000000 0.030623 0.000000
# 6 0.000000 0.000000 0.000000 0.000000 0.000000 0.047235
#
#
# Mechanical properties :
#
#
# Convention : Reuss Voigt Hill
#
# Bulk Modulus (GPa) = 51.69396 65.88648 58.79022
# Shear Modulus (GPa) = 20.41567 23.53202 21.97385
#
# Velocity S-wave (km/s) = 3.46543 3.72053 3.59524
# Velocity P-wave (km/s) = 6.81325 7.56394 7.19839
#
# Compressibility (1/GPa) = 0.01934462
#
# Stress axis : x y z
#
# Youngs Moduli (GPa) = 29.30783 52.30018 60.90367
#
# Poissons Ratio (x) = 0.31271 0.86195
# Poissons Ratio (y) = 0.17524 0.30611
# Poissons Ratio (z) = 0.41478 0.26286
#
# Static dielectric constant tensor:
#      x y z
#    x 2.893060 0.000000 0.000000 
#    y 0.000000 3.465540 0.000000 
#    z 0.000000 0.000000 2.979570 
# 
# 
# High freq. dielectric constant tensor:
#      x y z
#    x 1.658850 0.000000 0.000000 
#    y 0.000000 1.666850 0.000000 
#    z 0.000000 0.000000 1.631970 
# 
# From -- ./inp_files/23243.got.cif
#   From: 2010.03.12/outbox.cif.g09.slc.cpg/sg51_12_cif.got.tgz:23243.got - 2010.04.16 13:43:02.
