data_PCOD8209541
_publ_section_title
;
Structure prediction by ZEFSAII (Michael W. Deem and Ramdas Pophale) SiO2 
 PCOD8209541
Probable space group: P M M A
;
_chemical_formula_sum "Si O2"
_cell_formula_units_Z 64
_cell_length_a 18.492005
_cell_length_b 14.591172
_cell_length_c 12.111010
_cell_angle_alpha 90.000000
_cell_angle_beta 90.000000
_cell_angle_gamma 90.000000
_cell_volume 3267.793028
_symmetry_space_group_name_H-M "P M M A"
_symmetry_group_IT_number 51
_symmetry_cell_setting 'orthorhombic'
loop_
_space_group_symop_operation_xyz
x,y,z
1/2-x,-y,z
1/2+x,-y,-z
-x,y,-z
-x,-y,-z
1/2+x,y,-z
1/2-x,y,z
x,-y,z
loop_
_atom_site_type_symbol
_atom_site_label
_atom_site_fract_x
_atom_site_fract_y
_atom_site_fract_z
Si Si1 0.584830 0.402314 0.011941
Si Si2 0.164495 0.788594 0.535660
Si Si3 0.091787 0.899473 0.348577
Si Si4 0.568304 0.109019 0.291622
Si Si5 0.077502 0.203846 0.942216
Si Si6 0.668361 0.640002 0.797039
Si Si7 0.668750 0.151733 0.859038
Si Si8 0.835608 0.600272 0.553904
O O1 0.608901 0.500000 0.069277
O O2 0.606960 0.309005 0.077508
O O3 0.500000 0.402961 0.000000
O O4 0.618629 0.403661 0.890135
O O5 0.250000 0.798160 0.549098
O O6 0.140947 0.833149 0.420498
O O7 0.128926 0.839891 0.637947
O O8 0.139121 0.681592 0.528801
O O9 0.123097 0.910278 0.224997
O O10 0.009025 0.865075 0.343924
O O11 0.093107 0.000000 0.404053
O O12 0.572974 0.148018 0.169279
O O13 0.581383 0.000000 0.289878
O O14 0.132884 0.149538 0.020351
O O15 0.000000 0.208728 0.000000
O O16 0.750000 0.602225 0.810740
O O17 0.667504 0.748519 0.806206
O O18 0.634422 0.613446 0.678274
O O19 0.750000 0.113490 0.870691
O O20 0.750000 0.606526 0.563236
O O21 0.860453 0.500000 0.508601
#
# Coordination Sequence:
#
# PCOD8209541 Si02
#       8
#     8   8   8   8   8   8   8   8
#     4   9  18  30  48  79 115 148 186 231 285 344
#     4  11  23  40  61  87 121 154 193 246 297 348
#     4  11  22  38  61  87 115 151 195 245 302 355
#     4  11  25  42  61  83 113 160 208 243 291 365
#     4  10  20  38  60  81 113 156 196 236 292 351
#     4   9  16  29  51  81 115 148 183 227 283 346
#     4  10  19  33  56  89 120 147 189 245 295 340
#     4   9  17  31  56  88 118 150 187 230 288 351
#
# _framework density 19.585083999999998
#
# number of rings (size 3 to 8) (size 9 to 14) (size 15 to 20)
#    0.000    2.000    2.500    1.500    0.000    4.750 
#    0.000    0.625    0.000    1.500    0.000    0.000 
#    0.000    0.000    0.000    0.000    0.000    0.000 
#
# Total GULP energy -793186.584147 kJ/mol
# GULP energy per Si atom -12393.540377 kJ/mol
# Density = 1.954051 g / cm^3
# Si number density = 19.585084 Si / 1000 Ang^3
#
#
#
# Elastic Constant Matrix: (Units=GPa)
#
#
# Indices 1 2 3 4 5 6 
#
# 1 93.8719 45.4696 44.7547 0.0000 0.0000 0.0000
# 2 45.4696 116.4641 48.2736 0.0000 0.0000 0.0000
# 3 44.7547 48.2736 79.4765 0.0000 0.0000 0.0000
# 4 0.0000 0.0000 0.0000 13.3584 0.0000 0.0000
# 5 0.0000 0.0000 0.0000 0.0000 32.7543 0.0000
# 6 0.0000 0.0000 0.0000 0.0000 0.0000 31.3412
#
#
#
# Elastic Compliance Matrix: (Units=1/GPa)
#
#
# Indices 1 2 3 4 5 6 
#
# 1 0.015424 -0.003237 -0.006720 0.000000 0.000000 0.000000
# 2 -0.003237 0.012155 -0.005560 0.000000 0.000000 0.000000
# 3 -0.006720 -0.005560 0.019744 0.000000 0.000000 0.000000
# 4 0.000000 0.000000 0.000000 0.074859 0.000000 0.000000
# 5 0.000000 0.000000 0.000000 0.000000 0.030530 0.000000
# 6 0.000000 0.000000 0.000000 0.000000 0.000000 0.031907
#
#
# Mechanical properties :
#
#
# Convention : Reuss Voigt Hill
#
# Bulk Modulus (GPa) = 61.38923 62.97869 62.18396
# Shear Modulus (GPa) = 22.61608 25.57843 24.09725
#
# Velocity S-wave (km/s) = 3.40186 3.61780 3.51149
# Velocity P-wave (km/s) = 6.84421 7.04823 6.94697
#
# Compressibility (1/GPa) = 0.01628950
#
# Stress axis : x y z
#
# Youngs Moduli (GPa) = 64.83269 82.27366 50.64949
#
# Poissons Ratio (x) = 0.26629 0.34036
# Poissons Ratio (y) = 0.20984 0.28161
# Poissons Ratio (z) = 0.43566 0.45744
#
# Static dielectric constant tensor:
#      x y z
#    x 3.427060 0.000000 0.000000 
#    y 0.000000 4.034250 0.000000 
#    z 0.000000 0.000000 3.365050 
# 
# 
# High freq. dielectric constant tensor:
#      x y z
#    x 1.749640 0.000000 0.000000 
#    y 0.000000 1.781840 0.000000 
#    z 0.000000 0.000000 1.738090 
# 
# From -- ./inp_files/17614.got.cif
#   From: 2010.03.12/outbox.cif.g09.slc.cpg/sg51_9_cif.got.tgz:17614.got - 2010.04.16 13:43:02.
