data_PCOD8209479
_publ_section_title
;
Structure prediction by ZEFSAII (Michael W. Deem and Ramdas Pophale) SiO2 
 PCOD8209479
Probable space group: P M M A
;
_chemical_formula_sum "Si O2"
_cell_formula_units_Z 56
_cell_length_a 22.995485
_cell_length_b 9.273473
_cell_length_c 13.932950
_cell_angle_alpha 90.000000
_cell_angle_beta 90.000000
_cell_angle_gamma 90.000000
_cell_volume 2971.173851
_symmetry_space_group_name_H-M "P M M A"
_symmetry_group_IT_number 51
_symmetry_cell_setting 'orthorhombic'
loop_
_space_group_symop_operation_xyz
x,y,z
1/2-x,-y,z
1/2+x,-y,-z
-x,y,-z
-x,-y,-z
1/2+x,y,-z
1/2-x,y,z
x,-y,z
loop_
_atom_site_type_symbol
_atom_site_label
_atom_site_fract_x
_atom_site_fract_y
_atom_site_fract_z
Si Si1 0.869533 0.171059 0.059091
Si Si2 0.477921 0.835348 0.816193
Si Si3 0.682605 0.333780 0.883955
Si Si4 0.607765 0.833276 0.356651
Si Si5 0.316553 0.341541 0.775397
Si Si6 0.566226 0.337599 0.530945
Si Si7 0.581878 0.334924 0.746826
O O1 0.824341 0.243492 0.131235
O O2 0.934945 0.209127 0.095947
O O3 0.859990 0.000000 0.059242
O O4 0.854552 0.235186 0.955827
O O5 0.446921 0.809050 0.713886
O O6 0.537239 0.745178 0.818482
O O7 0.496354 0.000000 0.829140
O O8 0.750000 0.283068 0.873090
O O9 0.680825 0.500000 0.918690
O O10 0.648524 0.316001 0.782938
O O11 0.660741 0.740371 0.317667
O O12 0.597338 0.777012 0.463224
O O13 0.625317 0.000000 0.360485
O O14 0.250000 0.367221 0.757368
O O15 0.346642 0.500000 0.787601
O O16 0.500000 0.341236 0.500000
O O17 0.592285 0.500000 0.521355
O O18 0.576099 0.276790 0.638340
O O19 0.562297 0.500000 0.748721
#
# Coordination Sequence:
#
# PCOD8209479 Si02
#       7
#     8   8   8   8   8   8   8
#     4  10  21  36  56  83 112 144 180 222 275 331
#     4   9  19  34  52  80 114 142 171 216 277 333
#     4  10  22  40  58  77 105 144 189 231 270 319
#     4  10  20  33  52  80 113 147 181 222 275 333
#     4  10  20  34  54  80 110 145 184 227 274 325
#     4  10  19  33  55  82 110 142 183 230 277 332
#     4  10  21  36  56  81 108 143 186 231 278 325
#
# _framework density 18.847771000000002
#
# number of rings (size 3 to 8) (size 9 to 14) (size 15 to 20)
#    0.000    2.143    1.429    2.571    0.000    8.000 
#    0.000    3.571    0.000    2.571    0.000    0.000 
#    0.000    0.000    0.000    0.000    0.000    0.000 
#
# Total GULP energy -694218.253978 kJ/mol
# GULP energy per Si atom -12396.754535 kJ/mol
# Density = 1.880487 g / cm^3
# Si number density = 18.847771 Si / 1000 Ang^3
#
#
#
# Elastic Constant Matrix: (Units=GPa)
#
#
# Indices 1 2 3 4 5 6 
#
# 1 85.3645 39.7033 47.6859 0.0000 0.0000 0.0000
# 2 39.7033 92.3569 42.9535 0.0000 0.0000 0.0000
# 3 47.6859 42.9535 104.8518 0.0000 0.0000 0.0000
# 4 0.0000 0.0000 0.0000 104.9914 0.0000 0.0000
# 5 0.0000 0.0000 0.0000 0.0000 20.7347 0.0000
# 6 0.0000 0.0000 0.0000 0.0000 0.0000 18.7537
#
#
#
# Elastic Compliance Matrix: (Units=1/GPa)
#
#
# Indices 1 2 3 4 5 6 
#
# 1 0.017171 -0.004632 -0.005912 0.000000 0.000000 0.000000
# 2 -0.004632 0.014626 -0.003885 0.000000 0.000000 0.000000
# 3 -0.005912 -0.003885 0.013817 0.000000 0.000000 0.000000
# 4 0.000000 0.000000 0.000000 0.009525 0.000000 0.000000
# 5 0.000000 0.000000 0.000000 0.000000 0.048228 0.000000
# 6 0.000000 0.000000 0.000000 0.000000 0.000000 0.053323
#
#
# Mechanical properties :
#
#
# Convention : Reuss Voigt Hill
#
# Bulk Modulus (GPa) = 59.67783 60.36207 60.01995
# Shear Modulus (GPa) = 26.15972 39.04466 32.60219
#
# Velocity S-wave (km/s) = 3.72956 4.55640 4.16355
# Velocity P-wave (km/s) = 7.09070 7.73154 7.41804
#
# Compressibility (1/GPa) = 0.01675664
#
# Stress axis : x y z
#
# Youngs Moduli (GPa) = 58.23640 68.37276 72.37295
#
# Poissons Ratio (x) = 0.31673 0.42785
# Poissons Ratio (y) = 0.26977 0.28115
# Poissons Ratio (z) = 0.34428 0.26561
#
# Static dielectric constant tensor:
#      x y z
#    x 3.341660 0.000000 0.000000 
#    y 0.000000 3.548840 0.000000 
#    z 0.000000 0.000000 3.498790 
# 
# 
# High freq. dielectric constant tensor:
#      x y z
#    x 1.716350 0.000000 0.000000 
#    y 0.000000 1.738720 0.000000 
#    z 0.000000 0.000000 1.725110 
# 
# From -- ./inp_files/25789.got.cif
#   From: 2010.03.12/outbox.cif.g09.slc.cpg/sg51_13_cif.got.tgz:25789.got - 2010.04.16 13:43:02.
