data_PCOD8209533
_publ_section_title
;
Structure prediction by ZEFSAII (Michael W. Deem and Ramdas Pophale) SiO2 
 PCOD8209533
Probable space group: P M M A
;
_chemical_formula_sum "Si O2"
_cell_formula_units_Z 64
_cell_length_a 9.100701
_cell_length_b 24.208884
_cell_length_c 14.846123
_cell_angle_alpha 90.000000
_cell_angle_beta 90.000000
_cell_angle_gamma 90.000000
_cell_volume 3270.865378
_symmetry_space_group_name_H-M "P M M A"
_symmetry_group_IT_number 51
_symmetry_cell_setting 'orthorhombic'
loop_
_space_group_symop_operation_xyz
x,y,z
1/2-x,-y,z
1/2+x,-y,-z
-x,y,-z
-x,-y,-z
1/2+x,y,-z
1/2-x,y,z
x,-y,z
loop_
_atom_site_type_symbol
_atom_site_label
_atom_site_fract_x
_atom_site_fract_y
_atom_site_fract_z
Si Si1 0.081701 0.062122 0.731154
Si Si2 0.422686 0.756933 0.274992
Si Si3 0.921312 0.436799 0.586181
Si Si4 0.912595 0.919603 0.915596
Si Si5 0.911272 0.790635 0.917154
Si Si6 0.921371 0.370040 0.756480
Si Si7 0.425081 0.159331 0.596857
Si Si8 0.922114 0.562485 0.094436
O O1 0.250000 0.074238 0.756753
O O2 0.028945 0.105654 0.655668
O O3 0.989710 0.067654 0.821785
O O4 0.062147 0.000000 0.692211
O O5 0.250000 0.770490 0.288011
O O6 0.484552 0.779905 0.179807
O O7 0.454573 0.692175 0.273255
O O8 0.513717 0.785605 0.354868
O O9 0.750000 0.428640 0.572238
O O10 0.968177 0.500000 0.597082
O O11 0.977988 0.406478 0.674159
O O12 0.000000 0.410039 0.500000
O O13 0.750000 0.945840 0.912580
O O14 0.899473 0.855116 0.932979
O O15 0.000000 0.946281 0.000000
O O16 0.750000 0.762750 0.917502
O O17 0.000000 0.763184 0.000000
O O18 0.750000 0.379138 0.777994
O O19 0.014372 0.390060 0.841310
O O20 0.500000 0.153051 0.500000
O O21 0.250000 0.164133 0.585387
O O22 0.750000 0.572446 0.082201
O O23 0.953567 0.500000 0.130751
O O24 0.000000 0.570917 0.000000
#
# Coordination Sequence:
#
# PCOD8209533 Si02
#       8
#     8   8   8   8   8   8   8   8
#     4  10  22  40  61  87 118 150 189 238 289 345
#     4  10  21  39  59  84 117 151 190 236 287 342
#     4   9  18  33  53  77 105 139 178 222 274 330
#     4  10  19  33  56  85 117 154 190 227 274 329
#     4   9  18  32  53  79 109 144 182 224 267 321
#     4  10  21  36  57  84 116 151 188 237 291 344
#     4  11  24  42  65  87 112 149 191 239 295 352
#     4  10  21  37  58  84 117 159 204 249 295 345
#
# _framework density 19.566687000000002
#
# number of rings (size 3 to 8) (size 9 to 14) (size 15 to 20)
#    0.000    2.125    1.250    1.500    0.000    5.500 
#    0.000    3.750    0.000    0.000    0.000    0.000 
#    0.000    0.000    0.000    0.000    0.000    0.000 
#
# Total GULP energy -793506.082314 kJ/mol
# GULP energy per Si atom -12398.532536 kJ/mol
# Density = 1.952215 g / cm^3
# Si number density = 19.566687 Si / 1000 Ang^3
#
#
#
# Elastic Constant Matrix: (Units=GPa)
#
#
# Indices 1 2 3 4 5 6 
#
# 1 94.2799 48.9118 72.8377 0.0000 0.0000 0.0000
# 2 48.9118 85.3547 59.5820 0.0000 0.0000 0.0000
# 3 72.8377 59.5820 158.2932 0.0000 0.0000 0.0000
# 4 0.0000 0.0000 0.0000 -13.9724 0.0000 0.0000
# 5 0.0000 0.0000 0.0000 0.0000 40.1812 0.0000
# 6 0.0000 0.0000 0.0000 0.0000 0.0000 4.5995
#
#
#
# Elastic Compliance Matrix: (Units=1/GPa)
#
#
# Indices 1 2 3 4 5 6 
#
# 1 0.018719 -0.006394 -0.006207 0.000000 0.000000 0.000000
# 2 -0.006394 0.018075 -0.003861 0.000000 0.000000 0.000000
# 3 -0.006207 -0.003861 0.010627 0.000000 0.000000 0.000000
# 4 0.000000 0.000000 0.000000 -0.071569 0.000000 0.000000
# 5 0.000000 0.000000 0.000000 0.000000 0.024887 0.000000
# 6 0.000000 0.000000 0.000000 0.000000 0.000000 0.217416
#
#
# Mechanical properties :
#
#
# Convention : Reuss Voigt Hill
#
# Bulk Modulus (GPa) = 68.98103 77.84341 73.41222
# Shear Modulus (GPa) = 19.53799 16.60141 18.06970
#
# Velocity S-wave (km/s) = 3.16339 2.91598 3.04220
# Velocity P-wave (km/s) = 6.97664 7.15593 7.06685
#
# Compressibility (1/GPa) = 0.01449674
#
# Stress axis : x y z
#
# Youngs Moduli (GPa) = 53.42139 55.32377 94.10190
#
# Poissons Ratio (x) = 0.35375 0.58406
# Poissons Ratio (y) = 0.34159 0.36336
# Poissons Ratio (z) = 0.33157 0.21362
#
# Static dielectric constant tensor:
#      x y z
#    x 3.685400 0.000000 0.000000 
#    y 0.000000 3.580770 0.000000 
#    z 0.000000 0.000000 3.685930 
# 
# 
# High freq. dielectric constant tensor:
#      x y z
#    x 1.760340 0.000000 0.000000 
#    y 0.000000 1.759860 0.000000 
#    z 0.000000 0.000000 1.766070 
# 
# From -- ./inp_files/22285.got.cif
#   From: 2010.03.12/outbox.cif.g09.slc.cpg/sg51_12_cif.got.tgz:22285.got - 2010.04.16 13:43:02.
