data_PCOD8209011
_publ_section_title
;
Structure prediction by ZEFSAII (Michael W. Deem and Ramdas Pophale) SiO2 
 PCOD8209011
Probable space group: P M M A
;
_chemical_formula_sum "Si O2"
_cell_formula_units_Z 44
_cell_length_a 9.500796
_cell_length_b 8.054655
_cell_length_c 29.573650
_cell_angle_alpha 90.000000
_cell_angle_beta 90.000000
_cell_angle_gamma 90.000000
_cell_volume 2263.142316
_symmetry_space_group_name_H-M "P M M A"
_symmetry_group_IT_number 51
_symmetry_cell_setting 'orthorhombic'
loop_
_space_group_symop_operation_xyz
x,y,z
1/2-x,-y,z
1/2+x,-y,-z
-x,y,-z
-x,-y,-z
1/2+x,y,-z
1/2-x,y,z
x,-y,z
loop_
_atom_site_type_symbol
_atom_site_label
_atom_site_fract_x
_atom_site_fract_y
_atom_site_fract_z
Si Si1 0.416952 0.815861 0.895766
Si Si2 0.592967 0.310926 0.197833
Si Si3 0.591654 0.803588 0.620708
Si Si4 0.418482 0.500000 0.953403
Si Si5 0.413369 0.189716 0.277420
Si Si6 0.093597 0.693270 0.540113
O O1 0.250000 0.804439 0.894326
O O2 0.472095 0.791796 0.844287
O O3 0.471264 0.667195 0.927752
O O4 0.466060 0.000000 0.912840
O O5 0.750000 0.247444 0.209720
O O6 0.597939 0.500000 0.181472
O O7 0.499144 0.299185 0.242365
O O8 0.750000 0.745064 0.608059
O O9 0.555092 0.747745 0.671732
O O10 0.479733 0.718942 0.588158
O O11 0.581434 0.000000 0.616445
O O12 0.250000 0.500000 0.960593
O O13 0.500000 0.500000 0.000000
O O14 0.250000 0.210287 0.266449
O O15 0.461039 0.000000 0.272082
O O16 0.250000 0.774499 0.540285
O O17 0.109068 0.500000 0.530544
O O18 0.000000 0.775453 0.500000
#
# Coordination Sequence:
#
# PCOD8209011 Si02
#       6
#     8   8   8   4   8   8
#     4   9  17  32  55  79 106 143 182 223 273 324
#     4  10  19  32  52  79 107 136 178 225 263 312
#     4   9  19  36  55  74 100 135 173 212 256 310
#     4  10  20  36  56  80 110 142 182 228 273 326
#     4   9  19  35  52  73 104 140 175 212 260 317
#     4  10  21  36  54  76 101 130 167 211 260 314
#
# _framework density 19.441994000000001
#
# number of rings (size 3 to 8) (size 9 to 14) (size 15 to 20)
#    0.000    2.545    0.909    2.182    0.000    5.091 
#    0.000    6.364    0.000    1.091    0.000    0.000 
#    0.000    0.000    0.000    0.000    0.000    0.000 
#
# Total GULP energy -545442.925225 kJ/mol
# GULP energy per Si atom -12396.430119 kJ/mol
# Density = 1.939774 g / cm^3
# Si number density = 19.441994 Si / 1000 Ang^3
#
#
#
# Elastic Constant Matrix: (Units=GPa)
#
#
# Indices 1 2 3 4 5 6 
#
# 1 84.3438 26.5533 63.2921 0.0000 0.0000 0.0000
# 2 26.5533 81.4718 44.0594 0.0000 0.0000 0.0000
# 3 63.2921 44.0594 134.3453 0.0000 0.0000 0.0000
# 4 0.0000 0.0000 0.0000 26.8573 0.0000 0.0000
# 5 0.0000 0.0000 0.0000 0.0000 36.5458 0.0000
# 6 0.0000 0.0000 0.0000 0.0000 0.0000 20.3033
#
#
#
# Elastic Compliance Matrix: (Units=1/GPa)
#
#
# Indices 1 2 3 4 5 6 
#
# 1 0.018510 -0.001601 -0.008195 0.000000 0.000000 0.000000
# 2 -0.001601 0.015059 -0.004184 0.000000 0.000000 0.000000
# 3 -0.008195 -0.004184 0.012677 0.000000 0.000000 0.000000
# 4 0.000000 0.000000 0.000000 0.037234 0.000000 0.000000
# 5 0.000000 0.000000 0.000000 0.000000 0.027363 0.000000
# 6 0.000000 0.000000 0.000000 0.000000 0.000000 0.049253
#
#
# Mechanical properties :
#
#
# Convention : Reuss Voigt Hill
#
# Bulk Modulus (GPa) = 54.69143 63.10783 58.89963
# Shear Modulus (GPa) = 25.75307 27.82503 26.78905
#
# Velocity S-wave (km/s) = 3.64347 3.78720 3.71603
# Velocity P-wave (km/s) = 6.77432 7.18706 6.98374
#
# Compressibility (1/GPa) = 0.01828440
#
# Stress axis : x y z
#
# Youngs Moduli (GPa) = 54.02468 66.40609 78.88424
#
# Poissons Ratio (x) = 0.10630 0.64649
# Poissons Ratio (y) = 0.08648 0.33009
# Poissons Ratio (z) = 0.44275 0.27788
#
# Static dielectric constant tensor:
#      x y z
#    x 3.462210 0.000000 0.000000 
#    y 0.000000 3.526380 0.000000 
#    z 0.000000 0.000000 3.536400 
# 
# 
# High freq. dielectric constant tensor:
#      x y z
#    x 1.731570 0.000000 0.000000 
#    y 0.000000 1.753660 0.000000 
#    z 0.000000 0.000000 1.758970 
# 
# From -- ./inp_files/36784.got.cif
#   From: 2010.03.12/outbox.cif.g09.slc.cpg/sg51_19_cif.got.tgz:36784.got - 2010.04.16 13:43:02.
