data_PCOD8209210
_publ_section_title
;
Structure prediction by ZEFSAII (Michael W. Deem and Ramdas Pophale) SiO2 
 PCOD8209210
Probable space group: P M M A
;
_chemical_formula_sum "Si O2"
_cell_formula_units_Z 64
_cell_length_a 8.960340
_cell_length_b 14.581412
_cell_length_c 29.903103
_cell_angle_alpha 90.000000
_cell_angle_beta 90.000000
_cell_angle_gamma 90.000000
_cell_volume 3906.972256
_symmetry_space_group_name_H-M "P M M A"
_symmetry_group_IT_number 51
_symmetry_cell_setting 'orthorhombic'
loop_
_space_group_symop_operation_xyz
x,y,z
1/2-x,-y,z
1/2+x,-y,-z
-x,y,-z
-x,-y,-z
1/2+x,y,-z
1/2-x,y,z
x,-y,z
loop_
_atom_site_type_symbol
_atom_site_label
_atom_site_fract_x
_atom_site_fract_y
_atom_site_fract_z
Si Si1 0.924395 0.774476 0.696905
Si Si2 0.574786 0.895858 0.957198
Si Si3 0.415679 0.108484 0.139593
Si Si4 0.080343 0.133667 0.456190
Si Si5 0.574037 0.602487 0.642171
Si Si6 0.925610 0.105059 0.228519
Si Si7 0.582473 0.899059 0.368853
Si Si8 0.417570 0.350869 0.455457
O O1 0.750000 0.772722 0.708095
O O2 0.983818 0.673984 0.680312
O O3 0.009124 0.816595 0.739344
O O4 0.957476 0.840311 0.655676
O O5 0.750000 0.891079 0.963667
O O6 0.531987 0.850745 0.908822
O O7 0.515530 0.000000 0.956892
O O8 0.500000 0.844367 0.000000
O O9 0.250000 0.145428 0.152025
O O10 0.530370 0.135948 0.178474
O O11 0.406968 0.000000 0.133773
O O12 0.250000 0.096752 0.452711
O O13 0.079283 0.242423 0.454725
O O14 0.000000 0.096277 0.500000
O O15 0.974751 0.091683 0.418757
O O16 0.750000 0.618808 0.637812
O O17 0.533673 0.500000 0.658694
O O18 0.507310 0.617036 0.591834
O O19 0.750000 0.107275 0.233875
O O20 0.983732 0.000000 0.238202
O O21 0.750000 0.855671 0.366573
O O22 0.589161 0.000000 0.346849
O O23 0.500000 0.388876 0.500000
O O24 0.250000 0.389523 0.458488
#
# Coordination Sequence:
#
# PCOD8209210 Si02
#       8
#     8   8   8   8   8   8   8   8
#     4  11  21  35  53  71  89 115 147 179 220 264
#     4   8  13  20  31  49  75 108 147 190 233 271
#     4   8  14  25  39  56  80 112 152 195 232 269
#     4  10  19  33  51  71  92 117 146 173 207 249
#     4   9  18  34  54  74  95 116 140 172 210 257
#     4  10  20  32  46  66  91 119 151 190 235 274
#     4  11  23  36  50  69  92 118 146 178 215 252
#     4   9  17  31  50  73  95 115 138 164 199 245
#
# _framework density 16.380972
#
# number of rings (size 3 to 8) (size 9 to 14) (size 15 to 20)
#    0.000    2.500    1.250    2.625    0.000    4.750 
#    0.000    2.500    0.000    3.000    0.000    0.000 
#    0.000    0.000    0.000    0.000    0.000    0.625 
#
# Total GULP energy -792848.186949 kJ/mol
# GULP energy per Si atom -12388.252921 kJ/mol
# Density = 1.634369 g / cm^3
# Si number density = 16.380972 Si / 1000 Ang^3
#
#
#
# Elastic Constant Matrix: (Units=GPa)
#
#
# Indices 1 2 3 4 5 6 
#
# 1 53.6309 18.6362 34.8910 0.0000 0.0000 0.0000
# 2 18.6362 64.7192 40.7150 0.0000 0.0000 0.0000
# 3 34.8910 40.7150 130.1859 0.0000 0.0000 0.0000
# 4 0.0000 0.0000 0.0000 7.0339 0.0000 0.0000
# 5 0.0000 0.0000 0.0000 0.0000 30.5829 0.0000
# 6 0.0000 0.0000 0.0000 0.0000 0.0000 9.0735
#
#
#
# Elastic Compliance Matrix: (Units=1/GPa)
#
#
# Indices 1 2 3 4 5 6 
#
# 1 0.023185 -0.003445 -0.005136 0.000000 0.000000 0.000000
# 2 -0.003445 0.019748 -0.005253 0.000000 0.000000 0.000000
# 3 -0.005136 -0.005253 0.010701 0.000000 0.000000 0.000000
# 4 0.000000 0.000000 0.000000 0.142169 0.000000 0.000000
# 5 0.000000 0.000000 0.000000 0.000000 0.032698 0.000000
# 6 0.000000 0.000000 0.000000 0.000000 0.000000 0.110212
#
#
# Mechanical properties :
#
#
# Convention : Reuss Voigt Hill
#
# Bulk Modulus (GPa) = 38.51303 48.55781 43.53542
# Shear Modulus (GPa) = 13.33209 19.62432 16.47820
#
# Velocity S-wave (km/s) = 2.85595 3.46496 3.17509
# Velocity P-wave (km/s) = 5.86831 6.76129 6.33057
#
# Compressibility (1/GPa) = 0.02596524
#
# Stress axis : x y z
#
# Youngs Moduli (GPa) = 43.13211 50.63841 93.45194
#
# Poissons Ratio (x) = 0.17444 0.48000
# Poissons Ratio (y) = 0.14858 0.49088
# Poissons Ratio (z) = 0.22154 0.26599
#
# Static dielectric constant tensor:
#      x y z
#    x 3.087290 0.000000 0.000000 
#    y 0.000000 2.812640 0.000000 
#    z 0.000000 0.000000 3.363210 
# 
# 
# High freq. dielectric constant tensor:
#      x y z
#    x 1.623880 0.000000 0.000000 
#    y 0.000000 1.581030 0.000000 
#    z 0.000000 0.000000 1.628610 
# 
# From -- ./inp_files/37673.got.cif
#   From: 2010.03.12/outbox.cif.g09.slc.cpg/sg51_19_cif.got.tgz:37673.got - 2010.04.16 13:43:02.
