data_PCOD8209630
_publ_section_title
;
Structure prediction by ZEFSAII (Michael W. Deem and Ramdas Pophale) SiO2 
 PCOD8209630
Probable space group: P M M A
;
_chemical_formula_sum "Si O2"
_cell_formula_units_Z 64
_cell_length_a 15.150979
_cell_length_b 18.509510
_cell_length_c 11.727611
_cell_angle_alpha 90.000000
_cell_angle_beta 90.000000
_cell_angle_gamma 90.000000
_cell_volume 3288.858360
_symmetry_space_group_name_H-M "P M M A"
_symmetry_group_IT_number 51
_symmetry_cell_setting 'orthorhombic'
loop_
_space_group_symop_operation_xyz
x,y,z
1/2-x,-y,z
1/2+x,-y,-z
-x,y,-z
-x,-y,-z
1/2+x,y,-z
1/2-x,y,z
x,-y,z
loop_
_atom_site_type_symbol
_atom_site_label
_atom_site_fract_x
_atom_site_fract_y
_atom_site_fract_z
Si Si1 0.655122 0.157133 0.732193
Si Si2 0.998126 0.656603 0.871992
Si Si3 0.850139 0.823120 0.308113
Si Si4 0.649007 0.310853 0.454678
Si Si5 0.150883 0.324650 0.293061
Si Si6 0.604028 0.917926 0.506174
Si Si7 0.004865 0.827150 0.872664
Si Si8 0.149130 0.582462 0.738506
O O1 0.750000 0.126180 0.775103
O O2 0.658330 0.242638 0.745068
O O3 0.642194 0.134539 0.601936
O O4 0.573593 0.129747 0.807974
O O5 0.914199 0.631420 0.793705
O O6 0.991641 0.742058 0.876405
O O7 0.090200 0.630434 0.821084
O O8 0.000000 0.624234 0.000000
O O9 0.750000 0.805355 0.271054
O O10 0.892658 0.754889 0.378944
O O11 0.853568 0.893917 0.386790
O O12 0.903502 0.841132 0.192839
O O13 0.750000 0.288056 0.477367
O O14 0.606603 0.324436 0.579598
O O15 0.640523 0.386368 0.388789
O O16 0.250000 0.359828 0.290821
O O17 0.500000 0.909297 0.500000
O O18 0.632234 0.000000 0.532010
O O19 0.000000 0.859208 0.000000
O O20 0.250000 0.588668 0.781585
O O21 0.116479 0.500000 0.737137
#
# Coordination Sequence:
#
# PCOD8209630 Si02
#       8
#     8   8   8   8   8   8   8   8
#     4  10  19  34  55  79 111 148 184 224 279 340
#     4  10  21  35  54  80 110 146 187 230 273 326
#     4  11  20  34  59  85 112 148 187 230 280 336
#     4   9  17  32  55  82 109 140 180 223 277 336
#     4   9  18  33  55  83 110 141 179 227 281 329
#     4  11  22  35  56  88 121 150 181 228 289 343
#     4  10  21  36  54  82 115 146 186 237 283 322
#     4  10  21  37  56  79 110 147 185 229 280 333
#
# _framework density 19.45964
#
# number of rings (size 3 to 8) (size 9 to 14) (size 15 to 20)
#    0.000    2.000    3.750    0.375    0.000    2.750 
#    0.000    3.750    0.000    2.625    0.000    1.750 
#    0.000    0.000    0.000    0.000    0.000    0.000 
#
# Total GULP energy -793236.603643 kJ/mol
# GULP energy per Si atom -12394.321932 kJ/mol
# Density = 1.941535 g / cm^3
# Si number density = 19.459640 Si / 1000 Ang^3
#
#
#
# Elastic Constant Matrix: (Units=GPa)
#
#
# Indices 1 2 3 4 5 6 
#
# 1 108.6874 14.9320 69.3971 0.0000 0.0000 0.0000
# 2 14.9320 33.8554 12.8549 0.0000 0.0000 0.0000
# 3 69.3971 12.8549 151.2900 0.0000 0.0000 0.0000
# 4 0.0000 0.0000 0.0000 7.9723 0.0000 0.0000
# 5 0.0000 0.0000 0.0000 0.0000 22.2131 0.0000
# 6 0.0000 0.0000 0.0000 0.0000 0.0000 5.7405
#
#
#
# Elastic Compliance Matrix: (Units=1/GPa)
#
#
# Indices 1 2 3 4 5 6 
#
# 1 0.013448 -0.003709 -0.005853 0.000000 0.000000 0.000000
# 2 -0.003709 0.031545 -0.000979 0.000000 0.000000 0.000000
# 3 -0.005853 -0.000979 0.009378 0.000000 0.000000 0.000000
# 4 0.000000 0.000000 0.000000 0.125434 0.000000 0.000000
# 5 0.000000 0.000000 0.000000 0.000000 0.045018 0.000000
# 6 0.000000 0.000000 0.000000 0.000000 0.000000 0.174201
#
#
# Mechanical properties :
#
#
# Convention : Reuss Voigt Hill
#
# Bulk Modulus (GPa) = 30.04064 54.24455 42.14259
# Shear Modulus (GPa) = 11.59549 20.29510 15.94530
#
# Velocity S-wave (km/s) = 2.44370 3.23295 2.86563
# Velocity P-wave (km/s) = 4.84078 6.47085 5.71424
#
# Compressibility (1/GPa) = 0.03328824
#
# Stress axis : x y z
#
# Youngs Moduli (GPa) = 74.36297 31.70084 106.63306
#
# Poissons Ratio (x) = 0.11756 0.62416
# Poissons Ratio (y) = 0.27578 0.10442
# Poissons Ratio (z) = 0.43527 0.03104
#
# Static dielectric constant tensor:
#      x y z
#    x 3.829110 0.000000 0.000000 
#    y 0.000000 3.206900 0.000000 
#    z 0.000000 0.000000 3.733530 
# 
# 
# High freq. dielectric constant tensor:
#      x y z
#    x 1.764810 0.000000 0.000000 
#    y 0.000000 1.714530 0.000000 
#    z 0.000000 0.000000 1.750630 
# 
# From -- ./inp_files/16884.got.cif
#   From: 2010.03.12/outbox.cif.g09.slc.cpg/sg51_9_cif.got.tgz:16884.got - 2010.04.16 13:43:02.
