data_PCOD8209445
_publ_section_title
;
Structure prediction by ZEFSAII (Michael W. Deem and Ramdas Pophale) SiO2 
 PCOD8209445
Probable space group: P M M A
;
_chemical_formula_sum "Si O2"
_cell_formula_units_Z 32
_cell_length_a 20.675330
_cell_length_b 8.879604
_cell_length_c 9.351585
_cell_angle_alpha 90.000000
_cell_angle_beta 90.000000
_cell_angle_gamma 90.000000
_cell_volume 1716.845735
_symmetry_space_group_name_H-M "P M M A"
_symmetry_group_IT_number 51
_symmetry_cell_setting 'orthorhombic'
loop_
_space_group_symop_operation_xyz
x,y,z
1/2-x,-y,z
1/2+x,-y,-z
-x,y,-z
-x,-y,-z
1/2+x,y,-z
1/2-x,y,z
x,-y,z
loop_
_atom_site_type_symbol
_atom_site_label
_atom_site_fract_x
_atom_site_fract_y
_atom_site_fract_z
Si Si1 0.496268 0.826774 0.164470
Si Si2 0.611747 0.320511 0.651684
Si Si3 0.750000 0.333512 0.332930
Si Si4 0.750000 0.664138 0.671677
Si Si5 0.120251 0.174927 0.649286
O O1 0.443134 0.722192 0.237413
O O2 0.565707 0.796403 0.233099
O O3 0.475191 0.000000 0.183485
O O4 0.500000 0.779850 0.000000
O O5 0.616024 0.500000 0.633703
O O6 0.681603 0.256079 0.711274
O O7 0.596284 0.251128 0.497218
O O8 0.750000 0.500000 0.262236
O O9 0.750000 0.349576 0.501659
O O10 0.814262 0.244748 0.285146
O O11 0.750000 0.500000 0.744384
O O12 0.131810 0.000000 0.618423
#
# Coordination Sequence:
#
# PCOD8209445 Si02
#       5
#     8   8   4   4   8
#     4  10  22  38  52  71 104 142 179 219 260 308
#     4  10  19  33  55  80 106 135 171 216 263 311
#     4   9  17  31  52  79 108 132 164 214 262 305
#     4   7  14  29  48  73 102 128 156 200 254 303
#     4  10  19  33  55  79 104 137 174 211 258 313
#
# _framework density 18.638833000000002
#
# number of rings (size 3 to 8) (size 9 to 14) (size 15 to 20)
#    0.000    2.500    0.000    4.125    0.000    5.500 
#    0.000    3.125    0.000    4.500    0.000    0.000 
#    0.000    0.000    0.000    0.000    0.000    0.000 
#
# Total GULP energy -396635.118337 kJ/mol
# GULP energy per Si atom -12394.847448 kJ/mol
# Density = 1.859641 g / cm^3
# Si number density = 18.638833 Si / 1000 Ang^3
#
#
#
# Elastic Constant Matrix: (Units=GPa)
#
#
# Indices 1 2 3 4 5 6 
#
# 1 149.6323 65.9390 63.1575 0.0000 0.0000 0.0000
# 2 65.9390 99.4837 43.2514 0.0000 0.0000 0.0000
# 3 63.1575 43.2514 91.0256 0.0000 0.0000 0.0000
# 4 0.0000 0.0000 0.0000 11.1612 0.0000 0.0000
# 5 0.0000 0.0000 0.0000 0.0000 -0.7535 0.0000
# 6 0.0000 0.0000 0.0000 0.0000 0.0000 33.7618
#
#
#
# Elastic Compliance Matrix: (Units=1/GPa)
#
#
# Indices 1 2 3 4 5 6 
#
# 1 0.011179 -0.005088 -0.005338 0.000000 0.000000 0.000000
# 2 -0.005088 0.014985 -0.003590 0.000000 0.000000 0.000000
# 3 -0.005338 -0.003590 0.016396 0.000000 0.000000 0.000000
# 4 0.000000 0.000000 0.000000 0.089596 0.000000 0.000000
# 5 0.000000 0.000000 0.000000 0.000000 -1.327096 0.000000
# 6 0.000000 0.000000 0.000000 0.000000 0.000000 0.029619
#
#
# Mechanical properties :
#
#
# Convention : Reuss Voigt Hill
#
# Bulk Modulus (GPa) = 68.84062 76.09304 72.46683
# Shear Modulus (GPa) = -4.41522 20.02014 7.80246
#
# Velocity S-wave (km/s) = -1.54077 3.28092 2.04822
# Velocity P-wave (km/s) = 5.81798 7.43412 6.67514
#
# Compressibility (1/GPa) = 0.01452631
#
# Stress axis : x y z
#
# Youngs Moduli (GPa) = 89.45632 66.73231 60.99176
#
# Poissons Ratio (x) = 0.33956 0.32560
# Poissons Ratio (y) = 0.45519 0.21895
# Poissons Ratio (z) = 0.47756 0.23955
#
# Static dielectric constant tensor:
#      x y z
#    x 3.903370 0.000000 0.000000 
#    y 0.000000 3.444430 0.000000 
#    z 0.000000 0.000000 3.054100 
# 
# 
# High freq. dielectric constant tensor:
#      x y z
#    x 1.747460 0.000000 0.000000 
#    y 0.000000 1.720590 0.000000 
#    z 0.000000 0.000000 1.683570 
# 
# From -- ./inp_files/11351.got.cif
#   From: 2010.03.12/outbox.cif.g09.slc.cpg/sg51_6_cif.got.tgz:11351.got - 2010.04.16 13:43:02.
