data_PCOD8209527
_publ_section_title
;
Structure prediction by ZEFSAII (Michael W. Deem and Ramdas Pophale) SiO2 
 PCOD8209527
Probable space group: P M M A
;
_chemical_formula_sum "Si O2"
_cell_formula_units_Z 56
_cell_length_a 9.307380
_cell_length_b 20.186114
_cell_length_c 15.100204
_cell_angle_alpha 90.000000
_cell_angle_beta 90.000000
_cell_angle_gamma 90.000000
_cell_volume 2837.023817
_symmetry_space_group_name_H-M "P M M A"
_symmetry_group_IT_number 51
_symmetry_cell_setting 'orthorhombic'
loop_
_space_group_symop_operation_xyz
x,y,z
1/2-x,-y,z
1/2+x,-y,-z
-x,y,-z
-x,-y,-z
1/2+x,y,-z
1/2-x,y,z
x,-y,z
loop_
_atom_site_type_symbol
_atom_site_label
_atom_site_fract_x
_atom_site_fract_y
_atom_site_fract_z
Si Si1 0.916161 0.328709 0.587853
Si Si2 0.414056 0.425344 0.257391
Si Si3 0.417801 0.386867 0.913400
Si Si4 0.910617 0.898240 0.081450
Si Si5 0.910392 0.757573 0.146026
Si Si6 0.916631 0.801008 0.688263
Si Si7 0.418383 0.926439 0.721992
O O1 0.750000 0.343689 0.570887
O O2 0.972151 0.374914 0.667970
O O3 0.941822 0.251058 0.609147
O O4 0.000000 0.348385 0.500000
O O5 0.250000 0.406715 0.231073
O O6 0.421803 0.500000 0.295040
O O7 0.515613 0.421374 0.172320
O O8 0.250000 0.405313 0.920191
O O9 0.444099 0.308283 0.908217
O O10 0.500000 0.413829 0.000000
O O11 0.750000 0.924784 0.069102
O O12 0.918756 0.818612 0.078153
O O13 0.970568 0.923728 0.175845
O O14 0.000000 0.928268 0.000000
O O15 0.750000 0.754466 0.188419
O O16 0.025440 0.766513 0.223334
O O17 0.750000 0.816973 0.701897
O O18 0.997399 0.870356 0.666351
O O19 0.250000 0.909514 0.716855
O O20 0.450891 0.000000 0.683801
#
# Coordination Sequence:
#
# PCOD8209527 Si02
#       7
#     8   8   8   8   8   8   8
#     4  10  22  39  62  93 121 149 186 233 290 350
#     4  10  22  42  63  84 118 159 196 239 290 344
#     4  11  22  35  56  84 116 155 201 248 294 345
#     4   9  17  28  42  65  98 135 179 227 276 327
#     4   9  18  32  50  74 105 145 188 232 285 340
#     4  10  19  33  56  84 113 142 181 234 284 334
#     4   9  19  35  52  72 104 147 190 230 280 343
#
# _framework density 19.738994999999999
#
# number of rings (size 3 to 8) (size 9 to 14) (size 15 to 20)
#    0.000    2.286    1.429    2.143    0.000    6.000 
#    0.000    0.000    0.000    0.429    0.000    0.000 
#    0.000    0.000    0.000    0.000    0.000    0.000 
#
# Total GULP energy -694338.693446 kJ/mol
# GULP energy per Si atom -12398.905240 kJ/mol
# Density = 1.969407 g / cm^3
# Si number density = 19.738995 Si / 1000 Ang^3
#
#
#
# Elastic Constant Matrix: (Units=GPa)
#
#
# Indices 1 2 3 4 5 6 
#
# 1 89.7797 39.3689 49.2667 0.0000 0.0000 0.0000
# 2 39.3689 103.7128 31.5837 0.0000 0.0000 0.0000
# 3 49.2667 31.5837 92.0004 0.0000 0.0000 0.0000
# 4 0.0000 0.0000 0.0000 7.1637 0.0000 0.0000
# 5 0.0000 0.0000 0.0000 0.0000 33.5091 0.0000
# 6 0.0000 0.0000 0.0000 0.0000 0.0000 23.4004
#
#
#
# Elastic Compliance Matrix: (Units=1/GPa)
#
#
# Indices 1 2 3 4 5 6 
#
# 1 0.017251 -0.004171 -0.007806 0.000000 0.000000 0.000000
# 2 -0.004171 0.011776 -0.001809 0.000000 0.000000 0.000000
# 3 -0.007806 -0.001809 0.015671 0.000000 0.000000 0.000000
# 4 0.000000 0.000000 0.000000 0.139592 0.000000 0.000000
# 5 0.000000 0.000000 0.000000 0.000000 0.029843 0.000000
# 6 0.000000 0.000000 0.000000 0.000000 0.000000 0.042734
#
#
# Mechanical properties :
#
#
# Convention : Reuss Voigt Hill
#
# Bulk Modulus (GPa) = 58.39286 58.43685 58.41486
# Shear Modulus (GPa) = 17.23257 23.83289 20.53273
#
# Velocity S-wave (km/s) = 2.95790 3.47854 3.22873
# Velocity P-wave (km/s) = 6.42746 6.76777 6.59981
#
# Compressibility (1/GPa) = 0.01712538
#
# Stress axis : x y z
#
# Youngs Moduli (GPa) = 57.96738 84.91617 63.81315
#
# Poissons Ratio (x) = 0.35421 0.49813
# Poissons Ratio (y) = 0.24180 0.11544
# Poissons Ratio (z) = 0.45250 0.15362
#
# Static dielectric constant tensor:
#      x y z
#    x 3.558520 0.000000 0.000000 
#    y 0.000000 3.743070 0.000000 
#    z 0.000000 0.000000 3.173910 
# 
# 
# High freq. dielectric constant tensor:
#      x y z
#    x 1.766310 0.000000 0.000000 
#    y 0.000000 1.779850 0.000000 
#    z 0.000000 0.000000 1.732560 
# 
# From -- ./inp_files/21706.got.cif
#   From: 2010.03.12/outbox.cif.g09.slc.cpg/sg51_11_cif.got.tgz:21706.got - 2010.04.16 13:43:02.
