data_PCOD8209940
_publ_section_title
;
Structure prediction by ZEFSAII (Michael W. Deem and Ramdas Pophale) SiO2 
 PCOD8209940
Probable space group: P M M A
;
_chemical_formula_sum "Si O2"
_cell_formula_units_Z 64
_cell_length_a 16.028964
_cell_length_b 23.441325
_cell_length_c 9.183985
_cell_angle_alpha 90.000000
_cell_angle_beta 90.000000
_cell_angle_gamma 90.000000
_cell_volume 3450.791943
_symmetry_space_group_name_H-M "P M M A"
_symmetry_group_IT_number 51
_symmetry_cell_setting 'orthorhombic'
loop_
_space_group_symop_operation_xyz
x,y,z
1/2-x,-y,z
1/2+x,-y,-z
-x,y,-z
-x,-y,-z
1/2+x,y,-z
1/2-x,y,z
x,-y,z
loop_
_atom_site_type_symbol
_atom_site_label
_atom_site_fract_x
_atom_site_fract_y
_atom_site_fract_z
Si Si1 0.842725 0.564579 0.145392
Si Si2 0.848038 0.238067 0.850836
Si Si3 0.653935 0.939051 0.251049
Si Si4 0.581613 0.360280 0.906541
Si Si5 0.923590 0.155986 0.087590
Si Si6 0.502020 0.566482 0.333428
Si Si7 0.651691 0.933258 0.575862
Si Si8 0.540257 0.168512 0.654299
O O1 0.750000 0.574839 0.206514
O O2 0.856542 0.500000 0.092189
O O3 0.904704 0.578700 0.277172
O O4 0.856553 0.603035 0.004746
O O5 0.750000 0.229025 0.837835
O O6 0.869986 0.303967 0.861450
O O7 0.890398 0.214430 0.703543
O O8 0.880342 0.206295 0.997041
O O9 0.750000 0.949186 0.274782
O O10 0.641196 0.894060 0.122360
O O11 0.621380 0.919868 0.410274
O O12 0.612788 0.000000 0.207524
O O13 0.561563 0.396170 0.761548
O O14 0.500000 0.344713 0.000000
O O15 0.961422 0.176881 0.239685
O O16 0.000000 0.128298 0.000000
O O17 0.500000 0.586865 0.500000
O O18 0.477179 0.500000 0.318854
O O19 0.750000 0.917744 0.602321
O O20 0.588384 0.892999 0.667597
O O21 0.637091 0.000000 0.614685
O O22 0.500000 0.183323 0.500000
#
# Coordination Sequence:
#
# PCOD8209940 Si02
#       8
#     8   8   8   8   8   8   8   8
#     4   9  17  31  54  84 114 146 187 230 269 316
#     4  11  24  41  57  76 107 146 187 230 278 326
#     4   9  17  31  52  77 105 137 173 215 269 333
#     4  10  19  35  58  80 107 146 191 230 265 316
#     4  10  21  36  54  76 104 139 177 221 277 328
#     4   9  18  33  56  86 119 151 179 218 278 333
#     4   9  18  33  55  83 112 141 174 217 273 333
#     4  11  21  36  58  83 108 137 179 228 274 327
#
# _framework density 18.546468000000001
#
# number of rings (size 3 to 8) (size 9 to 14) (size 15 to 20)
#    0.000    2.250    1.250    3.375    0.000    3.000 
#    0.000    3.125    0.000    9.750    0.000    0.000 
#    0.000    0.000    0.000    0.000    0.000    0.000 
#
# Total GULP energy -793167.785446 kJ/mol
# GULP energy per Si atom -12393.246648 kJ/mol
# Density = 1.850426 g / cm^3
# Si number density = 18.546468 Si / 1000 Ang^3
#
#
#
# Elastic Constant Matrix: (Units=GPa)
#
#
# Indices 1 2 3 4 5 6 
#
# 1 90.3060 48.6564 50.0619 0.0000 0.0000 0.0000
# 2 48.6564 104.4682 56.1509 0.0000 0.0000 0.0000
# 3 50.0619 56.1509 119.9443 0.0000 0.0000 0.0000
# 4 0.0000 0.0000 0.0000 3.9883 0.0000 0.0000
# 5 0.0000 0.0000 0.0000 0.0000 25.3835 0.0000
# 6 0.0000 0.0000 0.0000 0.0000 0.0000 28.4734
#
#
#
# Elastic Compliance Matrix: (Units=1/GPa)
#
#
# Indices 1 2 3 4 5 6 
#
# 1 0.016320 -0.005265 -0.004347 0.000000 0.000000 0.000000
# 2 -0.005265 0.014489 -0.004586 0.000000 0.000000 0.000000
# 3 -0.004347 -0.004586 0.012298 0.000000 0.000000 0.000000
# 4 0.000000 0.000000 0.000000 0.250736 0.000000 0.000000
# 5 0.000000 0.000000 0.000000 0.000000 0.039396 0.000000
# 6 0.000000 0.000000 0.000000 0.000000 0.000000 0.035121
#
#
# Mechanical properties :
#
#
# Convention : Reuss Voigt Hill
#
# Bulk Modulus (GPa) = 67.96795 69.38411 68.67603
# Shear Modulus (GPa) = 12.44842 22.22564 17.33703
#
# Velocity S-wave (km/s) = 2.59357 3.46551 3.06075
# Velocity P-wave (km/s) = 6.75986 7.31472 7.04276
#
# Compressibility (1/GPa) = 0.01471282
#
# Stress axis : x y z
#
# Youngs Moduli (GPa) = 61.27559 69.01793 81.31259
#
# Poissons Ratio (x) = 0.36335 0.35346
# Poissons Ratio (y) = 0.32259 0.37287
# Poissons Ratio (z) = 0.26636 0.31649
#
# Static dielectric constant tensor:
#      x y z
#    x 3.467500 0.000000 0.000000 
#    y 0.000000 3.355900 0.000000 
#    z 0.000000 0.000000 3.495860 
# 
# 
# High freq. dielectric constant tensor:
#      x y z
#    x 1.723890 0.000000 0.000000 
#    y 0.000000 1.713360 0.000000 
#    z 0.000000 0.000000 1.710960 
# 
# From -- ./inp_files/8710.got.cif
#   From: 2010.03.12/outbox.cif.g09.slc.cpg/sg51_5_cif.got.tgz:8710.got - 2010.04.16 13:43:02.
