data_PCOD8209648
_publ_section_title
;
Structure prediction by ZEFSAII (Michael W. Deem and Ramdas Pophale) SiO2 
 PCOD8209648
Probable space group: P M M A
;
_chemical_formula_sum "Si O2"
_cell_formula_units_Z 40
_cell_length_a 9.675634
_cell_length_b 14.485038
_cell_length_c 12.671537
_cell_angle_alpha 90.000000
_cell_angle_beta 90.000000
_cell_angle_gamma 90.000000
_cell_volume 1775.940318
_symmetry_space_group_name_H-M "P M M A"
_symmetry_group_IT_number 51
_symmetry_cell_setting 'orthorhombic'
loop_
_space_group_symop_operation_xyz
x,y,z
1/2-x,-y,z
1/2+x,-y,-z
-x,y,-z
-x,-y,-z
1/2+x,y,-z
1/2-x,y,z
x,-y,z
loop_
_atom_site_type_symbol
_atom_site_label
_atom_site_fract_x
_atom_site_fract_y
_atom_site_fract_z
Si Si1 0.250000 0.211640 0.024246
Si Si2 0.750000 0.895707 0.167176
Si Si3 0.000000 0.662514 0.000000
Si Si4 0.588147 0.296444 0.402326
Si Si5 0.750000 0.897416 0.767623
Si Si6 0.463372 0.105715 0.668623
Si Si7 0.088270 0.604399 0.224912
O O1 0.374982 0.269870 0.981295
O O2 0.250000 0.183976 0.146194
O O3 0.250000 0.117796 0.957391
O O4 0.611373 0.859673 0.223779
O O5 0.750000 0.000000 0.194512
O O6 0.030351 0.602631 0.104742
O O7 0.500000 0.338520 0.500000
O O8 0.750000 0.328823 0.404775
O O9 0.582696 0.184192 0.414408
O O10 0.509658 0.330941 0.296482
O O11 0.875843 0.885713 0.689075
O O12 0.750000 0.000000 0.820570
O O13 0.425262 0.000000 0.631611
O O14 0.250000 0.638115 0.225335
O O15 0.079493 0.500000 0.267867
#
# Coordination Sequence:
#
# PCOD8209648 Si02
#       7
#     4   4   4   8   4   8   8
#     4  12  21  34  57  92 134 178 230 284 342 402
#     4  10  19  34  55  85 129 179 230 280 335 396
#     4  12  25  40  67 104 138 178 227 280 344 420
#     4  12  27  46  74 107 140 182 231 286 349 417
#     4  10  21  36  57  87 129 185 240 288 339 398
#     4  10  22  40  63  92 133 182 231 283 338 401
#     4  11  26  50  75 102 141 183 230 288 348 416
#
# _framework density 22.52328
#
# number of rings (size 3 to 8) (size 9 to 14) (size 15 to 20)
#    0.000    1.000    2.000    4.800    4.200    1.200 
#    0.000    4.000    0.000    0.000    0.000    0.000 
#    0.000    0.000    0.000    0.000    0.000    0.000 
#
# Total GULP energy -495530.659879 kJ/mol
# GULP energy per Si atom -12388.266497 kJ/mol
# Density = 2.247202 g / cm^3
# Si number density = 22.523280 Si / 1000 Ang^3
#
#
#
# Elastic Constant Matrix: (Units=GPa)
#
#
# Indices 1 2 3 4 5 6 
#
# 1 178.9313 34.2567 38.1166 0.0000 0.0000 0.0000
# 2 34.2567 76.2344 20.5604 0.0000 0.0000 0.0000
# 3 38.1166 20.5604 99.1287 0.0000 0.0000 0.0000
# 4 0.0000 0.0000 0.0000 18.2523 0.0000 0.0000
# 5 0.0000 0.0000 0.0000 0.0000 -13.1024 0.0000
# 6 0.0000 0.0000 0.0000 0.0000 0.0000 32.0779
#
#
#
# Elastic Compliance Matrix: (Units=1/GPa)
#
#
# Indices 1 2 3 4 5 6 
#
# 1 0.006467 -0.002368 -0.001996 0.000000 0.000000 0.000000
# 2 -0.002368 0.014762 -0.002151 0.000000 0.000000 0.000000
# 3 -0.001996 -0.002151 0.011301 0.000000 0.000000 0.000000
# 4 0.000000 0.000000 0.000000 0.054788 0.000000 0.000000
# 5 0.000000 0.000000 0.000000 0.000000 -0.076322 0.000000
# 6 0.000000 0.000000 0.000000 0.000000 0.000000 0.031174
#
#
# Mechanical properties :
#
#
# Convention : Reuss Voigt Hill
#
# Bulk Modulus (GPa) = 51.27992 60.01795 55.64893
# Shear Modulus (GPa) = 81.03749 24.86962 52.95355
#
# Velocity S-wave (km/s) = 6.00479 3.32652 4.85403
# Velocity P-wave (km/s) = 8.41984 6.43888 7.49509
#
# Compressibility (1/GPa) = 0.01950081
#
# Stress axis : x y z
#
# Youngs Moduli (GPa) = 154.62681 67.74306 88.48434
#
# Poissons Ratio (x) = 0.16041 0.17658
# Poissons Ratio (y) = 0.36614 0.19035
# Poissons Ratio (z) = 0.30857 0.14573
#
# Static dielectric constant tensor:
#      x y z
#    x 4.183510 0.000000 0.000000 
#    y 0.000000 4.021380 0.000000 
#    z 0.000000 0.000000 3.746390 
# 
# 
# High freq. dielectric constant tensor:
#      x y z
#    x 1.906890 0.000000 0.000000 
#    y 0.000000 1.885460 0.000000 
#    z 0.000000 0.000000 1.870100 
# 
# From -- ./inp_files/20602.got.cif
#   From: 2010.03.12/outbox.cif.g09.slc.cpg/sg51_11_cif.got.tgz:20602.got - 2010.04.16 13:43:02.
