data_PCOD8209942
_publ_section_title
;
Structure prediction by ZEFSAII (Michael W. Deem and Ramdas Pophale) SiO2 
 PCOD8209942
Probable space group: P M M A
;
_chemical_formula_sum "Si O2"
_cell_formula_units_Z 48
_cell_length_a 23.230837
_cell_length_b 8.896077
_cell_length_c 12.709765
_cell_angle_alpha 90.000000
_cell_angle_beta 90.000000
_cell_angle_gamma 90.000000
_cell_volume 2626.642164
_symmetry_space_group_name_H-M "P M M A"
_symmetry_group_IT_number 51
_symmetry_cell_setting 'orthorhombic'
loop_
_space_group_symop_operation_xyz
x,y,z
1/2-x,-y,z
1/2+x,-y,-z
-x,y,-z
-x,-y,-z
1/2+x,y,-z
1/2-x,y,z
x,-y,z
loop_
_atom_site_type_symbol
_atom_site_label
_atom_site_fract_x
_atom_site_fract_y
_atom_site_fract_z
Si Si1 0.184151 0.825739 0.507866
Si Si2 0.493218 0.324188 0.616305
Si Si3 0.683713 0.326215 0.887505
Si Si4 0.316232 0.823773 0.896779
Si Si5 0.117915 0.675382 0.319593
Si Si6 0.373043 0.678427 0.701108
O O1 0.250000 0.797200 0.475720
O O2 0.144344 0.768229 0.414560
O O3 0.171734 0.737047 0.614862
O O4 0.171552 0.000000 0.528301
O O5 0.500000 0.251432 0.500000
O O6 0.482956 0.500000 0.601687
O O7 0.549763 0.290882 0.685731
O O8 0.436905 0.258529 0.674021
O O9 0.750000 0.298331 0.857097
O O10 0.672241 0.500000 0.914299
O O11 0.645294 0.271368 0.789856
O O12 0.665079 0.227626 0.987040
O O13 0.250000 0.778442 0.876018
O O14 0.356633 0.739752 0.814891
O O15 0.325666 0.000000 0.885833
O O16 0.130437 0.500000 0.340759
O O17 0.370567 0.500000 0.703913
#
# Coordination Sequence:
#
# PCOD8209942 Si02
#       6
#     8   8   8   8   8   8
#     4  11  23  35  49  76 113 144 173 217 272 326
#     4   9  17  33  55  80 108 140 178 221 267 314
#     4   9  18  33  55  82 107 135 177 223 265 316
#     4  10  21  37  56  78 108 143 176 218 273 325
#     4  10  19  35  58  81 107 140 181 225 266 313
#     4  11  21  35  57  80 105 140 182 224 265 314
#
# _framework density 18.274281999999999
#
# number of rings (size 3 to 8) (size 9 to 14) (size 15 to 20)
#    0.000    2.000    1.667    2.500    0.000    5.667 
#    0.000    5.000    0.000    5.000    0.000    0.000 
#    0.000    0.000    0.000    0.000    0.000    0.000 
#
# Total GULP energy -595333.594228 kJ/mol
# GULP energy per Si atom -12402.783213 kJ/mol
# Density = 1.823269 g / cm^3
# Si number density = 18.274282 Si / 1000 Ang^3
#
#
#
# Elastic Constant Matrix: (Units=GPa)
#
#
# Indices 1 2 3 4 5 6 
#
# 1 87.4450 29.5868 52.3360 0.0000 0.0000 0.0000
# 2 29.5868 56.2643 36.7476 0.0000 0.0000 0.0000
# 3 52.3360 36.7476 120.6533 0.0000 0.0000 0.0000
# 4 0.0000 0.0000 0.0000 15.3054 0.0000 0.0000
# 5 0.0000 0.0000 0.0000 0.0000 26.6606 0.0000
# 6 0.0000 0.0000 0.0000 0.0000 0.0000 11.9695
#
#
#
# Elastic Compliance Matrix: (Units=1/GPa)
#
#
# Indices 1 2 3 4 5 6 
#
# 1 0.016499 -0.004995 -0.005635 0.000000 0.000000 0.000000
# 2 -0.004995 0.023699 -0.005051 0.000000 0.000000 0.000000
# 3 -0.005635 -0.005051 0.012271 0.000000 0.000000 0.000000
# 4 0.000000 0.000000 0.000000 0.065336 0.000000 0.000000
# 5 0.000000 0.000000 0.000000 0.000000 0.037509 0.000000
# 6 0.000000 0.000000 0.000000 0.000000 0.000000 0.083546
#
#
# Mechanical properties :
#
#
# Convention : Reuss Voigt Hill
#
# Bulk Modulus (GPa) = 47.38160 55.74483 51.56321
# Shear Modulus (GPa) = 18.03373 20.49991 19.26682
#
# Velocity S-wave (km/s) = 3.14480 3.35295 3.25054
# Velocity P-wave (km/s) = 6.25865 6.74985 6.50888
#
# Compressibility (1/GPa) = 0.02110524
#
# Stress axis : x y z
#
# Youngs Moduli (GPa) = 60.61118 42.19547 81.49248
#
# Poissons Ratio (x) = 0.21078 0.45922
# Poissons Ratio (y) = 0.30278 0.41164
# Poissons Ratio (z) = 0.34155 0.21314
#
# Static dielectric constant tensor:
#      x y z
#    x 3.529400 0.000000 0.000000 
#    y 0.000000 3.236170 0.000000 
#    z 0.000000 0.000000 3.403570 
# 
# 
# High freq. dielectric constant tensor:
#      x y z
#    x 1.709120 0.000000 0.000000 
#    y 0.000000 1.695620 0.000000 
#    z 0.000000 0.000000 1.709690 
# 
# From -- ./inp_files/18551.got.cif
#   From: 2010.03.12/outbox.cif.g09.slc.cpg/sg51_10_cif.got.tgz:18551.got - 2010.04.16 13:43:02.
