data_PCOD8209373
_publ_section_title
;
Structure prediction by ZEFSAII (Michael W. Deem and Ramdas Pophale) SiO2 
 PCOD8209373
Probable space group: P M M A
;
_chemical_formula_sum "Si O2"
_cell_formula_units_Z 40
_cell_length_a 29.052081
_cell_length_b 8.920805
_cell_length_c 7.951581
_cell_angle_alpha 90.000000
_cell_angle_beta 90.000000
_cell_angle_gamma 90.000000
_cell_volume 2060.794943
_symmetry_space_group_name_H-M "P M M A"
_symmetry_group_IT_number 51
_symmetry_cell_setting 'orthorhombic'
loop_
_space_group_symop_operation_xyz
x,y,z
1/2-x,-y,z
1/2+x,-y,-z
-x,y,-z
-x,-y,-z
1/2+x,y,-z
1/2-x,y,z
x,-y,z
loop_
_atom_site_type_symbol
_atom_site_label
_atom_site_fract_x
_atom_site_fract_y
_atom_site_fract_z
Si Si1 0.049680 0.823762 0.062685
Si Si2 0.197926 0.679004 0.243705
Si Si3 0.643398 0.673732 0.438607
Si Si4 0.952923 0.326685 0.587730
Si Si5 0.638436 0.321616 0.069876
O O1 0.056466 0.777446 0.254383
O O2 0.055640 0.000000 0.043597
O O3 0.087605 0.743711 0.949318
O O4 0.000000 0.768726 0.000000
O O5 0.250000 0.738957 0.239866
O O6 0.196395 0.500000 0.244059
O O7 0.173073 0.747767 0.410041
O O8 0.172001 0.738723 0.076782
O O9 0.655016 0.500000 0.447897
O O10 0.589003 0.701984 0.460468
O O11 0.657525 0.732899 0.252722
O O12 0.954969 0.500000 0.645411
O O13 0.000000 0.276226 0.500000
O O14 0.634357 0.500000 0.064458
#
# Coordination Sequence:
#
# PCOD8209373 Si02
#       5
#     8   8   8   8   8
#     4  11  23  36  51  76 111 146 183 225 273 326
#     4   9  17  30  51  82 115 140 171 222 275 322
#     4   9  17  30  50  79 109 137 173 219 267 317
#     4  10  19  33  54  79 107 140 183 226 266 319
#     4  10  19  34  57  80 108 144 182 222 268 320
#
# _framework density 19.409984999999999
#
# number of rings (size 3 to 8) (size 9 to 14) (size 15 to 20)
#    0.000    2.200    2.000    1.800    0.000    4.400 
#    0.000    5.000    0.000    0.600    0.000    0.000 
#    0.000    0.000    0.000    0.000    0.000    0.000 
#
# Total GULP energy -495912.905308 kJ/mol
# GULP energy per Si atom -12397.822633 kJ/mol
# Density = 1.936581 g / cm^3
# Si number density = 19.409985 Si / 1000 Ang^3
#
#
#
# Elastic Constant Matrix: (Units=GPa)
#
#
# Indices 1 2 3 4 5 6 
#
# 1 138.3143 15.8746 78.4779 0.0000 0.0000 0.0000
# 2 15.8746 16.8111 17.6927 0.0000 0.0000 0.0000
# 3 78.4779 17.6927 186.2778 0.0000 0.0000 0.0000
# 4 0.0000 0.0000 0.0000 6.3287 0.0000 0.0000
# 5 0.0000 0.0000 0.0000 0.0000 30.9486 0.0000
# 6 0.0000 0.0000 0.0000 0.0000 0.0000 8.5543
#
#
#
# Elastic Compliance Matrix: (Units=1/GPa)
#
#
# Indices 1 2 3 4 5 6 
#
# 1 0.009944 -0.005534 -0.003664 0.000000 0.000000 0.000000
# 2 -0.005534 0.069171 -0.004238 0.000000 0.000000 0.000000
# 3 -0.003664 -0.004238 0.007314 0.000000 0.000000 0.000000
# 4 0.000000 0.000000 0.000000 0.158011 0.000000 0.000000
# 5 0.000000 0.000000 0.000000 0.000000 0.032312 0.000000
# 6 0.000000 0.000000 0.000000 0.000000 0.000000 0.116901
#
#
# Mechanical properties :
#
#
# Convention : Reuss Voigt Hill
#
# Bulk Modulus (GPa) = 16.79063 62.83265 39.81164
# Shear Modulus (GPa) = 11.35390 24.45683 17.90537
#
# Velocity S-wave (km/s) = 2.42120 3.55352 3.04053
# Velocity P-wave (km/s) = 4.06024 7.01984 5.73427
#
# Compressibility (1/GPa) = 0.05955703
#
# Stress axis : x y z
#
# Youngs Moduli (GPa) = 100.56542 14.45688 136.71728
#
# Poissons Ratio (x) = 0.08001 0.50088
# Poissons Ratio (y) = 0.55654 0.57947
# Poissons Ratio (z) = 0.36843 0.06127
#
# Static dielectric constant tensor:
#      x y z
#    x 3.722470 0.000000 0.000000 
#    y 0.000000 2.995140 0.000000 
#    z 0.000000 0.000000 3.920660 
# 
# 
# High freq. dielectric constant tensor:
#      x y z
#    x 1.757850 0.000000 0.000000 
#    y 0.000000 1.696690 0.000000 
#    z 0.000000 0.000000 1.773260 
# 
# From -- ./inp_files/12084.got.cif
#   From: 2010.03.12/outbox.cif.g09.slc.cpg/sg51_7_cif.got.tgz:12084.got - 2010.04.16 13:43:02.
