data_PCOD8209617
_publ_section_title
;
Structure prediction by ZEFSAII (Michael W. Deem and Ramdas Pophale) SiO2 
 PCOD8209617
Probable space group: P M M A
;
_chemical_formula_sum "Si O2"
_cell_formula_units_Z 64
_cell_length_a 8.733662
_cell_length_b 24.657769
_cell_length_c 15.241190
_cell_angle_alpha 90.000000
_cell_angle_beta 90.000000
_cell_angle_gamma 90.000000
_cell_volume 3282.230200
_symmetry_space_group_name_H-M "P M M A"
_symmetry_group_IT_number 51
_symmetry_cell_setting 'orthorhombic'
loop_
_space_group_symop_operation_xyz
x,y,z
1/2-x,-y,z
1/2+x,-y,-z
-x,y,-z
-x,-y,-z
1/2+x,y,-z
1/2-x,y,z
x,-y,z
loop_
_atom_site_type_symbol
_atom_site_label
_atom_site_fract_x
_atom_site_fract_y
_atom_site_fract_z
Si Si1 0.430291 0.742122 0.678563
Si Si2 0.922790 0.832220 0.912537
Si Si3 0.073693 0.438626 0.258070
Si Si4 0.925763 0.287080 0.858163
Si Si5 0.930987 0.643058 0.590018
Si Si6 0.067791 0.146388 0.280457
Si Si7 0.572294 0.936530 0.408410
Si Si8 0.069310 0.395442 0.913397
O O1 0.250000 0.745922 0.665970
O O2 0.470723 0.716945 0.772236
O O3 0.500425 0.702912 0.605066
O O4 0.501183 0.801955 0.667903
O O5 0.750000 0.852004 0.917311
O O6 0.937897 0.767230 0.915374
O O7 0.993747 0.854305 0.820627
O O8 0.000000 0.856696 0.000000
O O9 0.250000 0.426871 0.233922
O O10 0.051204 0.500000 0.291580
O O11 0.016715 0.398099 0.333615
O O12 0.971855 0.430004 0.172007
O O13 0.750000 0.297351 0.829175
O O14 0.989911 0.336572 0.913567
O O15 0.750000 0.646583 0.583147
O O16 0.000000 0.619852 0.500000
O O17 0.250000 0.151211 0.280687
O O18 0.012468 0.092163 0.327819
O O19 0.500000 0.916864 0.500000
O O20 0.750000 0.921034 0.408564
O O21 0.545050 0.000000 0.394838
O O22 0.250000 0.389423 0.921350
O O23 0.000000 0.424905 0.000000
#
# Coordination Sequence:
#
# PCOD8209617 Si02
#       8
#     8   8   8   8   8   8   8   8
#     4  11  21  35  57  86 119 154 193 234 287 346
#     4   9  19  32  50  78 114 154 194 236 283 333
#     4  10  23  44  66  85 111 148 188 237 293 348
#     4  10  19  34  54  80 115 152 190 234 283 341
#     4  11  23  40  63  88 118 150 188 236 288 350
#     4  10  21  37  57  85 121 160 200 243 292 345
#     4  10  21  38  61  89 119 153 196 246 298 353
#     4  12  24  37  58  86 115 150 190 235 287 346
#
# _framework density 19.498937999999999
#
# number of rings (size 3 to 8) (size 9 to 14) (size 15 to 20)
#    0.000    1.625    1.250    4.875    0.000    6.500 
#    0.000    2.500    0.000    0.375    0.000    0.000 
#    0.000    0.000    0.000    0.000    0.000    0.000 
#
# Total GULP energy -793723.213379 kJ/mol
# GULP energy per Si atom -12401.925209 kJ/mol
# Density = 1.945456 g / cm^3
# Si number density = 19.498938 Si / 1000 Ang^3
#
#
#
# Elastic Constant Matrix: (Units=GPa)
#
#
# Indices 1 2 3 4 5 6 
#
# 1 104.4352 34.6897 45.8998 0.0000 0.0000 0.0000
# 2 34.6897 70.5437 48.9395 0.0000 0.0000 0.0000
# 3 45.8998 48.9395 122.3951 0.0000 0.0000 0.0000
# 4 0.0000 0.0000 0.0000 -12.2158 0.0000 0.0000
# 5 0.0000 0.0000 0.0000 0.0000 35.9346 0.0000
# 6 0.0000 0.0000 0.0000 0.0000 0.0000 26.7107
#
#
#
# Elastic Compliance Matrix: (Units=1/GPa)
#
#
# Indices 1 2 3 4 5 6 
#
# 1 0.012197 -0.003909 -0.003011 0.000000 0.000000 0.000000
# 2 -0.003909 0.020870 -0.006879 0.000000 0.000000 0.000000
# 3 -0.003011 -0.006879 0.012050 0.000000 0.000000 0.000000
# 4 0.000000 0.000000 0.000000 -0.081861 0.000000 0.000000
# 5 0.000000 0.000000 0.000000 0.000000 0.027828 0.000000
# 6 0.000000 0.000000 0.000000 0.000000 0.000000 0.037438
#
#
# Mechanical properties :
#
#
# Convention : Reuss Voigt Hill
#
# Bulk Modulus (GPa) = 57.08031 61.82579 59.45305
# Shear Modulus (GPa) = 80.69679 21.27556 50.98618
#
# Velocity S-wave (km/s) = 6.44011 3.30678 5.11908
# Velocity P-wave (km/s) = 9.19985 6.80851 8.09299
#
# Compressibility (1/GPa) = 0.01751918
#
# Stress axis : x y z
#
# Youngs Moduli (GPa) = 81.98649 47.91545 82.98757
#
# Poissons Ratio (x) = 0.18730 0.24988
# Poissons Ratio (y) = 0.32048 0.57087
# Poissons Ratio (z) = 0.24687 0.32961
#
# Static dielectric constant tensor:
#      x y z
#    x 3.555550 0.000000 0.000000 
#    y 0.000000 3.404410 0.000000 
#    z 0.000000 0.000000 3.613060 
# 
# 
# High freq. dielectric constant tensor:
#      x y z
#    x 1.766060 0.000000 0.000000 
#    y 0.000000 1.737990 0.000000 
#    z 0.000000 0.000000 1.764550 
# 
# From -- ./inp_files/22231.got.cif
#   From: 2010.03.12/outbox.cif.g09.slc.cpg/sg51_12_cif.got.tgz:22231.got - 2010.04.16 13:43:02.
