data_PCOD8209530
_publ_section_title
;
Structure prediction by ZEFSAII (Michael W. Deem and Ramdas Pophale) SiO2 
 PCOD8209530
Probable space group: P M M A
;
_chemical_formula_sum "Si O2"
_cell_formula_units_Z 64
_cell_length_a 28.707294
_cell_length_b 8.939781
_cell_length_c 12.706266
_cell_angle_alpha 90.000000
_cell_angle_beta 90.000000
_cell_angle_gamma 90.000000
_cell_volume 3260.896990
_symmetry_space_group_name_H-M "P M M A"
_symmetry_group_IT_number 51
_symmetry_cell_setting 'orthorhombic'
loop_
_space_group_symop_operation_xyz
x,y,z
1/2-x,-y,z
1/2+x,-y,-z
-x,y,-z
-x,-y,-z
1/2+x,y,-z
1/2-x,y,z
x,-y,z
loop_
_atom_site_type_symbol
_atom_site_label
_atom_site_fract_x
_atom_site_fract_y
_atom_site_fract_z
Si Si1 0.196764 0.674898 0.006532
Si Si2 0.877659 0.176260 0.844073
Si Si3 0.803303 0.323059 0.435420
Si Si4 0.945738 0.669343 0.484066
Si Si5 0.130515 0.175307 0.396162
Si Si6 0.159785 0.323446 0.786811
Si Si7 0.441431 0.677138 0.749084
Si Si8 0.975853 0.675133 0.889312
O O1 0.250000 0.705563 0.038866
O O2 0.184156 0.500000 0.014362
O O3 0.163819 0.765078 0.083907
O O4 0.189395 0.733018 0.886670
O O5 0.864338 0.222611 0.725307
O O6 0.926773 0.243505 0.880071
O O7 0.881656 0.000000 0.855959
O O8 0.750000 0.275618 0.448881
O O9 0.809987 0.500000 0.438318
O O10 0.830916 0.255667 0.533441
O O11 0.821490 0.256297 0.323660
O O12 0.926374 0.500000 0.494687
O O13 0.920941 0.773378 0.569177
O O14 0.935422 0.736552 0.369182
O O15 0.000000 0.673028 0.500000
O O16 0.135925 0.000000 0.411530
O O17 0.164658 0.500000 0.776926
O O18 0.106023 0.276593 0.808941
O O19 0.447570 0.500000 0.747900
O O20 0.487714 0.742702 0.803833
O O21 0.966536 0.500000 0.872692
O O22 0.000000 0.707039 0.000000
#
# Coordination Sequence:
#
# PCOD8209530 Si02
#       8
#     8   8   8   8   8   8   8   8
#     4  10  21  38  63  91 114 143 190 250 307 357
#     4  11  25  42  58  80 118 164 202 240 291 351
#     4  10  20  36  62  91 117 150 194 246 300 353
#     4  10  19  33  56  84 113 148 192 242 289 336
#     4  11  24  40  56  79 117 161 200 239 287 347
#     4   9  16  32  59  91 122 145 179 238 303 358
#     4   9  16  28  52  85 117 148 183 230 288 344
#     4  10  20  36  61  91 118 151 197 246 295 346
#
# _framework density 19.626501000000001
#
# number of rings (size 3 to 8) (size 9 to 14) (size 15 to 20)
#    0.000    2.000    1.250    2.625    0.000    8.000 
#    0.000    3.750    0.000    1.500    0.000    0.000 
#    0.000    0.000    0.000    0.000    0.000    0.000 
#
# Total GULP energy -793500.243855 kJ/mol
# GULP energy per Si atom -12398.441310 kJ/mol
# Density = 1.958183 g / cm^3
# Si number density = 19.626501 Si / 1000 Ang^3
#
#
#
# Elastic Constant Matrix: (Units=GPa)
#
#
# Indices 1 2 3 4 5 6 
#
# 1 138.0261 39.3607 77.0678 0.0000 0.0000 0.0000
# 2 39.3607 40.1406 48.8381 0.0000 0.0000 0.0000
# 3 77.0678 48.8381 134.9274 0.0000 0.0000 0.0000
# 4 0.0000 0.0000 0.0000 19.3738 0.0000 0.0000
# 5 0.0000 0.0000 0.0000 0.0000 34.6991 0.0000
# 6 0.0000 0.0000 0.0000 0.0000 0.0000 9.8541
#
#
#
# Elastic Compliance Matrix: (Units=1/GPa)
#
#
# Indices 1 2 3 4 5 6 
#
# 1 0.011344 -0.005790 -0.004384 0.000000 0.000000 0.000000
# 2 -0.005790 0.047472 -0.013876 0.000000 0.000000 0.000000
# 3 -0.004384 -0.013876 0.014938 0.000000 0.000000 0.000000
# 4 0.000000 0.000000 0.000000 0.051616 0.000000 0.000000
# 5 0.000000 0.000000 0.000000 0.000000 0.028819 0.000000
# 6 0.000000 0.000000 0.000000 0.000000 0.000000 0.101481
#
#
# Mechanical properties :
#
#
# Convention : Reuss Voigt Hill
#
# Bulk Modulus (GPa) = 38.97892 71.51414 55.24653
# Shear Modulus (GPa) = 16.00921 22.64057 19.32489
#
# Velocity S-wave (km/s) = 2.85913 3.40011 3.14129
# Velocity P-wave (km/s) = 5.55004 7.20632 6.43172
#
# Compressibility (1/GPa) = 0.02565489
#
# Stress axis : x y z
#
# Youngs Moduli (GPa) = 88.15454 21.06493 66.94466
#
# Poissons Ratio (x) = 0.12196 0.29346
# Poissons Ratio (y) = 0.51041 0.92892
# Poissons Ratio (z) = 0.38643 0.29230
#
# Static dielectric constant tensor:
#      x y z
#    x 4.017850 0.000000 0.000000 
#    y 0.000000 3.240960 0.000000 
#    z 0.000000 0.000000 3.998680 
# 
# 
# High freq. dielectric constant tensor:
#      x y z
#    x 1.780860 0.000000 0.000000 
#    y 0.000000 1.721870 0.000000 
#    z 0.000000 0.000000 1.778150 
# 
# From -- ./inp_files/19619.got.cif
#   From: 2010.03.12/outbox.cif.g09.slc.cpg/sg51_10_cif.got.tgz:19619.got - 2010.04.16 13:43:02.
