data_PCOD8209762
_publ_section_title
;
Structure prediction by ZEFSAII (Michael W. Deem and Ramdas Pophale) SiO2 
 PCOD8209762
Probable space group: P M M A
;
_chemical_formula_sum "Si O2"
_cell_formula_units_Z 64
_cell_length_a 22.470594
_cell_length_b 8.710746
_cell_length_c 17.377409
_cell_angle_alpha 90.000000
_cell_angle_beta 90.000000
_cell_angle_gamma 90.000000
_cell_volume 3401.378217
_symmetry_space_group_name_H-M "P M M A"
_symmetry_group_IT_number 51
_symmetry_cell_setting 'orthorhombic'
loop_
_space_group_symop_operation_xyz
x,y,z
1/2-x,-y,z
1/2+x,-y,-z
-x,y,-z
-x,-y,-z
1/2+x,y,-z
1/2-x,y,z
x,-y,z
loop_
_atom_site_type_symbol
_atom_site_label
_atom_site_fract_x
_atom_site_fract_y
_atom_site_fract_z
Si Si1 0.818542 0.674984 0.560248
Si Si2 0.912954 0.819734 0.146453
Si Si3 0.593296 0.177395 0.672896
Si Si4 0.137474 0.820540 0.593654
Si Si5 0.929753 0.672165 0.991056
Si Si6 0.951465 0.820501 0.838004
Si Si7 0.987829 0.326254 0.410471
Si Si8 0.183466 0.322576 0.740981
O O1 0.750000 0.694240 0.581557
O O2 0.834595 0.500000 0.538142
O O3 0.854657 0.721252 0.636254
O O4 0.834430 0.782520 0.488782
O O5 0.865415 0.734505 0.199091
O O6 0.979687 0.765229 0.169977
O O7 0.904572 0.000000 0.157796
O O8 0.900038 0.774692 0.057803
O O9 0.585546 0.221475 0.762038
O O10 0.531261 0.209130 0.631343
O O11 0.609695 0.000000 0.662603
O O12 0.078296 0.724442 0.608899
O O13 0.181877 0.773309 0.661659
O O14 0.123168 0.000000 0.596464
O O15 0.904373 0.500000 0.997284
O O16 0.915501 0.739703 0.907015
O O17 0.000000 0.675817 0.000000
O O18 0.952507 0.000000 0.855414
O O19 0.998092 0.500000 0.381102
O O20 0.000000 0.313770 0.500000
O O21 0.250000 0.299826 0.775367
O O22 0.171249 0.500000 0.722146
#
# Coordination Sequence:
#
# PCOD8209762 Si02
#       8
#     8   8   8   8   8   8   8   8
#     4  11  24  41  58  76 103 142 187 231 277 330
#     4  10  19  34  57  83 114 149 182 222 274 331
#     4  11  22  36  57  84 113 144 183 231 279 328
#     4  12  24  38  59  83 109 142 185 234 281 330
#     4   9  17  30  52  82 113 145 178 214 261 321
#     4   9  19  34  53  83 116 144 177 222 279 334
#     4  11  22  36  56  81 112 147 182 223 278 336
#     4  11  24  40  57  79 111 150 191 235 280 332
#
# _framework density 18.815902000000001
#
# number of rings (size 3 to 8) (size 9 to 14) (size 15 to 20)
#    0.000    1.500    1.250    4.500    0.000    8.000 
#    0.000    0.000    0.000    0.750    0.000    3.500 
#    0.000    0.000    0.000    0.000    0.000    0.000 
#
# Total GULP energy -793803.711543 kJ/mol
# GULP energy per Si atom -12403.182993 kJ/mol
# Density = 1.877308 g / cm^3
# Si number density = 18.815902 Si / 1000 Ang^3
#
#
#
# Elastic Constant Matrix: (Units=GPa)
#
#
# Indices 1 2 3 4 5 6 
#
# 1 75.8628 20.8072 38.1030 0.0000 0.0000 0.0000
# 2 20.8072 62.2929 37.3471 0.0000 0.0000 0.0000
# 3 38.1030 37.3471 113.7534 0.0000 0.0000 0.0000
# 4 0.0000 0.0000 0.0000 37.1375 0.0000 0.0000
# 5 0.0000 0.0000 0.0000 0.0000 17.2857 0.0000
# 6 0.0000 0.0000 0.0000 0.0000 0.0000 26.2943
#
#
#
# Elastic Compliance Matrix: (Units=1/GPa)
#
#
# Indices 1 2 3 4 5 6 
#
# 1 0.016201 -0.002687 -0.004545 0.000000 0.000000 0.000000
# 2 -0.002687 0.020433 -0.005809 0.000000 0.000000 0.000000
# 3 -0.004545 -0.005809 0.012220 0.000000 0.000000 0.000000
# 4 0.000000 0.000000 0.000000 0.026927 0.000000 0.000000
# 5 0.000000 0.000000 0.000000 0.000000 0.057851 0.000000
# 6 0.000000 0.000000 0.000000 0.000000 0.000000 0.038031
#
#
# Mechanical properties :
#
#
# Convention : Reuss Voigt Hill
#
# Bulk Modulus (GPa) = 43.90870 49.38040 46.64455
# Shear Modulus (GPa) = 24.35041 26.52031 25.43536
#
# Velocity S-wave (km/s) = 3.60132 3.75835 3.68067
# Velocity P-wave (km/s) = 6.37803 6.71823 6.55034
#
# Compressibility (1/GPa) = 0.02277453
#
# Stress axis : x y z
#
# Youngs Moduli (GPa) = 61.72375 48.94018 81.83141
#
# Poissons Ratio (x) = 0.13150 0.37189
# Poissons Ratio (y) = 0.16584 0.47532
# Poissons Ratio (z) = 0.28051 0.28427
#
# Static dielectric constant tensor:
#      x y z
#    x 3.300750 0.000000 0.000000 
#    y 0.000000 3.624920 0.000000 
#    z 0.000000 0.000000 3.551230 
# 
# 
# High freq. dielectric constant tensor:
#      x y z
#    x 1.706920 0.000000 0.000000 
#    y 0.000000 1.744270 0.000000 
#    z 0.000000 0.000000 1.733180 
# 
# From -- ./inp_files/30646.got.cif
#   From: 2010.03.12/outbox.cif.g09.slc.cpg/sg51_16_cif.got.tgz:30646.got - 2010.04.16 13:43:02.
