data_PCOD8209944
_publ_section_title
;
Structure prediction by ZEFSAII (Michael W. Deem and Ramdas Pophale) SiO2 
 PCOD8209944
Probable space group: P M M A
;
_chemical_formula_sum "Si O2"
_cell_formula_units_Z 40
_cell_length_a 29.185959
_cell_length_b 7.757627
_cell_length_c 8.994857
_cell_angle_alpha 90.000000
_cell_angle_beta 90.000000
_cell_angle_gamma 90.000000
_cell_volume 2036.559606
_symmetry_space_group_name_H-M "P M M A"
_symmetry_group_IT_number 51
_symmetry_cell_setting 'orthorhombic'
loop_
_space_group_symop_operation_xyz
x,y,z
1/2-x,-y,z
1/2+x,-y,-z
-x,y,-z
-x,-y,-z
1/2+x,y,-z
1/2-x,y,z
x,-y,z
loop_
_atom_site_type_symbol
_atom_site_label
_atom_site_fract_x
_atom_site_fract_y
_atom_site_fract_z
Si Si1 0.698883 0.000000 0.430301
Si Si2 0.957636 0.299170 0.902659
Si Si3 0.046160 0.195270 0.427453
Si Si4 0.300942 0.000000 0.922445
Si Si5 0.634073 0.303169 0.079821
Si Si6 0.864311 0.691239 0.423824
O O1 0.672220 0.170613 0.485858
O O2 0.750000 0.000000 0.499670
O O3 0.702309 0.000000 0.254077
O O4 0.963244 0.500000 0.866832
O O5 0.957247 0.196546 0.749645
O O6 0.911583 0.258600 0.991335
O O7 0.000000 0.231229 0.000000
O O8 0.089284 0.305337 0.481599
O O9 0.000000 0.273525 0.500000
O O10 0.053061 0.000000 0.483236
O O11 0.326609 0.826849 0.977107
O O12 0.250000 0.000000 0.992055
O O13 0.650221 0.500000 0.051208
O O14 0.623353 0.270334 0.252793
O O15 0.842797 0.500000 0.440784
#
# Coordination Sequence:
#
# PCOD8209944 Si02
#       6
#     4   8   8   4   8   8
#     4   9  18  34  54  83 116 139 178 231 272 325
#     4  10  21  37  55  79 110 144 184 224 267 322
#     4  11  23  36  53  81 113 146 186 226 269 325
#     4   9  18  32  54  81 110 143 176 221 276 321
#     4   9  19  34  55  82 110 142 181 223 267 321
#     4  10  19  35  58  81 111 148 182 223 274 321
#
# _framework density 19.640967
#
# number of rings (size 3 to 8) (size 9 to 14) (size 15 to 20)
#    0.000    2.200    1.000    1.800    1.400    4.400 
#    0.000    4.000    0.000    2.400    0.000    2.800 
#    0.000    0.000    0.000    0.000    0.000    0.000 
#
# Total GULP energy -496087.657846 kJ/mol
# GULP energy per Si atom -12402.191446 kJ/mol
# Density = 1.959626 g / cm^3
# Si number density = 19.640967 Si / 1000 Ang^3
#
#
#
# Elastic Constant Matrix: (Units=GPa)
#
#
# Indices 1 2 3 4 5 6 
#
# 1 166.8123 74.2984 44.8575 0.0000 0.0000 0.0000
# 2 74.2984 116.4471 28.5098 0.0000 0.0000 0.0000
# 3 44.8575 28.5098 70.4403 0.0000 0.0000 0.0000
# 4 0.0000 0.0000 0.0000 20.5365 0.0000 0.0000
# 5 0.0000 0.0000 0.0000 0.0000 21.9583 0.0000
# 6 0.0000 0.0000 0.0000 0.0000 0.0000 25.8222
#
#
#
# Elastic Compliance Matrix: (Units=1/GPa)
#
#
# Indices 1 2 3 4 5 6 
#
# 1 0.009242 -0.004946 -0.003884 0.000000 0.000000 0.000000
# 2 -0.004946 0.012179 -0.001780 0.000000 0.000000 0.000000
# 3 -0.003884 -0.001780 0.017390 0.000000 0.000000 0.000000
# 4 0.000000 0.000000 0.000000 0.048694 0.000000 0.000000
# 5 0.000000 0.000000 0.000000 0.000000 0.045541 0.000000
# 6 0.000000 0.000000 0.000000 0.000000 0.000000 0.038726
#
#
# Mechanical properties :
#
#
# Convention : Reuss Voigt Hill
#
# Bulk Modulus (GPa) = 56.84261 72.11457 64.47859
# Shear Modulus (GPa) = 25.14399 27.39901 26.27150
#
# Velocity S-wave (km/s) = 3.58184 3.73901 3.66127
# Velocity P-wave (km/s) = 6.79042 7.44556 7.12552
#
# Compressibility (1/GPa) = 0.01759244
#
# Stress axis : x y z
#
# Youngs Moduli (GPa) = 108.20071 82.10801 57.50467
#
# Poissons Ratio (x) = 0.40611 0.22333
# Poissons Ratio (y) = 0.53516 0.10234
# Poissons Ratio (z) = 0.42022 0.14612
#
# Static dielectric constant tensor:
#      x y z
#    x 3.678600 0.000000 0.000000 
#    y 0.000000 3.633800 0.000000 
#    z 0.000000 0.000000 3.256060 
# 
# 
# High freq. dielectric constant tensor:
#      x y z
#    x 1.759880 0.000000 0.000000 
#    y 0.000000 1.775760 0.000000 
#    z 0.000000 0.000000 1.737690 
# 
# From -- ./inp_files/12187.got.cif
#   From: 2010.03.12/outbox.cif.g09.slc.cpg/sg51_7_cif.got.tgz:12187.got - 2010.04.16 13:43:02.
