data_PCOD8209730
_publ_section_title
;
Structure prediction by ZEFSAII (Michael W. Deem and Ramdas Pophale) SiO2 
 PCOD8209730
Probable space group: P M M A
;
_chemical_formula_sum "Si O2"
_cell_formula_units_Z 48
_cell_length_a 15.019763
_cell_length_b 9.371920
_cell_length_c 18.955995
_cell_angle_alpha 90.000000
_cell_angle_beta 90.000000
_cell_angle_gamma 90.000000
_cell_volume 2668.322007
_symmetry_space_group_name_H-M "P M M A"
_symmetry_group_IT_number 51
_symmetry_cell_setting 'orthorhombic'
loop_
_space_group_symop_operation_xyz
x,y,z
1/2-x,-y,z
1/2+x,-y,-z
-x,y,-z
-x,-y,-z
1/2+x,y,-z
1/2-x,y,z
x,-y,z
loop_
_atom_site_type_symbol
_atom_site_label
_atom_site_fract_x
_atom_site_fract_y
_atom_site_fract_z
Si Si1 0.853279 0.833065 0.171051
Si Si2 0.250000 0.167104 0.577158
Si Si3 0.250000 0.665677 0.432826
Si Si4 0.508627 0.332054 0.081359
Si Si5 0.585560 0.167485 0.326388
Si Si6 0.089907 0.667676 0.330502
Si Si7 0.651461 0.330635 0.822180
O O1 0.750000 0.793309 0.164731
O O2 0.888361 0.785652 0.247534
O O3 0.905140 0.746213 0.111529
O O4 0.868971 0.000000 0.158903
O O5 0.250000 0.245931 0.503580
O O6 0.335911 0.213034 0.621483
O O7 0.250000 0.000000 0.562332
O O8 0.250000 0.500000 0.452201
O O9 0.163405 0.706557 0.388085
O O10 0.521729 0.500000 0.092868
O O11 0.419418 0.275987 0.120278
O O12 0.500000 0.291426 0.000000
O O13 0.499274 0.251446 0.352490
O O14 0.566762 0.000000 0.330030
O O15 0.070536 0.500000 0.327629
O O16 0.122818 0.724932 0.254720
O O17 0.750000 0.270290 0.840743
O O18 0.655100 0.500000 0.821450
#
# Coordination Sequence:
#
# PCOD8209730 Si02
#       7
#     8   4   4   8   8   8   8
#     4  10  20  36  58  81 108 146 187 227 272 324
#     4  10  22  40  58  78 111 148 180 219 276 335
#     4  10  22  38  56  82 113 142 180 227 274 325
#     4  10  21  35  54  84 116 144 181 229 276 325
#     4  10  20  36  58  82 107 141 186 228 269 324
#     4  10  19  34  57  81 105 140 185 226 269 326
#     4   9  16  30  53  77 104 142 181 218 268 324
#
# _framework density 17.988833
#
# number of rings (size 3 to 8) (size 9 to 14) (size 15 to 20)
#    0.000    2.167    3.333    0.000    0.000    3.333 
#    0.000    5.000    0.000    1.500    0.000    0.000 
#    0.000    0.000    0.000    0.000    0.000    0.000 
#
# Total GULP energy -595312.278419 kJ/mol
# GULP energy per Si atom -12402.339134 kJ/mol
# Density = 1.794789 g / cm^3
# Si number density = 17.988833 Si / 1000 Ang^3
#
#
#
# Elastic Constant Matrix: (Units=GPa)
#
#
# Indices 1 2 3 4 5 6 
#
# 1 171.2361 53.8647 75.2457 0.0000 0.0000 0.0000
# 2 53.8647 36.4497 45.3736 0.0000 0.0000 0.0000
# 3 75.2457 45.3736 137.6908 0.0000 0.0000 0.0000
# 4 0.0000 0.0000 0.0000 27.7877 0.0000 0.0000
# 5 0.0000 0.0000 0.0000 0.0000 28.8640 0.0000
# 6 0.0000 0.0000 0.0000 0.0000 0.0000 32.3686
#
#
#
# Elastic Compliance Matrix: (Units=1/GPa)
#
#
# Indices 1 2 3 4 5 6 
#
# 1 0.011012 -0.014890 -0.001111 0.000000 0.000000 0.000000
# 2 -0.014890 0.066651 -0.013826 0.000000 0.000000 0.000000
# 3 -0.001111 -0.013826 0.012426 0.000000 0.000000 0.000000
# 4 0.000000 0.000000 0.000000 0.035987 0.000000 0.000000
# 5 0.000000 0.000000 0.000000 0.000000 0.034645 0.000000
# 6 0.000000 0.000000 0.000000 0.000000 0.000000 0.030894
#
#
# Mechanical properties :
#
#
# Convention : Reuss Voigt Hill
#
# Bulk Modulus (GPa) = 32.85827 77.14940 55.00383
# Shear Modulus (GPa) = 19.12658 29.19692 24.16175
#
# Velocity S-wave (km/s) = 3.26428 4.03309 3.66888
# Velocity P-wave (km/s) = 5.70202 8.04166 6.97070
#
# Compressibility (1/GPa) = 0.03043374
#
# Stress axis : x y z
#
# Youngs Moduli (GPa) = 90.80918 15.00345 80.47597
#
# Poissons Ratio (x) = 0.22341 0.08941
# Poissons Ratio (y) = 1.35219 1.11269
# Poissons Ratio (z) = 0.10089 0.20744
#
# Static dielectric constant tensor:
#      x y z
#    x 3.541910 0.000000 0.000000 
#    y 0.000000 3.040900 0.000000 
#    z 0.000000 0.000000 3.317640 
# 
# 
# High freq. dielectric constant tensor:
#      x y z
#    x 1.713210 0.000000 0.000000 
#    y 0.000000 1.670400 0.000000 
#    z 0.000000 0.000000 1.698320 
# 
# From -- ./inp_files/29535.got.cif
#   From: 2010.03.12/outbox.cif.g09.slc.cpg/sg51_15_cif.got.tgz:29535.got - 2010.04.16 13:43:02.
