data_PCOD8209164
_publ_section_title
;
Structure prediction by ZEFSAII (Michael W. Deem and Ramdas Pophale) SiO2 
 PCOD8209164
Probable space group: P M M A
;
_chemical_formula_sum "Si O2"
_cell_formula_units_Z 64
_cell_length_a 16.066013
_cell_length_b 14.438813
_cell_length_c 12.599411
_cell_angle_alpha 90.000000
_cell_angle_beta 90.000000
_cell_angle_gamma 90.000000
_cell_volume 2922.737750
_symmetry_space_group_name_H-M "P M M A"
_symmetry_group_IT_number 51
_symmetry_cell_setting 'orthorhombic'
loop_
_space_group_symop_operation_xyz
x,y,z
1/2-x,-y,z
1/2+x,-y,-z
-x,y,-z
-x,-y,-z
1/2+x,y,-z
1/2-x,y,z
x,-y,z
loop_
_atom_site_type_symbol
_atom_site_label
_atom_site_fract_x
_atom_site_fract_y
_atom_site_fract_z
Si Si1 0.349918 0.395319 0.811979
Si Si2 0.653052 0.393564 0.773979
Si Si3 0.343588 0.274151 0.623288
Si Si4 0.409202 0.103531 0.049255
Si Si5 0.088918 0.607779 0.452036
Si Si6 0.150388 0.103147 0.502635
Si Si7 0.154427 0.295724 0.017571
Si Si8 0.658232 0.892725 0.728318
O O1 0.250000 0.395324 0.808489
O O2 0.383654 0.500000 0.796464
O O3 0.388094 0.329411 0.719460
O O4 0.386109 0.354298 0.921887
O O5 0.750000 0.374719 0.748891
O O6 0.639400 0.500000 0.806740
O O7 0.598342 0.366001 0.671680
O O8 0.617858 0.329227 0.869357
O O9 0.250000 0.253859 0.659503
O O10 0.341863 0.338334 0.519057
O O11 0.385033 0.174510 0.591836
O O12 0.357040 0.185892 0.995183
O O13 0.407070 0.124274 0.176069
O O14 0.371289 0.000000 0.027668
O O15 0.500000 0.108320 0.000000
O O16 0.106251 0.500000 0.468114
O O17 0.000000 0.637782 0.500000
O O18 0.250000 0.101788 0.504693
O O19 0.123271 0.142572 0.385621
O O20 0.114679 0.000000 0.526501
O O21 0.250000 0.322068 0.018135
O O22 0.750000 0.848623 0.757110
O O23 0.673198 0.000000 0.709264
#
# Coordination Sequence:
#
# PCOD8209164 Si02
#       8
#     8   8   8   8   8   8   8   8
#     4   9  18  34  55  79 108 144 187 234 282 334
#     4   9  18  34  59  89 116 143 183 239 297 348
#     4  10  19  32  55  81 105 143 194 234 278 342
#     4  10  21  36  52  76 113 151 187 229 281 341
#     4  10  21  36  52  77 115 151 182 226 288 349
#     4   8  15  28  49  81 115 140 174 232 293 343
#     4  10  20  35  58  85 112 145 191 243 293 339
#     4   8  14  27  49  75 103 138 178 225 283 341
#
# _framework density 21.897276999999999
#
# number of rings (size 3 to 8) (size 9 to 14) (size 15 to 20)
#    0.000    2.750    0.000    2.250    1.750    3.500 
#    2.250    0.625    0.000    3.375    0.000    0.000 
#    0.000    0.000    0.000    0.000    0.000    0.000 
#
# Total GULP energy -792912.822973 kJ/mol
# GULP energy per Si atom -12389.262859 kJ/mol
# Density = 2.184744 g / cm^3
# Si number density = 21.897277 Si / 1000 Ang^3
#
#
#
# Elastic Constant Matrix: (Units=GPa)
#
#
# Indices 1 2 3 4 5 6 
#
# 1 28.2317 17.1105 32.6754 0.0000 0.0000 0.0000
# 2 17.1105 144.7618 92.4521 0.0000 0.0000 0.0000
# 3 32.6754 92.4521 165.9746 0.0000 0.0000 0.0000
# 4 0.0000 0.0000 0.0000 36.9724 0.0000 0.0000
# 5 0.0000 0.0000 0.0000 0.0000 9.2878 0.0000
# 6 0.0000 0.0000 0.0000 0.0000 0.0000 13.8217
#
#
#
# Elastic Compliance Matrix: (Units=1/GPa)
#
#
# Indices 1 2 3 4 5 6 
#
# 1 0.045901 0.000537 -0.009335 0.000000 0.000000 0.000000
# 2 0.000537 0.010729 -0.006082 0.000000 0.000000 0.000000
# 3 -0.009335 -0.006082 0.011251 0.000000 0.000000 0.000000
# 4 0.000000 0.000000 0.000000 0.027047 0.000000 0.000000
# 5 0.000000 0.000000 0.000000 0.000000 0.107668 0.000000
# 6 0.000000 0.000000 0.000000 0.000000 0.000000 0.072350
#
#
# Mechanical properties :
#
#
# Convention : Reuss Voigt Hill
#
# Bulk Modulus (GPa) = 26.23366 69.27157 47.75262
# Shear Modulus (GPa) = 15.75239 25.13173 20.44206
#
# Velocity S-wave (km/s) = 2.68503 3.39146 3.05871
# Velocity P-wave (km/s) = 4.64961 6.85853 5.85911
#
# Compressibility (1/GPa) = 0.03811896
#
# Stress axis : x y z
#
# Youngs Moduli (GPa) = 21.78612 93.20899 88.88422
#
# Poissons Ratio (x) = -0.05003 0.82977
# Poissons Ratio (y) = -0.01169 0.54057
# Poissons Ratio (z) = 0.20338 0.56687
#
# Static dielectric constant tensor:
#      x y z
#    x 3.345440 0.000000 0.000000 
#    y 0.000000 4.237930 0.000000 
#    z 0.000000 0.000000 4.182340 
# 
# 
# High freq. dielectric constant tensor:
#      x y z
#    x 1.802050 0.000000 0.000000 
#    y 0.000000 1.873390 0.000000 
#    z 0.000000 0.000000 1.861380 
# 
# From -- ./inp_files/17556.got.cif
#   From: 2010.03.12/outbox.cif.g09.slc.cpg/sg51_9_cif.got.tgz:17556.got - 2010.04.16 13:43:02.
