data_PCOD8209749
_publ_section_title
;
Structure prediction by ZEFSAII (Michael W. Deem and Ramdas Pophale) SiO2 
 PCOD8209749
Probable space group: P M M A
;
_chemical_formula_sum "Si O2"
_cell_formula_units_Z 48
_cell_length_a 33.992232
_cell_length_b 8.871548
_cell_length_c 8.016684
_cell_angle_alpha 90.000000
_cell_angle_beta 90.000000
_cell_angle_gamma 90.000000
_cell_volume 2417.541032
_symmetry_space_group_name_H-M "P M M A"
_symmetry_group_IT_number 51
_symmetry_cell_setting 'orthorhombic'
loop_
_space_group_symop_operation_xyz
x,y,z
1/2-x,-y,z
1/2+x,-y,-z
-x,y,-z
-x,-y,-z
1/2+x,y,-z
1/2-x,y,z
x,-y,z
loop_
_atom_site_type_symbol
_atom_site_label
_atom_site_fract_x
_atom_site_fract_y
_atom_site_fract_z
Si Si1 0.003634 0.329863 0.196136
Si Si2 0.921119 0.173791 0.667688
Si Si3 0.344492 0.179376 0.814443
Si Si4 0.339659 0.825383 0.180018
Si Si5 0.205390 0.820063 0.500050
Si Si6 0.919347 0.677023 0.322492
O O1 0.013022 0.500000 0.258398
O O2 0.037772 0.218186 0.251202
O O3 0.963264 0.270137 0.275903
O O4 0.000000 0.326297 0.000000
O O5 0.886230 0.202389 0.798852
O O6 0.910739 0.276173 0.510663
O O7 0.922595 0.000000 0.611194
O O8 0.316853 0.241052 0.665373
O O9 0.388431 0.242287 0.797734
O O10 0.347000 0.000000 0.810688
O O11 0.327870 0.235403 0.995335
O O12 0.314872 0.751333 0.332424
O O13 0.329349 0.000000 0.187207
O O14 0.250000 0.761554 0.506254
O O15 0.203365 0.000000 0.500119
O O16 0.914665 0.500000 0.298224
#
# Coordination Sequence:
#
# PCOD8209749 Si02
#       6
#     8   8   8   8   8   8
#     4  10  22  38  53  75 109 145 186 233 277 328
#     4  11  21  35  55  79 109 145 187 231 279 327
#     4  10  19  34  57  82 111 144 183 226 270 321
#     4   9  18  32  52  81 113 143 177 223 272 322
#     4   9  17  31  53  83 116 143 173 220 275 328
#     4  11  22  36  55  78 107 145 186 225 275 329
#
# _framework density 19.854884999999999
#
# number of rings (size 3 to 8) (size 9 to 14) (size 15 to 20)
#    0.000    2.000    1.667    2.500    0.000    4.333 
#    0.000    4.167    0.000    0.500    0.000    0.000 
#    0.000    0.000    0.000    0.000    0.000    0.000 
#
# Total GULP energy -595124.975457 kJ/mol
# GULP energy per Si atom -12398.436989 kJ/mol
# Density = 1.980969 g / cm^3
# Si number density = 19.854885 Si / 1000 Ang^3
#
#
#
# Elastic Constant Matrix: (Units=GPa)
#
#
# Indices 1 2 3 4 5 6 
#
# 1 129.9598 24.8059 67.3186 0.0000 0.0000 0.0000
# 2 24.8059 19.3342 17.6946 0.0000 0.0000 0.0000
# 3 67.3186 17.6946 162.8497 0.0000 0.0000 0.0000
# 4 0.0000 0.0000 0.0000 19.0788 0.0000 0.0000
# 5 0.0000 0.0000 0.0000 0.0000 24.0710 0.0000
# 6 0.0000 0.0000 0.0000 0.0000 0.0000 9.6579
#
#
#
# Elastic Compliance Matrix: (Units=1/GPa)
#
#
# Indices 1 2 3 4 5 6 
#
# 1 0.011826 -0.011880 -0.003598 0.000000 0.000000 0.000000
# 2 -0.011880 0.069368 -0.002626 0.000000 0.000000 0.000000
# 3 -0.003598 -0.002626 0.007913 0.000000 0.000000 0.000000
# 4 0.000000 0.000000 0.000000 0.052414 0.000000 0.000000
# 5 0.000000 0.000000 0.000000 0.000000 0.041544 0.000000
# 6 0.000000 0.000000 0.000000 0.000000 0.000000 0.103542
#
#
# Mechanical properties :
#
#
# Convention : Reuss Voigt Hill
#
# Bulk Modulus (GPa) = 18.90409 59.08687 38.99548
# Shear Modulus (GPa) = 14.68655 24.04984 19.36819
#
# Velocity S-wave (km/s) = 2.72268 3.48412 3.12667
# Velocity P-wave (km/s) = 4.40747 6.78303 5.71993
#
# Compressibility (1/GPa) = 0.05289860
#
# Stress axis : x y z
#
# Youngs Moduli (GPa) = 84.56031 14.41596 126.37092
#
# Poissons Ratio (x) = 0.17126 0.45465
# Poissons Ratio (y) = 1.00458 0.33188
# Poissons Ratio (z) = 0.30422 0.03786
#
# Static dielectric constant tensor:
#      x y z
#    x 3.957690 0.000000 0.000000 
#    y 0.000000 3.281510 0.000000 
#    z 0.000000 0.000000 4.007740 
# 
# 
# High freq. dielectric constant tensor:
#      x y z
#    x 1.775020 0.000000 0.000000 
#    y 0.000000 1.729790 0.000000 
#    z 0.000000 0.000000 1.792550 
# 
# From -- ./inp_files/12817.got.cif
#   From: 2010.03.12/outbox.cif.g09.slc.cpg/sg51_7_cif.got.tgz:12817.got - 2010.04.16 13:43:02.
