data_PCOD8209470
_publ_section_title
;
Structure prediction by ZEFSAII (Michael W. Deem and Ramdas Pophale) SiO2 
 PCOD8209470
Probable space group: P M M A
;
_chemical_formula_sum "Si O2"
_cell_formula_units_Z 44
_cell_length_a 9.641105
_cell_length_b 13.652183
_cell_length_c 18.750317
_cell_angle_alpha 90.000000
_cell_angle_beta 90.000000
_cell_angle_gamma 90.000000
_cell_volume 2467.956658
_symmetry_space_group_name_H-M "P M M A"
_symmetry_group_IT_number 51
_symmetry_cell_setting 'orthorhombic'
loop_
_space_group_symop_operation_xyz
x,y,z
1/2-x,-y,z
1/2+x,-y,-z
-x,y,-z
-x,-y,-z
1/2+x,y,-z
1/2-x,y,z
x,-y,z
loop_
_atom_site_type_symbol
_atom_site_label
_atom_site_fract_x
_atom_site_fract_y
_atom_site_fract_z
Si Si1 0.591014 0.392568 0.695048
Si Si2 0.591248 0.889509 0.209439
Si Si3 0.908071 0.390677 0.165607
Si Si4 0.408865 0.782084 0.932268
Si Si5 0.090230 0.182499 0.331448
Si Si6 0.413952 0.000000 0.428322
O O1 0.750000 0.392553 0.720484
O O2 0.556705 0.500000 0.658963
O O3 0.498688 0.378092 0.764371
O O4 0.568274 0.297065 0.642876
O O5 0.750000 0.870423 0.231620
O O6 0.569370 0.866287 0.126440
O O7 0.494669 0.822940 0.258336
O O8 0.546183 0.000000 0.223099
O O9 0.750000 0.362478 0.186569
O O10 0.918254 0.500000 0.135102
O O11 0.959573 0.320099 0.102525
O O12 0.250000 0.775693 0.957363
O O13 0.500000 0.809189 0.000000
O O14 0.250000 0.161381 0.314013
O O15 0.040178 0.099876 0.387424
O O16 0.500000 0.000000 0.500000
O O17 0.250000 0.000000 0.444564
#
# Coordination Sequence:
#
# PCOD8209470 Si02
#       6
#     8   8   8   8   8   4
#     4   9  17  29  49  78 106 133 168 210 256 304
#     4  10  20  34  52  74  99 129 170 215 262 315
#     4   9  17  30  47  67  94 127 165 213 263 309
#     4  10  21  34  46  65  94 130 172 216 263 314
#     4  10  19  33  55  81 109 137 170 211 252 299
#     4  10  22  38  56  84 115 142 171 204 247 298
#
# _framework density 17.828513999999998
#
# number of rings (size 3 to 8) (size 9 to 14) (size 15 to 20)
#    0.000    2.364    2.727    0.000    0.000    2.909 
#    0.000    0.000    0.000    0.545    0.000    0.000 
#    0.000    0.000    0.000    0.000    0.000    0.000 
#
# Total GULP energy -545174.668259 kJ/mol
# GULP energy per Si atom -12390.333370 kJ/mol
# Density = 1.778794 g / cm^3
# Si number density = 17.828514 Si / 1000 Ang^3
#
#
#
# Elastic Constant Matrix: (Units=GPa)
#
#
# Indices 1 2 3 4 5 6 
#
# 1 44.6190 34.8774 28.3006 0.0000 0.0000 0.0000
# 2 34.8774 141.2632 44.9110 0.0000 0.0000 0.0000
# 3 28.3006 44.9110 61.5324 0.0000 0.0000 0.0000
# 4 0.0000 0.0000 0.0000 18.8593 0.0000 0.0000
# 5 0.0000 0.0000 0.0000 0.0000 28.7017 0.0000
# 6 0.0000 0.0000 0.0000 0.0000 0.0000 18.7019
#
#
#
# Elastic Compliance Matrix: (Units=1/GPa)
#
#
# Indices 1 2 3 4 5 6 
#
# 1 0.033627 -0.004408 -0.012248 0.000000 0.000000 0.000000
# 2 -0.004408 0.009796 -0.005122 0.000000 0.000000 0.000000
# 3 -0.012248 -0.005122 0.025624 0.000000 0.000000 0.000000
# 4 0.000000 0.000000 0.000000 0.053024 0.000000 0.000000
# 5 0.000000 0.000000 0.000000 0.000000 0.034841 0.000000
# 6 0.000000 0.000000 0.000000 0.000000 0.000000 0.053470
#
#
# Mechanical properties :
#
#
# Convention : Reuss Voigt Hill
#
# Bulk Modulus (GPa) = 39.23377 51.51027 45.37202
# Shear Modulus (GPa) = 19.05228 22.54097 20.79662
#
# Velocity S-wave (km/s) = 3.27255 3.55959 3.41908
# Velocity P-wave (km/s) = 6.02772 6.77119 6.41024
#
# Compressibility (1/GPa) = 0.02548825
#
# Stress axis : x y z
#
# Youngs Moduli (GPa) = 29.73841 102.08394 39.02642
#
# Poissons Ratio (x) = 0.45001 0.47801
# Poissons Ratio (y) = 0.13109 0.19991
# Poissons Ratio (z) = 0.36425 0.52291
#
# Static dielectric constant tensor:
#      x y z
#    x 3.284550 0.000000 0.000000 
#    y 0.000000 3.929710 0.000000 
#    z 0.000000 0.000000 2.827340 
# 
# 
# High freq. dielectric constant tensor:
#      x y z
#    x 1.689760 0.000000 0.000000 
#    y 0.000000 1.721480 0.000000 
#    z 0.000000 0.000000 1.636730 
# 
# From -- ./inp_files/27320.got.cif
#   From: 2010.03.12/outbox.cif.g09.slc.cpg/sg51_14_cif.got.tgz:27320.got - 2010.04.16 13:43:02.
