data_PCOD8209334
_publ_section_title
;
Structure prediction by ZEFSAII (Michael W. Deem and Ramdas Pophale) SiO2 
 PCOD8209334
Probable space group: P M M A
;
_chemical_formula_sum "Si O2"
_cell_formula_units_Z 48
_cell_length_a 9.028768
_cell_length_b 30.941412
_cell_length_c 9.581823
_cell_angle_alpha 90.000000
_cell_angle_beta 90.000000
_cell_angle_gamma 90.000000
_cell_volume 2676.805195
_symmetry_space_group_name_H-M "P M M A"
_symmetry_group_IT_number 51
_symmetry_cell_setting 'orthorhombic'
loop_
_space_group_symop_operation_xyz
x,y,z
1/2-x,-y,z
1/2+x,-y,-z
-x,y,-z
-x,-y,-z
1/2+x,y,-z
1/2-x,y,z
x,-y,z
loop_
_atom_site_type_symbol
_atom_site_label
_atom_site_fract_x
_atom_site_fract_y
_atom_site_fract_z
Si Si1 0.423717 0.879289 0.851591
Si Si2 0.080717 0.786243 0.856500
Si Si3 0.074441 0.692044 0.847841
Si Si4 0.576596 0.951438 0.355300
Si Si5 0.922507 0.451215 0.860602
Si Si6 0.425434 0.622791 0.349775
O O1 0.250000 0.886126 0.873855
O O2 0.457422 0.831858 0.779055
O O3 0.488435 0.917111 0.754626
O O4 0.500000 0.883190 0.000000
O O5 0.250000 0.786529 0.898220
O O6 0.044881 0.740378 0.782243
O O7 0.000000 0.786726 0.000000
O O8 0.250000 0.682008 0.859912
O O9 0.996277 0.661100 0.738573
O O10 0.000000 0.686653 0.000000
O O11 0.500000 0.941314 0.500000
O O12 0.750000 0.944904 0.377282
O O13 0.539831 0.000000 0.303079
O O14 0.750000 0.449693 0.892241
O O15 0.976704 0.500000 0.827951
O O16 0.963237 0.422043 0.728006
O O17 0.000000 0.432929 0.000000
O O18 0.500000 0.620832 0.500000
O O19 0.250000 0.630185 0.364684
#
# Coordination Sequence:
#
# PCOD8209334 Si02
#       6
#     8   8   8   8   8   8
#     4   9  17  30  48  71  98 124 155 196 241 288
#     4   8  15  28  47  70  96 126 158 196 240 286
#     4  10  19  33  54  77 101 131 169 208 247 293
#     4   9  18  32  48  66  91 124 160 197 237 284
#     4   9  19  36  57  80 104 131 166 206 246 292
#     4  11  23  37  53  75 105 138 171 208 252 298
#
# _framework density 17.931823999999999
#
# number of rings (size 3 to 8) (size 9 to 14) (size 15 to 20)
#    0.000    2.667    0.000    1.500    0.000    4.667 
#    0.000    0.833    0.000    2.000    0.000    0.000 
#    0.000    0.000    0.000    0.000    0.000    0.000 
#
# Total GULP energy -594688.357777 kJ/mol
# GULP energy per Si atom -12389.340787 kJ/mol
# Density = 1.789101 g / cm^3
# Si number density = 17.931824 Si / 1000 Ang^3
#
#
#
# Elastic Constant Matrix: (Units=GPa)
#
#
# Indices 1 2 3 4 5 6 
#
# 1 59.1805 57.2130 49.6738 0.0000 0.0000 0.0000
# 2 57.2130 158.1954 88.7391 0.0000 0.0000 0.0000
# 3 49.6738 88.7391 116.4248 0.0000 0.0000 0.0000
# 4 0.0000 0.0000 0.0000 2.7674 0.0000 0.0000
# 5 0.0000 0.0000 0.0000 0.0000 30.0405 0.0000
# 6 0.0000 0.0000 0.0000 0.0000 0.0000 17.8627
#
#
#
# Elastic Compliance Matrix: (Units=1/GPa)
#
#
# Indices 1 2 3 4 5 6 
#
# 1 0.029541 -0.006313 -0.007792 0.000000 0.000000 0.000000
# 2 -0.006313 0.012392 -0.006752 0.000000 0.000000 0.000000
# 3 -0.007792 -0.006752 0.017060 0.000000 0.000000 0.000000
# 4 0.000000 0.000000 0.000000 0.361355 0.000000 0.000000
# 5 0.000000 0.000000 0.000000 0.000000 0.033288 0.000000
# 6 0.000000 0.000000 0.000000 0.000000 0.000000 0.055983
#
#
# Mechanical properties :
#
#
# Convention : Reuss Voigt Hill
#
# Bulk Modulus (GPa) = 57.87278 80.56139 69.21709
# Shear Modulus (GPa) = 8.97518 19.34575 14.16047
#
# Velocity S-wave (km/s) = 2.23965 3.28815 2.81318
# Velocity P-wave (km/s) = 6.24755 7.70973 7.01683
#
# Compressibility (1/GPa) = 0.01727928
#
# Stress axis : x y z
#
# Youngs Moduli (GPa) = 33.85132 80.70002 58.61681
#
# Poissons Ratio (x) = 0.50943 0.45677
# Poissons Ratio (y) = 0.21369 0.39575
# Poissons Ratio (z) = 0.26378 0.54485
#
# Static dielectric constant tensor:
#      x y z
#    x 3.369380 0.000000 0.000000 
#    y 0.000000 4.232620 0.000000 
#    z 0.000000 0.000000 3.086000 
# 
# 
# High freq. dielectric constant tensor:
#      x y z
#    x 1.698050 0.000000 0.000000 
#    y 0.000000 1.720480 0.000000 
#    z 0.000000 0.000000 1.660800 
# 
# From -- ./inp_files/6064.got.cif
#   From: 2010.03.12/outbox.cif.g09.slc.cpg/sg51_4_cif.got.tgz:6064.got - 2010.04.16 13:43:02.
