data_PCOD8209779
_publ_section_title
;
Structure prediction by ZEFSAII (Michael W. Deem and Ramdas Pophale) SiO2 
 PCOD8209779
Probable space group: P M M A
;
_chemical_formula_sum "Si O2"
_cell_formula_units_Z 56
_cell_length_a 19.964907
_cell_length_b 9.162866
_cell_length_c 14.876617
_cell_angle_alpha 90.000000
_cell_angle_beta 90.000000
_cell_angle_gamma 90.000000
_cell_volume 2721.465349
_symmetry_space_group_name_H-M "P M M A"
_symmetry_group_IT_number 51
_symmetry_cell_setting 'orthorhombic'
loop_
_space_group_symop_operation_xyz
x,y,z
1/2-x,-y,z
1/2+x,-y,-z
-x,y,-z
-x,-y,-z
1/2+x,y,-z
1/2-x,y,z
x,-y,z
loop_
_atom_site_type_symbol
_atom_site_label
_atom_site_fract_x
_atom_site_fract_y
_atom_site_fract_z
Si Si1 0.826261 0.163899 0.224819
Si Si2 0.174943 0.831406 0.324510
Si Si3 0.010651 0.660406 0.891862
Si Si4 0.126170 0.827292 0.971178
Si Si5 0.863397 0.325919 0.855524
Si Si6 0.963444 0.170500 0.591285
Si Si7 0.065958 0.659636 0.702504
O O1 0.750000 0.179214 0.252205
O O2 0.835007 0.210798 0.120720
O O3 0.864358 0.253192 0.303957
O O4 0.853408 0.000000 0.233624
O O5 0.250000 0.805211 0.365695
O O6 0.170088 0.735232 0.234668
O O7 0.116342 0.791034 0.398045
O O8 0.165951 0.000000 0.296940
O O9 0.997666 0.500000 0.932820
O O10 0.050520 0.757313 0.966705
O O11 0.059964 0.646379 0.808699
O O12 0.940809 0.725370 0.855627
O O13 0.120948 0.000000 0.988198
O O14 0.166372 0.750169 0.053914
O O15 0.852330 0.500000 0.857681
O O16 0.000000 0.224511 0.500000
O O17 0.001505 0.254703 0.668993
O O18 0.975454 0.000000 0.603287
O O19 0.070713 0.500000 0.656325
#
# Coordination Sequence:
#
# PCOD8209779 Si02
#       7
#     8   8   8   8   8   8   8
#     4   9  19  36  55  76 109 154 199 244 291 337
#     4  10  22  40  61  85 115 150 188 233 284 341
#     4   9  18  32  49  73 109 149 189 237 288 334
#     4  10  20  31  48  77 110 151 203 249 290 332
#     4  11  21  34  52  77 112 153 195 236 285 341
#     4  10  21  39  64  91 117 146 185 230 281 347
#     4  10  19  34  57  85 114 146 185 232 285 340
#
# _framework density 20.577151000000001
#
# number of rings (size 3 to 8) (size 9 to 14) (size 15 to 20)
#    0.000    2.143    1.429    1.714    0.000    5.429 
#    0.000    2.143    0.000    2.571    0.000    0.000 
#    0.000    0.000    0.000    0.000    0.000    0.000 
#
# Total GULP energy -693749.253810 kJ/mol
# GULP energy per Si atom -12388.379532 kJ/mol
# Density = 2.053032 g / cm^3
# Si number density = 20.577151 Si / 1000 Ang^3
#
#
#
# Elastic Constant Matrix: (Units=GPa)
#
#
# Indices 1 2 3 4 5 6 
#
# 1 117.7816 38.7101 45.4272 0.0000 0.0000 0.0000
# 2 38.7101 72.5725 33.4344 0.0000 0.0000 0.0000
# 3 45.4272 33.4344 67.8012 0.0000 0.0000 0.0000
# 4 0.0000 0.0000 0.0000 -9.3796 0.0000 0.0000
# 5 0.0000 0.0000 0.0000 0.0000 22.1277 0.0000
# 6 0.0000 0.0000 0.0000 0.0000 0.0000 0.5619
#
#
#
# Elastic Compliance Matrix: (Units=1/GPa)
#
#
# Indices 1 2 3 4 5 6 
#
# 1 0.012106 -0.003520 -0.006375 0.000000 0.000000 0.000000
# 2 -0.003520 0.018854 -0.006939 0.000000 0.000000 0.000000
# 3 -0.006375 -0.006939 0.022442 0.000000 0.000000 0.000000
# 4 0.000000 0.000000 0.000000 -0.106615 0.000000 0.000000
# 5 0.000000 0.000000 0.000000 0.000000 0.045192 0.000000
# 6 0.000000 0.000000 0.000000 0.000000 0.000000 1.779730
#
#
# Mechanical properties :
#
#
# Convention : Reuss Voigt Hill
#
# Bulk Modulus (GPa) = 50.67497 54.81096 52.74296
# Shear Modulus (GPa) = 2.75945 12.03423 7.39684
#
# Velocity S-wave (km/s) = 1.15928 2.42096 1.89802
# Velocity P-wave (km/s) = 5.14511 5.87447 5.52185
#
# Compressibility (1/GPa) = 0.01973361
#
# Stress axis : x y z
#
# Youngs Moduli (GPa) = 82.60270 53.04000 44.55932
#
# Poissons Ratio (x) = 0.18672 0.28408
# Poissons Ratio (y) = 0.29079 0.30918
# Poissons Ratio (z) = 0.52661 0.36802
#
# Static dielectric constant tensor:
#      x y z
#    x 3.806840 0.000000 0.000000 
#    y 0.000000 3.873690 0.000000 
#    z 0.000000 0.000000 3.537590 
# 
# 
# High freq. dielectric constant tensor:
#      x y z
#    x 1.803810 0.000000 0.000000 
#    y 0.000000 1.801810 0.000000 
#    z 0.000000 0.000000 1.781960 
# 
# From -- ./inp_files/25775.got.cif
#   From: 2010.03.12/outbox.cif.g09.slc.cpg/sg51_13_cif.got.tgz:25775.got - 2010.04.16 13:43:02.
