data_PCOD8209232
_publ_section_title
;
Structure prediction by ZEFSAII (Michael W. Deem and Ramdas Pophale) SiO2 
 PCOD8209232
Probable space group: P M M A
;
_chemical_formula_sum "Si O2"
_cell_formula_units_Z 64
_cell_length_a 9.419275
_cell_length_b 15.182460
_cell_length_c 23.793975
_cell_angle_alpha 90.000000
_cell_angle_beta 90.000000
_cell_angle_gamma 90.000000
_cell_volume 3402.723207
_symmetry_space_group_name_H-M "P M M A"
_symmetry_group_IT_number 51
_symmetry_cell_setting 'orthorhombic'
loop_
_space_group_symop_operation_xyz
x,y,z
1/2-x,-y,z
1/2+x,-y,-z
-x,y,-z
-x,-y,-z
1/2+x,y,-z
1/2-x,y,z
x,-y,z
loop_
_atom_site_type_symbol
_atom_site_label
_atom_site_fract_x
_atom_site_fract_y
_atom_site_fract_z
Si Si1 0.584098 0.600550 0.056330
Si Si2 0.906937 0.896334 0.449356
Si Si3 0.907455 0.403318 0.772164
Si Si4 0.582122 0.723569 0.157922
Si Si5 0.092460 0.602332 0.549674
Si Si6 0.583269 0.827275 0.328380
Si Si7 0.910183 0.657706 0.653418
Si Si8 0.583185 0.096542 0.208618
O O1 0.750000 0.611308 0.043850
O O2 0.551809 0.500000 0.077168
O O3 0.532116 0.675053 0.100677
O O4 0.500000 0.621561 0.000000
O O5 0.750000 0.857097 0.457338
O O6 0.961777 0.873914 0.386832
O O7 0.000000 0.854426 0.500000
O O8 0.905981 0.000000 0.455612
O O9 0.750000 0.376335 0.794043
O O10 0.947990 0.500000 0.795451
O O11 0.905682 0.409870 0.704858
O O12 0.022559 0.332874 0.790941
O O13 0.750000 0.720740 0.162962
O O14 0.526529 0.824705 0.167100
O O15 0.250000 0.645874 0.552717
O O16 0.110687 0.500000 0.537204
O O17 0.000000 0.646866 0.500000
O O18 0.009505 0.616153 0.606765
O O19 0.750000 0.801314 0.328333
O O20 0.480590 0.745225 0.322445
O O21 0.548251 0.887607 0.274382
O O22 0.750000 0.674728 0.630527
O O23 0.750000 0.092646 0.200391
O O24 0.518479 0.000000 0.191945
#
# Coordination Sequence:
#
# PCOD8209232 Si02
#       8
#     8   8   8   8   8   8   8   8
#     4   9  18  32  51  79 114 150 186 224 267 316
#     4   9  18  32  50  71  94 122 159 207 263 324
#     4  10  21  35  51  74 107 145 178 213 266 326
#     4  10  19  33  55  83 111 140 183 233 271 310
#     4  10  21  37  56  75  95 125 169 218 268 323
#     4  10  19  33  52  73  99 131 173 220 268 324
#     4  11  22  35  51  72 103 136 171 214 262 319
#     4   9  17  31  54  81 107 138 179 229 282 330
#
# _framework density 18.808465000000002
#
# number of rings (size 3 to 8) (size 9 to 14) (size 15 to 20)
#    0.000    2.250    1.250    1.875    0.000    5.500 
#    0.000    2.500    0.000    2.625    0.000    0.000 
#    0.000    0.000    0.000    0.000    0.000    0.000 
#
# Total GULP energy -793020.258973 kJ/mol
# GULP energy per Si atom -12390.941546 kJ/mol
# Density = 1.876566 g / cm^3
# Si number density = 18.808465 Si / 1000 Ang^3
#
#
#
# Elastic Constant Matrix: (Units=GPa)
#
#
# Indices 1 2 3 4 5 6 
#
# 1 67.1750 28.4253 37.4046 0.0000 0.0000 0.0000
# 2 28.4253 106.7648 52.5149 0.0000 0.0000 0.0000
# 3 37.4046 52.5149 114.4103 0.0000 0.0000 0.0000
# 4 0.0000 0.0000 0.0000 12.1458 0.0000 0.0000
# 5 0.0000 0.0000 0.0000 0.0000 28.6732 0.0000
# 6 0.0000 0.0000 0.0000 0.0000 0.0000 14.3638
#
#
#
# Elastic Compliance Matrix: (Units=1/GPa)
#
#
# Indices 1 2 3 4 5 6 
#
# 1 0.018722 -0.002549 -0.004951 0.000000 0.000000 0.000000
# 2 -0.002549 0.012445 -0.004879 0.000000 0.000000 0.000000
# 3 -0.004951 -0.004879 0.012598 0.000000 0.000000 0.000000
# 4 0.000000 0.000000 0.000000 0.082333 0.000000 0.000000
# 5 0.000000 0.000000 0.000000 0.000000 0.034876 0.000000
# 6 0.000000 0.000000 0.000000 0.000000 0.000000 0.069620
#
#
# Mechanical properties :
#
#
# Convention : Reuss Voigt Hill
#
# Bulk Modulus (GPa) = 52.61088 58.33778 55.47433
# Shear Modulus (GPa) = 19.10682 22.37026 20.73854
#
# Velocity S-wave (km/s) = 3.19072 3.45247 3.32417
# Velocity P-wave (km/s) = 6.45034 6.85396 6.65521
#
# Compressibility (1/GPa) = 0.01900748
#
# Stress axis : x y z
#
# Youngs Moduli (GPa) = 53.41333 80.35415 79.37535
#
# Poissons Ratio (x) = 0.20486 0.39296
# Poissons Ratio (y) = 0.13618 0.38725
# Poissons Ratio (z) = 0.26443 0.39203
#
# Static dielectric constant tensor:
#      x y z
#    x 3.546790 0.000000 0.000000 
#    y 0.000000 3.699480 0.000000 
#    z 0.000000 0.000000 3.415970 
# 
# 
# High freq. dielectric constant tensor:
#      x y z
#    x 1.718170 0.000000 0.000000 
#    y 0.000000 1.726740 0.000000 
#    z 0.000000 0.000000 1.716850 
# 
# From -- ./inp_files/34900.got.cif
#   From: 2010.03.12/outbox.cif.g09.slc.cpg/sg51_18_cif.got.tgz:34900.got - 2010.04.16 13:43:02.
