data_PCOD8209563
_publ_section_title
;
Structure prediction by ZEFSAII (Michael W. Deem and Ramdas Pophale) SiO2 
 PCOD8209563
Probable space group: P M M A
;
_chemical_formula_sum "Si O2"
_cell_formula_units_Z 52
_cell_length_a 9.219185
_cell_length_b 22.510121
_cell_length_c 14.805226
_cell_angle_alpha 90.000000
_cell_angle_beta 90.000000
_cell_angle_gamma 90.000000
_cell_volume 3072.454080
_symmetry_space_group_name_H-M "P M M A"
_symmetry_group_IT_number 51
_symmetry_cell_setting 'orthorhombic'
loop_
_space_group_symop_operation_xyz
x,y,z
1/2-x,-y,z
1/2+x,-y,-z
-x,y,-z
-x,-y,-z
1/2+x,y,-z
1/2-x,y,z
x,-y,z
loop_
_atom_site_type_symbol
_atom_site_label
_atom_site_fract_x
_atom_site_fract_y
_atom_site_fract_z
Si Si1 0.919635 0.899883 0.787727
Si Si2 0.083029 0.208109 0.088907
Si Si3 0.581147 0.432204 0.758859
Si Si4 0.080359 0.341906 0.089214
Si Si5 0.417776 0.930962 0.412088
Si Si6 0.411082 0.429537 0.583038
Si Si7 0.574318 0.000000 0.098522
O O1 0.750000 0.919047 0.797201
O O2 0.947498 0.833857 0.825489
O O3 0.965346 0.899751 0.681971
O O4 0.021189 0.942963 0.845782
O O5 0.250000 0.206501 0.061242
O O6 0.035059 0.274767 0.116562
O O7 0.000000 0.185281 0.000000
O O8 0.750000 0.425183 0.736257
O O9 0.544615 0.500000 0.786414
O O10 0.528348 0.388193 0.836218
O O11 0.492562 0.410683 0.672956
O O12 0.250000 0.346985 0.071982
O O13 0.000000 0.362469 0.000000
O O14 0.500000 0.904437 0.500000
O O15 0.250000 0.920153 0.431031
O O16 0.455821 0.000000 0.400342
O O17 0.500000 0.401773 0.500000
O O18 0.250000 0.402233 0.583444
O O19 0.403749 0.500000 0.573632
O O20 0.750000 0.000000 0.089421
O O21 0.500000 0.000000 0.000000
#
# Coordination Sequence:
#
# PCOD8209563 Si02
#       7
#     8   8   8   8   8   8   4
#     4  10  19  34  52  71  96 126 159 195 237 279
#     4   9  18  32  51  70  91 122 159 196 234 280
#     4   9  17  29  45  66  94 125 156 193 238 286
#     4   9  18  32  48  68  92 122 160 198 236 280
#     4   9  17  30  48  69  95 123 153 190 229 273
#     4   9  16  26  42  65  92 120 151 187 229 279
#     4  12  24  34  47  70 101 130 155 190 236 282
#
# _framework density 16.924582000000001
#
# number of rings (size 3 to 8) (size 9 to 14) (size 15 to 20)
#    0.000    2.615    0.769    1.615    0.000    5.231 
#    0.000    0.000    0.000    0.923    0.000    2.154 
#    0.000    0.000    0.000    0.000    0.000    0.000 
#
# Total GULP energy -644665.466797 kJ/mol
# GULP energy per Si atom -12397.412823 kJ/mol
# Density = 1.688606 g / cm^3
# Si number density = 16.924582 Si / 1000 Ang^3
#
#
#
# Elastic Constant Matrix: (Units=GPa)
#
#
# Indices 1 2 3 4 5 6 
#
# 1 72.4266 37.1451 71.7774 0.0000 0.0000 0.0000
# 2 37.1451 69.0453 71.3830 0.0000 0.0000 0.0000
# 3 71.7774 71.3830 176.2506 0.0000 0.0000 0.0000
# 4 0.0000 0.0000 0.0000 15.5181 0.0000 0.0000
# 5 0.0000 0.0000 0.0000 0.0000 34.1292 0.0000
# 6 0.0000 0.0000 0.0000 0.0000 0.0000 13.6064
#
#
#
# Elastic Compliance Matrix: (Units=1/GPa)
#
#
# Indices 1 2 3 4 5 6 
#
# 1 0.024055 -0.004840 -0.007836 0.000000 0.000000 0.000000
# 2 -0.004840 0.025890 -0.008515 0.000000 0.000000 0.000000
# 3 -0.007836 -0.008515 0.012314 0.000000 0.000000 0.000000
# 4 0.000000 0.000000 0.000000 0.064441 0.000000 0.000000
# 5 0.000000 0.000000 0.000000 0.000000 0.029300 0.000000
# 6 0.000000 0.000000 0.000000 0.000000 0.000000 0.073495
#
#
# Mechanical properties :
#
#
# Convention : Reuss Voigt Hill
#
# Bulk Modulus (GPa) = 50.30844 75.37039 62.83941
# Shear Modulus (GPa) = 17.95320 21.81187 19.88254
#
# Velocity S-wave (km/s) = 3.26049 3.59384 3.43121
# Velocity P-wave (km/s) = 6.63054 7.86452 7.27374
#
# Compressibility (1/GPa) = 0.01987738
#
# Stress axis : x y z
#
# Youngs Moduli (GPa) = 41.57106 38.62519 81.21125
#
# Poissons Ratio (x) = 0.18693 0.63640
# Poissons Ratio (y) = 0.20119 0.69149
# Poissons Ratio (z) = 0.32576 0.32888
#
# Static dielectric constant tensor:
#      x y z
#    x 3.237350 0.000000 0.000000 
#    y 0.000000 3.053950 0.000000 
#    z 0.000000 0.000000 3.309480 
# 
# 
# High freq. dielectric constant tensor:
#      x y z
#    x 1.653320 0.000000 0.000000 
#    y 0.000000 1.622150 0.000000 
#    z 0.000000 0.000000 1.658100 
# 
# From -- ./inp_files/22028.got.cif
#   From: 2010.03.12/outbox.cif.g09.slc.cpg/sg51_12_cif.got.tgz:22028.got - 2010.04.16 13:43:02.
