data_PCOD8209509
_publ_section_title
;
Structure prediction by ZEFSAII (Michael W. Deem and Ramdas Pophale) SiO2 
 PCOD8209509
Probable space group: P M M A
;
_chemical_formula_sum "Si O2"
_cell_formula_units_Z 48
_cell_length_a 21.193008
_cell_length_b 7.641741
_cell_length_c 15.786288
_cell_angle_alpha 90.000000
_cell_angle_beta 90.000000
_cell_angle_gamma 90.000000
_cell_volume 2556.612676
_symmetry_space_group_name_H-M "P M M A"
_symmetry_group_IT_number 51
_symmetry_cell_setting 'orthorhombic'
loop_
_space_group_symop_operation_xyz
x,y,z
1/2-x,-y,z
1/2+x,-y,-z
-x,y,-z
-x,-y,-z
1/2+x,y,-z
1/2-x,y,z
x,-y,z
loop_
_atom_site_type_symbol
_atom_site_label
_atom_site_fract_x
_atom_site_fract_y
_atom_site_fract_z
Si Si1 0.941547 0.291250 0.056519
Si Si2 0.632100 0.795769 0.790380
Si Si3 0.681297 0.698283 0.965509
Si Si4 0.900517 0.500000 0.531728
Si Si5 0.823139 0.198972 0.607130
Si Si6 0.973704 0.500000 0.362136
Si Si7 0.488736 0.800240 0.765854
O O1 0.941672 0.500000 0.058042
O O2 0.945985 0.216032 0.150833
O O3 0.876435 0.213226 0.017103
O O4 0.000000 0.222008 0.000000
O O5 0.666916 0.696845 0.865674
O O6 0.665127 0.739188 0.703200
O O7 0.559199 0.738504 0.788864
O O8 0.639616 0.000000 0.807370
O O9 0.750000 0.789284 0.982510
O O10 0.686163 0.500000 0.996236
O O11 0.860053 0.324583 0.543613
O O12 0.922081 0.500000 0.435230
O O13 0.956952 0.500000 0.598591
O O14 0.750000 0.213202 0.585318
O O15 0.847805 0.000000 0.594860
O O16 0.962290 0.325695 0.307040
O O17 0.487736 0.000000 0.732201
#
# Coordination Sequence:
#
# PCOD8209509 Si02
#       7
#     8   8   8   4   8   4   8
#     4  10  19  33  56  80 112 155 197 240 279 330
#     4  10  20  33  51  80 118 154 186 226 280 345
#     4  10  21  33  50  80 116 154 193 237 286 336
#     4  11  23  38  62  86 114 152 191 225 290 357
#     4  10  21  37  58  87 121 153 188 232 285 351
#     4  11  24  40  59  86 115 149 188 240 290 343
#     4  11  22  37  59  85 118 153 191 240 290 338
#
# _framework density 18.774843000000001
#
# number of rings (size 3 to 8) (size 9 to 14) (size 15 to 20)
#    0.000    1.667    4.167    0.750    2.333    2.667 
#    0.000    1.667    0.000    2.000    0.000    0.000 
#    0.000    0.000    0.000    0.000    0.000    0.000 
#
# Total GULP energy -595246.545670 kJ/mol
# GULP energy per Si atom -12400.969701 kJ/mol
# Density = 1.873211 g / cm^3
# Si number density = 18.774843 Si / 1000 Ang^3
#
#
#
# Elastic Constant Matrix: (Units=GPa)
#
#
# Indices 1 2 3 4 5 6 
#
# 1 129.9987 41.3685 62.7933 0.0000 0.0000 0.0000
# 2 41.3685 76.2788 44.7122 0.0000 0.0000 0.0000
# 3 62.7933 44.7122 115.5971 0.0000 0.0000 0.0000
# 4 0.0000 0.0000 0.0000 11.8117 0.0000 0.0000
# 5 0.0000 0.0000 0.0000 0.0000 24.7174 0.0000
# 6 0.0000 0.0000 0.0000 0.0000 0.0000 15.2209
#
#
#
# Elastic Compliance Matrix: (Units=1/GPa)
#
#
# Indices 1 2 3 4 5 6 
#
# 1 0.010996 -0.003184 -0.004741 0.000000 0.000000 0.000000
# 2 -0.003184 0.017876 -0.005185 0.000000 0.000000 0.000000
# 3 -0.004741 -0.005185 0.013232 0.000000 0.000000 0.000000
# 4 0.000000 0.000000 0.000000 0.084661 0.000000 0.000000
# 5 0.000000 0.000000 0.000000 0.000000 0.040457 0.000000
# 6 0.000000 0.000000 0.000000 0.000000 0.000000 0.065699
#
#
# Mechanical properties :
#
#
# Convention : Reuss Voigt Hill
#
# Bulk Modulus (GPa) = 62.96052 68.84698 65.90375
# Shear Modulus (GPa) = 18.90818 21.88338 20.39578
#
# Velocity S-wave (km/s) = 3.17693 3.41775 3.29954
# Velocity P-wave (km/s) = 6.86036 7.23354 7.04942
#
# Compressibility (1/GPa) = 0.01588297
#
# Stress axis : x y z
#
# Youngs Moduli (GPa) = 90.94278 55.94189 75.57613
#
# Poissons Ratio (x) = 0.17813 0.35834
# Poissons Ratio (y) = 0.28958 0.39183
# Poissons Ratio (z) = 0.43120 0.29003
#
# Static dielectric constant tensor:
#      x y z
#    x 3.623030 0.000000 0.000000 
#    y 0.000000 3.411270 0.000000 
#    z 0.000000 0.000000 3.240610 
# 
# 
# High freq. dielectric constant tensor:
#      x y z
#    x 1.723500 0.000000 0.000000 
#    y 0.000000 1.730510 0.000000 
#    z 0.000000 0.000000 1.706370 
# 
# From -- ./inp_files/24903.got.cif
#   From: 2010.03.12/outbox.cif.g09.slc.cpg/sg51_13_cif.got.tgz:24903.got - 2010.04.16 13:43:02.
