data_PCOD8209750
_publ_section_title
;
Structure prediction by ZEFSAII (Michael W. Deem and Ramdas Pophale) SiO2 
 PCOD8209750
Probable space group: P M M A
;
_chemical_formula_sum "Si O2"
_cell_formula_units_Z 56
_cell_length_a 15.531758
_cell_length_b 9.286977
_cell_length_c 19.496555
_cell_angle_alpha 90.000000
_cell_angle_beta 90.000000
_cell_angle_gamma 90.000000
_cell_volume 2812.243129
_symmetry_space_group_name_H-M "P M M A"
_symmetry_group_IT_number 51
_symmetry_cell_setting 'orthorhombic'
loop_
_space_group_symop_operation_xyz
x,y,z
1/2-x,-y,z
1/2+x,-y,-z
-x,y,-z
-x,-y,-z
1/2+x,y,-z
1/2-x,y,z
x,-y,z
loop_
_atom_site_type_symbol
_atom_site_label
_atom_site_fract_x
_atom_site_fract_y
_atom_site_fract_z
Si Si1 0.149605 0.158627 0.569295
Si Si2 0.104218 0.663117 0.700865
Si Si3 0.648136 0.661508 0.556531
Si Si4 0.653285 0.666248 0.148667
Si Si5 0.001577 0.833922 0.080894
Si Si6 0.152644 0.330829 0.154670
Si Si7 0.094786 0.665120 0.299003
O O1 0.250000 0.145567 0.555280
O O2 0.135173 0.232836 0.641725
O O3 0.107788 0.248590 0.506658
O O4 0.107406 0.000000 0.570901
O O5 0.123279 0.500000 0.677110
O O6 0.154276 0.700772 0.770359
O O7 0.004678 0.686953 0.717077
O O8 0.750000 0.656881 0.551766
O O9 0.609740 0.500000 0.551172
O O10 0.620460 0.738298 0.628418
O O11 0.750000 0.696099 0.120800
O O12 0.626785 0.500000 0.136683
O O13 0.586002 0.766285 0.109790
O O14 0.086895 0.754119 0.106900
O O15 0.005582 0.000000 0.103830
O O16 0.000000 0.817298 0.000000
O O17 0.250000 0.303436 0.128643
O O18 0.128775 0.500000 0.151915
O O19 0.145266 0.272524 0.233120
O O20 0.122119 0.500000 0.307429
#
# Coordination Sequence:
#
# PCOD8209750 Si02
#       7
#     8   8   8   8   8   8   8
#     4  10  21  35  49  70 105 147 191 239 288 341
#     4  10  19  34  57  82 111 145 185 238 295 349
#     4   9  17  31  52  76 103 140 187 235 284 341
#     4  10  21  39  65  94 121 153 199 252 301 350
#     4  11  25  43  62  88 126 166 199 236 287 354
#     4  10  20  38  66  95 122 155 198 249 301 350
#     4   9  17  32  56  85 113 142 184 239 293 346
#
# _framework density 19.912928999999998
#
# number of rings (size 3 to 8) (size 9 to 14) (size 15 to 20)
#    0.000    2.143    1.429    1.714    0.000    6.571 
#    0.000    7.143    0.000    1.714    0.000    0.000 
#    0.000    0.000    0.000    0.000    0.000    0.000 
#
# Total GULP energy -694311.891717 kJ/mol
# GULP energy per Si atom -12398.426638 kJ/mol
# Density = 1.986761 g / cm^3
# Si number density = 19.912929 Si / 1000 Ang^3
#
#
#
# Elastic Constant Matrix: (Units=GPa)
#
#
# Indices 1 2 3 4 5 6 
#
# 1 89.3235 51.4003 45.7616 0.0000 0.0000 0.0000
# 2 51.4003 112.8412 67.6938 0.0000 0.0000 0.0000
# 3 45.7616 67.6938 106.8815 0.0000 0.0000 0.0000
# 4 0.0000 0.0000 0.0000 -16.0887 0.0000 0.0000
# 5 0.0000 0.0000 0.0000 0.0000 25.9709 0.0000
# 6 0.0000 0.0000 0.0000 0.0000 0.0000 18.1097
#
#
#
# Elastic Compliance Matrix: (Units=1/GPa)
#
#
# Indices 1 2 3 4 5 6 
#
# 1 0.015988 -0.005122 -0.003601 0.000000 0.000000 0.000000
# 2 -0.005122 0.015934 -0.007898 0.000000 0.000000 0.000000
# 3 -0.003601 -0.007898 0.015900 0.000000 0.000000 0.000000
# 4 0.000000 0.000000 0.000000 -0.062156 0.000000 0.000000
# 5 0.000000 0.000000 0.000000 0.000000 0.038505 0.000000
# 6 0.000000 0.000000 0.000000 0.000000 0.000000 0.055219
#
#
# Mechanical properties :
#
#
# Convention : Reuss Voigt Hill
#
# Bulk Modulus (GPa) = 68.59531 70.97306 69.78418
# Shear Modulus (GPa) = 42.55589 15.21109 28.88349
#
# Velocity S-wave (km/s) = 4.62789 2.76684 3.81266
# Velocity P-wave (km/s) = 7.94222 6.77689 7.38259
#
# Compressibility (1/GPa) = 0.01457826
#
# Stress axis : x y z
#
# Youngs Moduli (GPa) = 62.54826 62.76044 62.89145
#
# Poissons Ratio (x) = 0.32148 0.22647
# Poissons Ratio (y) = 0.32039 0.49675
# Poissons Ratio (z) = 0.22523 0.49571
#
# Static dielectric constant tensor:
#      x y z
#    x 3.738220 0.000000 0.000000 
#    y 0.000000 3.652190 0.000000 
#    z 0.000000 0.000000 3.717280 
# 
# 
# High freq. dielectric constant tensor:
#      x y z
#    x 1.777580 0.000000 0.000000 
#    y 0.000000 1.749710 0.000000 
#    z 0.000000 0.000000 1.783700 
# 
# From -- ./inp_files/33482.got.cif
#   From: 2010.03.12/outbox.cif.g09.slc.cpg/sg51_17_cif.got.tgz:33482.got - 2010.04.16 13:43:02.
