data_PCOD8209585
_publ_section_title
;
Structure prediction by ZEFSAII (Michael W. Deem and Ramdas Pophale) SiO2 
 PCOD8209585
Probable space group: P M M A
;
_chemical_formula_sum "Si O2"
_cell_formula_units_Z 48
_cell_length_a 34.340342
_cell_length_b 7.856062
_cell_length_c 9.584571
_cell_angle_alpha 90.000000
_cell_angle_beta 90.000000
_cell_angle_gamma 90.000000
_cell_volume 2585.724183
_symmetry_space_group_name_H-M "P M M A"
_symmetry_group_IT_number 51
_symmetry_cell_setting 'orthorhombic'
loop_
_space_group_symop_operation_xyz
x,y,z
1/2-x,-y,z
1/2+x,-y,-z
-x,y,-z
-x,-y,-z
1/2+x,y,-z
1/2-x,y,z
x,-y,z
loop_
_atom_site_type_symbol
_atom_site_label
_atom_site_fract_x
_atom_site_fract_y
_atom_site_fract_z
Si Si1 0.250000 0.314345 0.351533
Si Si2 0.832642 0.298475 0.626122
Si Si3 0.541065 0.000000 0.826936
Si Si4 0.250000 0.686698 0.682114
Si Si5 0.095587 0.696012 0.180564
Si Si6 0.833921 0.190371 0.313963
Si Si7 0.597544 0.311734 0.142856
Si Si8 0.454344 0.000000 0.842482
O O1 0.250000 0.500000 0.279981
O O2 0.208822 0.222933 0.313263
O O3 0.250000 0.330485 0.517453
O O4 0.827781 0.500000 0.604726
O O5 0.866212 0.251796 0.733774
O O6 0.842190 0.218278 0.477128
O O7 0.561745 0.826853 0.772664
O O8 0.496816 0.000000 0.770148
O O9 0.540866 0.000000 0.992713
O O10 0.250000 0.500000 0.751103
O O11 0.289040 0.782660 0.730040
O O12 0.082879 0.500000 0.211444
O O13 0.106029 0.723595 0.019365
O O14 0.861570 0.311843 0.223719
O O15 0.845726 0.000000 0.274438
O O16 0.578783 0.500000 0.161353
O O17 0.568258 0.170592 0.205544
#
# Coordination Sequence:
#
# PCOD8209585 Si02
#       8
#     4   8   4   4   8   8   8   4
#     4   7  12  25  46  67  94 128 165 209 242 279
#     4   9  17  31  50  74 101 133 173 210 248 297
#     4   9  18  32  55  74 107 128 164 209 257 299
#     4   9  17  31  48  69  98 136 175 214 253 287
#     4   9  19  33  53  78 103 134 168 206 257 307
#     4  11  20  31  50  77 104 136 175 212 252 297
#     4  10  19  34  53  76 106 136 167 209 256 303
#     4   9  18  34  51  80  99 134 166 207 251 311
#
# _framework density 18.563464
#
# number of rings (size 3 to 8) (size 9 to 14) (size 15 to 20)
#    0.000    2.667    0.833    2.750    1.167    0.667 
#    0.000    4.167    0.000    5.000    0.000    3.500 
#    0.000    0.000    0.000    0.000    0.000    0.000 
#
# Total GULP energy -594835.383994 kJ/mol
# GULP energy per Si atom -12392.403833 kJ/mol
# Density = 1.852121 g / cm^3
# Si number density = 18.563464 Si / 1000 Ang^3
#
#
#
# Elastic Constant Matrix: (Units=GPa)
#
#
# Indices 1 2 3 4 5 6 
#
# 1 155.4096 57.7136 39.9907 0.0000 0.0000 0.0000
# 2 57.7136 107.3894 24.0501 0.0000 0.0000 0.0000
# 3 39.9907 24.0501 37.7869 0.0000 0.0000 0.0000
# 4 0.0000 0.0000 0.0000 17.8007 0.0000 0.0000
# 5 0.0000 0.0000 0.0000 0.0000 17.2671 0.0000
# 6 0.0000 0.0000 0.0000 0.0000 0.0000 23.5034
#
#
#
# Elastic Compliance Matrix: (Units=1/GPa)
#
#
# Indices 1 2 3 4 5 6 
#
# 1 0.009825 -0.003442 -0.008207 0.000000 0.000000 0.000000
# 2 -0.003442 0.012066 -0.004037 0.000000 0.000000 0.000000
# 3 -0.008207 -0.004037 0.037719 0.000000 0.000000 0.000000
# 4 0.000000 0.000000 0.000000 0.056177 0.000000 0.000000
# 5 0.000000 0.000000 0.000000 0.000000 0.057914 0.000000
# 6 0.000000 0.000000 0.000000 0.000000 0.000000 0.042547
#
#
# Mechanical properties :
#
#
# Convention : Reuss Voigt Hill
#
# Bulk Modulus (GPa) = 35.41306 60.45496 47.93401
# Shear Modulus (GPa) = 19.45285 23.63634 21.54460
#
# Velocity S-wave (km/s) = 3.24066 3.57217 3.41044
# Velocity P-wave (km/s) = 5.75505 7.04636 6.43319
#
# Compressibility (1/GPa) = 0.02823817
#
# Stress axis : x y z
#
# Youngs Moduli (GPa) = 101.78398 82.87911 26.51184
#
# Poissons Ratio (x) = 0.28528 0.21758
# Poissons Ratio (y) = 0.35035 0.10702
# Poissons Ratio (z) = 0.83534 0.33455
#
# Static dielectric constant tensor:
#      x y z
#    x 3.712150 0.000000 0.000000 
#    y 0.000000 3.489380 0.000000 
#    z 0.000000 0.000000 2.964580 
# 
# 
# High freq. dielectric constant tensor:
#      x y z
#    x 1.723290 0.000000 0.000000 
#    y 0.000000 1.727160 0.000000 
#    z 0.000000 0.000000 1.671710 
# 
# From -- ./inp_files/12991.got.cif
#   From: 2010.03.12/outbox.cif.g09.slc.cpg/sg51_7_cif.got.tgz:12991.got - 2010.04.16 13:43:02.
