data_PCOD8209737
_publ_section_title
;
Structure prediction by ZEFSAII (Michael W. Deem and Ramdas Pophale) SiO2 
 PCOD8209737
Probable space group: P M M A
;
_chemical_formula_sum "Si O2"
_cell_formula_units_Z 48
_cell_length_a 15.103935
_cell_length_b 18.190631
_cell_length_c 8.911644
_cell_angle_alpha 90.000000
_cell_angle_beta 90.000000
_cell_angle_gamma 90.000000
_cell_volume 2448.475154
_symmetry_space_group_name_H-M "P M M A"
_symmetry_group_IT_number 51
_symmetry_cell_setting 'orthorhombic'
loop_
_space_group_symop_operation_xyz
x,y,z
1/2-x,-y,z
1/2+x,-y,-z
-x,y,-z
-x,-y,-z
1/2+x,y,-z
1/2-x,y,z
x,-y,z
loop_
_atom_site_type_symbol
_atom_site_label
_atom_site_fract_x
_atom_site_fract_y
_atom_site_fract_z
Si Si1 0.998316 0.824308 0.167242
Si Si2 0.490311 0.658304 0.834442
Si Si3 0.151377 0.203413 0.398937
Si Si4 0.151154 0.417766 0.300251
Si Si5 0.650802 0.342132 0.404519
Si Si6 0.910639 0.918345 0.406804
O O1 0.091987 0.814947 0.253523
O O2 0.960163 0.742594 0.152511
O O3 0.930416 0.877658 0.250937
O O4 0.000000 0.858376 0.000000
O O5 0.586455 0.644865 0.762777
O O6 0.412328 0.627253 0.728493
O O7 0.500000 0.622288 0.000000
O O8 0.250000 0.225045 0.343390
O O9 0.113717 0.269213 0.506355
O O10 0.158717 0.129788 0.499161
O O11 0.250000 0.404878 0.234431
O O12 0.117751 0.500000 0.260466
O O13 0.153555 0.409465 0.479413
O O14 0.750000 0.325961 0.342275
O O15 0.000000 0.923494 0.500000
O O16 0.872073 0.000000 0.376561
#
# Coordination Sequence:
#
# PCOD8209737 Si02
#       6
#     8   8   8   8   8   8
#     4  10  20  34  53  83 116 148 189 228 277 343
#     4  11  22  35  57  85 118 153 189 228 280 344
#     4  10  19  34  57  81 108 147 193 236 277 327
#     4  10  22  39  60  86 113 146 192 241 285 332
#     4  10  20  36  58  84 112 146 189 236 279 328
#     4   9  18  33  55  80 108 145 187 231 277 326
#
# _framework density 19.604037000000002
#
# number of rings (size 3 to 8) (size 9 to 14) (size 15 to 20)
#    0.000    2.000    3.333    0.500    0.000    3.000 
#    0.000    3.333    0.000    2.000    0.000    0.000 
#    0.000    0.000    0.000    0.000    0.000    0.000 
#
# Total GULP energy -594708.317296 kJ/mol
# GULP energy per Si atom -12389.756610 kJ/mol
# Density = 1.955942 g / cm^3
# Si number density = 19.604037 Si / 1000 Ang^3
#
#
#
# Elastic Constant Matrix: (Units=GPa)
#
#
# Indices 1 2 3 4 5 6 
#
# 1 83.6834 4.7887 46.2574 0.0000 0.0000 0.0000
# 2 4.7887 74.5708 11.7467 0.0000 0.0000 0.0000
# 3 46.2574 11.7467 124.3410 0.0000 0.0000 0.0000
# 4 0.0000 0.0000 0.0000 16.3159 0.0000 0.0000
# 5 0.0000 0.0000 0.0000 0.0000 11.6994 0.0000
# 6 0.0000 0.0000 0.0000 0.0000 0.0000 19.3892
#
#
#
# Elastic Compliance Matrix: (Units=1/GPa)
#
#
# Indices 1 2 3 4 5 6 
#
# 1 0.015044 -0.000086 -0.005589 0.000000 0.000000 0.000000
# 2 -0.000086 0.013613 -0.001254 0.000000 0.000000 0.000000
# 3 -0.005589 -0.001254 0.010240 0.000000 0.000000 0.000000
# 4 0.000000 0.000000 0.000000 0.061290 0.000000 0.000000
# 5 0.000000 0.000000 0.000000 0.000000 0.085474 0.000000
# 6 0.000000 0.000000 0.000000 0.000000 0.000000 0.051575
#
#
# Mechanical properties :
#
#
# Convention : Reuss Voigt Hill
#
# Bulk Modulus (GPa) = 39.93597 45.35342 42.64469
# Shear Modulus (GPa) = 19.27230 24.13440 21.70335
#
# Velocity S-wave (km/s) = 3.13881 3.51250 3.33090
# Velocity P-wave (km/s) = 5.79238 6.29565 6.04925
#
# Compressibility (1/GPa) = 0.02504008
#
# Stress axis : x y z
#
# Youngs Moduli (GPa) = 66.47237 73.45846 97.65703
#
# Poissons Ratio (x) = 0.00630 0.54576
# Poissons Ratio (y) = 0.00570 0.12248
# Poissons Ratio (z) = 0.37148 0.09213
#
# Static dielectric constant tensor:
#      x y z
#    x 3.352440 0.000000 0.000000 
#    y 0.000000 3.640830 0.000000 
#    z 0.000000 0.000000 3.618030 
# 
# 
# High freq. dielectric constant tensor:
#      x y z
#    x 1.749230 0.000000 0.000000 
#    y 0.000000 1.757460 0.000000 
#    z 0.000000 0.000000 1.749010 
# 
# From -- ./inp_files/8259.got.cif
#   From: 2010.03.12/outbox.cif.g09.slc.cpg/sg51_5_cif.got.tgz:8259.got - 2010.04.16 13:43:02.
