data_PCOD8209753
_publ_section_title
;
Structure prediction by ZEFSAII (Michael W. Deem and Ramdas Pophale) SiO2 
 PCOD8209753
Probable space group: P M M A
;
_chemical_formula_sum "Si O2"
_cell_formula_units_Z 40
_cell_length_a 25.961589
_cell_length_b 8.641200
_cell_length_c 8.961388
_cell_angle_alpha 90.000000
_cell_angle_beta 90.000000
_cell_angle_gamma 90.000000
_cell_volume 2010.391357
_symmetry_space_group_name_H-M "P M M A"
_symmetry_group_IT_number 51
_symmetry_cell_setting 'orthorhombic'
loop_
_space_group_symop_operation_xyz
x,y,z
1/2-x,-y,z
1/2+x,-y,-z
-x,y,-z
-x,-y,-z
1/2+x,y,-z
1/2-x,y,z
x,-y,z
loop_
_atom_site_type_symbol
_atom_site_label
_atom_site_fract_x
_atom_site_fract_y
_atom_site_fract_z
Si Si1 0.750000 0.315365 0.587773
Si Si2 0.648601 0.316850 0.423794
Si Si3 0.051211 0.180530 0.416071
Si Si4 0.851623 0.684106 0.088942
Si Si5 0.250000 0.684526 0.075109
Si Si6 0.550500 0.321053 0.902747
O O1 0.750000 0.500000 0.588733
O O2 0.699608 0.250504 0.503832
O O3 0.750000 0.251333 0.756466
O O4 0.652017 0.500000 0.416780
O O5 0.599134 0.271883 0.518023
O O6 0.645348 0.248112 0.256508
O O7 0.045100 0.217198 0.242698
O O8 0.000000 0.237734 0.500000
O O9 0.060425 0.000000 0.440558
O O10 0.850715 0.500000 0.094665
O O11 0.800357 0.748428 0.009405
O O12 0.901074 0.741263 0.997047
O O13 0.250000 0.500000 0.075057
O O14 0.557945 0.500000 0.856531
O O15 0.500000 0.297635 0.000000
#
# Coordination Sequence:
#
# PCOD8209753 Si02
#       6
#     4   8   8   8   4   8
#     4   9  17  29  52  85 114 141 174 218 270 321
#     4  10  19  34  57  83 110 141 179 221 268 321
#     4  11  24  39  54  76 108 145 183 224 272 323
#     4   9  17  29  49  78 108 136 169 214 263 312
#     4   9  15  25  43  73 112 141 164 204 260 315
#     4  10  20  35  56  81 106 135 176 224 271 319
#
# _framework density 19.896622000000001
#
# number of rings (size 3 to 8) (size 9 to 14) (size 15 to 20)
#    0.000    2.200    0.000    3.600    0.000    9.200 
#    0.000    1.500    0.000    0.000    0.000    1.400 
#    0.000    0.000    0.000    0.000    0.000    0.000 
#
# Total GULP energy -496108.082056 kJ/mol
# GULP energy per Si atom -12402.702051 kJ/mol
# Density = 1.985134 g / cm^3
# Si number density = 19.896622 Si / 1000 Ang^3
#
#
#
# Elastic Constant Matrix: (Units=GPa)
#
#
# Indices 1 2 3 4 5 6 
#
# 1 168.0571 8.4489 64.9949 0.0000 0.0000 0.0000
# 2 8.4489 7.2487 9.8279 0.0000 0.0000 0.0000
# 3 64.9949 9.8279 152.6176 0.0000 0.0000 0.0000
# 4 0.0000 0.0000 0.0000 14.2408 0.0000 0.0000
# 5 0.0000 0.0000 0.0000 0.0000 42.0498 0.0000
# 6 0.0000 0.0000 0.0000 0.0000 0.0000 8.2569
#
#
#
# Elastic Compliance Matrix: (Units=1/GPa)
#
#
# Indices 1 2 3 4 5 6 
#
# 1 0.007266 -0.004682 -0.002793 0.000000 0.000000 0.000000
# 2 -0.004682 0.154171 -0.007934 0.000000 0.000000 0.000000
# 3 -0.002793 -0.007934 0.008253 0.000000 0.000000 0.000000
# 4 0.000000 0.000000 0.000000 0.070221 0.000000 0.000000
# 5 0.000000 0.000000 0.000000 0.000000 0.023781 0.000000
# 6 0.000000 0.000000 0.000000 0.000000 0.000000 0.121111
#
#
# Mechanical properties :
#
#
# Convention : Reuss Voigt Hill
#
# Bulk Modulus (GPa) = 7.20091 54.94077 31.07084
# Shear Modulus (GPa) = 10.82460 29.21962 20.02211
#
# Velocity S-wave (km/s) = 2.33500 3.83635 3.17568
# Velocity P-wave (km/s) = 3.30101 6.87725 5.39413
#
# Compressibility (1/GPa) = 0.13887125
#
# Stress axis : x y z
#
# Youngs Moduli (GPa) = 137.63017 6.48631 121.17432
#
# Poissons Ratio (x) = 0.03037 0.33841
# Poissons Ratio (y) = 0.64445 0.96138
# Poissons Ratio (z) = 0.38437 0.05146
#
# Static dielectric constant tensor:
#      x y z
#    x 3.849610 0.000000 0.000000 
#    y 0.000000 3.034710 0.000000 
#    z 0.000000 0.000000 3.854380 
# 
# 
# High freq. dielectric constant tensor:
#      x y z
#    x 1.797020 0.000000 0.000000 
#    y 0.000000 1.717740 0.000000 
#    z 0.000000 0.000000 1.795840 
# 
# From -- ./inp_files/12163.got.cif
#   From: 2010.03.12/outbox.cif.g09.slc.cpg/sg51_7_cif.got.tgz:12163.got - 2010.04.16 13:43:02.
