data_PCOD8209609
_publ_section_title
;
Structure prediction by ZEFSAII (Michael W. Deem and Ramdas Pophale) SiO2 
 PCOD8209609
Probable space group: P M M A
;
_chemical_formula_sum "Si O2"
_cell_formula_units_Z 56
_cell_length_a 8.789792
_cell_length_b 20.215078
_cell_length_c 15.300039
_cell_angle_alpha 90.000000
_cell_angle_beta 90.000000
_cell_angle_gamma 90.000000
_cell_volume 2718.607792
_symmetry_space_group_name_H-M "P M M A"
_symmetry_group_IT_number 51
_symmetry_cell_setting 'orthorhombic'
loop_
_space_group_symop_operation_xyz
x,y,z
1/2-x,-y,z
1/2+x,-y,-z
-x,y,-z
-x,-y,-z
1/2+x,y,-z
1/2-x,y,z
x,-y,z
loop_
_atom_site_type_symbol
_atom_site_label
_atom_site_fract_x
_atom_site_fract_y
_atom_site_fract_z
Si Si1 0.076700 0.755077 0.358247
Si Si2 0.580571 0.898634 0.585362
Si Si3 0.425304 0.574363 0.239690
Si Si4 0.569883 0.675586 0.910257
Si Si5 0.070020 0.622892 0.587361
Si Si6 0.070103 0.204298 0.821658
Si Si7 0.571543 0.926348 0.776254
O O1 0.250000 0.735787 0.332525
O O2 0.075233 0.819212 0.419419
O O3 0.996782 0.696649 0.409961
O O4 0.982434 0.768272 0.271093
O O5 0.500000 0.928444 0.500000
O O6 0.750000 0.926471 0.581711
O O7 0.507087 0.923542 0.676615
O O8 0.250000 0.588190 0.263120
O O9 0.448009 0.500000 0.203725
O O10 0.482569 0.625791 0.166570
O O11 0.523536 0.582146 0.327152
O O12 0.750000 0.678730 0.917920
O O13 0.503666 0.749052 0.895022
O O14 0.500000 0.647770 0.000000
O O15 0.250000 0.625036 0.579420
O O16 0.000000 0.589023 0.500000
O O17 0.250000 0.206933 0.830241
O O18 0.014209 0.128288 0.834910
O O19 0.750000 0.907950 0.775084
O O20 0.542762 0.000000 0.814609
#
# Coordination Sequence:
#
# PCOD8209609 Si02
#       7
#     8   8   8   8   8   8   8
#     4  10  19  34  54  78 112 154 201 254 308 363
#     4   9  18  29  44  69 103 144 192 245 300 353
#     4  10  23  44  67  91 125 168 209 254 308 365
#     4  11  23  41  68  98 130 162 201 250 305 370
#     4  12  24  37  58  87 121 164 212 261 312 367
#     4  11  21  35  59  90 122 155 198 250 306 365
#     4   9  19  36  55  76 109 157 205 248 304 369
#
# _framework density 20.598776999999998
#
# number of rings (size 3 to 8) (size 9 to 14) (size 15 to 20)
#    0.000    1.714    1.429    4.714    0.000    6.000 
#    0.000    0.000    0.000    0.429    0.000    0.000 
#    0.000    0.000    0.000    0.000    0.000    0.000 
#
# Total GULP energy -694388.358663 kJ/mol
# GULP energy per Si atom -12399.792119 kJ/mol
# Density = 2.055189 g / cm^3
# Si number density = 20.598777 Si / 1000 Ang^3
#
#
#
# Elastic Constant Matrix: (Units=GPa)
#
#
# Indices 1 2 3 4 5 6 
#
# 1 108.2236 43.0024 36.2029 0.0000 0.0000 0.0000
# 2 43.0024 114.7775 40.3703 0.0000 0.0000 0.0000
# 3 36.2029 40.3703 91.7455 0.0000 0.0000 0.0000
# 4 0.0000 0.0000 0.0000 7.4031 0.0000 0.0000
# 5 0.0000 0.0000 0.0000 0.0000 32.6664 0.0000
# 6 0.0000 0.0000 0.0000 0.0000 0.0000 21.2474
#
#
#
# Elastic Compliance Matrix: (Units=1/GPa)
#
#
# Indices 1 2 3 4 5 6 
#
# 1 0.011576 -0.003230 -0.003147 0.000000 0.000000 0.000000
# 2 -0.003230 0.011209 -0.003658 0.000000 0.000000 0.000000
# 3 -0.003147 -0.003658 0.013751 0.000000 0.000000 0.000000
# 4 0.000000 0.000000 0.000000 0.135078 0.000000 0.000000
# 5 0.000000 0.000000 0.000000 0.000000 0.030613 0.000000
# 6 0.000000 0.000000 0.000000 0.000000 0.000000 0.047065
#
#
# Mechanical properties :
#
#
# Convention : Reuss Voigt Hill
#
# Bulk Modulus (GPa) = 60.72693 61.54420 61.13556
# Shear Modulus (GPa) = 18.19176 25.27479 21.73327
#
# Velocity S-wave (km/s) = 2.97500 3.50666 3.25172
# Velocity P-wave (km/s) = 6.43006 6.80720 6.62132
#
# Compressibility (1/GPa) = 0.01646716
#
# Stress axis : x y z
#
# Youngs Moduli (GPa) = 86.38322 89.21158 72.72303
#
# Poissons Ratio (x) = 0.28819 0.22883
# Poissons Ratio (y) = 0.27906 0.26599
# Poissons Ratio (z) = 0.27181 0.32630
#
# Static dielectric constant tensor:
#      x y z
#    x 3.633030 0.000000 0.000000 
#    y 0.000000 3.859410 0.000000 
#    z 0.000000 0.000000 3.623400 
# 
# 
# High freq. dielectric constant tensor:
#      x y z
#    x 1.800620 0.000000 0.000000 
#    y 0.000000 1.809910 0.000000 
#    z 0.000000 0.000000 1.784050 
# 
# From -- ./inp_files/21799.got.cif
#   From: 2010.03.12/outbox.cif.g09.slc.cpg/sg51_11_cif.got.tgz:21799.got - 2010.04.16 13:43:02.
