data_PCOD8209854
_publ_section_title
;
Structure prediction by ZEFSAII (Michael W. Deem and Ramdas Pophale) SiO2 
 PCOD8209854
Probable space group: P M M A
;
_chemical_formula_sum "Si O2"
_cell_formula_units_Z 32
_cell_length_a 16.068631
_cell_length_b 16.988651
_cell_length_c 5.232109
_cell_angle_alpha 90.000000
_cell_angle_beta 90.000000
_cell_angle_gamma 90.000000
_cell_volume 1428.283948
_symmetry_space_group_name_H-M "P M M A"
_symmetry_group_IT_number 51
_symmetry_cell_setting 'orthorhombic'
loop_
_space_group_symop_operation_xyz
x,y,z
1/2-x,-y,z
1/2+x,-y,-z
-x,y,-z
-x,-y,-z
1/2+x,y,-z
1/2-x,y,z
x,-y,z
loop_
_atom_site_type_symbol
_atom_site_label
_atom_site_fract_x
_atom_site_fract_y
_atom_site_fract_z
Si Si1 0.345448 0.671903 0.094967
Si Si2 0.089338 0.092110 0.725388
Si Si3 0.595341 0.159121 0.776227
Si Si4 0.593826 0.590907 0.421901
O O1 0.250000 0.693533 0.041874
O O2 0.396495 0.748284 0.182452
O O3 0.349791 0.611341 0.332106
O O4 0.383956 0.638835 0.833240
O O5 0.139357 0.130267 0.486536
O O6 0.000866 0.135285 0.750581
O O7 0.076718 0.000000 0.684226
O O8 0.138089 0.112051 0.987231
O O9 0.500000 0.610281 0.500000
O O10 0.607220 0.500000 0.353410
#
# Coordination Sequence:
#
# PCOD8209854 Si02
#       4
#     8   8   8   8
#     4  12  26  42  66  98 137 176 214 263 337 407
#     4  10  19  34  60  90 119 165 221 268 314 374
#     4  10  20  33  56  89 123 160 205 269 312 372
#     4  11  26  46  70  97 128 168 223 279 322 383
#
# _framework density 22.404509999999998
#
# number of rings (size 3 to 8) (size 9 to 14) (size 15 to 20)
#    0.000    1.250    0.000    7.500   10.500    5.000 
#    0.000    0.000    0.000    8.250    0.000    0.000 
#    0.000    0.000    0.000    0.000    0.000    0.000 
#
# Total GULP energy -396640.127692 kJ/mol
# GULP energy per Si atom -12395.003990 kJ/mol
# Density = 2.235352 g / cm^3
# Si number density = 22.404510 Si / 1000 Ang^3
#
#
#
# Elastic Constant Matrix: (Units=GPa)
#
#
# Indices 1 2 3 4 5 6 
#
# 1 49.7629 53.1858 29.7725 0.0000 0.0000 0.0000
# 2 53.1858 151.9620 80.2676 0.0000 0.0000 0.0000
# 3 29.7725 80.2676 256.2037 0.0000 0.0000 0.0000
# 4 0.0000 0.0000 0.0000 53.1972 0.0000 0.0000
# 5 0.0000 0.0000 0.0000 0.0000 17.4053 0.0000
# 6 0.0000 0.0000 0.0000 0.0000 0.0000 4.1815
#
#
#
# Elastic Compliance Matrix: (Units=1/GPa)
#
#
# Indices 1 2 3 4 5 6 
#
# 1 0.032118 -0.011108 -0.000252 0.000000 0.000000 0.000000
# 2 -0.011108 0.011727 -0.002383 0.000000 0.000000 0.000000
# 3 -0.000252 -0.002383 0.004679 0.000000 0.000000 0.000000
# 4 0.000000 0.000000 0.000000 0.018798 0.000000 0.000000
# 5 0.000000 0.000000 0.000000 0.000000 0.057454 0.000000
# 6 0.000000 0.000000 0.000000 0.000000 0.000000 0.239147
#
#
# Mechanical properties :
#
#
# Convention : Reuss Voigt Hill
#
# Bulk Modulus (GPa) = 47.53396 87.15338 67.34367
# Shear Modulus (GPa) = 12.54948 34.60365 23.57656
#
# Velocity S-wave (km/s) = 2.36928 3.93427 3.24746
# Velocity P-wave (km/s) = 5.36162 7.72155 6.64715
#
# Compressibility (1/GPa) = 0.02103759
#
# Stress axis : x y z
#
# Youngs Moduli (GPa) = 31.13495 85.27211 213.71516
#
# Poissons Ratio (x) = 0.94720 0.05391
# Poissons Ratio (y) = 0.34585 0.50934
# Poissons Ratio (z) = 0.00785 0.20323
#
# Static dielectric constant tensor:
#      x y z
#    x 3.579300 0.000000 0.000000 
#    y 0.000000 3.998410 0.000000 
#    z 0.000000 0.000000 8.828000 
# 
# 
# High freq. dielectric constant tensor:
#      x y z
#    x 1.833040 0.000000 0.000000 
#    y 0.000000 1.891030 0.000000 
#    z 0.000000 0.000000 1.927950 
# 
# From -- ./inp_files/1910.got.cif
#   From: 2010.03.12/outbox.cif.g09.slc.cpg/sg51_1_cif.got.tgz:1910.got - 2010.04.16 13:43:02.
