data_PCOD8209339
_publ_section_title
;
Structure prediction by ZEFSAII (Michael W. Deem and Ramdas Pophale) SiO2 
 PCOD8209339
Probable space group: P M M A
;
_chemical_formula_sum "Si O2"
_cell_formula_units_Z 64
_cell_length_a 8.980139
_cell_length_b 14.818561
_cell_length_c 24.980415
_cell_angle_alpha 90.000000
_cell_angle_beta 90.000000
_cell_angle_gamma 90.000000
_cell_volume 3324.212209
_symmetry_space_group_name_H-M "P M M A"
_symmetry_group_IT_number 51
_symmetry_cell_setting 'orthorhombic'
loop_
_space_group_symop_operation_xyz
x,y,z
1/2-x,-y,z
1/2+x,-y,-z
-x,y,-z
-x,-y,-z
1/2+x,y,-z
1/2-x,y,z
x,-y,z
loop_
_atom_site_type_symbol
_atom_site_label
_atom_site_fract_x
_atom_site_fract_y
_atom_site_fract_z
Si Si1 0.427164 0.723406 0.146310
Si Si2 0.575457 0.396894 0.056669
Si Si3 0.918489 0.137116 0.303124
Si Si4 0.575246 0.897668 0.183993
Si Si5 0.421723 0.903299 0.406570
Si Si6 0.573203 0.713929 0.554085
Si Si7 0.581615 0.400261 0.756919
Si Si8 0.580558 0.661444 0.341270
O O1 0.250000 0.721539 0.139712
O O2 0.501126 0.672531 0.097128
O O3 0.485099 0.826646 0.147563
O O4 0.479496 0.671932 0.200282
O O5 0.750000 0.376270 0.052231
O O6 0.547227 0.500000 0.075537
O O7 0.500000 0.379446 0.000000
O O8 0.750000 0.103029 0.307303
O O9 0.982473 0.112201 0.244955
O O10 0.933042 0.242637 0.313050
O O11 0.009247 0.085098 0.348106
O O12 0.750000 0.874517 0.180521
O O13 0.543535 0.000000 0.163980
O O14 0.250000 0.882914 0.397634
O O15 0.486026 0.817952 0.439318
O O16 0.447978 0.000000 0.436628
O O17 0.500000 0.675582 0.500000
O O18 0.750000 0.705658 0.549988
O O19 0.514595 0.655831 0.604124
O O20 0.750000 0.374304 0.740980
O O21 0.574596 0.500000 0.783153
O O22 0.485040 0.405824 0.702777
O O23 0.750000 0.635656 0.355143
#
# Coordination Sequence:
#
# PCOD8209339 Si02
#       8
#     8   8   8   8   8   8   8   8
#     4  11  22  36  57  85 122 160 197 240 285 335
#     4  10  21  38  62  91 123 159 199 241 287 341
#     4   9  17  30  48  70  99 136 178 223 270 322
#     4  10  20  34  52  76 111 154 199 245 289 334
#     4   9  18  30  44  65  94 127 166 215 269 325
#     4  10  20  34  51  70  95 129 172 218 270 329
#     4  10  21  36  55  82 116 151 182 218 273 336
#     4  10  19  33  54  77 103 135 175 221 270 327
#
# _framework density 19.252680999999999
#
# number of rings (size 3 to 8) (size 9 to 14) (size 15 to 20)
#    0.000    2.125    1.250    2.250    0.000    4.750 
#    0.000    0.000    0.000    0.750    0.000    0.000 
#    0.000    0.000    0.000    0.000    0.000    0.000 
#
# Total GULP energy -793443.484822 kJ/mol
# GULP energy per Si atom -12397.554450 kJ/mol
# Density = 1.920886 g / cm^3
# Si number density = 19.252681 Si / 1000 Ang^3
#
#
#
# Elastic Constant Matrix: (Units=GPa)
#
#
# Indices 1 2 3 4 5 6 
#
# 1 84.1596 35.3365 50.6509 0.0000 0.0000 0.0000
# 2 35.3365 83.8902 44.5697 0.0000 0.0000 0.0000
# 3 50.6509 44.5697 107.4287 0.0000 0.0000 0.0000
# 4 0.0000 0.0000 0.0000 14.7846 0.0000 0.0000
# 5 0.0000 0.0000 0.0000 0.0000 33.5218 0.0000
# 6 0.0000 0.0000 0.0000 0.0000 0.0000 22.9491
#
#
#
# Elastic Compliance Matrix: (Units=1/GPa)
#
#
# Indices 1 2 3 4 5 6 
#
# 1 0.017500 -0.003833 -0.006661 0.000000 0.000000 0.000000
# 2 -0.003833 0.016130 -0.004885 0.000000 0.000000 0.000000
# 3 -0.006661 -0.004885 0.014476 0.000000 0.000000 0.000000
# 4 0.000000 0.000000 0.000000 0.067638 0.000000 0.000000
# 5 0.000000 0.000000 0.000000 0.000000 0.029831 0.000000
# 6 0.000000 0.000000 0.000000 0.000000 0.000000 0.043575
#
#
# Mechanical properties :
#
#
# Convention : Reuss Voigt Hill
#
# Bulk Modulus (GPa) = 57.64080 59.62143 58.63112
# Shear Modulus (GPa) = 22.15424 23.91252 23.03338
#
# Velocity S-wave (km/s) = 3.39589 3.52808 3.46261
# Velocity P-wave (km/s) = 6.73648 6.90156 6.81952
#
# Compressibility (1/GPa) = 0.01734882
#
# Stress axis : x y z
#
# Youngs Moduli (GPa) = 57.14176 61.99611 69.08111
#
# Poissons Ratio (x) = 0.23761 0.46015
# Poissons Ratio (y) = 0.21900 0.33746
# Poissons Ratio (z) = 0.38062 0.30285
#
# Static dielectric constant tensor:
#      x y z
#    x 3.498760 0.000000 0.000000 
#    y 0.000000 3.493550 0.000000 
#    z 0.000000 0.000000 3.333380 
# 
# 
# High freq. dielectric constant tensor:
#      x y z
#    x 1.749800 0.000000 0.000000 
#    y 0.000000 1.743250 0.000000 
#    z 0.000000 0.000000 1.727570 
# 
# From -- ./inp_files/35017.got.cif
#   From: 2010.03.12/outbox.cif.g09.slc.cpg/sg51_18_cif.got.tgz:35017.got - 2010.04.16 13:43:02.
