data_PCOD8209383
_publ_section_title
;
Structure prediction by ZEFSAII (Michael W. Deem and Ramdas Pophale) SiO2 
 PCOD8209383
Probable space group: P M M A
;
_chemical_formula_sum "Si O2"
_cell_formula_units_Z 40
_cell_length_a 8.623708
_cell_length_b 25.916535
_cell_length_c 9.162517
_cell_angle_alpha 90.000000
_cell_angle_beta 90.000000
_cell_angle_gamma 90.000000
_cell_volume 2047.791674
_symmetry_space_group_name_H-M "P M M A"
_symmetry_group_IT_number 51
_symmetry_cell_setting 'orthorhombic'
loop_
_space_group_symop_operation_xyz
x,y,z
1/2-x,-y,z
1/2+x,-y,-z
-x,y,-z
-x,-y,-z
1/2+x,y,-z
1/2-x,y,z
x,-y,z
loop_
_atom_site_type_symbol
_atom_site_label
_atom_site_fract_x
_atom_site_fract_y
_atom_site_fract_z
Si Si1 0.566673 0.094510 0.160756
Si Si2 0.567309 0.597968 0.338254
Si Si3 0.431163 0.814311 0.338317
Si Si4 0.566175 0.500000 0.160001
Si Si5 0.566123 0.000000 0.660987
Si Si6 0.428881 0.700065 0.341904
O O1 0.750000 0.087647 0.156289
O O2 0.522797 0.149565 0.227613
O O3 0.492336 0.050626 0.258876
O O4 0.500000 0.089581 0.000000
O O5 0.500000 0.593566 0.500000
O O6 0.750000 0.596147 0.347541
O O7 0.503096 0.550575 0.243168
O O8 0.513999 0.652097 0.261424
O O9 0.500000 0.820070 0.500000
O O10 0.250000 0.829187 0.344880
O O11 0.453080 0.756536 0.270691
O O12 0.750000 0.500000 0.153276
O O13 0.500000 0.500000 0.000000
O O14 0.500000 0.000000 0.500000
O O15 0.750000 0.000000 0.655894
O O16 0.500000 0.704890 0.500000
O O17 0.250000 0.685477 0.353910
#
# Coordination Sequence:
#
# PCOD8209383 Si02
#       6
#     8   8   8   4   4   8
#     4  12  25  42  62  87 119 155 193 235 283 335
#     4  10  19  33  54  80 107 137 179 225 273 326
#     4  10  20  36  58  86 117 151 190 232 278 331
#     4  10  23  38  52  74 104 140 179 222 272 330
#     4  12  25  44  67  92 120 152 192 236 283 334
#     4   9  17  30  52  81 111 142 180 225 274 323
#
# _framework density 19.533237
#
# number of rings (size 3 to 8) (size 9 to 14) (size 15 to 20)
#    0.000    1.600    0.000    6.900    0.000    4.000 
#    0.000    1.000    0.000    2.400    0.000    0.000 
#    0.000    0.000    0.000    0.000    0.000    0.000 
#
# Total GULP energy -495899.627786 kJ/mol
# GULP energy per Si atom -12397.490695 kJ/mol
# Density = 1.948878 g / cm^3
# Si number density = 19.533237 Si / 1000 Ang^3
#
#
#
# Elastic Constant Matrix: (Units=GPa)
#
#
# Indices 1 2 3 4 5 6 
#
# 1 134.9033 60.0094 47.6751 0.0000 0.0000 0.0000
# 2 60.0094 167.4494 70.0938 0.0000 0.0000 0.0000
# 3 47.6751 70.0938 113.6382 0.0000 0.0000 0.0000
# 4 0.0000 0.0000 0.0000 -7.5126 0.0000 0.0000
# 5 0.0000 0.0000 0.0000 0.0000 32.0468 0.0000
# 6 0.0000 0.0000 0.0000 0.0000 0.0000 34.6682
#
#
#
# Elastic Compliance Matrix: (Units=1/GPa)
#
#
# Indices 1 2 3 4 5 6 
#
# 1 0.009314 -0.002295 -0.002492 0.000000 0.000000 0.000000
# 2 -0.002295 0.008616 -0.004352 0.000000 0.000000 0.000000
# 3 -0.002492 -0.004352 0.012530 0.000000 0.000000 0.000000
# 4 0.000000 0.000000 0.000000 -0.133110 0.000000 0.000000
# 5 0.000000 0.000000 0.000000 0.000000 0.031204 0.000000
# 6 0.000000 0.000000 0.000000 0.000000 0.000000 0.028845
#
#
# Mechanical properties :
#
#
# Convention : Reuss Voigt Hill
#
# Bulk Modulus (GPa) = 82.08519 85.72752 83.90636
# Shear Modulus (GPa) = -246.75507 27.72132 -109.51687
#
# Velocity S-wave (km/s) = -11.25167 3.77130 -7.49591
# Velocity P-wave (km/s) = 11.25546 7.93391 5.64529
#
# Compressibility (1/GPa) = 0.01218247
#
# Stress axis : x y z
#
# Youngs Moduli (GPa) = 107.36238 116.06386 79.81076
#
# Poissons Ratio (x) = 0.26634 0.19891
# Poissons Ratio (y) = 0.24637 0.34731
# Poissons Ratio (z) = 0.26757 0.50508
#
# Static dielectric constant tensor:
#      x y z
#    x 3.747510 0.000000 0.000000 
#    y 0.000000 4.475920 0.000000 
#    z 0.000000 0.000000 3.358010 
# 
# 
# High freq. dielectric constant tensor:
#      x y z
#    x 1.778110 0.000000 0.000000 
#    y 0.000000 1.790550 0.000000 
#    z 0.000000 0.000000 1.729240 
# 
# From -- ./inp_files/5576.got.cif
#   From: 2010.03.12/outbox.cif.g09.slc.cpg/sg51_3_cif.got.tgz:5576.got - 2010.04.16 13:43:02.
