data_PCOD8209923
_publ_section_title
;
Structure prediction by ZEFSAII (Michael W. Deem and Ramdas Pophale) SiO2 
 PCOD8209923
Probable space group: P M M A
;
_chemical_formula_sum "Si O2"
_cell_formula_units_Z 64
_cell_length_a 18.862991
_cell_length_b 9.338373
_cell_length_c 20.472093
_cell_angle_alpha 90.000000
_cell_angle_beta 90.000000
_cell_angle_gamma 90.000000
_cell_volume 3606.151932
_symmetry_space_group_name_H-M "P M M A"
_symmetry_group_IT_number 51
_symmetry_cell_setting 'orthorhombic'
loop_
_space_group_symop_operation_xyz
x,y,z
1/2-x,-y,z
1/2+x,-y,-z
-x,y,-z
-x,-y,-z
1/2+x,y,-z
1/2-x,y,z
x,-y,z
loop_
_atom_site_type_symbol
_atom_site_label
_atom_site_fract_x
_atom_site_fract_y
_atom_site_fract_z
Si Si1 0.545129 0.832353 0.938213
Si Si2 0.668968 0.165531 0.496808
Si Si3 0.529617 0.664015 0.694357
Si Si4 0.169115 0.666688 0.860837
Si Si5 0.669385 0.334991 0.989409
Si Si6 0.540607 0.169254 0.190031
Si Si7 0.950539 0.334899 0.440042
Si Si8 0.329503 0.336387 0.372288
O O1 0.620998 0.755525 0.940391
O O2 0.504761 0.786374 0.873019
O O3 0.559111 0.000000 0.941183
O O4 0.500000 0.778972 0.000000
O O5 0.750000 0.187525 0.475090
O O6 0.620775 0.240640 0.441975
O O7 0.654413 0.235150 0.566967
O O8 0.648645 0.000000 0.502057
O O9 0.516741 0.500000 0.716515
O O10 0.500453 0.772482 0.747564
O O11 0.490521 0.697181 0.626820
O O12 0.613671 0.694546 0.684835
O O13 0.250000 0.695455 0.838977
O O14 0.150376 0.500000 0.852572
O O15 0.118180 0.759858 0.814800
O O16 0.158800 0.715137 0.935820
O O17 0.750000 0.309280 0.967596
O O18 0.648435 0.500000 0.982730
O O19 0.550103 0.000000 0.196166
O O20 0.928777 0.500000 0.446203
O O21 0.000000 0.287751 0.500000
O O22 0.250000 0.309930 0.344660
O O23 0.338800 0.500000 0.396844
#
# Coordination Sequence:
#
# PCOD8209923 Si02
#       8
#     8   8   8   8   8   8   8   8
#     4  10  20  35  53  77 109 143 180 219 263 320
#     4  10  20  32  50  81 115 143 175 220 272 319
#     4  10  21  37  56  80 110 143 180 223 271 322
#     4   9  18  34  56  81 108 138 176 222 271 323
#     4   9  18  32  53  83 111 136 175 227 276 319
#     4  11  23  37  54  79 111 146 183 222 266 320
#     4  10  19  35  57  81 106 136 178 222 265 317
#     4   9  17  33  57  80 104 139 182 224 266 317
#
# _framework density 17.747449
#
# number of rings (size 3 to 8) (size 9 to 14) (size 15 to 20)
#    0.000    2.250    2.500    1.500    0.000    3.750 
#    0.000    2.500    0.000    3.000    0.000    0.000 
#    0.000    0.000    0.000    0.000    0.000    0.000 
#
# Total GULP energy -793715.797994 kJ/mol
# GULP energy per Si atom -12401.809344 kJ/mol
# Density = 1.770706 g / cm^3
# Si number density = 17.747449 Si / 1000 Ang^3
#
#
#
# Elastic Constant Matrix: (Units=GPa)
#
#
# Indices 1 2 3 4 5 6 
#
# 1 125.9222 63.9903 52.9580 0.0000 0.0000 0.0000
# 2 63.9903 77.0241 43.7162 0.0000 0.0000 0.0000
# 3 52.9580 43.7162 85.9517 0.0000 0.0000 0.0000
# 4 0.0000 0.0000 0.0000 28.3835 0.0000 0.0000
# 5 0.0000 0.0000 0.0000 0.0000 26.1543 0.0000
# 6 0.0000 0.0000 0.0000 0.0000 0.0000 29.7766
#
#
#
# Elastic Compliance Matrix: (Units=1/GPa)
#
#
# Indices 1 2 3 4 5 6 
#
# 1 0.014656 -0.009912 -0.003989 0.000000 0.000000 0.000000
# 2 -0.009912 0.024955 -0.006585 0.000000 0.000000 0.000000
# 3 -0.003989 -0.006585 0.017441 0.000000 0.000000 0.000000
# 4 0.000000 0.000000 0.000000 0.035232 0.000000 0.000000
# 5 0.000000 0.000000 0.000000 0.000000 0.038235 0.000000
# 6 0.000000 0.000000 0.000000 0.000000 0.000000 0.033583
#
#
# Mechanical properties :
#
#
# Convention : Reuss Voigt Hill
#
# Bulk Modulus (GPa) = 62.18744 67.80301 64.99522
# Shear Modulus (GPa) = 23.76029 25.41178 24.58603
#
# Velocity S-wave (km/s) = 3.66293 3.78809 3.72604
# Velocity P-wave (km/s) = 7.28050 7.57761 7.43054
#
# Compressibility (1/GPa) = 0.01608042
#
# Stress axis : x y z
#
# Youngs Moduli (GPa) = 68.23169 40.07144 57.33464
#
# Poissons Ratio (x) = 0.39719 0.22869
# Poissons Ratio (y) = 0.67632 0.37758
# Poissons Ratio (z) = 0.27215 0.26389
#
# Static dielectric constant tensor:
#      x y z
#    x 3.464110 0.000000 0.000000 
#    y 0.000000 3.241860 0.000000 
#    z 0.000000 0.000000 3.037680 
# 
# 
# High freq. dielectric constant tensor:
#      x y z
#    x 1.699440 0.000000 0.000000 
#    y 0.000000 1.685920 0.000000 
#    z 0.000000 0.000000 1.656150 
# 
# From -- ./inp_files/30520.got.cif
#   From: 2010.03.12/outbox.cif.g09.slc.cpg/sg51_16_cif.got.tgz:30520.got - 2010.04.16 13:43:02.
