data_PCOD8209690
_publ_section_title
;
Structure prediction by ZEFSAII (Michael W. Deem and Ramdas Pophale) SiO2 
 PCOD8209690
Probable space group: P M M A
;
_chemical_formula_sum "Si O2"
_cell_formula_units_Z 48
_cell_length_a 8.614163
_cell_length_b 30.646576
_cell_length_c 9.348820
_cell_angle_alpha 90.000000
_cell_angle_beta 90.000000
_cell_angle_gamma 90.000000
_cell_volume 2468.038006
_symmetry_space_group_name_H-M "P M M A"
_symmetry_group_IT_number 51
_symmetry_cell_setting 'orthorhombic'
loop_
_space_group_symop_operation_xyz
x,y,z
1/2-x,-y,z
1/2+x,-y,-z
-x,y,-z
-x,-y,-z
1/2+x,y,-z
1/2-x,y,z
x,-y,z
loop_
_atom_site_type_symbol
_atom_site_label
_atom_site_fract_x
_atom_site_fract_y
_atom_site_fract_z
Si Si1 0.065559 0.347718 0.346540
Si Si2 0.930073 0.000000 0.346123
Si Si3 0.566528 0.094410 0.341176
Si Si4 0.565560 0.578735 0.158204
Si Si5 0.066974 0.828729 0.155971
Si Si6 0.065259 0.500000 0.340978
Si Si7 0.067481 0.751468 0.350557
O O1 0.250000 0.354521 0.344533
O O2 0.015019 0.297870 0.316193
O O3 0.000000 0.363221 0.500000
O O4 0.985983 0.374631 0.219750
O O5 0.975815 0.046287 0.272451
O O6 0.000000 0.000000 0.500000
O O7 0.750000 0.000000 0.371945
O O8 0.500000 0.099043 0.500000
O O9 0.750000 0.102509 0.345201
O O10 0.486589 0.129285 0.241468
O O11 0.750000 0.574673 0.154525
O O12 0.494369 0.542452 0.260377
O O13 0.500000 0.572426 0.000000
O O14 0.250000 0.828563 0.148363
O O15 0.004926 0.784203 0.229316
O O16 0.000000 0.830923 0.000000
O O17 0.250000 0.500000 0.345425
O O18 0.000000 0.500000 0.500000
O O19 0.250000 0.753905 0.363840
O O20 0.000000 0.767902 0.500000
#
# Coordination Sequence:
#
# PCOD8209690 Si02
#       7
#     8   4   8   8   8   4   8
#     4  10  20  38  61  88 118 152 191 234 280 334
#     4   8  16  30  51  78 107 136 174 220 270 322
#     4  10  19  34  56  82 109 141 179 224 272 328
#     4  12  25  42  62  89 122 158 195 238 288 341
#     4  11  23  38  54  78 110 147 186 230 280 334
#     4  12  25  44  67  92 120 156 198 242 287 338
#     4   9  20  37  59  84 112 145 187 232 279 331
#
# _framework density 19.448647000000001
#
# number of rings (size 3 to 8) (size 9 to 14) (size 15 to 20)
#    0.000    1.667    0.000    5.000    0.000    4.667 
#    0.000    2.083    0.000    0.000    0.000    0.000 
#    0.000    0.000    0.000    0.000    0.000    0.000 
#
# Total GULP energy -595110.267440 kJ/mol
# GULP energy per Si atom -12398.130572 kJ/mol
# Density = 1.940438 g / cm^3
# Si number density = 19.448647 Si / 1000 Ang^3
#
#
#
# Elastic Constant Matrix: (Units=GPa)
#
#
# Indices 1 2 3 4 5 6 
#
# 1 96.9896 48.7783 49.6847 0.0000 0.0000 0.0000
# 2 48.7783 141.5937 84.1647 0.0000 0.0000 0.0000
# 3 49.6847 84.1647 147.4581 0.0000 0.0000 0.0000
# 4 0.0000 0.0000 0.0000 11.5058 0.0000 0.0000
# 5 0.0000 0.0000 0.0000 0.0000 36.1069 0.0000
# 6 0.0000 0.0000 0.0000 0.0000 0.0000 50.2236
#
#
#
# Elastic Compliance Matrix: (Units=1/GPa)
#
#
# Indices 1 2 3 4 5 6 
#
# 1 0.013194 -0.002880 -0.002802 0.000000 0.000000 0.000000
# 2 -0.002880 0.011317 -0.005489 0.000000 0.000000 0.000000
# 3 -0.002802 -0.005489 0.010859 0.000000 0.000000 0.000000
# 4 0.000000 0.000000 0.000000 0.086913 0.000000 0.000000
# 5 0.000000 0.000000 0.000000 0.000000 0.027696 0.000000
# 6 0.000000 0.000000 0.000000 0.000000 0.000000 0.019911
#
#
# Mechanical properties :
#
#
# Convention : Reuss Voigt Hill
#
# Bulk Modulus (GPa) = 76.75652 83.47741 80.11697
# Shear Modulus (GPa) = 25.43565 33.12818 29.28192
#
# Velocity S-wave (km/s) = 3.62033 4.13166 3.88442
# Velocity P-wave (km/s) = 7.55166 8.11024 7.83593
#
# Compressibility (1/GPa) = 0.01302821
#
# Stress axis : x y z
#
# Youngs Moduli (GPa) = 75.79191 88.35904 92.09095
#
# Poissons Ratio (x) = 0.25445 0.25803
# Poissons Ratio (y) = 0.21826 0.50552
# Poissons Ratio (z) = 0.21236 0.48503
#
# Static dielectric constant tensor:
#      x y z
#    x 3.685440 0.000000 0.000000 
#    y 0.000000 4.205980 0.000000 
#    z 0.000000 0.000000 3.482270 
# 
# 
# High freq. dielectric constant tensor:
#      x y z
#    x 1.769840 0.000000 0.000000 
#    y 0.000000 1.781020 0.000000 
#    z 0.000000 0.000000 1.745160 
# 
# From -- ./inp_files/6127.got.cif
#   From: 2010.03.12/outbox.cif.g09.slc.cpg/sg51_4_cif.got.tgz:6127.got - 2010.04.16 13:43:02.
