data_PCOD8209637
_publ_section_title
;
Structure prediction by ZEFSAII (Michael W. Deem and Ramdas Pophale) SiO2 
 PCOD8209637
Probable space group: P M M A
;
_chemical_formula_sum "Si O2"
_cell_formula_units_Z 40
_cell_length_a 16.073292
_cell_length_b 9.238780
_cell_length_c 13.850257
_cell_angle_alpha 90.000000
_cell_angle_beta 90.000000
_cell_angle_gamma 90.000000
_cell_volume 2056.730044
_symmetry_space_group_name_H-M "P M M A"
_symmetry_group_IT_number 51
_symmetry_cell_setting 'orthorhombic'
loop_
_space_group_symop_operation_xyz
x,y,z
1/2-x,-y,z
1/2+x,-y,-z
-x,y,-z
-x,-y,-z
1/2+x,y,-z
1/2-x,y,z
x,-y,z
loop_
_atom_site_type_symbol
_atom_site_label
_atom_site_fract_x
_atom_site_fract_y
_atom_site_fract_z
Si Si1 0.250000 0.828192 0.254802
Si Si2 0.345444 0.666026 0.558666
Si Si3 0.096859 0.832191 0.380433
Si Si4 0.580029 0.827879 0.058047
Si Si5 0.250000 0.827221 0.038258
Si Si6 0.076761 0.832275 0.722159
O O1 0.168996 0.772443 0.310858
O O2 0.250000 0.764726 0.146848
O O3 0.250000 0.000000 0.248574
O O4 0.250000 0.681852 0.526679
O O5 0.373105 0.500000 0.565679
O O6 0.403455 0.745248 0.480446
O O7 0.356037 0.740139 0.663008
O O8 0.012388 0.804936 0.324512
O O9 0.110185 0.000000 0.406617
O O10 0.574524 0.775249 0.168382
O O11 0.578114 0.000000 0.052267
O O12 0.500000 0.765683 0.000000
O O13 0.666609 0.768555 0.013818
O O14 0.250000 0.000000 0.037474
O O15 0.102782 0.000000 0.718332
#
# Coordination Sequence:
#
# PCOD8209637 Si02
#       6
#     4   8   8   8   4   8
#     4   9  16  28  50  77 108 142 177 217 264 315
#     4  11  24  39  54  76 107 144 184 226 272 322
#     4  10  19  34  55  81 108 140 178 222 271 321
#     4   9  17  30  48  77 114 142 172 218 264 316
#     4   9  16  26  45  73 106 144 175 207 266 319
#     4  10  21  34  55  83 112 143 178 219 270 324
#
# _framework density 19.448346000000001
#
# number of rings (size 3 to 8) (size 9 to 14) (size 15 to 20)
#    0.000    2.200    1.000    2.400    1.400    9.200 
#    0.000    0.000    0.000    0.600    0.000    2.800 
#    0.000    0.000    0.000    0.000    0.000    0.000 
#
# Total GULP energy -496078.170634 kJ/mol
# GULP energy per Si atom -12401.954266 kJ/mol
# Density = 1.940408 g / cm^3
# Si number density = 19.448346 Si / 1000 Ang^3
#
#
#
# Elastic Constant Matrix: (Units=GPa)
#
#
# Indices 1 2 3 4 5 6 
#
# 1 97.2500 25.3588 48.0084 0.0000 0.0000 0.0000
# 2 25.3588 48.7475 40.5189 0.0000 0.0000 0.0000
# 3 48.0084 40.5189 167.2345 0.0000 0.0000 0.0000
# 4 0.0000 0.0000 0.0000 0.9385 0.0000 0.0000
# 5 0.0000 0.0000 0.0000 0.0000 34.1658 0.0000
# 6 0.0000 0.0000 0.0000 0.0000 0.0000 15.6766
#
#
#
# Elastic Compliance Matrix: (Units=1/GPa)
#
#
# Indices 1 2 3 4 5 6 
#
# 1 0.012718 -0.004484 -0.002564 0.000000 0.000000 0.000000
# 2 -0.004484 0.027268 -0.005319 0.000000 0.000000 0.000000
# 3 -0.002564 -0.005319 0.008005 0.000000 0.000000 0.000000
# 4 0.000000 0.000000 0.000000 1.065491 0.000000 0.000000
# 5 0.000000 0.000000 0.000000 0.000000 0.029269 0.000000
# 6 0.000000 0.000000 0.000000 0.000000 0.000000 0.063789
#
#
# Mechanical properties :
#
#
# Convention : Reuss Voigt Hill
#
# Bulk Modulus (GPa) = 43.00285 60.11159 51.55722
# Shear Modulus (GPa) = 4.03542 23.44592 13.74067
#
# Velocity S-wave (km/s) = 1.44203 3.47587 2.66093
# Velocity P-wave (km/s) = 4.99319 6.86180 6.00068
#
# Compressibility (1/GPa) = 0.02325427
#
# Stress axis : x y z
#
# Youngs Moduli (GPa) = 78.62793 36.67280 124.92746
#
# Poissons Ratio (x) = 0.16446 0.32038
# Poissons Ratio (y) = 0.35260 0.66454
# Poissons Ratio (z) = 0.20164 0.19508
#
# Static dielectric constant tensor:
#      x y z
#    x 3.664180 0.000000 0.000000 
#    y 0.000000 3.022000 0.000000 
#    z 0.000000 0.000000 3.761480 
# 
# 
# High freq. dielectric constant tensor:
#      x y z
#    x 1.770470 0.000000 0.000000 
#    y 0.000000 1.695870 0.000000 
#    z 0.000000 0.000000 1.772490 
# 
# From -- ./inp_files/23754.got.cif
#   From: 2010.03.12/outbox.cif.g09.slc.cpg/sg51_12_cif.got.tgz:23754.got - 2010.04.16 13:43:02.
