data_PCOD8209571
_publ_section_title
;
Structure prediction by ZEFSAII (Michael W. Deem and Ramdas Pophale) SiO2 
 PCOD8209571
Probable space group: P M M A
;
_chemical_formula_sum "Si O2"
_cell_formula_units_Z 30
_cell_length_a 14.657852
_cell_length_b 7.697455
_cell_length_c 14.475968
_cell_angle_alpha 90.000000
_cell_angle_beta 90.000000
_cell_angle_gamma 90.000000
_cell_volume 1633.296778
_symmetry_space_group_name_H-M "P M M A"
_symmetry_group_IT_number 51
_symmetry_cell_setting 'orthorhombic'
loop_
_space_group_symop_operation_xyz
x,y,z
1/2-x,-y,z
1/2+x,-y,-z
-x,y,-z
-x,-y,-z
1/2+x,y,-z
1/2-x,y,z
x,-y,z
loop_
_atom_site_type_symbol
_atom_site_label
_atom_site_fract_x
_atom_site_fract_y
_atom_site_fract_z
Si Si1 0.965873 0.811071 0.603355
Si Si2 0.250000 0.799619 0.873130
Si Si3 0.750000 0.500000 0.980761
Si Si4 0.148682 0.500000 0.350378
Si Si5 0.054798 0.199949 0.792052
Si Si6 0.424336 0.500000 0.151042
O O1 0.887786 0.672067 0.603308
O O2 0.000000 0.811488 0.500000
O O3 0.041527 0.765243 0.682010
O O4 0.924876 0.000000 0.627793
O O5 0.339567 0.758526 0.812325
O O6 0.250000 0.000000 0.906652
O O7 0.250000 0.676675 0.961548
O O8 0.847042 0.500000 0.927437
O O9 0.250000 0.500000 0.380939
O O10 0.135738 0.500000 0.241943
O O11 0.988817 0.327776 0.851677
O O12 0.031131 0.000000 0.818635
#
# Coordination Sequence:
#
# PCOD8209571 Si02
#       6
#     8   4   2   4   8   4
#     4   9  18  34  56  80 108 143 180 218 260 314
#     4  10  22  38  56  81 111 141 177 224 276 330
#     4  12  24  38  56  82 108 138 186 232 268 326
#     4  10  19  34  52  75 109 142 174 218 270 317
#     4   9  19  37  58  80 111 146 178 219 275 325
#     4  10  21  37  57  78 106 142 180 226 275 319
#
# _framework density 18.367757999999998
#
# number of rings (size 3 to 8) (size 9 to 14) (size 15 to 20)
#    0.000    2.400    0.667    1.200    0.000    3.733 
#    2.400    2.667    0.000    0.000    0.000    0.000 
#    0.000    0.000    0.000    0.000    0.000    0.000 
#
# Total GULP energy -371707.032945 kJ/mol
# GULP energy per Si atom -12390.234432 kJ/mol
# Density = 1.832595 g / cm^3
# Si number density = 18.367758 Si / 1000 Ang^3
#
#
#
# Elastic Constant Matrix: (Units=GPa)
#
#
# Indices 1 2 3 4 5 6 
#
# 1 153.9535 89.0450 56.4027 0.0000 0.0000 0.0000
# 2 89.0450 143.2781 60.1825 0.0000 0.0000 0.0000
# 3 56.4027 60.1825 78.2061 0.0000 0.0000 0.0000
# 4 0.0000 0.0000 0.0000 25.7184 0.0000 0.0000
# 5 0.0000 0.0000 0.0000 0.0000 17.4705 0.0000
# 6 0.0000 0.0000 0.0000 0.0000 0.0000 17.2584
#
#
#
# Elastic Compliance Matrix: (Units=1/GPa)
#
#
# Indices 1 2 3 4 5 6 
#
# 1 0.010894 -0.005128 -0.003911 0.000000 0.000000 0.000000
# 2 -0.005128 0.012727 -0.006095 0.000000 0.000000 0.000000
# 3 -0.003911 -0.006095 0.020298 0.000000 0.000000 0.000000
# 4 0.000000 0.000000 0.000000 0.038883 0.000000 0.000000
# 5 0.000000 0.000000 0.000000 0.000000 0.057239 0.000000
# 6 0.000000 0.000000 0.000000 0.000000 0.000000 0.057943
#
#
# Mechanical properties :
#
#
# Convention : Reuss Voigt Hill
#
# Bulk Modulus (GPa) = 73.25741 87.41087 80.33414
# Shear Modulus (GPa) = 21.47751 23.40996 22.44374
#
# Velocity S-wave (km/s) = 3.42322 3.57391 3.49937
# Velocity P-wave (km/s) = 7.45620 8.04506 7.75622
#
# Compressibility (1/GPa) = 0.01365050
#
# Stress axis : x y z
#
# Youngs Moduli (GPa) = 91.79256 78.57573 49.26622
#
# Poissons Ratio (x) = 0.40292 0.19267
# Poissons Ratio (y) = 0.47069 0.30030
# Poissons Ratio (z) = 0.35899 0.47895
#
# Static dielectric constant tensor:
#      x y z
#    x 3.403000 0.000000 0.000000 
#    y 0.000000 3.590080 0.000000 
#    z 0.000000 0.000000 3.320720 
# 
# 
# High freq. dielectric constant tensor:
#      x y z
#    x 1.703240 0.000000 0.000000 
#    y 0.000000 1.736170 0.000000 
#    z 0.000000 0.000000 1.705930 
# 
# From -- ./inp_files/22779.got.cif
#   From: 2010.03.12/outbox.cif.g09.slc.cpg/sg51_12_cif.got.tgz:22779.got - 2010.04.16 13:43:02.
