data_PCOD8209843
_publ_section_title
;
Structure prediction by ZEFSAII (Michael W. Deem and Ramdas Pophale) SiO2 
 PCOD8209843
Probable space group: P M M A
;
_chemical_formula_sum "Si O2"
_cell_formula_units_Z 56
_cell_length_a 22.980604
_cell_length_b 9.055271
_cell_length_c 13.513779
_cell_angle_alpha 90.000000
_cell_angle_beta 90.000000
_cell_angle_gamma 90.000000
_cell_volume 2812.157908
_symmetry_space_group_name_H-M "P M M A"
_symmetry_group_IT_number 51
_symmetry_cell_setting 'orthorhombic'
loop_
_space_group_symop_operation_xyz
x,y,z
1/2-x,-y,z
1/2+x,-y,-z
-x,y,-z
-x,-y,-z
1/2+x,y,-z
1/2-x,y,z
x,-y,z
loop_
_atom_site_type_symbol
_atom_site_label
_atom_site_fract_x
_atom_site_fract_y
_atom_site_fract_z
Si Si1 0.090808 0.327363 0.212451
Si Si2 0.556217 0.836225 0.434075
Si Si3 0.250000 0.825010 0.489199
Si Si4 0.472913 0.173757 0.785577
Si Si5 0.183065 0.828526 0.076888
Si Si6 0.637302 0.671670 0.573585
Si Si7 0.750000 0.175908 0.284536
Si Si8 0.150258 0.175071 0.859820
O O1 0.086797 0.500000 0.193039
O O2 0.144478 0.264371 0.151445
O O3 0.101390 0.290222 0.327571
O O4 0.030530 0.255166 0.175406
O O5 0.500000 0.847587 0.500000
O O6 0.538098 0.779491 0.326994
O O7 0.600242 0.717759 0.478212
O O8 0.585772 0.000000 0.427313
O O9 0.304355 0.766072 0.427413
O O10 0.250000 0.764803 0.602640
O O11 0.250000 0.000000 0.486963
O O12 0.416362 0.228271 0.846336
O O13 0.483525 0.000000 0.797241
O O14 0.250000 0.803555 0.105964
O O15 0.165656 0.000000 0.084769
O O16 0.172769 0.769095 0.965726
O O17 0.652779 0.500000 0.567125
O O18 0.807483 0.236153 0.227202
O O19 0.750000 0.000000 0.285090
O O20 0.152984 0.000000 0.854629
#
# Coordination Sequence:
#
# PCOD8209843 Si02
#       8
#     8   8   4   8   8   8   4   8
#     4  11  25  41  57  80 116 160 200 240 291 347
#     4  10  19  34  59  89 118 151 195 240 279 330
#     4  11  23  37  60  89 118 152 195 245 292 337
#     4  10  20  36  60  90 122 154 192 240 292 346
#     4  10  21  39  64  90 112 144 193 244 293 348
#     4  11  24  40  57  81 119 162 198 235 290 351
#     4   9  16  33  60  91 122 146 181 235 296 351
#     4   9  17  33  61  92 119 146 181 235 298 354
#
# _framework density 19.913533000000001
#
# number of rings (size 3 to 8) (size 9 to 14) (size 15 to 20)
#    0.000    1.857    2.143    1.929    1.000    5.714 
#    0.000    3.571    0.000    1.714    0.000    0.000 
#    0.000    0.000    0.000    0.000    0.000    0.000 
#
# Total GULP energy -694485.742098 kJ/mol
# GULP energy per Si atom -12401.531109 kJ/mol
# Density = 1.986821 g / cm^3
# Si number density = 19.913533 Si / 1000 Ang^3
#
#
#
# Elastic Constant Matrix: (Units=GPa)
#
#
# Indices 1 2 3 4 5 6 
#
# 1 139.2804 48.9100 30.9244 0.0000 0.0000 0.0000
# 2 48.9100 63.0037 28.5908 0.0000 0.0000 0.0000
# 3 30.9244 28.5908 51.3899 0.0000 0.0000 0.0000
# 4 0.0000 0.0000 0.0000 32.6252 0.0000 0.0000
# 5 0.0000 0.0000 0.0000 0.0000 35.7674 0.0000
# 6 0.0000 0.0000 0.0000 0.0000 0.0000 14.2094
#
#
#
# Elastic Compliance Matrix: (Units=1/GPa)
#
#
# Indices 1 2 3 4 5 6 
#
# 1 0.010068 -0.006777 -0.002288 0.000000 0.000000 0.000000
# 2 -0.006777 0.025795 -0.010273 0.000000 0.000000 0.000000
# 3 -0.002288 -0.010273 0.026551 0.000000 0.000000 0.000000
# 4 0.000000 0.000000 0.000000 0.030651 0.000000 0.000000
# 5 0.000000 0.000000 0.000000 0.000000 0.027958 0.000000
# 6 0.000000 0.000000 0.000000 0.000000 0.000000 0.070376
#
#
# Mechanical properties :
#
#
# Convention : Reuss Voigt Hill
#
# Bulk Modulus (GPa) = 42.12649 52.28049 47.20349
# Shear Modulus (GPa) = 21.00950 26.20365 23.60658
#
# Velocity S-wave (km/s) = 3.25166 3.63143 3.44678
# Velocity P-wave (km/s) = 5.94124 6.62524 6.29254
#
# Compressibility (1/GPa) = 0.02373803
#
# Stress axis : x y z
#
# Youngs Moduli (GPa) = 99.32776 38.76703 37.66346
#
# Poissons Ratio (x) = 0.26274 0.08616
# Poissons Ratio (y) = 0.67319 0.38691
# Poissons Ratio (z) = 0.22723 0.39824
#
# Static dielectric constant tensor:
#      x y z
#    x 4.875510 0.000000 0.000000 
#    y 0.000000 3.314480 0.000000 
#    z 0.000000 0.000000 3.728150 
# 
# 
# High freq. dielectric constant tensor:
#      x y z
#    x 1.792310 0.000000 0.000000 
#    y 0.000000 1.743230 0.000000 
#    z 0.000000 0.000000 1.777410 
# 
# From -- ./inp_files/25793.got.cif
#   From: 2010.03.12/outbox.cif.g09.slc.cpg/sg51_13_cif.got.tgz:25793.got - 2010.04.16 13:43:02.
