data_PCOD8209842
_publ_section_title
;
Structure prediction by ZEFSAII (Michael W. Deem and Ramdas Pophale) SiO2 
 PCOD8209842
Probable space group: P M M A
;
_chemical_formula_sum "Si O2"
_cell_formula_units_Z 56
_cell_length_a 15.223404
_cell_length_b 13.986825
_cell_length_c 12.729344
_cell_angle_alpha 90.000000
_cell_angle_beta 90.000000
_cell_angle_gamma 90.000000
_cell_volume 2710.422146
_symmetry_space_group_name_H-M "P M M A"
_symmetry_group_IT_number 51
_symmetry_cell_setting 'orthorhombic'
loop_
_space_group_symop_operation_xyz
x,y,z
1/2-x,-y,z
1/2+x,-y,-z
-x,y,-z
-x,-y,-z
1/2+x,y,-z
1/2-x,y,z
x,-y,z
loop_
_atom_site_type_symbol
_atom_site_label
_atom_site_fract_x
_atom_site_fract_y
_atom_site_fract_z
Si Si1 0.653253 0.237943 0.865166
Si Si2 0.649739 0.240332 0.103259
Si Si3 0.594875 0.392208 0.274839
Si Si4 0.612612 0.391100 0.702544
Si Si5 0.080294 0.897348 0.574742
Si Si6 0.104739 0.700089 0.512183
Si Si7 0.990114 0.111617 0.197100
O O1 0.750000 0.189426 0.859857
O O2 0.656385 0.333958 0.796907
O O3 0.582646 0.162950 0.822323
O O4 0.632957 0.272067 0.983599
O O5 0.750000 0.207646 0.122621
O O6 0.627606 0.328307 0.178883
O O7 0.586093 0.150211 0.121227
O O8 0.625569 0.500000 0.251766
O O9 0.491069 0.384160 0.284312
O O10 0.635658 0.360189 0.386541
O O11 0.645394 0.500000 0.706271
O O12 0.645660 0.345752 0.592195
O O13 0.139001 0.809957 0.529524
O O14 0.041167 0.863887 0.685976
O O15 0.000000 0.917492 0.500000
O O16 0.132075 0.000000 0.584865
O O17 0.000000 0.702043 0.500000
O O18 0.003297 0.000000 0.176272
#
# Coordination Sequence:
#
# PCOD8209842 Si02
#       7
#     8   8   8   8   8   8   8
#     4  11  24  41  61  87 122 161 203 255 308 358
#     4  11  24  41  60  87 123 159 202 254 306 364
#     4  10  19  34  59  88 119 159 204 250 306 365
#     4  10  20  35  60  91 122 163 209 251 304 365
#     4   9  16  28  56  92 121 157 200 239 295 362
#     4   9  15  30  55  86 125 156 196 250 301 357
#     4  11  22  41  67  92 122 160 203 251 304 364
#
# _framework density 20.660988
#
# number of rings (size 3 to 8) (size 9 to 14) (size 15 to 20)
#    0.000    1.857    2.857    2.571    0.000    4.571 
#    0.000    5.000    0.000    1.714    0.000    4.000 
#    0.000    0.000    0.000    0.000    0.000    0.000 
#
# Total GULP energy -694174.574380 kJ/mol
# GULP energy per Si atom -12395.974543 kJ/mol
# Density = 2.061396 g / cm^3
# Si number density = 20.660988 Si / 1000 Ang^3
#
#
#
# Elastic Constant Matrix: (Units=GPa)
#
#
# Indices 1 2 3 4 5 6 
#
# 1 66.6141 49.7897 26.6658 0.0000 0.0000 0.0000
# 2 49.7897 164.6137 74.7845 0.0000 0.0000 0.0000
# 3 26.6658 74.7845 156.2179 0.0000 0.0000 0.0000
# 4 0.0000 0.0000 0.0000 26.5919 0.0000 0.0000
# 5 0.0000 0.0000 0.0000 0.0000 -13.5752 0.0000
# 6 0.0000 0.0000 0.0000 0.0000 0.0000 5.2170
#
#
#
# Elastic Compliance Matrix: (Units=1/GPa)
#
#
# Indices 1 2 3 4 5 6 
#
# 1 0.019447 -0.005590 -0.000644 0.000000 0.000000 0.000000
# 2 -0.005590 0.009370 -0.003531 0.000000 0.000000 0.000000
# 3 -0.000644 -0.003531 0.008202 0.000000 0.000000 0.000000
# 4 0.000000 0.000000 0.000000 0.037605 0.000000 0.000000
# 5 0.000000 0.000000 0.000000 0.000000 -0.073664 0.000000
# 6 0.000000 0.000000 0.000000 0.000000 0.000000 0.191681
#
#
# Mechanical properties :
#
#
# Convention : Reuss Voigt Hill
#
# Bulk Modulus (GPa) = 57.17736 76.65839 66.91788
# Shear Modulus (GPa) = 22.93572 19.39379 21.16476
#
# Velocity S-wave (km/s) = 3.33543 3.06709 3.20407
# Velocity P-wave (km/s) = 6.52438 7.05168 6.79315
#
# Compressibility (1/GPa) = 0.01748944
#
# Stress axis : x y z
#
# Youngs Moduli (GPa) = 51.42057 106.72550 121.92548
#
# Poissons Ratio (x) = 0.59657 0.07848
# Poissons Ratio (y) = 0.28743 0.43056
# Poissons Ratio (z) = 0.03310 0.37689
#
# Static dielectric constant tensor:
#      x y z
#    x 3.427520 0.000000 0.000000 
#    y 0.000000 4.044790 0.000000 
#    z 0.000000 0.000000 4.903730 
# 
# 
# High freq. dielectric constant tensor:
#      x y z
#    x 1.779050 0.000000 0.000000 
#    y 0.000000 1.814970 0.000000 
#    z 0.000000 0.000000 1.823290 
# 
# From -- ./inp_files/16608.got.cif
#   From: 2010.03.12/outbox.cif.g09.slc.cpg/sg51_9_cif.got.tgz:16608.got - 2010.04.16 13:43:02.
