data_PCOD8209187
_publ_section_title
;
Structure prediction by ZEFSAII (Michael W. Deem and Ramdas Pophale) SiO2 
 PCOD8209187
Probable space group: P M M A
;
_chemical_formula_sum "Si O2"
_cell_formula_units_Z 64
_cell_length_a 8.934468
_cell_length_b 31.546562
_cell_length_c 14.461180
_cell_angle_alpha 90.000000
_cell_angle_beta 90.000000
_cell_angle_gamma 90.000000
_cell_volume 4075.908871
_symmetry_space_group_name_H-M "P M M A"
_symmetry_group_IT_number 51
_symmetry_cell_setting 'orthorhombic'
loop_
_space_group_symop_operation_xyz
x,y,z
1/2-x,-y,z
1/2+x,-y,-z
-x,y,-z
-x,-y,-z
1/2+x,y,-z
1/2-x,y,z
x,-y,z
loop_
_atom_site_type_symbol
_atom_site_label
_atom_site_fract_x
_atom_site_fract_y
_atom_site_fract_z
Si Si1 0.424234 0.124258 0.096803
Si Si2 0.071948 0.952877 0.215976
Si Si3 0.424464 0.179729 0.409096
Si Si4 0.076536 0.208255 0.209835
Si Si5 0.424538 0.455135 0.098543
Si Si6 0.427217 0.281688 0.899533
Si Si7 0.072626 0.635498 0.100670
Si Si8 0.426902 0.916866 0.407628
O O1 0.250000 0.119042 0.077947
O O2 0.490934 0.081191 0.142219
O O3 0.456866 0.162539 0.166394
O O4 0.500000 0.134113 0.000000
O O5 0.250000 0.949400 0.217450
O O6 0.012848 0.942596 0.318932
O O7 0.018122 0.000000 0.187247
O O8 0.500000 0.200317 0.500000
O O9 0.250000 0.180144 0.426755
O O10 0.465058 0.206724 0.318207
O O11 0.480178 0.131626 0.394920
O O12 0.250000 0.220794 0.194464
O O13 0.968213 0.242364 0.164407
O O14 0.250000 0.454160 0.078536
O O15 0.466590 0.500000 0.151382
O O16 0.464515 0.410377 0.150313
O O17 0.500000 0.455835 0.000000
O O18 0.250000 0.285139 0.910067
O O19 0.493113 0.324428 0.849984
O O20 0.500000 0.274929 0.000000
O O21 0.250000 0.643744 0.095049
O O22 0.000000 0.633634 0.000000
O O23 0.500000 0.936517 0.500000
O O24 0.250000 0.920539 0.416568
#
# Coordination Sequence:
#
# PCOD8209187 Si02
#       8
#     8   8   8   8   8   8   8   8
#     4  10  20  34  50  67  86 110 142 177 211 247
#     4   9  17  31  50  68  88 116 144 166 199 251
#     4   9  17  30  49  70  91 113 136 166 204 248
#     4  10  19  33  50  66  87 112 141 175 212 255
#     4   8  13  20  31  48  69  96 134 178 219 257
#     4  11  21  31  43  61  85 113 147 185 224 263
#     4   9  15  24  37  52  75 107 141 179 222 262
#     4   9  16  29  48  70  92 115 138 163 198 241
#
# _framework density 15.702019999999999
#
# number of rings (size 3 to 8) (size 9 to 14) (size 15 to 20)
#    0.000    2.625    1.250    2.625    0.000    3.000 
#    0.000    0.625    0.000    0.750    0.000    0.000 
#    0.000    0.000    0.000    0.000    0.000    0.625 
#
# Total GULP energy -792876.692370 kJ/mol
# GULP energy per Si atom -12388.698318 kJ/mol
# Density = 1.566628 g / cm^3
# Si number density = 15.702020 Si / 1000 Ang^3
#
#
#
# Elastic Constant Matrix: (Units=GPa)
#
#
# Indices 1 2 3 4 5 6 
#
# 1 51.5687 38.1637 26.7103 0.0000 0.0000 0.0000
# 2 38.1637 109.3633 30.5035 0.0000 0.0000 0.0000
# 3 26.7103 30.5035 72.6377 0.0000 0.0000 0.0000
# 4 0.0000 0.0000 0.0000 -3.6405 0.0000 0.0000
# 5 0.0000 0.0000 0.0000 0.0000 19.5248 0.0000
# 6 0.0000 0.0000 0.0000 0.0000 0.0000 14.7077
#
#
#
# Elastic Compliance Matrix: (Units=1/GPa)
#
#
# Indices 1 2 3 4 5 6 
#
# 1 0.029217 -0.008154 -0.007320 0.000000 0.000000 0.000000
# 2 -0.008154 0.012633 -0.002307 0.000000 0.000000 0.000000
# 3 -0.007320 -0.002307 0.017427 0.000000 0.000000 0.000000
# 4 0.000000 0.000000 0.000000 -0.274686 0.000000 0.000000
# 5 0.000000 0.000000 0.000000 0.000000 0.051217 0.000000
# 6 0.000000 0.000000 0.000000 0.000000 0.000000 0.067992
#
#
# Mechanical properties :
#
#
# Convention : Reuss Voigt Hill
#
# Bulk Modulus (GPa) = 42.16447 47.14719 44.65583
# Shear Modulus (GPa) = -94.81480 15.33120 -39.74180
#
# Velocity S-wave (km/s) = -7.77913 3.12810 -5.03636
# Velocity P-wave (km/s) = 7.33317 6.56796 2.30622
#
# Compressibility (1/GPa) = 0.02371665
#
# Stress axis : x y z
#
# Youngs Moduli (GPa) = 34.22621 79.15983 57.38197
#
# Poissons Ratio (x) = 0.64549 0.42001
# Poissons Ratio (y) = 0.27909 0.13235
# Poissons Ratio (z) = 0.25052 0.18258
#
# Static dielectric constant tensor:
#      x y z
#    x 2.839280 0.000000 0.000000 
#    y 0.000000 3.655690 0.000000 
#    z 0.000000 0.000000 2.765480 
# 
# 
# High freq. dielectric constant tensor:
#      x y z
#    x 1.594440 0.000000 0.000000 
#    y 0.000000 1.608200 0.000000 
#    z 0.000000 0.000000 1.558750 
# 
# From -- ./inp_files/22601.got.cif
#   From: 2010.03.12/outbox.cif.g09.slc.cpg/sg51_12_cif.got.tgz:22601.got - 2010.04.16 13:43:02.
