data_PCOD8209790
_publ_section_title
;
Structure prediction by ZEFSAII (Michael W. Deem and Ramdas Pophale) SiO2 
 PCOD8209790
Probable space group: P M M A
;
_chemical_formula_sum "Si O2"
_cell_formula_units_Z 48
_cell_length_a 14.720455
_cell_length_b 9.250627
_cell_length_c 18.806094
_cell_angle_alpha 90.000000
_cell_angle_beta 90.000000
_cell_angle_gamma 90.000000
_cell_volume 2560.890484
_symmetry_space_group_name_H-M "P M M A"
_symmetry_group_IT_number 51
_symmetry_cell_setting 'orthorhombic'
loop_
_space_group_symop_operation_xyz
x,y,z
1/2-x,-y,z
1/2+x,-y,-z
-x,y,-z
-x,-y,-z
1/2+x,y,-z
1/2-x,y,z
x,-y,z
loop_
_atom_site_type_symbol
_atom_site_label
_atom_site_fract_x
_atom_site_fract_y
_atom_site_fract_z
Si Si1 0.486721 0.328821 0.611850
Si Si2 0.147671 0.329448 0.488057
Si Si3 0.850304 0.163268 0.129322
Si Si4 0.106494 0.663962 0.006490
Si Si5 0.496420 0.827798 0.757806
Si Si6 0.353486 0.664928 0.163355
O O1 0.486319 0.500000 0.627102
O O2 0.583876 0.281245 0.577919
O O3 0.403385 0.284116 0.560493
O O4 0.470134 0.239716 0.682812
O O5 0.250000 0.261091 0.483571
O O6 0.156332 0.500000 0.486360
O O7 0.750000 0.171114 0.163791
O O8 0.921392 0.227735 0.185686
O O9 0.878642 0.000000 0.111244
O O10 0.846678 0.247727 0.055616
O O11 0.140062 0.500000 0.998910
O O12 0.137112 0.724930 0.083035
O O13 0.000000 0.679379 0.000000
O O14 0.593114 0.767419 0.782762
O O15 0.499294 0.000000 0.751383
O O16 0.250000 0.670930 0.188413
O O17 0.390908 0.500000 0.167276
#
# Coordination Sequence:
#
# PCOD8209790 Si02
#       6
#     8   8   8   8   8   8
#     4   9  18  33  55  81 107 136 173 214 257 310
#     4   8  15  31  56  83 107 133 169 213 259 309
#     4  10  22  38  54  74 104 145 187 223 266 321
#     4  10  19  34  58  82 104 131 173 231 282 323
#     4  11  23  37  53  76 111 147 180 220 264 313
#     4  10  21  37  56  78 105 139 179 223 273 325
#
# _framework density 18.743480999999999
#
# number of rings (size 3 to 8) (size 9 to 14) (size 15 to 20)
#    0.000    2.333    1.667    2.000    0.000    4.333 
#    0.000    3.333    0.000    1.000    0.000    0.000 
#    0.000    0.000    0.000    0.000    0.000    0.000 
#
# Total GULP energy -595132.948145 kJ/mol
# GULP energy per Si atom -12398.603086 kJ/mol
# Density = 1.870082 g / cm^3
# Si number density = 18.743481 Si / 1000 Ang^3
#
#
#
# Elastic Constant Matrix: (Units=GPa)
#
#
# Indices 1 2 3 4 5 6 
#
# 1 91.0818 15.1112 15.1036 0.0000 0.0000 0.0000
# 2 15.1112 49.2501 30.3872 0.0000 0.0000 0.0000
# 3 15.1036 30.3872 86.5453 0.0000 0.0000 0.0000
# 4 0.0000 0.0000 0.0000 10.9804 0.0000 0.0000
# 5 0.0000 0.0000 0.0000 0.0000 12.0355 0.0000
# 6 0.0000 0.0000 0.0000 0.0000 0.0000 17.7127
#
#
#
# Elastic Compliance Matrix: (Units=1/GPa)
#
#
# Indices 1 2 3 4 5 6 
#
# 1 0.011634 -0.002958 -0.000992 0.000000 0.000000 0.000000
# 2 -0.002958 0.026672 -0.008849 0.000000 0.000000 0.000000
# 3 -0.000992 -0.008849 0.014835 0.000000 0.000000 0.000000
# 4 0.000000 0.000000 0.000000 0.091072 0.000000 0.000000
# 5 0.000000 0.000000 0.000000 0.000000 0.083088 0.000000
# 6 0.000000 0.000000 0.000000 0.000000 0.000000 0.056457
#
#
# Mechanical properties :
#
#
# Convention : Reuss Voigt Hill
#
# Bulk Modulus (GPa) = 36.30534 38.67567 37.49051
# Shear Modulus (GPa) = 15.69690 19.23072 17.46381
#
# Velocity S-wave (km/s) = 2.89703 3.20659 3.05573
# Velocity P-wave (km/s) = 5.53191 5.86418 5.70047
#
# Compressibility (1/GPa) = 0.02754416
#
# Stress axis : x y z
#
# Youngs Moduli (GPa) = 85.95247 37.49304 67.40995
#
# Poissons Ratio (x) = 0.11089 0.06686
# Poissons Ratio (y) = 0.25422 0.59648
# Poissons Ratio (z) = 0.08526 0.33176
#
# Static dielectric constant tensor:
#      x y z
#    x 3.723920 0.000000 0.000000 
#    y 0.000000 3.184340 0.000000 
#    z 0.000000 0.000000 3.369810 
# 
# 
# High freq. dielectric constant tensor:
#      x y z
#    x 1.740190 0.000000 0.000000 
#    y 0.000000 1.699690 0.000000 
#    z 0.000000 0.000000 1.724300 
# 
# From -- ./inp_files/29407.got.cif
#   From: 2010.03.12/outbox.cif.g09.slc.cpg/sg51_15_cif.got.tgz:29407.got - 2010.04.16 13:43:02.
