data_PCOD8209408
_publ_section_title
;
Structure prediction by ZEFSAII (Michael W. Deem and Ramdas Pophale) SiO2 
 PCOD8209408
Probable space group: P M M A
;
_chemical_formula_sum "Si O2"
_cell_formula_units_Z 48
_cell_length_a 8.885304
_cell_length_b 16.032768
_cell_length_c 18.579957
_cell_angle_alpha 90.000000
_cell_angle_beta 90.000000
_cell_angle_gamma 90.000000
_cell_volume 2646.826682
_symmetry_space_group_name_H-M "P M M A"
_symmetry_group_IT_number 51
_symmetry_cell_setting 'orthorhombic'
loop_
_space_group_symop_operation_xyz
x,y,z
1/2-x,-y,z
1/2+x,-y,-z
-x,y,-z
-x,-y,-z
1/2+x,y,-z
1/2-x,y,z
x,-y,z
loop_
_atom_site_type_symbol
_atom_site_label
_atom_site_fract_x
_atom_site_fract_y
_atom_site_fract_z
Si Si1 0.076692 0.404306 0.208686
Si Si2 0.072859 0.179951 0.421573
Si Si3 0.075229 0.670153 0.924671
Si Si4 0.072051 0.000000 0.079195
Si Si5 0.077882 0.000000 0.425239
Si Si6 0.072220 0.740780 0.711150
Si Si7 0.923296 0.157342 0.150467
O O1 0.250000 0.376271 0.206620
O O2 0.059615 0.500000 0.231986
O O3 0.005345 0.391316 0.130607
O O4 0.988107 0.349285 0.266394
O O5 0.250000 0.197139 0.427973
O O6 0.000000 0.190969 0.500000
O O7 0.998637 0.243389 0.366542
O O8 0.037760 0.087542 0.386693
O O9 0.250000 0.647142 0.926803
O O10 0.051777 0.766690 0.904293
O O11 0.000000 0.652084 0.000000
O O12 0.025489 0.080960 0.124910
O O13 0.250000 0.000000 0.069133
O O14 0.000000 0.000000 0.000000
O O15 0.000000 0.000000 0.500000
O O16 0.250000 0.000000 0.445592
O O17 0.250000 0.735840 0.704795
O O18 0.027031 0.811500 0.769901
O O19 0.750000 0.128132 0.150587
#
# Coordination Sequence:
#
# PCOD8209408 Si02
#       7
#     8   8   8   4   4   8   8
#     4  10  21  37  57  80 105 135 171 212 261 317
#     4  10  19  33  54  81 113 146 182 221 261 309
#     4  10  20  34  54  78 104 136 172 214 264 314
#     4  12  24  35  52  75 102 140 184 228 270 311
#     4   8  16  29  46  71 103 138 172 208 249 291
#     4  10  21  37  57  80 106 139 176 216 265 317
#     4   9  20  37  53  72 101 137 178 221 264 311
#
# _framework density 18.134924000000002
#
# number of rings (size 3 to 8) (size 9 to 14) (size 15 to 20)
#    0.000    2.167    0.000    4.250    0.000    8.333 
#    0.000    1.667    0.000    0.500    0.000    0.000 
#    0.000    0.000    0.000    0.000    0.000    0.000 
#
# Total GULP energy -595045.300730 kJ/mol
# GULP energy per Si atom -12396.777099 kJ/mol
# Density = 1.809365 g / cm^3
# Si number density = 18.134924 Si / 1000 Ang^3
#
#
#
# Elastic Constant Matrix: (Units=GPa)
#
#
# Indices 1 2 3 4 5 6 
#
# 1 108.6013 49.6949 57.1618 0.0000 0.0000 0.0000
# 2 49.6949 86.5642 53.6845 0.0000 0.0000 0.0000
# 3 57.1618 53.6845 123.8308 0.0000 0.0000 0.0000
# 4 0.0000 0.0000 0.0000 15.8529 0.0000 0.0000
# 5 0.0000 0.0000 0.0000 0.0000 33.0182 0.0000
# 6 0.0000 0.0000 0.0000 0.0000 0.0000 29.3491
#
#
#
# Elastic Compliance Matrix: (Units=1/GPa)
#
#
# Indices 1 2 3 4 5 6 
#
# 1 0.013811 -0.005436 -0.004018 0.000000 0.000000 0.000000
# 2 -0.005436 0.017940 -0.005268 0.000000 0.000000 0.000000
# 3 -0.004018 -0.005268 0.012214 0.000000 0.000000 0.000000
# 4 0.000000 0.000000 0.000000 0.063080 0.000000 0.000000
# 5 0.000000 0.000000 0.000000 0.000000 0.030286 0.000000
# 6 0.000000 0.000000 0.000000 0.000000 0.000000 0.034073
#
#
# Mechanical properties :
#
#
# Convention : Reuss Voigt Hill
#
# Bulk Modulus (GPa) = 68.87290 71.11986 69.99638
# Shear Modulus (GPa) = 24.30848 26.20772 25.25810
#
# Velocity S-wave (km/s) = 3.66515 3.80564 3.73606
# Velocity P-wave (km/s) = 7.48142 7.65589 7.56916
#
# Compressibility (1/GPa) = 0.01451950
#
# Stress axis : x y z
#
# Youngs Moduli (GPa) = 72.40790 55.74073 81.87108
#
# Poissons Ratio (x) = 0.30303 0.32898
# Poissons Ratio (y) = 0.39364 0.43131
# Poissons Ratio (z) = 0.29096 0.29365
#
# Static dielectric constant tensor:
#      x y z
#    x 3.456570 0.000000 0.000000 
#    y 0.000000 3.328140 0.000000 
#    z 0.000000 0.000000 3.245220 
# 
# 
# High freq. dielectric constant tensor:
#      x y z
#    x 1.718160 0.000000 0.000000 
#    y 0.000000 1.697010 0.000000 
#    z 0.000000 0.000000 1.690370 
# 
# From -- ./inp_files/27682.got.cif
#   From: 2010.03.12/outbox.cif.g09.slc.cpg/sg51_14_cif.got.tgz:27682.got - 2010.04.16 13:43:02.
