data_PCOD8209406
_publ_section_title
;
Structure prediction by ZEFSAII (Michael W. Deem and Ramdas Pophale) SiO2 
 PCOD8209406
Probable space group: P M M A
;
_chemical_formula_sum "Si O2"
_cell_formula_units_Z 48
_cell_length_a 8.685784
_cell_length_b 31.241753
_cell_length_c 9.178150
_cell_angle_alpha 90.000000
_cell_angle_beta 90.000000
_cell_angle_gamma 90.000000
_cell_volume 2490.574692
_symmetry_space_group_name_H-M "P M M A"
_symmetry_group_IT_number 51
_symmetry_cell_setting 'orthorhombic'
loop_
_space_group_symop_operation_xyz
x,y,z
1/2-x,-y,z
1/2+x,-y,-z
-x,y,-z
-x,-y,-z
1/2+x,y,-z
1/2-x,y,z
x,-y,z
loop_
_atom_site_type_symbol
_atom_site_label
_atom_site_fract_x
_atom_site_fract_y
_atom_site_fract_z
Si Si1 0.567417 0.785349 0.159496
Si Si2 0.069131 0.625677 0.156806
Si Si3 0.930262 0.954904 0.657751
Si Si4 0.567008 0.861690 0.661946
Si Si5 0.067605 0.708005 0.340520
Si Si6 0.568000 0.452080 0.654747
O O1 0.750000 0.784931 0.150845
O O2 0.510453 0.829959 0.224734
O O3 0.509757 0.747755 0.262108
O O4 0.500000 0.778390 0.000000
O O5 0.250000 0.623323 0.140101
O O6 0.019277 0.664884 0.258042
O O7 0.005500 0.581357 0.225580
O O8 0.000000 0.633198 0.000000
O O9 0.750000 0.954322 0.637401
O O10 0.977569 0.909127 0.727165
O O11 0.000000 0.956565 0.500000
O O12 0.978850 0.000000 0.740708
O O13 0.500000 0.854702 0.500000
O O14 0.750000 0.854095 0.656118
O O15 0.250000 0.714740 0.345473
O O16 0.000000 0.704396 0.500000
O O17 0.500000 0.438736 0.500000
O O18 0.750000 0.449227 0.641002
O O19 0.514710 0.500000 0.699653
#
# Coordination Sequence:
#
# PCOD8209406 Si02
#       6
#     8   8   8   8   8   8
#     4  12  25  41  59  80 108 141 179 223 273 326
#     4  10  22  37  55  81 113 147 182 223 270 322
#     4   8  14  25  44  72 105 139 175 217 263 310
#     4  10  19  33  54  81 112 145 182 223 268 318
#     4  11  23  40  61  85 111 141 180 223 270 322
#     4   9  18  34  55  80 110 144 184 228 272 319
#
# _framework density 19.272662
#
# number of rings (size 3 to 8) (size 9 to 14) (size 15 to 20)
#    0.000    2.000    0.000    4.000    0.000    4.333 
#    0.000    0.000    0.000    0.500    0.000    0.000 
#    0.000    0.000    0.000    0.000    0.000    0.000 
#
# Total GULP energy -594862.287029 kJ/mol
# GULP energy per Si atom -12392.964313 kJ/mol
# Density = 1.922880 g / cm^3
# Si number density = 19.272662 Si / 1000 Ang^3
#
#
#
# Elastic Constant Matrix: (Units=GPa)
#
#
# Indices 1 2 3 4 5 6 
#
# 1 68.8717 54.2938 45.2070 0.0000 0.0000 0.0000
# 2 54.2938 174.6874 80.6341 0.0000 0.0000 0.0000
# 3 45.2070 80.6341 130.6638 0.0000 0.0000 0.0000
# 4 0.0000 0.0000 0.0000 23.3979 0.0000 0.0000
# 5 0.0000 0.0000 0.0000 0.0000 32.1167 0.0000
# 6 0.0000 0.0000 0.0000 0.0000 0.0000 10.8983
#
#
#
# Elastic Compliance Matrix: (Units=1/GPa)
#
#
# Indices 1 2 3 4 5 6 
#
# 1 0.020985 -0.004434 -0.004524 0.000000 0.000000 0.000000
# 2 -0.004434 0.008942 -0.003984 0.000000 0.000000 0.000000
# 3 -0.004524 -0.003984 0.011677 0.000000 0.000000 0.000000
# 4 0.000000 0.000000 0.000000 0.042739 0.000000 0.000000
# 5 0.000000 0.000000 0.000000 0.000000 0.031136 0.000000
# 6 0.000000 0.000000 0.000000 0.000000 0.000000 0.091758
#
#
# Mechanical properties :
#
#
# Convention : Reuss Voigt Hill
#
# Bulk Modulus (GPa) = 63.61522 81.61028 72.61275
# Shear Modulus (GPa) = 20.97669 26.22176 23.59923
#
# Velocity S-wave (km/s) = 3.30270 3.69259 3.50307
# Velocity P-wave (km/s) = 6.90097 7.78571 7.35665
#
# Compressibility (1/GPa) = 0.01571951
#
# Stress axis : x y z
#
# Youngs Moduli (GPa) = 47.65376 111.83799 85.63878
#
# Poissons Ratio (x) = 0.49588 0.38744
# Poissons Ratio (y) = 0.21129 0.34117
# Poissons Ratio (z) = 0.21559 0.44555
#
# Static dielectric constant tensor:
#      x y z
#    x 3.763800 0.000000 0.000000 
#    y 0.000000 4.349890 0.000000 
#    z 0.000000 0.000000 3.301820 
# 
# 
# High freq. dielectric constant tensor:
#      x y z
#    x 1.753130 0.000000 0.000000 
#    y 0.000000 1.782400 0.000000 
#    z 0.000000 0.000000 1.725960 
# 
# From -- ./inp_files/6029.got.cif
#   From: 2010.03.12/outbox.cif.g09.slc.cpg/sg51_4_cif.got.tgz:6029.got - 2010.04.16 13:43:02.
