data_PCOD8209948
_publ_section_title
;
Structure prediction by ZEFSAII (Michael W. Deem and Ramdas Pophale) SiO2 
 PCOD8209948
Probable space group: P M M A
;
_chemical_formula_sum "Si O2"
_cell_formula_units_Z 48
_cell_length_a 34.444378
_cell_length_b 7.771860
_cell_length_c 8.953270
_cell_angle_alpha 90.000000
_cell_angle_beta 90.000000
_cell_angle_gamma 90.000000
_cell_volume 2396.762477
_symmetry_space_group_name_H-M "P M M A"
_symmetry_group_IT_number 51
_symmetry_cell_setting 'orthorhombic'
loop_
_space_group_symop_operation_xyz
x,y,z
1/2-x,-y,z
1/2+x,-y,-z
-x,y,-z
-x,-y,-z
1/2+x,y,-z
1/2-x,y,z
x,-y,z
loop_
_atom_site_type_symbol
_atom_site_label
_atom_site_fract_x
_atom_site_fract_y
_atom_site_fract_z
Si Si1 0.250000 0.202762 0.837195
Si Si2 0.456800 0.500000 0.822523
Si Si3 0.750000 0.696226 0.826981
Si Si4 0.901682 0.803148 0.174904
Si Si5 0.172799 0.304486 0.317858
Si Si6 0.043289 0.500000 0.176887
Si Si7 0.323824 0.799556 0.648919
Si Si8 0.903415 0.191006 0.828873
O O1 0.212200 0.264269 0.747684
O O2 0.250000 0.000000 0.864820
O O3 0.250000 0.294361 0.995734
O O4 0.435010 0.326899 0.767895
O O5 0.500085 0.500000 0.753096
O O6 0.459530 0.500000 0.999801
O O7 0.750000 0.500000 0.772881
O O8 0.711130 0.781305 0.757251
O O9 0.862776 0.756728 0.262058
O O10 0.915013 0.000000 0.205197
O O11 0.892910 0.771683 0.000801
O O12 0.167142 0.500000 0.262047
O O13 0.176539 0.303979 0.495681
O O14 0.135742 0.196011 0.266787
O O15 0.065683 0.329354 0.232791
O O16 0.320010 0.000000 0.612194
O O17 0.921576 0.000000 0.811159
#
# Coordination Sequence:
#
# PCOD8209948 Si02
#       8
#     4   4   4   8   8   4   8   8
#     4  10  21  38  58  80 110 146 191 235 275 332
#     4   9  18  32  57  82 117 146 177 227 284 329
#     4  10  23  38  54  80 114 146 185 235 277 324
#     4   9  19  34  55  83 112 146 188 229 278 335
#     4  11  22  36  54  80 113 149 191 232 276 332
#     4   9  18  34  53  88 115 142 183 227 274 347
#     4  10  21  36  54  80 111 145 189 234 276 329
#     4  10  19  35  58  82 113 149 184 232 282 327
#
# _framework density 20.027016
#
# number of rings (size 3 to 8) (size 9 to 14) (size 15 to 20)
#    0.000    2.167    0.833    2.000    1.167    4.000 
#    0.000    3.333    0.000    2.000    0.000    3.500 
#    0.000    0.000    0.000    0.000    0.000    0.000 
#
# Total GULP energy -595299.059059 kJ/mol
# GULP energy per Si atom -12402.063730 kJ/mol
# Density = 1.998143 g / cm^3
# Si number density = 20.027016 Si / 1000 Ang^3
#
#
#
# Elastic Constant Matrix: (Units=GPa)
#
#
# Indices 1 2 3 4 5 6 
#
# 1 179.0110 65.9517 50.2965 0.0000 0.0000 0.0000
# 2 65.9517 99.7388 25.9064 0.0000 0.0000 0.0000
# 3 50.2965 25.9064 82.5407 0.0000 0.0000 0.0000
# 4 0.0000 0.0000 0.0000 23.8983 0.0000 0.0000
# 5 0.0000 0.0000 0.0000 0.0000 4.2468 0.0000
# 6 0.0000 0.0000 0.0000 0.0000 0.0000 19.7774
#
#
#
# Elastic Compliance Matrix: (Units=1/GPa)
#
#
# Indices 1 2 3 4 5 6 
#
# 1 0.008272 -0.004530 -0.003619 0.000000 0.000000 0.000000
# 2 -0.004530 0.013397 -0.001444 0.000000 0.000000 0.000000
# 3 -0.003619 -0.001444 0.014774 0.000000 0.000000 0.000000
# 4 0.000000 0.000000 0.000000 0.041844 0.000000 0.000000
# 5 0.000000 0.000000 0.000000 0.000000 0.235469 0.000000
# 6 0.000000 0.000000 0.000000 0.000000 0.000000 0.050563
#
#
# Mechanical properties :
#
#
# Convention : Reuss Voigt Hill
#
# Bulk Modulus (GPa) = 57.95012 71.73329 64.84171
# Shear Modulus (GPa) = 12.84502 24.19358 18.51930
#
# Velocity S-wave (km/s) = 2.53530 3.47947 3.04421
# Velocity P-wave (km/s) = 6.12937 7.21376 6.69356
#
# Compressibility (1/GPa) = 0.01725622
#
# Stress axis : x y z
#
# Youngs Moduli (GPa) = 120.89133 74.64538 67.68774
#
# Poissons Ratio (x) = 0.33813 0.24495
# Poissons Ratio (y) = 0.54761 0.09777
# Poissons Ratio (z) = 0.43748 0.10782
#
# Static dielectric constant tensor:
#      x y z
#    x 3.789780 0.000000 0.000000 
#    y 0.000000 3.619080 0.000000 
#    z 0.000000 0.000000 3.311650 
# 
# 
# High freq. dielectric constant tensor:
#      x y z
#    x 1.780360 0.000000 0.000000 
#    y 0.000000 1.785580 0.000000 
#    z 0.000000 0.000000 1.758900 
# 
# From -- ./inp_files/13000.got.cif
#   From: 2010.03.12/outbox.cif.g09.slc.cpg/sg51_7_cif.got.tgz:13000.got - 2010.04.16 13:43:02.
