data_PCOD8209869
_publ_section_title
;
Structure prediction by ZEFSAII (Michael W. Deem and Ramdas Pophale) SiO2 
 PCOD8209869
Probable space group: P M M A
;
_chemical_formula_sum "Si O2"
_cell_formula_units_Z 52
_cell_length_a 9.283942
_cell_length_b 19.123391
_cell_length_c 15.079753
_cell_angle_alpha 90.000000
_cell_angle_beta 90.000000
_cell_angle_gamma 90.000000
_cell_volume 2677.266177
_symmetry_space_group_name_H-M "P M M A"
_symmetry_group_IT_number 51
_symmetry_cell_setting 'orthorhombic'
loop_
_space_group_symop_operation_xyz
x,y,z
1/2-x,-y,z
1/2+x,-y,-z
-x,y,-z
-x,-y,-z
1/2+x,y,-z
1/2-x,y,z
x,-y,z
loop_
_atom_site_type_symbol
_atom_site_label
_atom_site_fract_x
_atom_site_fract_y
_atom_site_fract_z
Si Si1 0.415528 0.676834 0.782609
Si Si2 0.917122 0.201918 0.081255
Si Si3 0.416083 0.418099 0.088000
Si Si4 0.899391 0.000000 0.421049
Si Si5 0.916609 0.276624 0.411127
Si Si6 0.912875 0.861453 0.315109
Si Si7 0.420065 0.917945 0.157112
O O1 0.250000 0.653508 0.795582
O O2 0.438860 0.753261 0.827861
O O3 0.518543 0.619948 0.826604
O O4 0.455330 0.679342 0.677863
O O5 0.750000 0.194007 0.057436
O O6 0.989543 0.124261 0.083289
O O7 0.000000 0.241311 0.000000
O O8 0.250000 0.396763 0.076199
O O9 0.434446 0.500000 0.104862
O O10 0.500000 0.394257 0.000000
O O11 0.914334 0.934405 0.360783
O O12 0.000000 0.000000 0.500000
O O13 0.750000 0.000000 0.471833
O O14 0.750000 0.285238 0.434407
O O15 0.956403 0.196849 0.386948
O O16 0.000000 0.301145 0.500000
O O17 0.750000 0.844880 0.275953
O O18 0.035761 0.872377 0.242602
O O19 0.250000 0.911289 0.141505
O O20 0.466244 0.000000 0.160241
#
# Coordination Sequence:
#
# PCOD8209869 Si02
#       7
#     8   8   8   4   8   8   8
#     4  10  21  38  61  88 120 155 193 237 285 338
#     4  11  23  40  60  83 112 146 188 237 289 347
#     4  10  21  37  60  93 130 164 197 232 276 333
#     4  10  20  30  48  72  99 134 175 226 290 350
#     4  10  21  37  56  83 114 148 191 237 288 343
#     4  10  19  35  54  73 102 140 181 230 290 349
#     4  11  23  37  55  79 105 139 188 239 291 349
#
# _framework density 19.422798
#
# number of rings (size 3 to 8) (size 9 to 14) (size 15 to 20)
#    0.000    1.692    2.308    2.308    0.000    6.462 
#    0.000    0.000    0.000    0.462    0.000    0.000 
#    0.000    0.000    0.000    0.000    0.000    0.000 
#
# Total GULP energy -644307.901617 kJ/mol
# GULP energy per Si atom -12390.536570 kJ/mol
# Density = 1.937859 g / cm^3
# Si number density = 19.422798 Si / 1000 Ang^3
#
#
#
# Elastic Constant Matrix: (Units=GPa)
#
#
# Indices 1 2 3 4 5 6 
#
# 1 121.6344 47.0935 69.0785 0.0000 0.0000 0.0000
# 2 47.0935 66.7403 34.9576 0.0000 0.0000 0.0000
# 3 69.0785 34.9576 135.6395 0.0000 0.0000 0.0000
# 4 0.0000 0.0000 0.0000 17.6143 0.0000 0.0000
# 5 0.0000 0.0000 0.0000 0.0000 40.8187 0.0000
# 6 0.0000 0.0000 0.0000 0.0000 0.0000 11.6233
#
#
#
# Elastic Compliance Matrix: (Units=1/GPa)
#
#
# Indices 1 2 3 4 5 6 
#
# 1 0.013968 -0.007087 -0.005287 0.000000 0.000000 0.000000
# 2 -0.007087 0.020917 -0.001782 0.000000 0.000000 0.000000
# 3 -0.005287 -0.001782 0.010524 0.000000 0.000000 0.000000
# 4 0.000000 0.000000 0.000000 0.056772 0.000000 0.000000
# 5 0.000000 0.000000 0.000000 0.000000 0.024499 0.000000
# 6 0.000000 0.000000 0.000000 0.000000 0.000000 0.086034
#
#
# Mechanical properties :
#
#
# Convention : Reuss Voigt Hill
#
# Bulk Modulus (GPa) = 58.48563 69.58593 64.03578
# Shear Modulus (GPa) = 20.26549 25.53689 22.90119
#
# Velocity S-wave (km/s) = 3.23365 3.62994 3.43751
# Velocity P-wave (km/s) = 6.64223 7.31254 6.98543
#
# Compressibility (1/GPa) = 0.01709822
#
# Stress axis : x y z
#
# Youngs Moduli (GPa) = 71.59330 47.80741 95.01814
#
# Poissons Ratio (x) = 0.33880 0.50237
# Poissons Ratio (y) = 0.50736 0.16930
# Poissons Ratio (z) = 0.37852 0.08518
#
# Static dielectric constant tensor:
#      x y z
#    x 3.765380 0.000000 0.000000 
#    y 0.000000 3.468780 0.000000 
#    z 0.000000 0.000000 3.638880 
# 
# 
# High freq. dielectric constant tensor:
#      x y z
#    x 1.758520 0.000000 0.000000 
#    y 0.000000 1.741480 0.000000 
#    z 0.000000 0.000000 1.757530 
# 
# From -- ./inp_files/21531.got.cif
#   From: 2010.03.12/outbox.cif.g09.slc.cpg/sg51_11_cif.got.tgz:21531.got - 2010.04.16 13:43:02.
