data_PCOD8209472
_publ_section_title
;
Structure prediction by ZEFSAII (Michael W. Deem and Ramdas Pophale) SiO2 
 PCOD8209472
Probable space group: P M M A
;
_chemical_formula_sum "Si O2"
_cell_formula_units_Z 64
_cell_length_a 24.711966
_cell_length_b 9.574893
_cell_length_c 14.519724
_cell_angle_alpha 90.000000
_cell_angle_beta 90.000000
_cell_angle_gamma 90.000000
_cell_volume 3435.576222
_symmetry_space_group_name_H-M "P M M A"
_symmetry_group_IT_number 51
_symmetry_cell_setting 'orthorhombic'
loop_
_space_group_symop_operation_xyz
x,y,z
1/2-x,-y,z
1/2+x,-y,-z
-x,y,-z
-x,-y,-z
1/2+x,y,-z
1/2-x,y,z
x,-y,z
loop_
_atom_site_type_symbol
_atom_site_label
_atom_site_fract_x
_atom_site_fract_y
_atom_site_fract_z
Si Si1 0.811299 0.660282 0.192106
Si Si2 0.017145 0.159803 0.240043
Si Si3 0.903885 0.341679 0.662334
Si Si4 0.190352 0.334009 0.205712
Si Si5 0.099466 0.163043 0.703275
Si Si6 0.349014 0.661531 0.007179
Si Si7 0.060275 0.658748 0.533049
Si Si8 0.057340 0.846046 0.045663
O O1 0.750000 0.686277 0.225493
O O2 0.828881 0.500000 0.210905
O O3 0.849756 0.762564 0.249161
O O4 0.812378 0.690568 0.082232
O O5 0.041012 0.256843 0.319457
O O6 0.048054 0.208857 0.148698
O O7 0.952542 0.179528 0.230112
O O8 0.030267 0.000000 0.264216
O O9 0.913199 0.500000 0.695493
O O10 0.852396 0.277708 0.717990
O O11 0.897047 0.334219 0.552216
O O12 0.250000 0.276986 0.232328
O O13 0.190848 0.500000 0.206528
O O14 0.177539 0.280849 0.101772
O O15 0.084142 0.233911 0.606741
O O16 0.113531 0.000000 0.686907
O O17 0.362440 0.500000 0.018245
O O18 0.405233 0.740436 0.990079
O O19 0.058916 0.500000 0.572612
O O20 0.000000 0.701572 0.500000
O O21 0.084156 0.000000 0.045483
O O22 0.000000 0.854793 0.000000
#
# Coordination Sequence:
#
# PCOD8209472 Si02
#       8
#     8   8   8   8   8   8   8   8
#     4  10  22  40  60  83 113 149 189 236 285 329
#     4  10  20  33  51  77 111 147 181 226 281 332
#     4  10  19  33  55  81 109 144 183 225 278 334
#     4   9  17  31  53  81 111 141 179 226 271 322
#     4  11  23  38  59  85 112 148 191 234 283 342
#     4  10  19  33  56  83 108 140 186 232 274 323
#     4  10  20  35  57  85 117 147 181 233 288 340
#     4  10  20  33  48  71 110 152 184 221 274 331
#
# _framework density 18.628608
#
# number of rings (size 3 to 8) (size 9 to 14) (size 15 to 20)
#    0.000    2.000    2.500    1.500    0.000    4.750 
#    0.000    0.625    0.000    4.500    0.000    0.000 
#    0.000    0.000    0.000    0.000    0.000    0.000 
#
# Total GULP energy -793343.805983 kJ/mol
# GULP energy per Si atom -12395.996968 kJ/mol
# Density = 1.858621 g / cm^3
# Si number density = 18.628608 Si / 1000 Ang^3
#
#
#
# Elastic Constant Matrix: (Units=GPa)
#
#
# Indices 1 2 3 4 5 6 
#
# 1 108.9630 52.6606 44.2533 0.0000 0.0000 0.0000
# 2 52.6606 80.0240 46.4311 0.0000 0.0000 0.0000
# 3 44.2533 46.4311 80.8135 0.0000 0.0000 0.0000
# 4 0.0000 0.0000 0.0000 25.4751 0.0000 0.0000
# 5 0.0000 0.0000 0.0000 0.0000 24.0250 0.0000
# 6 0.0000 0.0000 0.0000 0.0000 0.0000 20.7216
#
#
#
# Elastic Compliance Matrix: (Units=1/GPa)
#
#
# Indices 1 2 3 4 5 6 
#
# 1 0.014119 -0.007208 -0.003590 0.000000 0.000000 0.000000
# 2 -0.007208 0.022425 -0.008937 0.000000 0.000000 0.000000
# 3 -0.003590 -0.008937 0.019475 0.000000 0.000000 0.000000
# 4 0.000000 0.000000 0.000000 0.039254 0.000000 0.000000
# 5 0.000000 0.000000 0.000000 0.000000 0.041623 0.000000
# 6 0.000000 0.000000 0.000000 0.000000 0.000000 0.048259
#
#
# Mechanical properties :
#
#
# Convention : Reuss Voigt Hill
#
# Bulk Modulus (GPa) = 60.42921 61.83226 61.13074
# Shear Modulus (GPa) = 21.72572 22.47473 22.10023
#
# Velocity S-wave (km/s) = 3.41875 3.47719 3.44809
# Velocity P-wave (km/s) = 6.93493 7.02746 6.98135
#
# Compressibility (1/GPa) = 0.01654829
#
# Stress axis : x y z
#
# Youngs Moduli (GPa) = 70.82594 44.59298 51.34816
#
# Poissons Ratio (x) = 0.32143 0.18435
# Poissons Ratio (y) = 0.51052 0.45890
# Poissons Ratio (z) = 0.25428 0.39853
#
# Static dielectric constant tensor:
#      x y z
#    x 3.443180 0.000000 0.000000 
#    y 0.000000 3.337530 0.000000 
#    z 0.000000 0.000000 4.004410 
# 
# 
# High freq. dielectric constant tensor:
#      x y z
#    x 1.714420 0.000000 0.000000 
#    y 0.000000 1.708150 0.000000 
#    z 0.000000 0.000000 1.722420 
# 
# From -- ./inp_files/26257.got.cif
#   From: 2010.03.12/outbox.cif.g09.slc.cpg/sg51_14_cif.got.tgz:26257.got - 2010.04.16 13:43:02.
