data_PCOD8209497
_publ_section_title
;
Structure prediction by ZEFSAII (Michael W. Deem and Ramdas Pophale) SiO2 
 PCOD8209497
Probable space group: P M M A
;
_chemical_formula_sum "Si O2"
_cell_formula_units_Z 48
_cell_length_a 14.518820
_cell_length_b 8.597295
_cell_length_c 20.339986
_cell_angle_alpha 90.000000
_cell_angle_beta 90.000000
_cell_angle_gamma 90.000000
_cell_volume 2538.889501
_symmetry_space_group_name_H-M "P M M A"
_symmetry_group_IT_number 51
_symmetry_cell_setting 'orthorhombic'
loop_
_space_group_symop_operation_xyz
x,y,z
1/2-x,-y,z
1/2+x,-y,-z
-x,y,-z
-x,-y,-z
1/2+x,y,-z
1/2-x,y,z
x,-y,z
loop_
_atom_site_type_symbol
_atom_site_label
_atom_site_fract_x
_atom_site_fract_y
_atom_site_fract_z
Si Si1 0.559936 0.182087 0.177689
Si Si2 0.447387 0.319561 0.063693
Si Si3 0.569234 0.818209 0.326383
Si Si4 0.557321 0.683026 0.564853
Si Si5 0.250000 0.818312 0.875134
Si Si6 0.750000 0.321608 0.985239
Si Si7 0.750000 0.681079 0.383413
Si Si8 0.250000 0.183237 0.474417
O O1 0.479542 0.245264 0.131598
O O2 0.537087 0.224287 0.252857
O O3 0.658682 0.256716 0.157446
O O4 0.564611 0.000000 0.166591
O O5 0.470998 0.500000 0.067266
O O6 0.338950 0.285673 0.058783
O O7 0.500000 0.247737 0.000000
O O8 0.486395 0.772742 0.374043
O O9 0.659995 0.718902 0.341451
O O10 0.592973 0.000000 0.333545
O O11 0.500000 0.727674 0.500000
O O12 0.554111 0.500000 0.577932
O O13 0.661424 0.739609 0.558691
O O14 0.250000 0.000000 0.860579
O O15 0.250000 0.789587 0.952461
O O16 0.750000 0.500000 0.009998
O O17 0.750000 0.500000 0.403684
O O18 0.750000 0.785117 0.448310
O O19 0.250000 0.000000 0.461561
#
# Coordination Sequence:
#
# PCOD8209497 Si02
#       8
#     8   8   8   8   4   4   4   4
#     4  10  22  38  57  84 118 152 191 238 289 347
#     4  10  20  35  57  82 112 150 193 238 286 344
#     4  11  23  40  61  87 121 160 201 246 299 357
#     4  11  23  40  63  90 123 157 200 250 296 351
#     4  10  19  33  55  83 115 149 184 231 290 340
#     4  10  20  35  54  83 115 143 187 239 284 336
#     4  12  23  37  59  91 125 157 194 243 300 357
#     4  12  24  39  64  93 121 157 201 245 296 353
#
# _framework density 18.905902000000001
#
# number of rings (size 3 to 8) (size 9 to 14) (size 15 to 20)
#    0.000    1.333    3.333    3.000    0.000    4.333 
#    0.000    1.667    0.000    4.000    0.000    0.000 
#    0.000    0.000    0.000    0.000    0.000    0.000 
#
# Total GULP energy -595395.956062 kJ/mol
# GULP energy per Si atom -12404.082418 kJ/mol
# Density = 1.886287 g / cm^3
# Si number density = 18.905902 Si / 1000 Ang^3
#
#
#
# Elastic Constant Matrix: (Units=GPa)
#
#
# Indices 1 2 3 4 5 6 
#
# 1 143.4401 23.6883 64.3958 0.0000 0.0000 0.0000
# 2 23.6883 40.2860 28.5729 0.0000 0.0000 0.0000
# 3 64.3958 28.5729 135.5036 0.0000 0.0000 0.0000
# 4 0.0000 0.0000 0.0000 21.4785 0.0000 0.0000
# 5 0.0000 0.0000 0.0000 0.0000 30.3908 0.0000
# 6 0.0000 0.0000 0.0000 0.0000 0.0000 29.5736
#
#
#
# Elastic Compliance Matrix: (Units=1/GPa)
#
#
# Indices 1 2 3 4 5 6 
#
# 1 0.009103 -0.002686 -0.003760 0.000000 0.000000 0.000000
# 2 -0.002686 0.029980 -0.005045 0.000000 0.000000 0.000000
# 3 -0.003760 -0.005045 0.010230 0.000000 0.000000 0.000000
# 4 0.000000 0.000000 0.000000 0.046558 0.000000 0.000000
# 5 0.000000 0.000000 0.000000 0.000000 0.032905 0.000000
# 6 0.000000 0.000000 0.000000 0.000000 0.000000 0.033814
#
#
# Mechanical properties :
#
#
# Convention : Reuss Voigt Hill
#
# Bulk Modulus (GPa) = 37.97692 61.39373 49.68533
# Shear Modulus (GPa) = 25.72682 29.79343 27.76013
#
# Velocity S-wave (km/s) = 3.69288 3.97404 3.83604
# Velocity P-wave (km/s) = 6.18984 7.32128 6.77921
#
# Compressibility (1/GPa) = 0.02633178
#
# Stress axis : x y z
#
# Youngs Moduli (GPa) = 109.85407 33.35526 97.74746
#
# Poissons Ratio (x) = 0.08959 0.36750
# Poissons Ratio (y) = 0.29507 0.49316
# Poissons Ratio (z) = 0.41301 0.16829
#
# Static dielectric constant tensor:
#      x y z
#    x 3.755380 0.000000 0.000000 
#    y 0.000000 3.423810 0.000000 
#    z 0.000000 0.000000 3.435140 
# 
# 
# High freq. dielectric constant tensor:
#      x y z
#    x 1.741750 0.000000 0.000000 
#    y 0.000000 1.732920 0.000000 
#    z 0.000000 0.000000 1.730140 
# 
# From -- ./inp_files/29703.got.cif
#   From: 2010.03.12/outbox.cif.g09.slc.cpg/sg51_15_cif.got.tgz:29703.got - 2010.04.16 13:43:02.
