data_PCOD8209978
_publ_section_title
;
Structure prediction by ZEFSAII (Michael W. Deem and Ramdas Pophale) SiO2 
 PCOD8209978
Probable space group: P M M A
;
_chemical_formula_sum "Si O2"
_cell_formula_units_Z 32
_cell_length_a 15.072985
_cell_length_b 8.831881
_cell_length_c 12.200262
_cell_angle_alpha 90.000000
_cell_angle_beta 90.000000
_cell_angle_gamma 90.000000
_cell_volume 1624.133158
_symmetry_space_group_name_H-M "P M M A"
_symmetry_group_IT_number 51
_symmetry_cell_setting 'orthorhombic'
loop_
_space_group_symop_operation_xyz
x,y,z
1/2-x,-y,z
1/2+x,-y,-z
-x,y,-z
-x,-y,-z
1/2+x,y,-z
1/2-x,y,z
x,-y,z
loop_
_atom_site_type_symbol
_atom_site_label
_atom_site_fract_x
_atom_site_fract_y
_atom_site_fract_z
Si Si1 0.409056 0.678109 0.274731
Si Si2 0.750000 0.320785 0.875449
Si Si3 0.099776 0.179551 0.732366
Si Si4 0.604635 0.166335 0.508424
Si Si5 0.250000 0.320246 0.876009
O O1 0.426056 0.500000 0.268520
O O2 0.338373 0.736908 0.185706
O O3 0.499988 0.763832 0.249506
O O4 0.369546 0.717699 0.395358
O O5 0.750000 0.500000 0.871283
O O6 0.750000 0.260807 0.999267
O O7 0.137227 0.223686 0.611128
O O8 0.161487 0.257853 0.821060
O O9 0.101580 0.000000 0.747746
O O10 0.500000 0.151360 0.500000
O O11 0.644855 0.000000 0.534824
O O12 0.250000 0.500000 0.869476
#
# Coordination Sequence:
#
# PCOD8209978 Si02
#       5
#     8   4   8   8   4
#     4  10  19  35  59  84 111 145 185 226 270 325
#     4   9  22  40  55  78 112 145 182 233 280 315
#     4  10  21  38  57  82 116 146 176 224 282 329
#     4   8  16  32  53  79 113 146 174 215 274 330
#     4  11  23  40  59  78 104 145 194 231 268 325
#
# _framework density 19.702817
#
# number of rings (size 3 to 8) (size 9 to 14) (size 15 to 20)
#    0.000    2.500    0.000    3.375    0.000    7.500 
#    0.000   15.000    0.000    0.000    0.000    0.000 
#    0.000    0.000    0.000    0.000    0.000    0.000 
#
# Total GULP energy -396687.867204 kJ/mol
# GULP energy per Si atom -12396.495850 kJ/mol
# Density = 1.965797 g / cm^3
# Si number density = 19.702817 Si / 1000 Ang^3
#
#
#
# Elastic Constant Matrix: (Units=GPa)
#
#
# Indices 1 2 3 4 5 6 
#
# 1 106.5728 40.0638 80.2866 0.0000 0.0000 0.0000
# 2 40.0638 80.5254 57.1762 0.0000 0.0000 0.0000
# 3 80.2866 57.1762 182.3483 0.0000 0.0000 0.0000
# 4 0.0000 0.0000 0.0000 7.8869 0.0000 0.0000
# 5 0.0000 0.0000 0.0000 0.0000 36.2508 0.0000
# 6 0.0000 0.0000 0.0000 0.0000 0.0000 -78.5326
#
#
#
# Elastic Compliance Matrix: (Units=1/GPa)
#
#
# Indices 1 2 3 4 5 6 
#
# 1 0.014775 -0.003514 -0.005403 0.000000 0.000000 0.000000
# 2 -0.003514 0.016811 -0.003724 0.000000 0.000000 0.000000
# 3 -0.005403 -0.003724 0.009031 0.000000 0.000000 0.000000
# 4 0.000000 0.000000 0.000000 0.126792 0.000000 0.000000
# 5 0.000000 0.000000 0.000000 0.000000 0.027586 0.000000
# 6 0.000000 0.000000 0.000000 0.000000 0.000000 -0.012734
#
#
# Mechanical properties :
#
#
# Convention : Reuss Voigt Hill
#
# Bulk Modulus (GPa) = 65.21644 80.49998 72.85821
# Shear Modulus (GPa) = 23.51221 5.91568 14.71394
#
# Velocity S-wave (km/s) = 3.45823 1.73464 2.73572
# Velocity P-wave (km/s) = 7.00840 6.70505 6.85841
#
# Compressibility (1/GPa) = 0.01533356
#
# Stress axis : x y z
#
# Youngs Moduli (GPa) = 67.68157 59.48478 110.73333
#
# Poissons Ratio (x) = 0.20905 0.59834
# Poissons Ratio (y) = 0.23786 0.41235
# Poissons Ratio (z) = 0.36571 0.22151
#
# Static dielectric constant tensor:
#      x y z
#    x 3.478950 0.000000 0.000000 
#    y 0.000000 3.499530 0.000000 
#    z 0.000000 0.000000 4.070440 
# 
# 
# High freq. dielectric constant tensor:
#      x y z
#    x 1.763900 0.000000 0.000000 
#    y 0.000000 1.760090 0.000000 
#    z 0.000000 0.000000 1.771860 
# 
# From -- ./inp_files/17016.got.cif
#   From: 2010.03.12/outbox.cif.g09.slc.cpg/sg51_9_cif.got.tgz:17016.got - 2010.04.16 13:43:02.
