data_PCOD8209581
_publ_section_title
;
Structure prediction by ZEFSAII (Michael W. Deem and Ramdas Pophale) SiO2 
 PCOD8209581
Probable space group: P M M A
;
_chemical_formula_sum "Si O2"
_cell_formula_units_Z 52
_cell_length_a 8.730475
_cell_length_b 15.687054
_cell_length_c 21.828285
_cell_angle_alpha 90.000000
_cell_angle_beta 90.000000
_cell_angle_gamma 90.000000
_cell_volume 2989.502219
_symmetry_space_group_name_H-M "P M M A"
_symmetry_group_IT_number 51
_symmetry_cell_setting 'orthorhombic'
loop_
_space_group_symop_operation_xyz
x,y,z
1/2-x,-y,z
1/2+x,-y,-z
-x,y,-z
-x,-y,-z
1/2+x,y,-z
1/2-x,y,z
x,-y,z
loop_
_atom_site_type_symbol
_atom_site_label
_atom_site_fract_x
_atom_site_fract_y
_atom_site_fract_z
Si Si1 0.074293 0.500000 0.346843
Si Si2 0.426410 0.245795 0.325331
Si Si3 0.926640 0.344756 0.565605
Si Si4 0.928107 0.151982 0.144536
Si Si5 0.418954 0.095517 0.720874
Si Si6 0.932749 0.000000 0.932791
Si Si7 0.066461 0.680278 0.197182
Si Si8 0.568588 0.500000 0.215120
O O1 0.250000 0.500000 0.323744
O O2 0.035935 0.422465 0.390382
O O3 0.968782 0.500000 0.287194
O O4 0.250000 0.269971 0.327752
O O5 0.495322 0.268498 0.392320
O O6 0.454325 0.146089 0.317097
O O7 0.493195 0.296182 0.266085
O O8 0.750000 0.334195 0.551016
O O9 0.000000 0.353361 0.500000
O O10 0.750000 0.162639 0.126545
O O11 0.950452 0.101613 0.207478
O O12 0.002632 0.247299 0.150019
O O13 0.010583 0.089275 0.096785
O O14 0.250000 0.132438 0.706249
O O15 0.433705 0.000000 0.698273
O O16 0.750000 0.000000 0.932531
O O17 0.000000 0.000000 0.000000
O O18 0.250000 0.679935 0.192478
O O19 0.001380 0.585449 0.182878
O O20 0.750000 0.500000 0.205169
#
# Coordination Sequence:
#
# PCOD8209581 Si02
#       8
#     4   8   8   8   8   4   8   4
#     4  10  19  35  49  62  94 129 161 207 258 317
#     4   9  18  31  47  68  93 124 162 206 258 312
#     4  10  20  33  48  65  89 123 162 207 259 315
#     4  10  19  35  54  80 115 146 181 226 266 314
#     4   9  17  30  49  73 101 130 159 201 257 306
#     4  12  24  38  58  86 120 162 197 224 265 310
#     4  10  19  34  53  74 105 143 179 221 272 326
#     4  12  22  31  49  78 106 139 180 223 274 325
#
# _framework density 17.394200000000001
#
# number of rings (size 3 to 8) (size 9 to 14) (size 15 to 20)
#    0.000    2.000    2.308    2.538    0.000    2.769 
#    0.000    0.000    0.000    0.462    0.000    0.538 
#    0.000    0.000    0.000    0.000    0.000    0.000 
#
# Total GULP energy -644211.876390 kJ/mol
# GULP energy per Si atom -12388.689931 kJ/mol
# Density = 1.735461 g / cm^3
# Si number density = 17.394200 Si / 1000 Ang^3
#
#
#
# Elastic Constant Matrix: (Units=GPa)
#
#
# Indices 1 2 3 4 5 6 
#
# 1 91.3883 52.5913 38.6362 0.0000 0.0000 0.0000
# 2 52.5913 117.6033 38.2491 0.0000 0.0000 0.0000
# 3 38.6362 38.2491 54.4561 0.0000 0.0000 0.0000
# 4 0.0000 0.0000 0.0000 24.9449 0.0000 0.0000
# 5 0.0000 0.0000 0.0000 0.0000 21.1074 0.0000
# 6 0.0000 0.0000 0.0000 0.0000 0.0000 31.5263
#
#
#
# Elastic Compliance Matrix: (Units=1/GPa)
#
#
# Indices 1 2 3 4 5 6 
#
# 1 0.017595 -0.004936 -0.009016 0.000000 0.000000 0.000000
# 2 -0.004936 0.012405 -0.005211 0.000000 0.000000 0.000000
# 3 -0.009016 -0.005211 0.028421 0.000000 0.000000 0.000000
# 4 0.000000 0.000000 0.000000 0.040088 0.000000 0.000000
# 5 0.000000 0.000000 0.000000 0.000000 0.047377 0.000000
# 6 0.000000 0.000000 0.000000 0.000000 0.000000 0.031720
#
#
# Mechanical properties :
#
#
# Convention : Reuss Voigt Hill
#
# Bulk Modulus (GPa) = 49.76699 58.04453 53.90576
# Shear Modulus (GPa) = 22.45874 24.44713 23.45294
#
# Velocity S-wave (km/s) = 3.59717 3.75304 3.67593
# Velocity P-wave (km/s) = 6.77689 7.22654 7.00532
#
# Compressibility (1/GPa) = 0.02009364
#
# Stress axis : x y z
#
# Youngs Moduli (GPa) = 56.83592 80.61059 35.18530
#
# Poissons Ratio (x) = 0.39787 0.31725
# Poissons Ratio (y) = 0.28052 0.18337
# Poissons Ratio (z) = 0.51246 0.42010
#
# Static dielectric constant tensor:
#      x y z
#    x 3.277820 0.000000 0.000000 
#    y 0.000000 3.440540 0.000000 
#    z 0.000000 0.000000 2.880720 
# 
# 
# High freq. dielectric constant tensor:
#      x y z
#    x 1.672460 0.000000 0.000000 
#    y 0.000000 1.681280 0.000000 
#    z 0.000000 0.000000 1.635230 
# 
# From -- ./inp_files/31846.got.cif
#   From: 2010.03.12/outbox.cif.g09.slc.cpg/sg51_16_cif.got.tgz:31846.got - 2010.04.16 13:43:02.
