data_PCOD8209233
_publ_section_title
;
Structure prediction by ZEFSAII (Michael W. Deem and Ramdas Pophale) SiO2 
 PCOD8209233
Probable space group: P M M A
;
_chemical_formula_sum "Si O2"
_cell_formula_units_Z 40
_cell_length_a 13.835988
_cell_length_b 13.124230
_cell_length_c 11.732555
_cell_angle_alpha 90.000000
_cell_angle_beta 90.000000
_cell_angle_gamma 90.000000
_cell_volume 2130.475813
_symmetry_space_group_name_H-M "P M M A"
_symmetry_group_IT_number 51
_symmetry_cell_setting 'orthorhombic'
loop_
_space_group_symop_operation_xyz
x,y,z
1/2-x,-y,z
1/2+x,-y,-z
-x,y,-z
-x,-y,-z
1/2+x,y,-z
1/2-x,y,z
x,-y,z
loop_
_atom_site_type_symbol
_atom_site_label
_atom_site_fract_x
_atom_site_fract_y
_atom_site_fract_z
Si Si1 0.964397 0.306758 0.176145
Si Si2 0.639447 0.619227 0.958256
Si Si3 0.860253 0.613339 0.391762
Si Si4 0.484877 0.115367 0.686096
Si Si5 0.638767 0.814519 0.514160
O O1 0.929909 0.370676 0.284748
O O2 0.072143 0.344589 0.145582
O O3 0.964810 0.186478 0.205017
O O4 0.890659 0.321567 0.072343
O O5 0.750000 0.644908 0.927035
O O6 0.624056 0.500000 0.980935
O O7 0.750000 0.627563 0.349077
O O8 0.877202 0.500000 0.441589
O O9 0.881886 0.694339 0.491911
O O10 0.397969 0.122219 0.595034
O O11 0.583963 0.152210 0.627586
O O12 0.494572 0.000000 0.729808
O O13 0.750000 0.839581 0.533172
#
# Coordination Sequence:
#
# PCOD8209233 Si02
#       5
#     8   8   8   8   8
#     4  10  19  33  52  74 100 130 165 204 245 294
#     4  10  20  35  55  77 101 128 158 196 245 302
#     4   9  16  28  49  77 106 134 164 199 241 289
#     4  10  21  35  51  73  99 131 171 211 248 284
#     4   9  18  33  52  74 102 135 169 204 242 290
#
# _framework density 18.775148999999999
#
# number of rings (size 3 to 8) (size 9 to 14) (size 15 to 20)
#    0.000    2.400    0.000    4.200    0.000    4.800 
#    0.000   12.000    0.000    3.600    0.000    0.000 
#    0.000    0.000    0.000    0.000    0.000    0.000 
#
# Total GULP energy -496028.780619 kJ/mol
# GULP energy per Si atom -12400.719515 kJ/mol
# Density = 1.873242 g / cm^3
# Si number density = 18.775149 Si / 1000 Ang^3
#
#
#
# Elastic Constant Matrix: (Units=GPa)
#
#
# Indices 1 2 3 4 5 6 
#
# 1 88.0099 42.5708 8.8232 0.0000 0.0000 0.0000
# 2 42.5708 155.6423 43.1524 0.0000 0.0000 0.0000
# 3 8.8232 43.1524 40.9685 0.0000 0.0000 0.0000
# 4 0.0000 0.0000 0.0000 20.4589 0.0000 0.0000
# 5 0.0000 0.0000 0.0000 0.0000 19.3875 0.0000
# 6 0.0000 0.0000 0.0000 0.0000 0.0000 19.8891
#
#
#
# Elastic Compliance Matrix: (Units=1/GPa)
#
#
# Indices 1 2 3 4 5 6 
#
# 1 0.013148 -0.003971 0.001351 0.000000 0.000000 0.000000
# 2 -0.003971 0.010274 -0.009967 0.000000 0.000000 0.000000
# 3 0.001351 -0.009967 0.034616 0.000000 0.000000 0.000000
# 4 0.000000 0.000000 0.000000 0.048878 0.000000 0.000000
# 5 0.000000 0.000000 0.000000 0.000000 0.051580 0.000000
# 6 0.000000 0.000000 0.000000 0.000000 0.000000 0.050279
#
#
# Mechanical properties :
#
#
# Convention : Reuss Voigt Hill
#
# Bulk Modulus (GPa) = 30.42786 52.63483 41.53135
# Shear Modulus (GPa) = 20.41621 24.61874 22.51748
#
# Velocity S-wave (km/s) = 3.30116 3.62503 3.46688
# Velocity P-wave (km/s) = 5.54724 6.75399 6.18014
#
# Compressibility (1/GPa) = 0.03286462
#
# Stress axis : x y z
#
# Youngs Moduli (GPa) = 76.05995 97.32958 28.88813
#
# Poissons Ratio (x) = 0.38645 -0.03902
# Poissons Ratio (y) = 0.30200 0.28793
# Poissons Ratio (z) = -0.10273 0.97008
#
# Static dielectric constant tensor:
#      x y z
#    x 3.597010 0.000000 0.000000 
#    y 0.000000 3.541170 0.000000 
#    z 0.000000 0.000000 3.127400 
# 
# 
# High freq. dielectric constant tensor:
#      x y z
#    x 1.741150 0.000000 0.000000 
#    y 0.000000 1.728220 0.000000 
#    z 0.000000 0.000000 1.697430 
# 
# From -- ./inp_files/16191.got.cif
#   From: 2010.03.12/outbox.cif.g09.slc.cpg/sg51_9_cif.got.tgz:16191.got - 2010.04.16 13:43:02.
