data_PCOD8209012
_publ_section_title
;
Structure prediction by ZEFSAII (Michael W. Deem and Ramdas Pophale) SiO2 
 PCOD8209012
Probable space group: P M M A
;
_chemical_formula_sum "Si O2"
_cell_formula_units_Z 64
_cell_length_a 20.010517
_cell_length_b 8.885333
_cell_length_c 19.713777
_cell_angle_alpha 90.000000
_cell_angle_beta 90.000000
_cell_angle_gamma 90.000000
_cell_volume 3505.111661
_symmetry_space_group_name_H-M "P M M A"
_symmetry_group_IT_number 51
_symmetry_cell_setting 'orthorhombic'
loop_
_space_group_symop_operation_xyz
x,y,z
1/2-x,-y,z
1/2+x,-y,-z
-x,y,-z
-x,-y,-z
1/2+x,y,-z
1/2-x,y,z
x,-y,z
loop_
_atom_site_type_symbol
_atom_site_label
_atom_site_fract_x
_atom_site_fract_y
_atom_site_fract_z
Si Si1 0.896462 0.822835 0.313907
Si Si2 0.324111 0.178963 0.948936
Si Si3 0.533651 0.324061 0.660333
Si Si4 0.574110 0.177516 0.162502
Si Si5 0.437496 0.325664 0.187485
Si Si6 0.327018 0.673046 0.571021
Si Si7 0.827646 0.826329 0.898565
Si Si8 0.071937 0.823414 0.469740
O O1 0.894092 0.777484 0.234853
O O2 0.837159 0.736751 0.352723
O O3 0.965750 0.770223 0.347032
O O4 0.888663 0.000000 0.324780
O O5 0.250000 0.241377 0.931312
O O6 0.377575 0.244817 0.895630
O O7 0.322180 0.000000 0.944628
O O8 0.344485 0.227600 0.024937
O O9 0.518039 0.500000 0.651618
O O10 0.567712 0.289739 0.732613
O O11 0.582384 0.264914 0.601247
O O12 0.500639 0.244627 0.153223
O O13 0.567053 0.000000 0.155791
O O14 0.447302 0.500000 0.173802
O O15 0.369271 0.271529 0.153972
O O16 0.250000 0.690113 0.551009
O O17 0.350054 0.500000 0.567968
O O18 0.369875 0.771843 0.519569
O O19 0.750000 0.800146 0.882737
O O20 0.847113 0.000000 0.889272
O O21 0.000000 0.779888 0.500000
O O22 0.078642 0.000000 0.456703
#
# Coordination Sequence:
#
# PCOD8209012 Si02
#       8
#     8   8   8   8   8   8   8   8
#     4  10  19  32  52  79 107 138 177 220 266 312
#     4   8  15  30  52  77 103 135 180 226 266 316
#     4  10  20  35  56  79 105 140 178 215 259 316
#     4   9  18  32  53  79 108 141 177 220 266 312
#     4  10  21  35  52  78 110 141 175 218 265 316
#     4  11  24  39  55  78 110 148 184 217 260 318
#     4   9  18  34  56  78 101 135 180 226 271 321
#     4  11  22  36  59  87 108 134 176 224 270 314
#
# _framework density 18.259046999999999
#
# number of rings (size 3 to 8) (size 9 to 14) (size 15 to 20)
#    0.000    2.250    1.250    2.625    0.000    4.750 
#    0.000    5.000    0.000    1.875    0.000    0.000 
#    0.000    0.000    0.000    0.000    0.000    0.000 
#
# Total GULP energy -793691.852041 kJ/mol
# GULP energy per Si atom -12401.435188 kJ/mol
# Density = 1.821749 g / cm^3
# Si number density = 18.259047 Si / 1000 Ang^3
#
#
#
# Elastic Constant Matrix: (Units=GPa)
#
#
# Indices 1 2 3 4 5 6 
#
# 1 82.8772 27.5828 56.1887 0.0000 0.0000 0.0000
# 2 27.5828 45.7784 31.7190 0.0000 0.0000 0.0000
# 3 56.1887 31.7190 104.4149 0.0000 0.0000 0.0000
# 4 0.0000 0.0000 0.0000 24.2261 0.0000 0.0000
# 5 0.0000 0.0000 0.0000 0.0000 31.5532 0.0000
# 6 0.0000 0.0000 0.0000 0.0000 0.0000 23.0336
#
#
#
# Elastic Compliance Matrix: (Units=1/GPa)
#
#
# Indices 1 2 3 4 5 6 
#
# 1 0.020169 -0.005867 -0.009071 0.000000 0.000000 0.000000
# 2 -0.005867 0.029375 -0.005766 0.000000 0.000000 0.000000
# 3 -0.009071 -0.005766 0.016210 0.000000 0.000000 0.000000
# 4 0.000000 0.000000 0.000000 0.041278 0.000000 0.000000
# 5 0.000000 0.000000 0.000000 0.000000 0.031693 0.000000
# 6 0.000000 0.000000 0.000000 0.000000 0.000000 0.043415
#
#
# Mechanical properties :
#
#
# Convention : Reuss Voigt Hill
#
# Bulk Modulus (GPa) = 41.07612 51.56128 46.31870
# Shear Modulus (GPa) = 21.58316 23.60126 22.59221
#
# Velocity S-wave (km/s) = 3.44183 3.59915 3.52137
# Velocity P-wave (km/s) = 6.19194 6.75069 6.47734
#
# Compressibility (1/GPa) = 0.02434505
#
# Stress axis : x y z
#
# Youngs Moduli (GPa) = 49.58203 34.04287 61.68949
#
# Poissons Ratio (x) = 0.19973 0.55959
# Poissons Ratio (y) = 0.29090 0.35572
# Poissons Ratio (z) = 0.44976 0.19630
#
# Static dielectric constant tensor:
#      x y z
#    x 3.265010 0.000000 0.000000 
#    y 0.000000 3.261620 0.000000 
#    z 0.000000 0.000000 3.565900 
# 
# 
# High freq. dielectric constant tensor:
#      x y z
#    x 1.692860 0.000000 0.000000 
#    y 0.000000 1.701810 0.000000 
#    z 0.000000 0.000000 1.715230 
# 
# From -- ./inp_files/33961.got.cif
#   From: 2010.03.12/outbox.cif.g09.slc.cpg/sg51_17_cif.got.tgz:33961.got - 2010.04.16 13:43:02.
