data_PCOD8209532
_publ_section_title
;
Structure prediction by ZEFSAII (Michael W. Deem and Ramdas Pophale) SiO2 
 PCOD8209532
Probable space group: P M M A
;
_chemical_formula_sum "Si O2"
_cell_formula_units_Z 52
_cell_length_a 8.957808
_cell_length_b 20.246249
_cell_length_c 14.260194
_cell_angle_alpha 90.000000
_cell_angle_beta 90.000000
_cell_angle_gamma 90.000000
_cell_volume 2586.257465
_symmetry_space_group_name_H-M "P M M A"
_symmetry_group_IT_number 51
_symmetry_cell_setting 'orthorhombic'
loop_
_space_group_symop_operation_xyz
x,y,z
1/2-x,-y,z
1/2+x,-y,-z
-x,y,-z
-x,-y,-z
1/2+x,y,-z
1/2-x,y,z
x,-y,z
loop_
_atom_site_type_symbol
_atom_site_label
_atom_site_fract_x
_atom_site_fract_y
_atom_site_fract_z
Si Si1 0.916838 0.694575 0.356356
Si Si2 0.587178 0.252621 0.147810
Si Si3 0.927090 0.176752 0.591531
Si Si4 0.925440 0.869827 0.793259
Si Si5 0.073479 0.392674 0.907584
Si Si6 0.071976 0.000000 0.102075
Si Si7 0.921850 0.574277 0.715616
O O1 0.750000 0.689637 0.400418
O O2 0.904784 0.717740 0.250704
O O3 0.016899 0.747558 0.411278
O O4 0.996649 0.623001 0.358203
O O5 0.750000 0.225864 0.117781
O O6 0.474314 0.191354 0.141212
O O7 0.537358 0.314106 0.084358
O O8 0.750000 0.174769 0.583680
O O9 0.983638 0.139274 0.686020
O O10 0.000000 0.141266 0.500000
O O11 0.750000 0.870740 0.791679
O O12 0.986518 0.937039 0.838929
O O13 0.250000 0.406513 0.903830
O O14 0.998726 0.424818 0.817103
O O15 0.000000 0.425356 0.000000
O O16 0.250000 0.000000 0.091176
O O17 0.000000 0.000000 0.000000
O O18 0.750000 0.596582 0.726595
O O19 0.933896 0.500000 0.675451
#
# Coordination Sequence:
#
# PCOD8209532 Si02
#       7
#     8   8   8   8   8   4   8
#     4   9  17  31  51  75 102 132 168 211 255 307
#     4   8  16  30  48  70  95 124 163 211 261 311
#     4  10  19  33  56  85 113 143 177 218 270 324
#     4   9  19  35  55  77 107 145 181 220 267 320
#     4  10  20  32  46  66  93 126 166 218 275 329
#     4  10  22  40  57  78 108 146 191 230 267 314
#     4  10  20  33  49  69  95 131 173 215 263 321
#
# _framework density 20.106273000000002
#
# number of rings (size 3 to 8) (size 9 to 14) (size 15 to 20)
#    0.000    2.615    0.000    2.769    0.000    7.692 
#    0.000    3.462    0.000    0.462    0.000    0.000 
#    0.000    0.000    0.000    0.000    0.000    0.000 
#
# Total GULP energy -644493.228449 kJ/mol
# GULP energy per Si atom -12394.100547 kJ/mol
# Density = 2.006051 g / cm^3
# Si number density = 20.106273 Si / 1000 Ang^3
#
#
#
# Elastic Constant Matrix: (Units=GPa)
#
#
# Indices 1 2 3 4 5 6 
#
# 1 82.0112 34.0457 28.2880 0.0000 0.0000 0.0000
# 2 34.0457 112.5139 29.0709 0.0000 0.0000 0.0000
# 3 28.2880 29.0709 75.1836 0.0000 0.0000 0.0000
# 4 0.0000 0.0000 0.0000 15.5862 0.0000 0.0000
# 5 0.0000 0.0000 0.0000 0.0000 28.1561 0.0000
# 6 0.0000 0.0000 0.0000 0.0000 0.0000 25.7417
#
#
#
# Elastic Compliance Matrix: (Units=1/GPa)
#
#
# Indices 1 2 3 4 5 6 
#
# 1 0.015130 -0.003452 -0.004358 0.000000 0.000000 0.000000
# 2 -0.003452 0.010662 -0.002824 0.000000 0.000000 0.000000
# 3 -0.004358 -0.002824 0.016032 0.000000 0.000000 0.000000
# 4 0.000000 0.000000 0.000000 0.064159 0.000000 0.000000
# 5 0.000000 0.000000 0.000000 0.000000 0.035516 0.000000
# 6 0.000000 0.000000 0.000000 0.000000 0.000000 0.038847
#
#
# Mechanical properties :
#
#
# Convention : Reuss Voigt Hill
#
# Bulk Modulus (GPa) = 48.64620 50.27977 49.46298
# Shear Modulus (GPa) = 23.98471 25.78377 24.88424
#
# Velocity S-wave (km/s) = 3.45758 3.58491 3.52182
# Velocity P-wave (km/s) = 6.33931 6.49590 6.41808
#
# Compressibility (1/GPa) = 0.02055659
#
# Stress axis : x y z
#
# Youngs Moduli (GPa) = 66.09527 93.79133 62.37443
#
# Poissons Ratio (x) = 0.32378 0.27181
# Poissons Ratio (y) = 0.22817 0.17613
# Poissons Ratio (z) = 0.28803 0.26484
#
# Static dielectric constant tensor:
#      x y z
#    x 3.708950 0.000000 0.000000 
#    y 0.000000 3.754850 0.000000 
#    z 0.000000 0.000000 3.654700 
# 
# 
# High freq. dielectric constant tensor:
#      x y z
#    x 1.787450 0.000000 0.000000 
#    y 0.000000 1.769360 0.000000 
#    z 0.000000 0.000000 1.771140 
# 
# From -- ./inp_files/21550.got.cif
#   From: 2010.03.12/outbox.cif.g09.slc.cpg/sg51_11_cif.got.tgz:21550.got - 2010.04.16 13:43:02.
