data_PCOD8209993
_publ_section_title
;
Structure prediction by ZEFSAII (Michael W. Deem and Ramdas Pophale) SiO2 
 PCOD8209993
Probable space group: P M M A
;
_chemical_formula_sum "Si O2"
_cell_formula_units_Z 48
_cell_length_a 8.758348
_cell_length_b 20.650515
_cell_length_c 14.014971
_cell_angle_alpha 90.000000
_cell_angle_beta 90.000000
_cell_angle_gamma 90.000000
_cell_volume 2534.809275
_symmetry_space_group_name_H-M "P M M A"
_symmetry_group_IT_number 51
_symmetry_cell_setting 'orthorhombic'
loop_
_space_group_symop_operation_xyz
x,y,z
1/2-x,-y,z
1/2+x,-y,-z
-x,y,-z
-x,-y,-z
1/2+x,y,-z
1/2-x,y,z
x,-y,z
loop_
_atom_site_type_symbol
_atom_site_label
_atom_site_fract_x
_atom_site_fract_y
_atom_site_fract_z
Si Si1 0.429790 0.249878 0.102953
Si Si2 0.072954 0.620218 0.206580
Si Si3 0.571470 0.500000 0.104654
Si Si4 0.571393 0.318504 0.597870
Si Si5 0.069956 0.000000 0.104444
Si Si6 0.068932 0.179979 0.600357
Si Si7 0.069118 0.125977 0.219385
O O1 0.250000 0.247518 0.093873
O O2 0.483550 0.314371 0.156405
O O3 0.488987 0.187721 0.160003
O O4 0.500000 0.248960 0.000000
O O5 0.250000 0.606105 0.184984
O O6 0.044512 0.628125 0.319951
O O7 0.974374 0.562224 0.165573
O O8 0.750000 0.500000 0.089227
O O9 0.500000 0.500000 0.000000
O O10 0.500000 0.346170 0.500000
O O11 0.750000 0.304303 0.583758
O O12 0.493228 0.251138 0.627415
O O13 0.014463 0.062580 0.162868
O O14 0.250000 0.000000 0.092045
O O15 0.000000 0.000000 0.000000
O O16 0.250000 0.181982 0.594053
O O17 0.000000 0.156986 0.500000
O O18 0.014263 0.128042 0.678640
O O19 0.250000 0.126620 0.235798
#
# Coordination Sequence:
#
# PCOD8209993 Si02
#       7
#     8   8   4   8   4   8   8
#     4  10  20  34  54  80 112 144 186 238 285 335
#     4  10  21  39  60  83 114 154 191 236 289 339
#     4  12  26  42  61  84 115 154 195 240 286 348
#     4  10  19  35  59  88 121 153 188 235 288 343
#     4  10  22  38  61  84 117 160 195 240 290 346
#     4  11  21  34  57  87 117 152 190 237 290 346
#     4  10  20  38  57  82 116 153 194 237 290 341
#
# _framework density 18.936336000000001
#
# number of rings (size 3 to 8) (size 9 to 14) (size 15 to 20)
#    0.000    1.667    1.667    4.750    0.000    4.667 
#    0.000    0.833    0.000    0.000    0.000    0.000 
#    0.000    0.000    0.000    0.000    0.000    0.000 
#
# Total GULP energy -595333.876056 kJ/mol
# GULP energy per Si atom -12402.789084 kJ/mol
# Density = 1.889324 g / cm^3
# Si number density = 18.936336 Si / 1000 Ang^3
#
#
#
# Elastic Constant Matrix: (Units=GPa)
#
#
# Indices 1 2 3 4 5 6 
#
# 1 98.1387 52.2271 64.0776 0.0000 0.0000 0.0000
# 2 52.2271 138.7021 79.0188 0.0000 0.0000 0.0000
# 3 64.0776 79.0188 165.6331 0.0000 0.0000 0.0000
# 4 0.0000 0.0000 0.0000 31.8994 0.0000 0.0000
# 5 0.0000 0.0000 0.0000 0.0000 37.7186 0.0000
# 6 0.0000 0.0000 0.0000 0.0000 0.0000 16.7273
#
#
#
# Elastic Compliance Matrix: (Units=1/GPa)
#
#
# Indices 1 2 3 4 5 6 
#
# 1 0.014555 -0.003121 -0.004142 0.000000 0.000000 0.000000
# 2 -0.003121 0.010570 -0.003835 0.000000 0.000000 0.000000
# 3 -0.004142 -0.003835 0.009469 0.000000 0.000000 0.000000
# 4 0.000000 0.000000 0.000000 0.031349 0.000000 0.000000
# 5 0.000000 0.000000 0.000000 0.000000 0.026512 0.000000
# 6 0.000000 0.000000 0.000000 0.000000 0.000000 0.059783
#
#
# Mechanical properties :
#
#
# Convention : Reuss Voigt Hill
#
# Bulk Modulus (GPa) = 80.65686 88.12452 84.39069
# Shear Modulus (GPa) = 28.00087 31.07908 29.53997
#
# Velocity S-wave (km/s) = 3.84954 4.05562 3.95392
# Velocity P-wave (km/s) = 7.90220 8.28064 8.09363
#
# Compressibility (1/GPa) = 0.01239820
#
# Stress axis : x y z
#
# Youngs Moduli (GPa) = 68.70548 94.60979 105.60293
#
# Poissons Ratio (x) = 0.29527 0.43740
# Poissons Ratio (y) = 0.21442 0.40500
# Poissons Ratio (z) = 0.28457 0.36284
#
# Static dielectric constant tensor:
#      x y z
#    x 3.359280 0.000000 0.000000 
#    y 0.000000 3.445240 0.000000 
#    z 0.000000 0.000000 3.680870 
# 
# 
# High freq. dielectric constant tensor:
#      x y z
#    x 1.733940 0.000000 0.000000 
#    y 0.000000 1.721020 0.000000 
#    z 0.000000 0.000000 1.754520 
# 
# From -- ./inp_files/21240.got.cif
#   From: 2010.03.12/outbox.cif.g09.slc.cpg/sg51_11_cif.got.tgz:21240.got - 2010.04.16 13:43:02.
