data_PCOD8210955
_publ_section_title
;
Structure prediction by ZEFSAII (Michael W. Deem and Ramdas Pophale) SiO2 
 PCOD8210955
Probable space group: P M M A
;
_chemical_formula_sum "Si O2"
_cell_formula_units_Z 56
_cell_length_a 19.063306
_cell_length_b 9.173581
_cell_length_c 17.643032
_cell_angle_alpha 90.000000
_cell_angle_beta 90.000000
_cell_angle_gamma 90.000000
_cell_volume 3085.391942
_symmetry_space_group_name_H-M "P M M A"
_symmetry_group_IT_number 51
_symmetry_cell_setting 'orthorhombic'
loop_
_space_group_symop_operation_xyz
x,y,z
1/2-x,-y,z
1/2+x,-y,-z
-x,y,-z
-x,-y,-z
1/2+x,y,-z
1/2-x,y,z
x,-y,z
loop_
_atom_site_type_symbol
_atom_site_label
_atom_site_fract_x
_atom_site_fract_y
_atom_site_fract_z
Si Si1 0.828366 0.826340 0.321960
Si Si2 0.594515 0.171752 0.772087
Si Si3 0.667444 0.331105 0.634470
Si Si4 0.435719 0.828052 0.803355
Si Si5 0.666826 0.838305 0.488360
Si Si6 0.930690 0.332407 0.042064
Si Si7 0.831022 0.666378 0.905494
O O1 0.750000 0.765125 0.305416
O O2 0.881705 0.765455 0.259094
O O3 0.855606 0.777244 0.405523
O O4 0.826429 0.000000 0.320968
O O5 0.626715 0.246811 0.699128
O O6 0.513399 0.216527 0.777650
O O7 0.633277 0.225126 0.847058
O O8 0.604992 0.000000 0.764607
O O9 0.750000 0.304214 0.645827
O O10 0.648363 0.500000 0.638915
O O11 0.640607 0.270821 0.553572
O O12 0.415644 0.758529 0.883110
O O13 0.428358 0.000000 0.812226
O O14 0.750000 0.849745 0.489200
O O15 0.635025 0.000000 0.503078
O O16 0.942669 0.500000 0.065118
O O17 0.864034 0.311617 0.988079
O O18 0.000000 0.272125 0.000000
O O19 0.750000 0.707122 0.912011
O O20 0.841821 0.500000 0.877360
#
# Coordination Sequence:
#
# PCOD8210955 Si02
#       7
#     8   8   8   8   8   8   8
#     4   8  15  31  55  80 105 134 170 213 260 307
#     4  11  22  34  50  75 107 139 173 212 255 306
#     4  10  20  33  51  75 103 136 174 215 259 307
#     4  10  21  35  54  80 107 136 172 212 256 307
#     4   8  14  28  52  77 100 131 171 212 255 304
#     4  10  20  36  56  75  99 136 174 207 255 315
#     4  10  21  37  56  77 102 134 174 217 259 305
#
# _framework density 18.150043
#
# number of rings (size 3 to 8) (size 9 to 14) (size 15 to 20)
#    0.000    2.429    1.429    2.143    0.000    4.857 
#    0.000    1.429    0.000    5.143    0.000    0.000 
#    0.000    0.000    0.000    0.000    0.000    0.000 
#
# Total GULP energy -694398.060190 kJ/mol
# GULP energy per Si atom -12399.965361 kJ/mol
# Density = 1.810873 g / cm^3
# Si number density = 18.150043 Si / 1000 Ang^3
#
#
#
# Elastic Constant Matrix: (Units=GPa)
#
#
# Indices 1 2 3 4 5 6 
#
# 1 101.7437 47.9830 63.9959 0.0000 0.0000 0.0000
# 2 47.9830 58.0002 60.5939 0.0000 0.0000 0.0000
# 3 63.9959 60.5939 152.7044 0.0000 0.0000 0.0000
# 4 0.0000 0.0000 0.0000 -120.6363 0.0000 0.0000
# 5 0.0000 0.0000 0.0000 0.0000 40.7114 0.0000
# 6 0.0000 0.0000 0.0000 0.0000 0.0000 18.3077
#
#
#
# Elastic Compliance Matrix: (Units=1/GPa)
#
#
# Indices 1 2 3 4 5 6 
#
# 1 0.016695 -0.011106 -0.002590 0.000000 0.000000 0.000000
# 2 -0.011106 0.036838 -0.009963 0.000000 0.000000 0.000000
# 3 -0.002590 -0.009963 0.011587 0.000000 0.000000 0.000000
# 4 0.000000 0.000000 0.000000 -0.008289 0.000000 0.000000
# 5 0.000000 0.000000 0.000000 0.000000 0.024563 0.000000
# 6 0.000000 0.000000 0.000000 0.000000 0.000000 0.054622
#
#
# Mechanical properties :
#
#
# Convention : Reuss Voigt Hill
#
# Bulk Modulus (GPa) = 56.17194 73.06601 64.61897
# Shear Modulus (GPa) = 26.41745 -2.99839 11.70953
#
# Velocity S-wave (km/s) = 3.81925 -1.28670 2.54274
# Velocity P-wave (km/s) = 7.10385 6.17548 6.65587
#
# Compressibility (1/GPa) = 0.01780248
#
# Stress axis : x y z
#
# Youngs Moduli (GPa) = 59.89690 27.14577 86.30165
#
# Poissons Ratio (x) = 0.30149 0.22349
# Poissons Ratio (y) = 0.66524 0.85983
# Poissons Ratio (z) = 0.15511 0.27045
#
# Static dielectric constant tensor:
#      x y z
#    x 3.373550 0.000000 0.000000 
#    y 0.000000 3.277340 0.000000 
#    z 0.000000 0.000000 3.609790 
# 
# 
# High freq. dielectric constant tensor:
#      x y z
#    x 1.690640 0.000000 0.000000 
#    y 0.000000 1.687020 0.000000 
#    z 0.000000 0.000000 1.715910 
# 
# From -- ./inp_files/25653.got.cif
#   From: 2010.03.12/outbox.cif.g09.slc.cpg/sg51_13_cif.got.tgz:25653.got - 2010.04.16 13:43:02.
