data_PCOD8210621
_publ_section_title
;
Structure prediction by ZEFSAII (Michael W. Deem and Ramdas Pophale) SiO2 
 PCOD8210621
Probable space group: P M M A
;
_chemical_formula_sum "Si O2"
_cell_formula_units_Z 52
_cell_length_a 8.528307
_cell_length_b 21.633461
_cell_length_c 13.971623
_cell_angle_alpha 90.000000
_cell_angle_beta 90.000000
_cell_angle_gamma 90.000000
_cell_volume 2577.719691
_symmetry_space_group_name_H-M "P M M A"
_symmetry_group_IT_number 51
_symmetry_cell_setting 'orthorhombic'
loop_
_space_group_symop_operation_xyz
x,y,z
1/2-x,-y,z
1/2+x,-y,-z
-x,y,-z
-x,-y,-z
1/2+x,y,-z
1/2-x,y,z
x,-y,z
loop_
_atom_site_type_symbol
_atom_site_label
_atom_site_fract_x
_atom_site_fract_y
_atom_site_fract_z
Si Si1 0.071367 0.261225 0.896521
Si Si2 0.750000 0.070261 0.596799
Si Si3 0.750000 0.070432 0.824514
Si Si4 0.080117 0.073125 0.612444
Si Si5 0.934843 0.430015 0.600849
Si Si6 0.436279 0.620683 0.786496
Si Si7 0.924769 0.128052 0.179620
Si Si8 0.064643 0.500000 0.895047
O O1 0.250000 0.278287 0.914852
O O2 0.993987 0.318934 0.840115
O O3 0.050906 0.201163 0.830516
O O4 0.000000 0.249373 0.000000
O O5 0.750000 0.080181 0.710734
O O6 0.580086 0.095274 0.556545
O O7 0.750000 0.000000 0.566271
O O8 0.584181 0.098032 0.866462
O O9 0.750000 0.000000 0.855795
O O10 0.250000 0.085285 0.558759
O O11 0.085913 0.110970 0.709710
O O12 0.063784 0.000000 0.637590
O O13 0.750000 0.428303 0.598283
O O14 0.995946 0.500000 0.621697
O O15 0.000000 0.406317 0.500000
O O16 0.997636 0.382223 0.679441
O O17 0.250000 0.622782 0.781039
O O18 0.499641 0.560682 0.842219
O O19 0.750000 0.109788 0.134241
O O20 0.250000 0.500000 0.897210
O O21 0.000000 0.500000 0.000000
#
# Coordination Sequence:
#
# PCOD8210621 Si02
#       8
#     8   4   4   8   8   8   8   4
#     4  10  22  36  51  70  94 135 184 233 277 325
#     4   7  10  16  26  46  70  88 115 161 217 279
#     4   9  16  26  46  70  88 115 161 217 279 334
#     4   8  12  19  34  53  72  97 133 184 244 300
#     4  10  20  34  56  86 115 143 172 211 268 332
#     4  10  20  36  54  76 106 139 181 227 276 326
#     4   9  17  29  44  65  88 121 165 220 277 331
#     4  10  20  32  51  74 103 142 181 236 290 318
#
# _framework density 20.172871000000001
#
# number of rings (size 3 to 8) (size 9 to 14) (size 15 to 20)
#    0.000    2.769    0.769    2.308    1.077    2.769 
#    0.000    0.000    0.000    1.846    0.000    0.000 
#    0.000    0.000    0.000    0.000    0.000    3.077 
#
# Total GULP energy -644185.127992 kJ/mol
# GULP energy per Si atom -12388.175538 kJ/mol
# Density = 2.012696 g / cm^3
# Si number density = 20.172871 Si / 1000 Ang^3
#
#
#
# Elastic Constant Matrix: (Units=GPa)
#
#
# Indices 1 2 3 4 5 6 
#
# 1 139.3258 53.6488 36.4885 0.0000 0.0000 0.0000
# 2 53.6488 115.7589 51.5972 0.0000 0.0000 0.0000
# 3 36.4885 51.5972 103.4481 0.0000 0.0000 0.0000
# 4 0.0000 0.0000 0.0000 14.3573 0.0000 0.0000
# 5 0.0000 0.0000 0.0000 0.0000 31.9996 0.0000
# 6 0.0000 0.0000 0.0000 0.0000 0.0000 21.9869
#
#
#
# Elastic Compliance Matrix: (Units=1/GPa)
#
#
# Indices 1 2 3 4 5 6 
#
# 1 0.008889 -0.003500 -0.001390 0.000000 0.000000 0.000000
# 2 -0.003500 0.012487 -0.004993 0.000000 0.000000 0.000000
# 3 -0.001390 -0.004993 0.012647 0.000000 0.000000 0.000000
# 4 0.000000 0.000000 0.000000 0.069651 0.000000 0.000000
# 5 0.000000 0.000000 0.000000 0.000000 0.031250 0.000000
# 6 0.000000 0.000000 0.000000 0.000000 0.000000 0.045482
#
#
# Mechanical properties :
#
#
# Convention : Reuss Voigt Hill
#
# Bulk Modulus (GPa) = 70.14257 71.33351 70.73804
# Shear Modulus (GPa) = 24.39923 28.12200 26.26062
#
# Velocity S-wave (km/s) = 3.48157 3.73775 3.61193
# Velocity P-wave (km/s) = 7.14199 7.35293 7.24823
#
# Compressibility (1/GPa) = 0.01425668
#
# Stress axis : x y z
#
# Youngs Moduli (GPa) = 112.49632 80.08607 79.06807
#
# Poissons Ratio (x) = 0.28033 0.10987
# Poissons Ratio (y) = 0.39378 0.39481
# Poissons Ratio (z) = 0.15632 0.39989
#
# Static dielectric constant tensor:
#      x y z
#    x 4.541750 0.000000 0.000000 
#    y 0.000000 3.574720 0.000000 
#    z 0.000000 0.000000 3.561420 
# 
# 
# High freq. dielectric constant tensor:
#      x y z
#    x 1.819160 0.000000 0.000000 
#    y 0.000000 1.748940 0.000000 
#    z 0.000000 0.000000 1.790440 
# 
# From -- ./inp_files/21669.got.cif
#   From: 2010.03.12/outbox.cif.g09.slc.cpg/sg51_11_cif.got.tgz:21669.got - 2010.04.16 13:43:02.
