data_PCOD8210060
_publ_section_title
;
Structure prediction by ZEFSAII (Michael W. Deem and Ramdas Pophale) SiO2 
 PCOD8210060
Probable space group: P M M A
;
_chemical_formula_sum "Si O2"
_cell_formula_units_Z 64
_cell_length_a 29.108953
_cell_length_b 8.985623
_cell_length_c 12.626124
_cell_angle_alpha 90.000000
_cell_angle_beta 90.000000
_cell_angle_gamma 90.000000
_cell_volume 3302.515225
_symmetry_space_group_name_H-M "P M M A"
_symmetry_group_IT_number 51
_symmetry_cell_setting 'orthorhombic'
loop_
_space_group_symop_operation_xyz
x,y,z
1/2-x,-y,z
1/2+x,-y,-z
-x,y,-z
-x,-y,-z
1/2+x,y,-z
1/2-x,y,z
x,-y,z
loop_
_atom_site_type_symbol
_atom_site_label
_atom_site_fract_x
_atom_site_fract_y
_atom_site_fract_z
Si Si1 0.699091 0.174193 0.956751
Si Si2 0.958258 0.676638 0.283875
Si Si3 0.304236 0.663876 0.833898
Si Si4 0.301049 0.171592 0.624083
Si Si5 0.946806 0.177025 0.665923
Si Si6 0.047845 0.171378 0.940592
Si Si7 0.103174 0.827238 0.548229
Si Si8 0.892789 0.825240 0.867183
O O1 0.750000 0.233237 0.923892
O O2 0.661929 0.212004 0.865099
O O3 0.701188 0.000000 0.978789
O O4 0.679501 0.247191 0.063308
O O5 0.962245 0.500000 0.285870
O O6 0.950369 0.729272 0.164028
O O7 0.915825 0.729002 0.355609
O O8 0.003798 0.747369 0.334627
O O9 0.250000 0.652388 0.836151
O O10 0.326768 0.500000 0.835105
O O11 0.319615 0.746768 0.728302
O O12 0.250000 0.228768 0.586314
O O13 0.341270 0.197474 0.537371
O O14 0.296795 0.000000 0.654092
O O15 0.919736 0.224776 0.560849
O O16 0.917485 0.243121 0.764447
O O17 0.953296 0.000000 0.672749
O O18 0.056470 0.000000 0.907766
O O19 0.085775 0.233662 0.022809
O O20 0.000000 0.188704 0.000000
O O21 0.092216 0.000000 0.571240
O O22 0.901652 0.000000 0.863226
#
# Coordination Sequence:
#
# PCOD8210060 Si02
#       8
#     8   8   8   8   8   8   8   8
#     4   9  17  30  49  76 109 144 180 219 267 325
#     4  12  25  38  56  84 118 146 179 232 285 331
#     4   9  17  29  46  70 102 140 178 218 265 315
#     4   9  18  34  54  78 108 140 177 223 274 323
#     4  10  20  40  62  80 105 145 193 231 272 330
#     4  10  19  36  60  82 107 145 185 222 270 333
#     4  10  22  38  60  84 108 146 192 230 271 331
#     4   9  18  33  56  81 107 142 183 226 270 324
#
# _framework density 19.379169000000001
#
# number of rings (size 3 to 8) (size 9 to 14) (size 15 to 20)
#    0.000    2.250    1.250    1.875    1.750    4.250 
#    0.000    1.250    0.000    3.750    0.000    0.000 
#    0.000    5.000    0.000    0.000    0.000    0.000 
#
# Total GULP energy -793281.781217 kJ/mol
# GULP energy per Si atom -12395.027832 kJ/mol
# Density = 1.933506 g / cm^3
# Si number density = 19.379169 Si / 1000 Ang^3
#
#
#
# Elastic Constant Matrix: (Units=GPa)
#
#
# Indices 1 2 3 4 5 6 
#
# 1 122.3608 28.4074 51.7161 0.0000 0.0000 0.0000
# 2 28.4074 55.0562 31.1449 0.0000 0.0000 0.0000
# 3 51.7161 31.1449 98.6848 0.0000 0.0000 0.0000
# 4 0.0000 0.0000 0.0000 5.1838 0.0000 0.0000
# 5 0.0000 0.0000 0.0000 0.0000 24.1159 0.0000
# 6 0.0000 0.0000 0.0000 0.0000 0.0000 10.2804
#
#
#
# Elastic Compliance Matrix: (Units=1/GPa)
#
#
# Indices 1 2 3 4 5 6 
#
# 1 0.010866 -0.002904 -0.004778 0.000000 0.000000 0.000000
# 2 -0.002904 0.022887 -0.005701 0.000000 0.000000 0.000000
# 3 -0.004778 -0.005701 0.014437 0.000000 0.000000 0.000000
# 4 0.000000 0.000000 0.000000 0.192910 0.000000 0.000000
# 5 0.000000 0.000000 0.000000 0.000000 0.041466 0.000000
# 6 0.000000 0.000000 0.000000 0.000000 0.000000 0.097272
#
#
# Mechanical properties :
#
#
# Convention : Reuss Voigt Hill
#
# Bulk Modulus (GPa) = 46.67827 55.40427 51.04127
# Shear Modulus (GPa) = 12.08474 18.90492 15.49483
#
# Velocity S-wave (km/s) = 2.49990 3.12673 2.83072
# Velocity P-wave (km/s) = 5.69840 6.45654 6.08928
#
# Compressibility (1/GPa) = 0.02142325
#
# Stress axis : x y z
#
# Youngs Moduli (GPa) = 92.02923 43.69350 69.26860
#
# Poissons Ratio (x) = 0.12687 0.33097
# Poissons Ratio (y) = 0.26723 0.39492
# Poissons Ratio (z) = 0.43972 0.24911
#
# Static dielectric constant tensor:
#      x y z
#    x 3.780530 0.000000 0.000000 
#    y 0.000000 3.398490 0.000000 
#    z 0.000000 0.000000 3.516270 
# 
# 
# High freq. dielectric constant tensor:
#      x y z
#    x 1.769270 0.000000 0.000000 
#    y 0.000000 1.726490 0.000000 
#    z 0.000000 0.000000 1.736990 
# 
# From -- ./inp_files/19633.got.cif
#   From: 2010.03.12/outbox.cif.g09.slc.cpg/sg51_10_cif.got.tgz:19633.got - 2010.04.16 13:43:02.
