data_PCOD8210903
_publ_section_title
;
Structure prediction by ZEFSAII (Michael W. Deem and Ramdas Pophale) SiO2 
 PCOD8210903
Probable space group: P M M A
;
_chemical_formula_sum "Si O2"
_cell_formula_units_Z 64
_cell_length_a 18.413903
_cell_length_b 8.660954
_cell_length_c 21.451122
_cell_angle_alpha 90.000000
_cell_angle_beta 90.000000
_cell_angle_gamma 90.000000
_cell_volume 3421.067128
_symmetry_space_group_name_H-M "P M M A"
_symmetry_group_IT_number 51
_symmetry_cell_setting 'orthorhombic'
loop_
_space_group_symop_operation_xyz
x,y,z
1/2-x,-y,z
1/2+x,-y,-z
-x,y,-z
-x,-y,-z
1/2+x,y,-z
1/2-x,y,z
x,-y,z
loop_
_atom_site_type_symbol
_atom_site_label
_atom_site_fract_x
_atom_site_fract_y
_atom_site_fract_z
Si Si1 0.963835 0.319577 0.810848
Si Si2 0.670804 0.817446 0.127564
Si Si3 0.833339 0.179291 0.746844
Si Si4 0.597646 0.817855 0.253897
Si Si5 0.974225 0.816961 0.067522
Si Si6 0.332481 0.683205 0.623469
Si Si7 0.834025 0.323455 0.617236
Si Si8 0.581881 0.316160 0.496777
O O1 0.978657 0.500000 0.805632
O O2 0.881102 0.279654 0.794104
O O3 0.015536 0.231841 0.761699
O O4 0.975887 0.264384 0.881400
O O5 0.750000 0.746093 0.110583
O O6 0.648196 0.762429 0.196587
O O7 0.609861 0.765223 0.077603
O O8 0.675922 0.000000 0.127370
O O9 0.750000 0.224792 0.759600
O O10 0.854512 0.218872 0.676005
O O11 0.847690 0.000000 0.758950
O O12 0.625364 0.735845 0.315431
O O13 0.600465 0.000000 0.263589
O O14 0.982904 0.000000 0.075619
O O15 0.000000 0.760229 0.000000
O O16 0.250000 0.748219 0.623008
O O17 0.331067 0.500000 0.621796
O O18 0.376007 0.749213 0.563726
O O19 0.750000 0.311380 0.599562
O O20 0.855771 0.500000 0.632577
O O21 0.877969 0.257230 0.558650
O O22 0.500000 0.251717 0.500000
O O23 0.582497 0.500000 0.494299
#
# Coordination Sequence:
#
# PCOD8210903 Si02
#       8
#     8   8   8   8   8   8   8   8
#     4  11  22  36  57  82 110 143 180 223 269 319
#     4   8  14  27  49  75 102 136 179 220 257 304
#     4  10  21  37  57  81 109 140 177 225 277 325
#     4  10  20  34  53  78 107 139 177 223 276 331
#     4   9  18  34  55  80 113 150 186 223 265 316
#     4  10  20  33  50  75 107 141 179 225 275 326
#     4   9  17  31  52  75  99 134 178 222 269 321
#     4   9  18  31  48  71 100 138 182 223 266 322
#
# _framework density 18.707614
#
# number of rings (size 3 to 8) (size 9 to 14) (size 15 to 20)
#    0.000    2.500    0.000    3.375    1.750    3.250 
#    0.000    1.250    0.000    7.875    0.000    0.000 
#    0.000    0.000    0.000    0.000    0.000    0.000 
#
# Total GULP energy -793582.159285 kJ/mol
# GULP energy per Si atom -12399.721239 kJ/mol
# Density = 1.866503 g / cm^3
# Si number density = 18.707614 Si / 1000 Ang^3
#
#
#
# Elastic Constant Matrix: (Units=GPa)
#
#
# Indices 1 2 3 4 5 6 
#
# 1 123.2181 14.2336 78.8086 0.0000 0.0000 0.0000
# 2 14.2336 18.9341 13.3789 0.0000 0.0000 0.0000
# 3 78.8086 13.3789 120.6704 0.0000 0.0000 0.0000
# 4 0.0000 0.0000 0.0000 26.0312 0.0000 0.0000
# 5 0.0000 0.0000 0.0000 0.0000 28.6357 0.0000
# 6 0.0000 0.0000 0.0000 0.0000 0.0000 17.1955
#
#
#
# Elastic Compliance Matrix: (Units=1/GPa)
#
#
# Indices 1 2 3 4 5 6 
#
# 1 0.014282 -0.004498 -0.008829 0.000000 0.000000 0.000000
# 2 -0.004498 0.058721 -0.003573 0.000000 0.000000 0.000000
# 3 -0.008829 -0.003573 0.014449 0.000000 0.000000 0.000000
# 4 0.000000 0.000000 0.000000 0.038415 0.000000 0.000000
# 5 0.000000 0.000000 0.000000 0.000000 0.034921 0.000000
# 6 0.000000 0.000000 0.000000 0.000000 0.000000 0.058155
#
#
# Mechanical properties :
#
#
# Convention : Reuss Voigt Hill
#
# Bulk Modulus (GPa) = 18.63845 52.85164 35.74504
# Shear Modulus (GPa) = 18.47564 24.79926 21.63745
#
# Velocity S-wave (km/s) = 3.14602 3.64486 3.40459
# Velocity P-wave (km/s) = 4.81469 6.78425 5.88249
#
# Compressibility (1/GPa) = 0.05365254
#
# Stress axis : x y z
#
# Youngs Moduli (GPa) = 70.01816 17.02982 69.20840
#
# Poissons Ratio (x) = 0.07660 0.61102
# Poissons Ratio (y) = 0.31494 0.24727
# Poissons Ratio (z) = 0.61817 0.06084
#
# Static dielectric constant tensor:
#      x y z
#    x 3.750080 0.000000 0.000000 
#    y 0.000000 3.133120 0.000000 
#    z 0.000000 0.000000 3.401200 
# 
# 
# High freq. dielectric constant tensor:
#      x y z
#    x 1.736370 0.000000 0.000000 
#    y 0.000000 1.698750 0.000000 
#    z 0.000000 0.000000 1.720380 
# 
# From -- ./inp_files/33945.got.cif
#   From: 2010.03.12/outbox.cif.g09.slc.cpg/sg51_17_cif.got.tgz:33945.got - 2010.04.16 13:43:02.
