data_PCOD8210866
_publ_section_title
;
Structure prediction by ZEFSAII (Michael W. Deem and Ramdas Pophale) SiO2 
 PCOD8210866
Probable space group: P M M A
;
_chemical_formula_sum "Si O2"
_cell_formula_units_Z 40
_cell_length_a 26.235364
_cell_length_b 8.785959
_cell_length_c 9.387183
_cell_angle_alpha 90.000000
_cell_angle_beta 90.000000
_cell_angle_gamma 90.000000
_cell_volume 2163.772270
_symmetry_space_group_name_H-M "P M M A"
_symmetry_group_IT_number 51
_symmetry_cell_setting 'orthorhombic'
loop_
_space_group_symop_operation_xyz
x,y,z
1/2-x,-y,z
1/2+x,-y,-z
-x,y,-z
-x,-y,-z
1/2+x,y,-z
1/2-x,y,z
x,-y,z
loop_
_atom_site_type_symbol
_atom_site_label
_atom_site_fract_x
_atom_site_fract_y
_atom_site_fract_z
Si Si1 0.658001 0.320947 0.650569
Si Si2 0.250000 0.320517 0.836717
Si Si3 0.750000 0.319555 0.844840
Si Si4 0.550260 0.825309 0.359484
Si Si5 0.162555 0.824845 0.656881
Si Si6 0.045979 0.324678 0.338874
O O1 0.663558 0.500000 0.616531
O O2 0.699747 0.262271 0.762640
O O3 0.666693 0.230497 0.505035
O O4 0.602453 0.286331 0.721621
O O5 0.250000 0.500000 0.842637
O O6 0.300732 0.269588 0.757171
O O7 0.250000 0.250882 0.996074
O O8 0.750000 0.500000 0.851730
O O9 0.604731 0.803110 0.282114
O O10 0.500396 0.773501 0.266362
O O11 0.549490 0.714517 0.494492
O O12 0.544114 0.000000 0.407572
O O13 0.179194 0.000000 0.661049
O O14 0.032631 0.500000 0.315920
#
# Coordination Sequence:
#
# PCOD8210866 Si02
#       6
#     8   4   4   8   8   8
#     4   9  17  31  52  76 100 127 161 201 242 284
#     4  11  22  35  52  70  92 127 164 199 244 292
#     4   9  19  35  52  70  94 125 162 201 242 290
#     4   9  16  26  42  65  96 129 155 186 232 281
#     4  10  20  33  50  74 101 127 160 200 238 283
#     4   9  15  23  41  70  99 123 152 193 236 278
#
# _framework density 18.486234
#
# number of rings (size 3 to 8) (size 9 to 14) (size 15 to 20)
#    0.000    2.600    0.000    3.900    0.000    4.000 
#    0.000    2.000    0.000    1.200    0.000    8.400 
#    0.000    0.000    0.000    0.000    0.000    0.000 
#
# Total GULP energy -495594.857718 kJ/mol
# GULP energy per Si atom -12389.871443 kJ/mol
# Density = 1.844416 g / cm^3
# Si number density = 18.486234 Si / 1000 Ang^3
#
#
#
# Elastic Constant Matrix: (Units=GPa)
#
#
# Indices 1 2 3 4 5 6 
#
# 1 188.6047 46.0805 56.4296 0.0000 0.0000 0.0000
# 2 46.0805 55.6613 23.5266 0.0000 0.0000 0.0000
# 3 56.4296 23.5266 66.3889 0.0000 0.0000 0.0000
# 4 0.0000 0.0000 0.0000 1.9222 0.0000 0.0000
# 5 0.0000 0.0000 0.0000 0.0000 -0.5538 0.0000
# 6 0.0000 0.0000 0.0000 0.0000 0.0000 30.4671
#
#
#
# Elastic Compliance Matrix: (Units=1/GPa)
#
#
# Indices 1 2 3 4 5 6 
#
# 1 0.007920 -0.004365 -0.005185 0.000000 0.000000 0.000000
# 2 -0.004365 0.023537 -0.004631 0.000000 0.000000 0.000000
# 3 -0.005185 -0.004631 0.021111 0.000000 0.000000 0.000000
# 4 0.000000 0.000000 0.000000 0.520235 0.000000 0.000000
# 5 0.000000 0.000000 0.000000 0.000000 -1.805609 0.000000
# 6 0.000000 0.000000 0.000000 0.000000 0.000000 0.032822
#
#
# Mechanical properties :
#
#
# Convention : Reuss Voigt Hill
#
# Bulk Modulus (GPa) = 41.31158 62.52537 51.91847
# Shear Modulus (GPa) = -4.29718 18.67497 7.18889
#
# Velocity S-wave (km/s) = -1.52629 3.18183 1.97414
# Velocity P-wave (km/s) = 4.39200 6.88439 5.77427
#
# Compressibility (1/GPa) = 0.02420629
#
# Stress axis : x y z
#
# Youngs Moduli (GPa) = 126.26428 42.48668 47.36909
#
# Poissons Ratio (x) = 0.18546 0.24560
# Poissons Ratio (y) = 0.55116 0.21935
# Poissons Ratio (z) = 0.65467 0.19674
#
# Static dielectric constant tensor:
#      x y z
#    x 4.397470 0.000000 0.000000 
#    y 0.000000 3.345550 0.000000 
#    z 0.000000 0.000000 2.914870 
# 
# 
# High freq. dielectric constant tensor:
#      x y z
#    x 1.754440 0.000000 0.000000 
#    y 0.000000 1.716940 0.000000 
#    z 0.000000 0.000000 1.643600 
# 
# From -- ./inp_files/12215.got.cif
#   From: 2010.03.12/outbox.cif.g09.slc.cpg/sg51_7_cif.got.tgz:12215.got - 2010.04.16 13:43:02.
