data_PCOD8210193
_publ_section_title
;
Structure prediction by ZEFSAII (Michael W. Deem and Ramdas Pophale) SiO2 
 PCOD8210193
Probable space group: P M M A
;
_chemical_formula_sum "Si O2"
_cell_formula_units_Z 56
_cell_length_a 18.981183
_cell_length_b 9.729098
_cell_length_c 17.541979
_cell_angle_alpha 90.000000
_cell_angle_beta 90.000000
_cell_angle_gamma 90.000000
_cell_volume 3239.473570
_symmetry_space_group_name_H-M "P M M A"
_symmetry_group_IT_number 51
_symmetry_cell_setting 'orthorhombic'
loop_
_space_group_symop_operation_xyz
x,y,z
1/2-x,-y,z
1/2+x,-y,-z
-x,y,-z
-x,-y,-z
1/2+x,y,-z
1/2-x,y,z
x,-y,z
loop_
_atom_site_type_symbol
_atom_site_label
_atom_site_fract_x
_atom_site_fract_y
_atom_site_fract_z
Si Si1 0.175145 0.837798 0.737028
Si Si2 0.332685 0.338622 0.145704
Si Si3 0.423998 0.343631 0.290883
Si Si4 0.668510 0.847523 0.432587
Si Si5 0.029879 0.845996 0.782376
Si Si6 0.446050 0.157035 0.064497
Si Si7 0.924173 0.341873 0.531809
O O1 0.250000 0.773470 0.765544
O O2 0.156785 0.786619 0.652026
O O3 0.111027 0.795637 0.792298
O O4 0.184897 0.000000 0.733287
O O5 0.250000 0.296564 0.141261
O O6 0.342088 0.500000 0.127455
O O7 0.360540 0.304585 0.231774
O O8 0.377522 0.252855 0.081780
O O9 0.446024 0.500000 0.275836
O O10 0.492004 0.251786 0.276966
O O11 0.406800 0.318889 0.378952
O O12 0.750000 0.855220 0.452518
O O13 0.634847 0.745219 0.491736
O O14 0.634998 0.000000 0.440368
O O15 0.994746 0.840196 0.862943
O O16 0.028012 0.000000 0.748230
O O17 0.421132 0.000000 0.045880
O O18 0.500000 0.213903 0.000000
O O19 0.914436 0.500000 0.509728
O O20 0.000000 0.291776 0.500000
#
# Coordination Sequence:
#
# PCOD8210193 Si02
#       7
#     8   8   8   8   8   8   8
#     4   8  14  26  44  64  85 111 147 189 226 262
#     4   9  18  33  52  72  93 123 165 202 231 273
#     4   9  18  31  46  65  91 122 154 193 237 275
#     4   9  18  31  45  62  85 114 149 189 232 275
#     4   9  16  28  48  69  88 116 153 186 218 265
#     4   9  18  32  49  73 103 127 149 183 230 282
#     4  10  20  31  44  66  94 122 155 195 238 284
#
# _framework density 17.286757999999999
#
# number of rings (size 3 to 8) (size 9 to 14) (size 15 to 20)
#    0.000    3.000    0.000    1.714    0.000    2.286 
#    0.000    2.143    0.000    3.857    0.000    0.000 
#    0.000    0.000    0.000    0.000    0.000    0.000 
#
# Total GULP energy -693758.067915 kJ/mol
# GULP energy per Si atom -12388.536927 kJ/mol
# Density = 1.724741 g / cm^3
# Si number density = 17.286758 Si / 1000 Ang^3
#
#
#
# Elastic Constant Matrix: (Units=GPa)
#
#
# Indices 1 2 3 4 5 6 
#
# 1 122.5150 43.8212 31.6675 0.0000 0.0000 0.0000
# 2 43.8212 41.6528 17.4525 0.0000 0.0000 0.0000
# 3 31.6675 17.4525 24.5209 0.0000 0.0000 0.0000
# 4 0.0000 0.0000 0.0000 20.0431 0.0000 0.0000
# 5 0.0000 0.0000 0.0000 0.0000 23.9746 0.0000
# 6 0.0000 0.0000 0.0000 0.0000 0.0000 50.6221
#
#
#
# Elastic Compliance Matrix: (Units=1/GPa)
#
#
# Indices 1 2 3 4 5 6 
#
# 1 0.015123 -0.011011 -0.011694 0.000000 0.000000 0.000000
# 2 -0.011011 0.042227 -0.015835 0.000000 0.000000 0.000000
# 3 -0.011694 -0.015835 0.067154 0.000000 0.000000 0.000000
# 4 0.000000 0.000000 0.000000 0.049892 0.000000 0.000000
# 5 0.000000 0.000000 0.000000 0.000000 0.041711 0.000000
# 6 0.000000 0.000000 0.000000 0.000000 0.000000 0.019754
#
#
# Mechanical properties :
#
#
# Convention : Reuss Voigt Hill
#
# Bulk Modulus (GPa) = 21.08597 41.61901 31.35249
# Shear Modulus (GPa) = 15.20921 25.31114 20.26018
#
# Velocity S-wave (km/s) = 2.96939 3.83063 3.42717
# Velocity P-wave (km/s) = 4.89700 6.61006 5.81694
#
# Compressibility (1/GPa) = 0.04742491
#
# Stress axis : x y z
#
# Youngs Moduli (GPa) = 66.12334 23.68177 14.89118
#
# Poissons Ratio (x) = 0.26075 0.17414
# Poissons Ratio (y) = 0.72807 0.23580
# Poissons Ratio (z) = 0.77325 0.37499
#
# Static dielectric constant tensor:
#      x y z
#    x 3.516450 0.000000 0.000000 
#    y 0.000000 3.316250 0.000000 
#    z 0.000000 0.000000 3.202980 
# 
# 
# High freq. dielectric constant tensor:
#      x y z
#    x 1.672190 0.000000 0.000000 
#    y 0.000000 1.651410 0.000000 
#    z 0.000000 0.000000 1.654310 
# 
# From -- ./inp_files/25782.got.cif
#   From: 2010.03.12/outbox.cif.g09.slc.cpg/sg51_13_cif.got.tgz:25782.got - 2010.04.16 13:43:02.
