data_PCOD8210681
_publ_section_title
;
Structure prediction by ZEFSAII (Michael W. Deem and Ramdas Pophale) SiO2 
 PCOD8210681
Probable space group: P M M A
;
_chemical_formula_sum "Si O2"
_cell_formula_units_Z 56
_cell_length_a 24.981948
_cell_length_b 9.030043
_cell_length_c 15.254227
_cell_angle_alpha 90.000000
_cell_angle_beta 90.000000
_cell_angle_gamma 90.000000
_cell_volume 3441.171547
_symmetry_space_group_name_H-M "P M M A"
_symmetry_group_IT_number 51
_symmetry_cell_setting 'orthorhombic'
loop_
_space_group_symop_operation_xyz
x,y,z
1/2-x,-y,z
1/2+x,-y,-z
-x,y,-z
-x,-y,-z
1/2+x,y,-z
1/2-x,y,z
x,-y,z
loop_
_atom_site_type_symbol
_atom_site_label
_atom_site_fract_x
_atom_site_fract_y
_atom_site_fract_z
Si Si1 0.813321 0.169858 0.714933
Si Si2 0.686423 0.835364 0.055776
Si Si3 0.107655 0.175591 0.606895
Si Si4 0.113241 0.324838 0.420520
Si Si5 0.686287 0.334313 0.888234
Si Si6 0.190283 0.823540 0.751628
Si Si7 0.990621 0.836951 0.602960
O O1 0.750000 0.185032 0.706205
O O2 0.838150 0.264538 0.636785
O O3 0.833665 0.234259 0.807603
O O4 0.831855 0.000000 0.708307
O O5 0.750000 0.844911 0.048742
O O6 0.671382 0.769332 0.151681
O O7 0.662231 0.000000 0.043460
O O8 0.662978 0.731569 0.979059
O O9 0.119989 0.258854 0.517030
O O10 0.149394 0.236086 0.678728
O O11 0.047883 0.213124 0.643296
O O12 0.113337 0.000000 0.590060
O O13 0.115735 0.500000 0.425377
O O14 0.056856 0.277242 0.375532
O O15 0.750000 0.335780 0.891559
O O16 0.663701 0.500000 0.876309
O O17 0.250000 0.763765 0.729836
O O18 0.191105 0.000000 0.752803
O O19 0.000000 0.845561 0.500000
O O20 0.974148 0.000000 0.638226
#
# Coordination Sequence:
#
# PCOD8210681 Si02
#       7
#     8   8   8   8   8   8   8
#     4  10  20  33  48  65  87 117 150 180 214 263
#     4   8  13  23  40  61  85 114 147 179 210 249
#     4   9  17  30  47  66  89 119 155 191 223 256
#     4  11  21  31  45  65  90 117 146 184 227 269
#     4   9  16  26  41  62  88 115 143 178 217 254
#     4   8  14  25  43  67  92 118 150 184 215 253
#     4   8  15  29  47  64  83 110 149 193 227 258
#
# _framework density 16.273527000000001
#
# number of rings (size 3 to 8) (size 9 to 14) (size 15 to 20)
#    0.000    3.000    0.000    3.857    0.000    5.714 
#    0.000    2.143    0.000    0.857    0.000    1.000 
#    0.000    8.000    0.000    0.000    0.000    0.000 
#
# Total GULP energy -694067.166638 kJ/mol
# GULP energy per Si atom -12394.056547 kJ/mol
# Density = 1.623649 g / cm^3
# Si number density = 16.273527 Si / 1000 Ang^3
#
#
#
# Elastic Constant Matrix: (Units=GPa)
#
#
# Indices 1 2 3 4 5 6 
#
# 1 48.3828 30.2398 39.9557 0.0000 0.0000 0.0000
# 2 30.2398 90.8431 51.1994 0.0000 0.0000 0.0000
# 3 39.9557 51.1994 101.7147 0.0000 0.0000 0.0000
# 4 0.0000 0.0000 0.0000 8.5030 0.0000 0.0000
# 5 0.0000 0.0000 0.0000 0.0000 2.3384 0.0000
# 6 0.0000 0.0000 0.0000 0.0000 0.0000 14.6510
#
#
#
# Elastic Compliance Matrix: (Units=1/GPa)
#
#
# Indices 1 2 3 4 5 6 
#
# 1 0.032143 -0.005003 -0.010108 0.000000 0.000000 0.000000
# 2 -0.005003 0.016146 -0.006162 0.000000 0.000000 0.000000
# 3 -0.010108 -0.006162 0.016904 0.000000 0.000000 0.000000
# 4 0.000000 0.000000 0.000000 0.117605 0.000000 0.000000
# 5 0.000000 0.000000 0.000000 0.000000 0.427635 0.000000
# 6 0.000000 0.000000 0.000000 0.000000 0.000000 0.068255
#
#
# Mechanical properties :
#
#
# Convention : Reuss Voigt Hill
#
# Bulk Modulus (GPa) = 44.15636 53.74784 48.95210
# Shear Modulus (GPa) = 6.86075 13.06820 9.96447
#
# Velocity S-wave (km/s) = 2.05549 2.83686 2.47718
# Velocity P-wave (km/s) = 5.72941 6.62041 6.19096
#
# Compressibility (1/GPa) = 0.02264680
#
# Stress axis : x y z
#
# Youngs Moduli (GPa) = 31.11111 61.93339 59.15742
#
# Poissons Ratio (x) = 0.30983 0.59798
# Poissons Ratio (y) = 0.15564 0.36455
# Poissons Ratio (z) = 0.31448 0.38165
#
# Static dielectric constant tensor:
#      x y z
#    x 3.109700 0.000000 0.000000 
#    y 0.000000 3.048670 0.000000 
#    z 0.000000 0.000000 3.163920 
# 
# 
# High freq. dielectric constant tensor:
#      x y z
#    x 1.591480 0.000000 0.000000 
#    y 0.000000 1.616100 0.000000 
#    z 0.000000 0.000000 1.617390 
# 
# From -- ./inp_files/26552.got.cif
#   From: 2010.03.12/outbox.cif.g09.slc.cpg/sg51_14_cif.got.tgz:26552.got - 2010.04.16 13:43:02.
