data_PCOD8210141
_publ_section_title
;
Structure prediction by ZEFSAII (Michael W. Deem and Ramdas Pophale) SiO2 
 PCOD8210141
Probable space group: P M M A
;
_chemical_formula_sum "Si O2"
_cell_formula_units_Z 56
_cell_length_a 14.047711
_cell_length_b 15.836006
_cell_length_c 11.297458
_cell_angle_alpha 90.000000
_cell_angle_beta 90.000000
_cell_angle_gamma 90.000000
_cell_volume 2513.228391
_symmetry_space_group_name_H-M "P M M A"
_symmetry_group_IT_number 51
_symmetry_cell_setting 'orthorhombic'
loop_
_space_group_symop_operation_xyz
x,y,z
1/2-x,-y,z
1/2+x,-y,-z
-x,y,-z
-x,-y,-z
1/2+x,y,-z
1/2-x,y,z
x,-y,z
loop_
_atom_site_type_symbol
_atom_site_label
_atom_site_fract_x
_atom_site_fract_y
_atom_site_fract_z
Si Si1 0.403991 0.592245 0.929838
Si Si2 0.139256 0.355782 0.683787
Si Si3 0.363345 0.404911 0.426228
Si Si4 0.636481 0.752300 0.725588
Si Si5 0.139095 0.171493 0.772882
Si Si6 0.352703 0.761057 0.016327
Si Si7 0.975859 0.093280 0.635868
O O1 0.363891 0.500000 0.964883
O O2 0.418217 0.596653 0.787812
O O3 0.500000 0.611016 0.000000
O O4 0.332840 0.665576 0.970494
O O5 0.250000 0.381030 0.695014
O O6 0.096302 0.386437 0.558182
O O7 0.125945 0.255385 0.694400
O O8 0.250000 0.396145 0.430793
O O9 0.392839 0.500000 0.386347
O O10 0.403893 0.333467 0.335890
O O11 0.750000 0.748349 0.727375
O O12 0.591349 0.759148 0.858621
O O13 0.603555 0.836247 0.659343
O O14 0.250000 0.143037 0.772694
O O15 0.071962 0.102092 0.713771
O O16 0.100673 0.186306 0.908363
O O17 0.250000 0.801844 0.041568
O O18 0.000000 0.100831 0.500000
O O19 0.934249 0.000000 0.664408
#
# Coordination Sequence:
#
# PCOD8210141 Si02
#       7
#     8   8   8   8   8   8   8
#     4  10  20  30  45  76 115 153 196 250 304 350
#     4   9  17  31  55  81 107 150 202 252 305 357
#     4   9  17  31  55  86 117 155 205 255 303 355
#     4  10  22  40  61  88 126 166 201 247 303 362
#     4   9  19  38  64  91 118 153 200 254 306 357
#     4   9  20  37  59  84 110 155 206 243 298 365
#     4  11  25  42  64  94 122 156 201 245 303 373
#
# _framework density 22.282098000000001
#
# number of rings (size 3 to 8) (size 9 to 14) (size 15 to 20)
#    0.000    2.429    0.000    2.571    4.000    4.571 
#    0.000    4.286    0.000    3.857    0.000    0.000 
#    0.000    0.000    0.000    0.000    0.000    0.000 
#
# Total GULP energy -693945.388552 kJ/mol
# GULP energy per Si atom -12391.881938 kJ/mol
# Density = 2.223138 g / cm^3
# Si number density = 22.282098 Si / 1000 Ang^3
#
#
#
# Elastic Constant Matrix: (Units=GPa)
#
#
# Indices 1 2 3 4 5 6 
#
# 1 27.0695 15.1188 33.6121 0.0000 0.0000 0.0000
# 2 15.1188 130.1198 68.4389 0.0000 0.0000 0.0000
# 3 33.6121 68.4389 167.8449 0.0000 0.0000 0.0000
# 4 0.0000 0.0000 0.0000 13.8684 0.0000 0.0000
# 5 0.0000 0.0000 0.0000 0.0000 23.0912 0.0000
# 6 0.0000 0.0000 0.0000 0.0000 0.0000 25.9990
#
#
#
# Elastic Compliance Matrix: (Units=1/GPa)
#
#
# Indices 1 2 3 4 5 6 
#
# 1 0.049215 -0.000681 -0.009578 0.000000 0.000000 0.000000
# 2 -0.000681 0.009793 -0.003857 0.000000 0.000000 0.000000
# 3 -0.009578 -0.003857 0.009449 0.000000 0.000000 0.000000
# 4 0.000000 0.000000 0.000000 0.072106 0.000000 0.000000
# 5 0.000000 0.000000 0.000000 0.000000 0.043306 0.000000
# 6 0.000000 0.000000 0.000000 0.000000 0.000000 0.038463
#
#
# Mechanical properties :
#
#
# Convention : Reuss Voigt Hill
#
# Bulk Modulus (GPa) = 24.85973 62.15267 43.50620
# Shear Modulus (GPa) = 18.94138 26.44934 22.69536
#
# Velocity S-wave (km/s) = 2.91876 3.44906 3.19493
# Velocity P-wave (km/s) = 4.74762 6.61932 5.76001
#
# Compressibility (1/GPa) = 0.04022570
#
# Stress axis : x y z
#
# Youngs Moduli (GPa) = 20.31886 102.11556 105.83599
#
# Poissons Ratio (x) = 0.06950 1.01372
# Poissons Ratio (y) = 0.01383 0.40818
# Poissons Ratio (z) = 0.19462 0.39383
#
# Static dielectric constant tensor:
#      x y z
#    x 3.712220 0.000000 0.000000 
#    y 0.000000 3.886560 0.000000 
#    z 0.000000 0.000000 4.336600 
# 
# 
# High freq. dielectric constant tensor:
#      x y z
#    x 1.866220 0.000000 0.000000 
#    y 0.000000 1.851960 0.000000 
#    z 0.000000 0.000000 1.890300 
# 
# From -- ./inp_files/16621.got.cif
#   From: 2010.03.12/outbox.cif.g09.slc.cpg/sg51_9_cif.got.tgz:16621.got - 2010.04.16 13:43:02.
