data_PCOD8210666
_publ_section_title
;
Structure prediction by ZEFSAII (Michael W. Deem and Ramdas Pophale) SiO2 
 PCOD8210666
Probable space group: P M M A
;
_chemical_formula_sum "Si O2"
_cell_formula_units_Z 36
_cell_length_a 8.787162
_cell_length_b 17.994660
_cell_length_c 15.141578
_cell_angle_alpha 90.000000
_cell_angle_beta 90.000000
_cell_angle_gamma 90.000000
_cell_volume 2394.216484
_symmetry_space_group_name_H-M "P M M A"
_symmetry_group_IT_number 51
_symmetry_cell_setting 'orthorhombic'
loop_
_space_group_symop_operation_xyz
x,y,z
1/2-x,-y,z
1/2+x,-y,-z
-x,y,-z
-x,-y,-z
1/2+x,y,-z
1/2-x,y,z
x,-y,z
loop_
_atom_site_type_symbol
_atom_site_label
_atom_site_fract_x
_atom_site_fract_y
_atom_site_fract_z
Si Si1 0.926988 0.000000 0.094742
Si Si2 0.578739 0.411595 0.588015
Si Si3 0.574830 0.412404 0.232449
Si Si4 0.570266 0.841178 0.096879
Si Si5 0.570435 0.694229 0.903308
O O1 0.968041 0.921544 0.144321
O O2 0.750000 0.000000 0.075468
O O3 0.000000 0.000000 0.000000
O O4 0.500000 0.379091 0.500000
O O5 0.750000 0.380389 0.594204
O O6 0.580098 0.500000 0.583729
O O7 0.484531 0.384174 0.672740
O O8 0.750000 0.389286 0.223041
O O9 0.551699 0.500000 0.222740
O O10 0.476875 0.375329 0.155693
O O11 0.750000 0.826928 0.092446
O O12 0.491336 0.770345 0.143783
O O13 0.500000 0.844548 0.000000
O O14 0.750000 0.697642 0.911793
O O15 0.500000 0.683837 0.000000
#
# Coordination Sequence:
#
# PCOD8210666 Si02
#       5
#     4   8   8   8   8
#     4   8  14  22  36  56  76  98 125 160 199 240
#     4   9  16  27  44  65  86 106 129 161 203 250
#     4  10  20  33  47  62  80 105 139 177 214 250
#     4   9  15  25  39  56  77 101 131 165 202 242
#     4  11  21  32  44  58  79 109 143 177 212 247
#
# _framework density 15.036234
#
# number of rings (size 3 to 8) (size 9 to 14) (size 15 to 20)
#    0.000    2.444    0.000    5.333    0.000    5.333 
#    0.000    0.000    0.000    0.000    0.000    0.000 
#    0.000    0.000    0.000    1.000    0.000   12.778 
#
# Total GULP energy -446004.432165 kJ/mol
# GULP energy per Si atom -12389.012005 kJ/mol
# Density = 1.500201 g / cm^3
# Si number density = 15.036234 Si / 1000 Ang^3
#
#
#
# Elastic Constant Matrix: (Units=GPa)
#
#
# Indices 1 2 3 4 5 6 
#
# 1 111.7361 39.1882 35.3805 0.0000 0.0000 0.0000
# 2 39.1882 60.1420 35.3393 0.0000 0.0000 0.0000
# 3 35.3805 35.3393 66.5870 0.0000 0.0000 0.0000
# 4 0.0000 0.0000 0.0000 0.5547 0.0000 0.0000
# 5 0.0000 0.0000 0.0000 0.0000 23.3069 0.0000
# 6 0.0000 0.0000 0.0000 0.0000 0.0000 20.8590
#
#
#
# Elastic Compliance Matrix: (Units=1/GPa)
#
#
# Indices 1 2 3 4 5 6 
#
# 1 0.012067 -0.005951 -0.003253 0.000000 0.000000 0.000000
# 2 -0.005951 0.027097 -0.011219 0.000000 0.000000 0.000000
# 3 -0.003253 -0.011219 0.022701 0.000000 0.000000 0.000000
# 4 0.000000 0.000000 0.000000 1.802855 0.000000 0.000000
# 5 0.000000 0.000000 0.000000 0.000000 0.042906 0.000000
# 6 0.000000 0.000000 0.000000 0.000000 0.000000 0.047941
#
#
# Mechanical properties :
#
#
# Convention : Reuss Voigt Hill
#
# Bulk Modulus (GPa) = 47.57814 50.92011 49.24912
# Shear Modulus (GPa) = 2.49573 17.51460 10.00516
#
# Velocity S-wave (km/s) = 1.28973 3.41666 2.58234
# Velocity P-wave (km/s) = 5.82485 7.03585 6.45880
#
# Compressibility (1/GPa) = 0.02101806
#
# Stress axis : x y z
#
# Youngs Moduli (GPa) = 82.87077 36.90397 44.05136
#
# Poissons Ratio (x) = 0.21962 0.14331
# Poissons Ratio (y) = 0.49318 0.49422
# Poissons Ratio (z) = 0.26960 0.41403
#
# Static dielectric constant tensor:
#      x y z
#    x 3.018420 0.000000 0.000000 
#    y 0.000000 3.450450 0.000000 
#    z 0.000000 0.000000 2.607010 
# 
# 
# High freq. dielectric constant tensor:
#      x y z
#    x 1.598860 0.000000 0.000000 
#    y 0.000000 1.563990 0.000000 
#    z 0.000000 0.000000 1.525410 
# 
# From -- ./inp_files/14152.got.cif
#   From: 2010.03.12/outbox.cif.g09.slc.cpg/sg51_8_cif.got.tgz:14152.got - 2010.04.16 13:43:02.
