data_PCOD8210400
_publ_section_title
;
Structure prediction by ZEFSAII (Michael W. Deem and Ramdas Pophale) SiO2 
 PCOD8210400
Probable space group: P M M A
;
_chemical_formula_sum "Si O2"
_cell_formula_units_Z 56
_cell_length_a 9.092224
_cell_length_b 19.908264
_cell_length_c 15.320342
_cell_angle_alpha 90.000000
_cell_angle_beta 90.000000
_cell_angle_gamma 90.000000
_cell_volume 2773.141168
_symmetry_space_group_name_H-M "P M M A"
_symmetry_group_IT_number 51
_symmetry_cell_setting 'orthorhombic'
loop_
_space_group_symop_operation_xyz
x,y,z
1/2-x,-y,z
1/2+x,-y,-z
-x,y,-z
-x,-y,-z
1/2+x,y,-z
1/2-x,y,z
x,-y,z
loop_
_atom_site_type_symbol
_atom_site_label
_atom_site_fract_x
_atom_site_fract_y
_atom_site_fract_z
Si Si1 0.077923 0.830840 0.911228
Si Si2 0.080290 0.923483 0.225940
Si Si3 0.078112 0.121127 0.415927
Si Si4 0.583004 0.601065 0.416166
Si Si5 0.085000 0.749625 0.630288
Si Si6 0.919375 0.425146 0.762012
Si Si7 0.920087 0.698147 0.181522
O O1 0.250000 0.844670 0.920031
O O2 0.046239 0.751666 0.894809
O O3 0.019476 0.875549 0.832088
O O4 0.000000 0.853233 0.000000
O O5 0.250000 0.901947 0.214570
O O6 0.032928 0.916907 0.327211
O O7 0.055460 0.000000 0.196186
O O8 0.250000 0.117579 0.432560
O O9 0.000000 0.087007 0.500000
O O10 0.029489 0.198698 0.410760
O O11 0.500000 0.570410 0.500000
O O12 0.750000 0.574363 0.414617
O O13 0.579719 0.681360 0.424251
O O14 0.504067 0.576157 0.329219
O O15 0.250000 0.780421 0.628740
O O16 0.035442 0.734772 0.729085
O O17 0.750000 0.407120 0.744927
O O18 0.935637 0.500000 0.802638
O O19 0.985842 0.370246 0.829620
O O20 0.750000 0.676710 0.183890
#
# Coordination Sequence:
#
# PCOD8210400 Si02
#       7
#     8   8   8   8   8   8   8
#     4  11  23  41  67  98 126 154 194 241 297 361
#     4  10  23  43  63  87 122 162 204 249 298 353
#     4  11  22  34  54  82 114 156 202 248 297 347
#     4  10  20  32  47  70 103 145 192 244 297 350
#     4   9  17  32  52  76 107 143 189 242 293 346
#     4  10  21  35  53  79 110 148 193 238 290 352
#     4   9  19  36  59  85 115 150 189 238 290 347
#
# _framework density 20.193707
#
# number of rings (size 3 to 8) (size 9 to 14) (size 15 to 20)
#    0.000    2.000    1.429    3.000    0.000    8.000 
#    0.000    0.000    0.000    0.429    0.000    0.000 
#    0.000    0.000    0.000    0.000    0.000    0.000 
#
# Total GULP energy -694402.860962 kJ/mol
# GULP energy per Si atom -12400.051089 kJ/mol
# Density = 2.014774 g / cm^3
# Si number density = 20.193707 Si / 1000 Ang^3
#
#
#
# Elastic Constant Matrix: (Units=GPa)
#
#
# Indices 1 2 3 4 5 6 
#
# 1 127.1007 52.2940 55.8342 0.0000 0.0000 0.0000
# 2 52.2940 90.7837 28.4743 0.0000 0.0000 0.0000
# 3 55.8342 28.4743 87.2251 0.0000 0.0000 0.0000
# 4 0.0000 0.0000 0.0000 5.0368 0.0000 0.0000
# 5 0.0000 0.0000 0.0000 0.0000 30.7156 0.0000
# 6 0.0000 0.0000 0.0000 0.0000 0.0000 22.5740
#
#
#
# Elastic Compliance Matrix: (Units=1/GPa)
#
#
# Indices 1 2 3 4 5 6 
#
# 1 0.012967 -0.005421 -0.006531 0.000000 0.000000 0.000000
# 2 -0.005421 0.014538 -0.001276 0.000000 0.000000 0.000000
# 3 -0.006531 -0.001276 0.016062 0.000000 0.000000 0.000000
# 4 0.000000 0.000000 0.000000 0.198539 0.000000 0.000000
# 5 0.000000 0.000000 0.000000 0.000000 0.032557 0.000000
# 6 0.000000 0.000000 0.000000 0.000000 0.000000 0.044299
#
#
# Mechanical properties :
#
#
# Convention : Reuss Voigt Hill
#
# Bulk Modulus (GPa) = 58.44046 64.25718 61.34882
# Shear Modulus (GPa) = 14.24013 22.89907 18.56960
#
# Velocity S-wave (km/s) = 2.65840 3.37110 3.03574
# Velocity P-wave (km/s) = 6.19883 6.85871 6.53710
#
# Compressibility (1/GPa) = 0.01711143
#
# Stress axis : x y z
#
# Youngs Moduli (GPa) = 77.11822 68.78508 62.26066
#
# Poissons Ratio (x) = 0.37289 0.40661
# Poissons Ratio (y) = 0.41806 0.07943
# Poissons Ratio (z) = 0.50364 0.08776
#
# Static dielectric constant tensor:
#      x y z
#    x 3.714270 0.000000 0.000000 
#    y 0.000000 3.672400 0.000000 
#    z 0.000000 0.000000 3.518820 
# 
# 
# High freq. dielectric constant tensor:
#      x y z
#    x 1.793430 0.000000 0.000000 
#    y 0.000000 1.785380 0.000000 
#    z 0.000000 0.000000 1.765880 
# 
# From -- ./inp_files/21763.got.cif
#   From: 2010.03.12/outbox.cif.g09.slc.cpg/sg51_11_cif.got.tgz:21763.got - 2010.04.16 13:43:02.
