data_PCOD8210338
_publ_section_title
;
Structure prediction by ZEFSAII (Michael W. Deem and Ramdas Pophale) SiO2 
 PCOD8210338
Probable space group: P M M A
;
_chemical_formula_sum "Si O2"
_cell_formula_units_Z 56
_cell_length_a 24.496569
_cell_length_b 8.909056
_cell_length_c 15.266467
_cell_angle_alpha 90.000000
_cell_angle_beta 90.000000
_cell_angle_gamma 90.000000
_cell_volume 3331.773681
_symmetry_space_group_name_H-M "P M M A"
_symmetry_group_IT_number 51
_symmetry_cell_setting 'orthorhombic'
loop_
_space_group_symop_operation_xyz
x,y,z
1/2-x,-y,z
1/2+x,-y,-z
-x,y,-z
-x,-y,-z
1/2+x,y,-z
1/2-x,y,z
x,-y,z
loop_
_atom_site_type_symbol
_atom_site_label
_atom_site_fract_x
_atom_site_fract_y
_atom_site_fract_z
Si Si1 0.314964 0.330723 0.591459
Si Si2 0.685007 0.830662 0.581725
Si Si3 0.385777 0.822185 0.097620
Si Si4 0.387203 0.323276 0.909548
Si Si5 0.814593 0.827705 0.232378
Si Si6 0.314591 0.672187 0.242207
Si Si7 0.005156 0.834531 0.896364
O O1 0.250000 0.332200 0.588019
O O2 0.337835 0.500000 0.596527
O O3 0.338429 0.251497 0.504377
O O4 0.335556 0.238273 0.675386
O O5 0.750000 0.831347 0.578880
O O6 0.664071 0.742210 0.666933
O O7 0.662217 0.000000 0.584695
O O8 0.339869 0.762630 0.162141
O O9 0.445651 0.779493 0.137325
O O10 0.380539 0.000000 0.086368
O O11 0.376263 0.749331 0.003374
O O12 0.384205 0.500000 0.919186
O O13 0.340172 0.267682 0.845465
O O14 0.446513 0.278426 0.869806
O O15 0.750000 0.811619 0.224204
O O16 0.833274 0.000000 0.226042
O O17 0.250000 0.688197 0.234232
O O18 0.333283 0.500000 0.238503
O O19 0.019236 0.000000 0.858691
O O20 0.000000 0.844356 0.000000
#
# Coordination Sequence:
#
# PCOD8210338 Si02
#       7
#     8   8   8   8   8   8   8
#     4   9  16  27  44  66  92 120 152 193 236 274
#     4   9  16  27  44  65  90 122 158 192 228 274
#     4  10  20  34  51  69  92 124 159 195 234 277
#     4  11  21  32  49  71  95 123 155 194 237 278
#     4  10  20  33  48  67  94 128 162 193 229 278
#     4  10  20  32  46  68  98 128 158 194 235 278
#     4   8  16  32  51  69  89 115 152 196 236 274
#
# _framework density 16.807863999999999
#
# number of rings (size 3 to 8) (size 9 to 14) (size 15 to 20)
#    0.000    2.429    0.000    4.286    0.000    8.857 
#    0.000    0.000    0.000    0.000    0.000    1.000 
#    0.000    8.000    0.000    0.000    0.000    0.000 
#
# Total GULP energy -694323.241242 kJ/mol
# GULP energy per Si atom -12398.629308 kJ/mol
# Density = 1.676961 g / cm^3
# Si number density = 16.807864 Si / 1000 Ang^3
#
#
#
# Elastic Constant Matrix: (Units=GPa)
#
#
# Indices 1 2 3 4 5 6 
#
# 1 33.7772 34.1740 34.1327 0.0000 0.0000 0.0000
# 2 34.1740 136.1519 62.2892 0.0000 0.0000 0.0000
# 3 34.1327 62.2892 111.9788 0.0000 0.0000 0.0000
# 4 0.0000 0.0000 0.0000 32.6604 0.0000 0.0000
# 5 0.0000 0.0000 0.0000 0.0000 -0.0082 0.0000
# 6 0.0000 0.0000 0.0000 0.0000 0.0000 19.7459
#
#
#
# Elastic Compliance Matrix: (Units=1/GPa)
#
#
# Indices 1 2 3 4 5 6 
#
# 1 0.047392 -0.007091 -0.010501 0.000000 0.000000 0.000000
# 2 -0.007091 0.010913 -0.003909 0.000000 0.000000 0.000000
# 3 -0.010501 -0.003909 0.014306 0.000000 0.000000 0.000000
# 4 0.000000 0.000000 0.000000 0.030618 0.000000 0.000000
# 5 0.000000 0.000000 0.000000 0.000000********** 0.000000
# 6 0.000000 0.000000 0.000000 0.000000 0.000000 0.050643
#
#
# Mechanical properties :
#
#
# Convention : Reuss Voigt Hill
#
# Bulk Modulus (GPa) = 33.77478 60.34443 47.05960
# Shear Modulus (GPa) = -0.04113 20.56708 10.26297
#
# Velocity S-wave (km/s) = -0.15661 3.50188 2.47372
# Velocity P-wave (km/s) = 4.48392 7.23404 6.01817
#
# Compressibility (1/GPa) = 0.02960789
#
# Stress axis : x y z
#
# Youngs Moduli (GPa) = 21.10064 91.63448 69.90263
#
# Poissons Ratio (x) = 0.64978 0.73407
# Poissons Ratio (y) = 0.14962 0.27325
# Poissons Ratio (z) = 0.22158 0.35820
#
# Static dielectric constant tensor:
#      x y z
#    x 3.068120 0.000000 0.000000 
#    y 0.000000 3.352600 0.000000 
#    z 0.000000 0.000000 3.131150 
# 
# 
# High freq. dielectric constant tensor:
#      x y z
#    x 1.607810 0.000000 0.000000 
#    y 0.000000 1.666540 0.000000 
#    z 0.000000 0.000000 1.639730 
# 
# From -- ./inp_files/25669.got.cif
#   From: 2010.03.12/outbox.cif.g09.slc.cpg/sg51_13_cif.got.tgz:25669.got - 2010.04.16 13:43:02.
