data_PCOD8210733
_publ_section_title
;
Structure prediction by ZEFSAII (Michael W. Deem and Ramdas Pophale) SiO2 
 PCOD8210733
Probable space group: P M M A
;
_chemical_formula_sum "Si O2"
_cell_formula_units_Z 52
_cell_length_a 9.639736
_cell_length_b 8.265671
_cell_length_c 35.321542
_cell_angle_alpha 90.000000
_cell_angle_beta 90.000000
_cell_angle_gamma 90.000000
_cell_volume 2814.381129
_symmetry_space_group_name_H-M "P M M A"
_symmetry_group_IT_number 51
_symmetry_cell_setting 'orthorhombic'
loop_
_space_group_symop_operation_xyz
x,y,z
1/2-x,-y,z
1/2+x,-y,-z
-x,y,-z
-x,-y,-z
1/2+x,y,-z
1/2-x,y,z
x,-y,z
loop_
_atom_site_type_symbol
_atom_site_label
_atom_site_fract_x
_atom_site_fract_y
_atom_site_fract_z
Si Si1 0.585564 0.679670 0.915566
Si Si2 0.904713 0.688039 0.311315
Si Si3 0.092483 0.191623 0.244817
Si Si4 0.085144 0.179706 0.161411
Si Si5 0.912128 0.815342 0.389128
Si Si6 0.095388 0.311129 0.532837
Si Si7 0.915857 0.000000 0.961564
O O1 0.750000 0.678057 0.916344
O O2 0.531474 0.500000 0.929360
O O3 0.531947 0.704570 0.872367
O O4 0.536088 0.834165 0.940318
O O5 0.750000 0.761547 0.305018
O O6 0.894078 0.500000 0.318015
O O7 0.978016 0.760971 0.349055
O O8 0.995747 0.723353 0.274916
O O9 0.250000 0.249564 0.251632
O O10 0.040428 0.245328 0.202820
O O11 0.081728 0.000000 0.248804
O O12 0.250000 0.167491 0.160676
O O13 0.023970 0.000000 0.154526
O O14 0.750000 0.776746 0.385795
O O15 0.971803 0.721218 0.425738
O O16 0.947163 0.000000 0.396214
O O17 0.250000 0.233097 0.530582
O O18 0.106427 0.500000 0.525806
O O19 0.000000 0.232455 0.500000
O O20 0.750000 0.000000 0.968168
O O21 0.000000 0.000000 0.000000
#
# Coordination Sequence:
#
# PCOD8210733 Si02
#       7
#     8   8   8   8   8   8   4
#     4   9  16  27  47  74 100 129 167 208 249 295
#     4  10  20  33  49  69  95 129 168 205 239 283
#     4   9  18  31  49  74 102 129 158 199 250 296
#     4   8  13  25  45  69  98 127 157 200 248 290
#     4   9  17  30  49  69  88 117 158 198 232 273
#     4   9  17  30  48  69  92 116 144 181 227 279
#     4  10  20  34  52  74 102 132 166 210 252 298
#
# _framework density 18.476531999999999
#
# number of rings (size 3 to 8) (size 9 to 14) (size 15 to 20)
#    0.000    2.923    0.769    1.846    0.000    4.308 
#    0.000    2.308    0.000    3.692    0.000    0.000 
#    0.000    0.000    0.000    0.000    0.000    0.000 
#
# Total GULP energy -644262.241891 kJ/mol
# GULP energy per Si atom -12389.658498 kJ/mol
# Density = 1.843448 g / cm^3
# Si number density = 18.476532 Si / 1000 Ang^3
#
#
#
# Elastic Constant Matrix: (Units=GPa)
#
#
# Indices 1 2 3 4 5 6 
#
# 1 32.7295 16.0370 35.6147 0.0000 0.0000 0.0000
# 2 16.0370 78.1763 50.8771 0.0000 0.0000 0.0000
# 3 35.6147 50.8771 149.2422 0.0000 0.0000 0.0000
# 4 0.0000 0.0000 0.0000 28.4044 0.0000 0.0000
# 5 0.0000 0.0000 0.0000 0.0000 25.4763 0.0000
# 6 0.0000 0.0000 0.0000 0.0000 0.0000 13.6743
#
#
#
# Elastic Compliance Matrix: (Units=1/GPa)
#
#
# Indices 1 2 3 4 5 6 
#
# 1 0.041700 -0.002671 -0.009041 0.000000 0.000000 0.000000
# 2 -0.002671 0.016610 -0.005025 0.000000 0.000000 0.000000
# 3 -0.009041 -0.005025 0.010571 0.000000 0.000000 0.000000
# 4 0.000000 0.000000 0.000000 0.035206 0.000000 0.000000
# 5 0.000000 0.000000 0.000000 0.000000 0.039252 0.000000
# 6 0.000000 0.000000 0.000000 0.000000 0.000000 0.073130
#
#
# Mechanical properties :
#
#
# Convention : Reuss Voigt Hill
#
# Bulk Modulus (GPa) = 28.24233 51.68951 39.96592
# Shear Modulus (GPa) = 19.10267 24.01895 21.56081
#
# Velocity S-wave (km/s) = 3.21890 3.60942 3.41974
# Velocity P-wave (km/s) = 5.39757 6.73848 6.10495
#
# Compressibility (1/GPa) = 0.03540785
#
# Stress axis : x y z
#
# Youngs Moduli (GPa) = 23.98103 60.20579 94.59855
#
# Poissons Ratio (x) = 0.16078 0.85523
# Poissons Ratio (y) = 0.06404 0.47536
# Poissons Ratio (z) = 0.21680 0.30253
#
# Static dielectric constant tensor:
#      x y z
#    x 3.032330 0.000000 0.000000 
#    y 0.000000 3.494290 0.000000 
#    z 0.000000 0.000000 3.694770 
# 
# 
# High freq. dielectric constant tensor:
#      x y z
#    x 1.650080 0.000000 0.000000 
#    y 0.000000 1.716220 0.000000 
#    z 0.000000 0.000000 1.731760 
# 
# From -- ./inp_files/36560.got.cif
#   From: 2010.03.12/outbox.cif.g09.slc.cpg/sg51_19_cif.got.tgz:36560.got - 2010.04.16 13:43:02.
