data_PCOD8210723
_publ_section_title
;
Structure prediction by ZEFSAII (Michael W. Deem and Ramdas Pophale) SiO2 
 PCOD8210723
Probable space group: P M M A
;
_chemical_formula_sum "Si O2"
_cell_formula_units_Z 56
_cell_length_a 8.971614
_cell_length_b 14.651025
_cell_length_c 20.682424
_cell_angle_alpha 90.000000
_cell_angle_beta 90.000000
_cell_angle_gamma 90.000000
_cell_volume 2718.566911
_symmetry_space_group_name_H-M "P M M A"
_symmetry_group_IT_number 51
_symmetry_cell_setting 'orthorhombic'
loop_
_space_group_symop_operation_xyz
x,y,z
1/2-x,-y,z
1/2+x,-y,-z
-x,y,-z
-x,-y,-z
1/2+x,y,-z
1/2-x,y,z
x,-y,z
loop_
_atom_site_type_symbol
_atom_site_label
_atom_site_fract_x
_atom_site_fract_y
_atom_site_fract_z
Si Si1 0.586897 0.837409 0.940932
Si Si2 0.424972 0.101978 0.309375
Si Si3 0.583950 0.101870 0.177029
Si Si4 0.577724 0.396592 0.195718
Si Si5 0.080886 0.608277 0.435831
Si Si6 0.426274 0.712276 0.677142
Si Si7 0.912352 0.629166 0.939638
O O1 0.750000 0.884250 0.929944
O O2 0.482644 0.835965 0.878410
O O3 0.612330 0.733367 0.958659
O O4 0.500000 0.886881 0.000000
O O5 0.250000 0.118826 0.317435
O O6 0.468529 0.105189 0.234918
O O7 0.513316 0.186218 0.341392
O O8 0.467665 0.000000 0.337135
O O9 0.750000 0.137139 0.197698
O O10 0.596126 0.000000 0.149473
O O11 0.750000 0.380598 0.180276
O O12 0.550063 0.500000 0.221428
O O13 0.526527 0.323400 0.250955
O O14 0.491879 0.382367 0.129071
O O15 0.250000 0.645049 0.435346
O O16 0.077046 0.500000 0.434559
O O17 0.000000 0.645983 0.500000
O O18 0.994338 0.642328 0.373349
O O19 0.250000 0.712312 0.669496
O O20 0.750000 0.582308 0.934024
O O21 0.000000 0.582749 0.000000
#
# Coordination Sequence:
#
# PCOD8210723 Si02
#       7
#     8   8   8   8   8   8   8
#     4  10  20  33  49  68  91 122 164 216 274 338
#     4  10  21  37  57  82 113 149 190 237 288 343
#     4  10  20  33  49  70  97 130 170 218 276 342
#     4  10  22  38  55  79 112 148 186 231 285 343
#     4  10  21  38  62  93 130 170 209 247 288 341
#     4  11  22  37  61  90 122 159 198 244 295 348
#     4  10  21  36  54  74  97 132 179 229 281 338
#
# _framework density 20.599087999999998
#
# number of rings (size 3 to 8) (size 9 to 14) (size 15 to 20)
#    0.000    1.857    0.000    3.857    0.000    9.143 
#    0.000    0.000    0.000    0.429    0.000    0.000 
#    0.000    0.000    0.000    0.000    0.000    0.000 
#
# Total GULP energy -694015.180524 kJ/mol
# GULP energy per Si atom -12393.128224 kJ/mol
# Density = 2.055220 g / cm^3
# Si number density = 20.599088 Si / 1000 Ang^3
#
#
#
# Elastic Constant Matrix: (Units=GPa)
#
#
# Indices 1 2 3 4 5 6 
#
# 1 129.9085 32.0771 53.9508 0.0000 0.0000 0.0000
# 2 32.0771 59.0330 9.5842 0.0000 0.0000 0.0000
# 3 53.9508 9.5842 99.9974 0.0000 0.0000 0.0000
# 4 0.0000 0.0000 0.0000 20.3009 0.0000 0.0000
# 5 0.0000 0.0000 0.0000 0.0000 35.3153 0.0000
# 6 0.0000 0.0000 0.0000 0.0000 0.0000 13.1112
#
#
#
# Elastic Compliance Matrix: (Units=1/GPa)
#
#
# Indices 1 2 3 4 5 6 
#
# 1 0.011319 -0.005241 -0.005605 0.000000 0.000000 0.000000
# 2 -0.005241 0.019634 0.000946 0.000000 0.000000 0.000000
# 3 -0.005605 0.000946 0.012934 0.000000 0.000000 0.000000
# 4 0.000000 0.000000 0.000000 0.049259 0.000000 0.000000
# 5 0.000000 0.000000 0.000000 0.000000 0.028316 0.000000
# 6 0.000000 0.000000 0.000000 0.000000 0.000000 0.076271
#
#
# Mechanical properties :
#
#
# Convention : Reuss Voigt Hill
#
# Bulk Modulus (GPa) = 41.51593 53.35145 47.43369
# Shear Modulus (GPa) = 22.16690 26.63392 24.40041
#
# Velocity S-wave (km/s) = 3.28397 3.59968 3.44545
# Velocity P-wave (km/s) = 5.88025 6.57519 6.23740
#
# Compressibility (1/GPa) = 0.02408714
#
# Stress axis : x y z
#
# Youngs Moduli (GPa) = 88.34364 50.93244 77.31845
#
# Poissons Ratio (x) = 0.26692 0.43335
# Poissons Ratio (y) = 0.46299 -0.07312
# Poissons Ratio (z) = 0.49515 -0.04817
#
# Static dielectric constant tensor:
#      x y z
#    x 4.116550 0.000000 0.000000 
#    y 0.000000 3.965550 0.000000 
#    z 0.000000 0.000000 3.450110 
# 
# 
# High freq. dielectric constant tensor:
#      x y z
#    x 1.821150 0.000000 0.000000 
#    y 0.000000 1.809180 0.000000 
#    z 0.000000 0.000000 1.776420 
# 
# From -- ./inp_files/31988.got.cif
#   From: 2010.03.12/outbox.cif.g09.slc.cpg/sg51_16_cif.got.tgz:31988.got - 2010.04.16 13:43:02.
