data_PCOD8210025
_publ_section_title
;
Structure prediction by ZEFSAII (Michael W. Deem and Ramdas Pophale) SiO2 
 PCOD8210025
Probable space group: P M M A
;
_chemical_formula_sum "Si O2"
_cell_formula_units_Z 48
_cell_length_a 19.376134
_cell_length_b 8.813676
_cell_length_c 14.997657
_cell_angle_alpha 90.000000
_cell_angle_beta 90.000000
_cell_angle_gamma 90.000000
_cell_volume 2561.224382
_symmetry_space_group_name_H-M "P M M A"
_symmetry_group_IT_number 51
_symmetry_cell_setting 'orthorhombic'
loop_
_space_group_symop_operation_xyz
x,y,z
1/2-x,-y,z
1/2+x,-y,-z
-x,y,-z
-x,-y,-z
1/2+x,y,-z
1/2-x,y,z
x,-y,z
loop_
_atom_site_type_symbol
_atom_site_label
_atom_site_fract_x
_atom_site_fract_y
_atom_site_fract_z
Si Si1 0.172860 0.179951 0.895707
Si Si2 0.326159 0.680051 0.372015
Si Si3 0.441474 0.320465 0.237755
Si Si4 0.587432 0.178679 0.272438
Si Si5 0.830342 0.325328 0.426842
Si Si6 0.429152 0.177433 0.048834
O O1 0.250000 0.249113 0.897570
O O2 0.132243 0.244130 0.809993
O O3 0.175912 0.000000 0.888809
O O4 0.133707 0.228438 0.985636
O O5 0.250000 0.745058 0.347968
O O6 0.323192 0.500000 0.367483
O O7 0.381965 0.744851 0.302801
O O8 0.346520 0.727681 0.472435
O O9 0.445824 0.500000 0.243254
O O10 0.512949 0.253279 0.271066
O O11 0.422394 0.272267 0.138340
O O12 0.625103 0.217792 0.363992
O O13 0.577882 0.000000 0.263161
O O14 0.750000 0.302775 0.404776
O O15 0.851928 0.500000 0.411943
O O16 0.426896 0.000000 0.072268
O O17 0.500000 0.218985 0.000000
#
# Coordination Sequence:
#
# PCOD8210025 Si02
#       6
#     8   8   8   8   8   8
#     4   9  18  33  54  77 102 139 182 216 257 325
#     4   8  17  36  58  78 106 145 183 221 272 332
#     4  11  22  35  56  83 108 140 184 228 272 324
#     4  11  21  35  54  79 113 148 182 222 273 327
#     4   9  18  35  58  81 107 142 183 226 271 320
#     4  10  19  36  56  75 104 142 176 214 273 333
#
# _framework density 18.741036000000001
#
# number of rings (size 3 to 8) (size 9 to 14) (size 15 to 20)
#    0.000    2.333    1.667    2.500    0.000    2.667 
#    0.000    5.000    0.000    5.500    0.000    0.000 
#    0.000    0.000    0.000    0.000    0.000    0.000 
#
# Total GULP energy -595228.622580 kJ/mol
# GULP energy per Si atom -12400.596304 kJ/mol
# Density = 1.869838 g / cm^3
# Si number density = 18.741036 Si / 1000 Ang^3
#
#
#
# Elastic Constant Matrix: (Units=GPa)
#
#
# Indices 1 2 3 4 5 6 
#
# 1 153.7722 32.7021 90.0119 0.0000 0.0000 0.0000
# 2 32.7021 40.2500 35.1307 0.0000 0.0000 0.0000
# 3 90.0119 35.1307 142.2069 0.0000 0.0000 0.0000
# 4 0.0000 0.0000 0.0000 26.5344 0.0000 0.0000
# 5 0.0000 0.0000 0.0000 0.0000 36.4495 0.0000
# 6 0.0000 0.0000 0.0000 0.0000 0.0000 20.8295
#
#
#
# Elastic Compliance Matrix: (Units=1/GPa)
#
#
# Indices 1 2 3 4 5 6 
#
# 1 0.010715 -0.003552 -0.005905 0.000000 0.000000 0.000000
# 2 -0.003552 0.032852 -0.005867 0.000000 0.000000 0.000000
# 3 -0.005905 -0.005867 0.012219 0.000000 0.000000 0.000000
# 4 0.000000 0.000000 0.000000 0.037687 0.000000 0.000000
# 5 0.000000 0.000000 0.000000 0.000000 0.027435 0.000000
# 6 0.000000 0.000000 0.000000 0.000000 0.000000 0.048009
#
#
# Mechanical properties :
#
#
# Convention : Reuss Voigt Hill
#
# Bulk Modulus (GPa) = 39.78121 72.43538 56.10830
# Shear Modulus (GPa) = 24.04500 28.65498 26.34999
#
# Velocity S-wave (km/s) = 3.58580 3.91448 3.75374
# Velocity P-wave (km/s) = 6.19813 7.69191 6.98507
#
# Compressibility (1/GPa) = 0.02513749
#
# Stress axis : x y z
#
# Youngs Moduli (GPa) = 93.32862 30.43986 81.84030
#
# Poissons Ratio (x) = 0.10812 0.48324
# Poissons Ratio (y) = 0.33149 0.48019
# Poissons Ratio (z) = 0.55107 0.17860
#
# Static dielectric constant tensor:
#      x y z
#    x 3.755420 0.000000 0.000000 
#    y 0.000000 3.078060 0.000000 
#    z 0.000000 0.000000 3.589060 
# 
# 
# High freq. dielectric constant tensor:
#      x y z
#    x 1.737680 0.000000 0.000000 
#    y 0.000000 1.694340 0.000000 
#    z 0.000000 0.000000 1.737940 
# 
# From -- ./inp_files/24759.got.cif
#   From: 2010.03.12/outbox.cif.g09.slc.cpg/sg51_13_cif.got.tgz:24759.got - 2010.04.16 13:43:02.
