data_PCOD8210919
_publ_section_title
;
Structure prediction by ZEFSAII (Michael W. Deem and Ramdas Pophale) SiO2 
 PCOD8210919
Probable space group: P M M A
;
_chemical_formula_sum "Si O2"
_cell_formula_units_Z 48
_cell_length_a 9.503690
_cell_length_b 9.186896
_cell_length_c 28.956525
_cell_angle_alpha 90.000000
_cell_angle_beta 90.000000
_cell_angle_gamma 90.000000
_cell_volume 2528.177161
_symmetry_space_group_name_H-M "P M M A"
_symmetry_group_IT_number 51
_symmetry_cell_setting 'orthorhombic'
loop_
_space_group_symop_operation_xyz
x,y,z
1/2-x,-y,z
1/2+x,-y,-z
-x,y,-z
-x,-y,-z
1/2+x,y,-z
1/2-x,y,z
x,-y,z
loop_
_atom_site_type_symbol
_atom_site_label
_atom_site_fract_x
_atom_site_fract_y
_atom_site_fract_z
Si Si1 0.913280 0.833747 0.687418
Si Si2 0.589076 0.326836 0.956550
Si Si3 0.412302 0.672299 0.868488
Si Si4 0.250000 0.828368 0.548416
Si Si5 0.250000 0.658768 0.456435
Si Si6 0.478840 0.664850 0.604498
Si Si7 0.910034 0.829990 0.793600
O O1 0.750000 0.809103 0.676347
O O2 0.944401 0.795812 0.740463
O O3 0.006570 0.727028 0.656185
O O4 0.955574 0.000000 0.676740
O O5 0.750000 0.266082 0.957100
O O6 0.593796 0.500000 0.958145
O O7 0.506474 0.271930 0.911299
O O8 0.500000 0.266745 0.000000
O O9 0.250000 0.721649 0.875120
O O10 0.421351 0.500000 0.863904
O O11 0.476431 0.741422 0.822615
O O12 0.250000 0.781680 0.495068
O O13 0.383277 0.768386 0.574547
O O14 0.250000 0.000000 0.549790
O O15 0.250000 0.500000 0.481326
O O16 0.377378 0.673050 0.422147
O O17 0.420358 0.500000 0.607788
O O18 0.750000 0.780775 0.805374
O O19 0.927009 0.000000 0.804074
#
# Coordination Sequence:
#
# PCOD8210919 Si02
#       7
#     8   8   8   4   4   8   8
#     4   9  18  35  59  84 109 139 181 229 274 331
#     4   9  16  27  46  73 106 144 185 232 285 335
#     4  10  20  33  50  77 111 145 185 230 276 329
#     4  12  26  40  56  84 116 152 192 230 273 324
#     4  10  22  40  62  86 114 146 184 228 281 338
#     4  11  22  39  61  86 115 148 183 227 283 337
#     4   9  19  36  57  80 106 140 181 225 275 330
#
# _framework density 18.986011000000001
#
# number of rings (size 3 to 8) (size 9 to 14) (size 15 to 20)
#    0.000    2.167    0.833    3.750    0.000    7.333 
#    1.500    1.667    0.000    0.500    0.000    0.000 
#    0.000    0.000    0.000    0.000    0.000    0.000 
#
# Total GULP energy -595137.378894 kJ/mol
# GULP energy per Si atom -12398.695394 kJ/mol
# Density = 1.894280 g / cm^3
# Si number density = 18.986011 Si / 1000 Ang^3
#
#
#
# Elastic Constant Matrix: (Units=GPa)
#
#
# Indices 1 2 3 4 5 6 
#
# 1 120.1247 37.8852 52.0732 0.0000 0.0000 0.0000
# 2 37.8852 79.8416 46.3670 0.0000 0.0000 0.0000
# 3 52.0732 46.3670 118.0630 0.0000 0.0000 0.0000
# 4 0.0000 0.0000 0.0000 11.8990 0.0000 0.0000
# 5 0.0000 0.0000 0.0000 0.0000 50.6549 0.0000
# 6 0.0000 0.0000 0.0000 0.0000 0.0000 27.5754
#
#
#
# Elastic Compliance Matrix: (Units=1/GPa)
#
#
# Indices 1 2 3 4 5 6 
#
# 1 0.010843 -0.003067 -0.003578 0.000000 0.000000 0.000000
# 2 -0.003067 0.017093 -0.005360 0.000000 0.000000 0.000000
# 3 -0.003578 -0.005360 0.012153 0.000000 0.000000 0.000000
# 4 0.000000 0.000000 0.000000 0.084041 0.000000 0.000000
# 5 0.000000 0.000000 0.000000 0.000000 0.019741 0.000000
# 6 0.000000 0.000000 0.000000 0.000000 0.000000 0.036264
#
#
# Mechanical properties :
#
#
# Convention : Reuss Voigt Hill
#
# Bulk Modulus (GPa) = 62.19367 65.63114 63.91241
# Shear Modulus (GPa) = 23.86568 30.13945 27.00256
#
# Velocity S-wave (km/s) = 3.54929 3.98861 3.77534
# Velocity P-wave (km/s) = 7.04452 7.47364 7.26225
#
# Compressibility (1/GPa) = 0.01607881
#
# Stress axis : x y z
#
# Youngs Moduli (GPa) = 92.22533 58.50328 82.28295
#
# Poissons Ratio (x) = 0.17945 0.29439
# Poissons Ratio (y) = 0.28288 0.44105
# Poissons Ratio (z) = 0.32997 0.31358
#
# Static dielectric constant tensor:
#      x y z
#    x 3.541720 0.000000 0.000000 
#    y 0.000000 3.322990 0.000000 
#    z 0.000000 0.000000 3.526020 
# 
# 
# High freq. dielectric constant tensor:
#      x y z
#    x 1.742120 0.000000 0.000000 
#    y 0.000000 1.715790 0.000000 
#    z 0.000000 0.000000 1.748200 
# 
# From -- ./inp_files/37071.got.cif
#   From: 2010.03.12/outbox.cif.g09.slc.cpg/sg51_19_cif.got.tgz:37071.got - 2010.04.16 13:43:02.
