data_PCOD8210365
_publ_section_title
;
Structure prediction by ZEFSAII (Michael W. Deem and Ramdas Pophale) SiO2 
 PCOD8210365
Probable space group: P M M A
;
_chemical_formula_sum "Si O2"
_cell_formula_units_Z 40
_cell_length_a 9.808904
_cell_length_b 9.287262
_cell_length_c 25.702148
_cell_angle_alpha 90.000000
_cell_angle_beta 90.000000
_cell_angle_gamma 90.000000
_cell_volume 2341.410716
_symmetry_space_group_name_H-M "P M M A"
_symmetry_group_IT_number 51
_symmetry_cell_setting 'orthorhombic'
loop_
_space_group_symop_operation_xyz
x,y,z
1/2-x,-y,z
1/2+x,-y,-z
-x,y,-z
-x,-y,-z
1/2+x,y,-z
1/2-x,y,z
x,-y,z
loop_
_atom_site_type_symbol
_atom_site_label
_atom_site_fract_x
_atom_site_fract_y
_atom_site_fract_z
Si Si1 0.088153 0.659750 0.658454
Si Si2 0.097919 0.671636 0.544432
Si Si3 0.400117 0.329355 0.043229
Si Si4 0.908611 0.831210 0.241953
Si Si5 0.409183 0.333074 0.160532
O O1 0.250000 0.651182 0.656871
O O2 0.028688 0.500000 0.669994
O O3 0.040087 0.716125 0.601551
O O4 0.037995 0.767307 0.703306
O O5 0.250000 0.733826 0.535464
O O6 0.102238 0.500000 0.541427
O O7 0.000000 0.736886 0.500000
O O8 0.250000 0.264653 0.033202
O O9 0.394110 0.500000 0.037270
O O10 0.448627 0.291056 0.101417
O O11 0.500000 0.260890 0.000000
O O12 0.750000 0.792936 0.232659
O O13 0.997006 0.764755 0.196151
O O14 0.933507 0.000000 0.243483
O O15 0.250000 0.301442 0.170961
O O16 0.441692 0.500000 0.171480
#
# Coordination Sequence:
#
# PCOD8210365 Si02
#       5
#     8   8   8   8   8
#     4   8  14  26  44  64  87 116 148 183 225 270
#     4   8  13  22  38  60  84 109 138 175 220 266
#     4   8  14  25  42  66  94 119 144 178 221 268
#     4  10  20  32  47  68  92 120 157 197 233 271
#     4   9  18  32  49  70  96 124 153 186 227 275
#
# _framework density 17.083718999999999
#
# number of rings (size 3 to 8) (size 9 to 14) (size 15 to 20)
#    0.000    3.400    0.000    3.000    0.000    2.400 
#    0.000    3.000    0.000    4.800    0.000    0.000 
#    0.000    0.000    0.000    0.000    0.000    0.000 
#
# Total GULP energy -495723.055412 kJ/mol
# GULP energy per Si atom -12393.076385 kJ/mol
# Density = 1.704484 g / cm^3
# Si number density = 17.083719 Si / 1000 Ang^3
#
#
#
# Elastic Constant Matrix: (Units=GPa)
#
#
# Indices 1 2 3 4 5 6 
#
# 1 70.1784 36.5698 77.2507 0.0000 0.0000 0.0000
# 2 36.5698 55.9750 56.3769 0.0000 0.0000 0.0000
# 3 77.2507 56.3769 171.2411 0.0000 0.0000 0.0000
# 4 0.0000 0.0000 0.0000 0.4267 0.0000 0.0000
# 5 0.0000 0.0000 0.0000 0.0000 32.4924 0.0000
# 6 0.0000 0.0000 0.0000 0.0000 0.0000 16.6793
#
#
#
# Elastic Compliance Matrix: (Units=1/GPa)
#
#
# Indices 1 2 3 4 5 6 
#
# 1 0.031237 -0.009298 -0.011030 0.000000 0.000000 0.000000
# 2 -0.009298 0.029495 -0.005516 0.000000 0.000000 0.000000
# 3 -0.011030 -0.005516 0.012632 0.000000 0.000000 0.000000
# 4 0.000000 0.000000 0.000000 2.343765 0.000000 0.000000
# 5 0.000000 0.000000 0.000000 0.000000 0.030776 0.000000
# 6 0.000000 0.000000 0.000000 0.000000 0.000000 0.059955
#
#
# Mechanical properties :
#
#
# Convention : Reuss Voigt Hill
#
# Bulk Modulus (GPa) = 46.13649 70.86551 58.50100
# Shear Modulus (GPa) = 1.94797 18.39947 10.17372
#
# Velocity S-wave (km/s) = 1.06898 3.28536 2.44298
# Velocity P-wave (km/s) = 5.34681 7.48083 6.50197
#
# Compressibility (1/GPa) = 0.02167482
#
# Stress axis : x y z
#
# Youngs Moduli (GPa) = 32.01380 33.90350 79.16519
#
# Poissons Ratio (x) = 0.31524 0.87322
# Poissons Ratio (y) = 0.29766 0.43668
# Poissons Ratio (z) = 0.35312 0.18702
#
# Static dielectric constant tensor:
#      x y z
#    x 3.258400 0.000000 0.000000 
#    y 0.000000 2.796920 0.000000 
#    z 0.000000 0.000000 3.559090 
# 
# 
# High freq. dielectric constant tensor:
#      x y z
#    x 1.637730 0.000000 0.000000 
#    y 0.000000 1.612210 0.000000 
#    z 0.000000 0.000000 1.675240 
# 
# From -- ./inp_files/32791.got.cif
#   From: 2010.03.12/outbox.cif.g09.slc.cpg/sg51_17_cif.got.tgz:32791.got - 2010.04.16 13:43:02.
