data_PCOD8210860
_publ_section_title
;
Structure prediction by ZEFSAII (Michael W. Deem and Ramdas Pophale) SiO2 
 PCOD8210860
Probable space group: P M M A
;
_chemical_formula_sum "Si O2"
_cell_formula_units_Z 48
_cell_length_a 9.382664
_cell_length_b 9.312814
_cell_length_c 30.932472
_cell_angle_alpha 90.000000
_cell_angle_beta 90.000000
_cell_angle_gamma 90.000000
_cell_volume 2702.848615
_symmetry_space_group_name_H-M "P M M A"
_symmetry_group_IT_number 51
_symmetry_cell_setting 'orthorhombic'
loop_
_space_group_symop_operation_xyz
x,y,z
1/2-x,-y,z
1/2+x,-y,-z
-x,y,-z
-x,-y,-z
1/2+x,y,-z
1/2-x,y,z
x,-y,z
loop_
_atom_site_type_symbol
_atom_site_label
_atom_site_fract_x
_atom_site_fract_y
_atom_site_fract_z
Si Si1 0.916363 0.167285 0.281197
Si Si2 0.084923 0.667634 0.541199
Si Si3 0.419191 0.158533 0.622249
Si Si4 0.083986 0.666056 0.042405
Si Si5 0.417948 0.333463 0.208889
Si Si6 0.419458 0.162429 0.125427
O O1 0.750000 0.198685 0.274027
O O2 0.964895 0.209437 0.329881
O O3 0.006727 0.268564 0.250496
O O4 0.949611 0.000000 0.272131
O O5 0.250000 0.706124 0.534484
O O6 0.058995 0.500000 0.546203
O O7 0.021863 0.737236 0.584959
O O8 0.000000 0.729090 0.500000
O O9 0.250000 0.154444 0.620985
O O10 0.480639 0.000000 0.613140
O O11 0.250000 0.694223 0.034035
O O12 0.054518 0.500000 0.053402
O O13 0.024883 0.760001 0.082161
O O14 0.000000 0.715801 0.000000
O O15 0.250000 0.311972 0.214407
O O16 0.458203 0.500000 0.203899
O O17 0.476013 0.249886 0.166783
O O18 0.250000 0.163479 0.125422
O O19 0.479029 0.000000 0.127112
#
# Coordination Sequence:
#
# PCOD8210860 Si02
#       6
#     8   8   8   8   8   8
#     4   9  18  33  52  73  97 125 158 197 241 287
#     4   9  17  29  45  65  89 118 151 186 225 269
#     4   8  15  29  48  68  90 118 152 188 226 273
#     4   9  17  30  48  69  93 121 153 190 232 278
#     4  10  20  33  50  73  99 127 161 199 238 283
#     4   9  17  30  49  70  92 123 161 196 232 278
#
# _framework density 17.759041
#
# number of rings (size 3 to 8) (size 9 to 14) (size 15 to 20)
#    0.000    3.000    0.000    2.000    0.000    4.667 
#    0.000    3.333    0.000    6.000    0.000    0.000 
#    0.000    0.000    0.000    0.000    0.000    0.000 
#
# Total GULP energy -595098.954143 kJ/mol
# GULP energy per Si atom -12397.894878 kJ/mol
# Density = 1.771862 g / cm^3
# Si number density = 17.759041 Si / 1000 Ang^3
#
#
#
# Elastic Constant Matrix: (Units=GPa)
#
#
# Indices 1 2 3 4 5 6 
#
# 1 30.0122 35.9992 45.0682 0.0000 0.0000 0.0000
# 2 35.9992 111.4761 96.3301 0.0000 0.0000 0.0000
# 3 45.0682 96.3301 186.0222 0.0000 0.0000 0.0000
# 4 0.0000 0.0000 0.0000 40.7798 0.0000 0.0000
# 5 0.0000 0.0000 0.0000 0.0000 31.1833 0.0000
# 6 0.0000 0.0000 0.0000 0.0000 0.0000 20.1478
#
#
#
# Elastic Compliance Matrix: (Units=1/GPa)
#
#
# Indices 1 2 3 4 5 6 
#
# 1 0.060640 -0.012465 -0.008236 0.000000 0.000000 0.000000
# 2 -0.012465 0.018798 -0.006714 0.000000 0.000000 0.000000
# 3 -0.008236 -0.006714 0.010848 0.000000 0.000000 0.000000
# 4 0.000000 0.000000 0.000000 0.024522 0.000000 0.000000
# 5 0.000000 0.000000 0.000000 0.000000 0.032068 0.000000
# 6 0.000000 0.000000 0.000000 0.000000 0.000000 0.049633
#
#
# Mechanical properties :
#
#
# Convention : Reuss Voigt Hill
#
# Bulk Modulus (GPa) = 28.20546 75.81171 52.00859
# Shear Modulus (GPa) = 18.99981 28.42972 23.71476
#
# Velocity S-wave (km/s) = 3.27443 4.00541 3.65823
# Velocity P-wave (km/s) = 5.49660 8.01080 6.86970
#
# Compressibility (1/GPa) = 0.03545413
#
# Stress axis : x y z
#
# Youngs Moduli (GPa) = 16.49074 53.19676 92.18103
#
# Poissons Ratio (x) = 0.66311 0.75925
# Poissons Ratio (y) = 0.20556 0.61895
# Poissons Ratio (z) = 0.13583 0.35719
#
# Static dielectric constant tensor:
#      x y z
#    x 2.821650 0.000000 0.000000 
#    y 0.000000 3.394960 0.000000 
#    z 0.000000 0.000000 3.573520 
# 
# 
# High freq. dielectric constant tensor:
#      x y z
#    x 1.643940 0.000000 0.000000 
#    y 0.000000 1.688310 0.000000 
#    z 0.000000 0.000000 1.702490 
# 
# From -- ./inp_files/36509.got.cif
#   From: 2010.03.12/outbox.cif.g09.slc.cpg/sg51_19_cif.got.tgz:36509.got - 2010.04.16 13:43:02.
