data_PCOD8210863
_publ_section_title
;
Structure prediction by ZEFSAII (Michael W. Deem and Ramdas Pophale) SiO2 
 PCOD8210863
Probable space group: P M M A
;
_chemical_formula_sum "Si O2"
_cell_formula_units_Z 48
_cell_length_a 9.369105
_cell_length_b 9.144017
_cell_length_c 31.030083
_cell_angle_alpha 90.000000
_cell_angle_beta 90.000000
_cell_angle_gamma 90.000000
_cell_volume 2658.386166
_symmetry_space_group_name_H-M "P M M A"
_symmetry_group_IT_number 51
_symmetry_cell_setting 'orthorhombic'
loop_
_space_group_symop_operation_xyz
x,y,z
1/2-x,-y,z
1/2+x,-y,-z
-x,y,-z
-x,-y,-z
1/2+x,y,-z
1/2-x,y,z
x,-y,z
loop_
_atom_site_type_symbol
_atom_site_label
_atom_site_fract_x
_atom_site_fract_y
_atom_site_fract_z
Si Si1 0.919138 0.333138 0.134303
Si Si2 0.588187 0.825938 0.459333
Si Si3 0.093002 0.673213 0.961491
Si Si4 0.084394 0.829267 0.207094
Si Si5 0.415252 0.828701 0.376251
Si Si6 0.580381 0.335145 0.708500
O O1 0.750000 0.314099 0.138415
O O2 0.962924 0.500000 0.145153
O O3 0.969729 0.290991 0.085869
O O4 0.997567 0.223075 0.165890
O O5 0.500000 0.763529 0.500000
O O6 0.750000 0.764723 0.460328
O O7 0.509002 0.772391 0.416227
O O8 0.590011 0.000000 0.461127
O O9 0.250000 0.742091 0.965872
O O10 0.102445 0.500000 0.966765
O O11 0.000000 0.742913 0.000000
O O12 0.250000 0.791718 0.199698
O O13 0.023085 0.747906 0.249290
O O14 0.059807 0.000000 0.214085
O O15 0.250000 0.791546 0.385844
O O16 0.474679 0.745796 0.334287
O O17 0.435296 0.000000 0.368011
O O18 0.750000 0.331873 0.708645
O O19 0.520840 0.500000 0.708939
#
# Coordination Sequence:
#
# PCOD8210863 Si02
#       6
#     8   8   8   8   8   8
#     4   9  18  32  49  71 100 131 162 198 242 291
#     4   9  16  26  42  66  95 124 154 189 228 270
#     4   8  14  25  42  66  95 124 155 193 236 282
#     4  10  20  33  50  73  99 127 163 205 244 286
#     4   9  16  27  45  68  93 121 153 190 232 276
#     4   9  17  30  49  71  94 122 157 196 238 284
#
# _framework density 18.056069000000001
#
# number of rings (size 3 to 8) (size 9 to 14) (size 15 to 20)
#    0.000    3.000    0.000    2.500    0.000    6.000 
#    0.000    2.500    0.000    4.500    0.000    0.000 
#    0.000    0.000    0.000    0.000    0.000    0.000 
#
# Total GULP energy -595079.884021 kJ/mol
# GULP energy per Si atom -12397.497584 kJ/mol
# Density = 1.801497 g / cm^3
# Si number density = 18.056069 Si / 1000 Ang^3
#
#
#
# Elastic Constant Matrix: (Units=GPa)
#
#
# Indices 1 2 3 4 5 6 
#
# 1 68.4274 26.2583 63.7283 0.0000 0.0000 0.0000
# 2 26.2583 58.8036 52.2510 0.0000 0.0000 0.0000
# 3 63.7283 52.2510 176.1999 0.0000 0.0000 0.0000
# 4 0.0000 0.0000 0.0000 25.0842 0.0000 0.0000
# 5 0.0000 0.0000 0.0000 0.0000 30.5708 0.0000
# 6 0.0000 0.0000 0.0000 0.0000 0.0000 15.9476
#
#
#
# Elastic Compliance Matrix: (Units=1/GPa)
#
#
# Indices 1 2 3 4 5 6 
#
# 1 0.022662 -0.003851 -0.007054 0.000000 0.000000 0.000000
# 2 -0.003851 0.023744 -0.005648 0.000000 0.000000 0.000000
# 3 -0.007054 -0.005648 0.009902 0.000000 0.000000 0.000000
# 4 0.000000 0.000000 0.000000 0.039866 0.000000 0.000000
# 5 0.000000 0.000000 0.000000 0.000000 0.032711 0.000000
# 6 0.000000 0.000000 0.000000 0.000000 0.000000 0.062705
#
#
# Mechanical properties :
#
#
# Convention : Reuss Voigt Hill
#
# Bulk Modulus (GPa) = 43.10297 65.32290 54.21293
# Shear Modulus (GPa) = 21.51173 25.06672 23.28922
#
# Velocity S-wave (km/s) = 3.45539 3.72999 3.59531
# Velocity P-wave (km/s) = 6.31215 7.40316 6.87932
#
# Compressibility (1/GPa) = 0.02320026
#
# Stress axis : x y z
#
# Youngs Moduli (GPa) = 44.12721 42.11510 100.99199
#
# Poissons Ratio (x) = 0.16219 0.71243
# Poissons Ratio (y) = 0.16994 0.57044
# Poissons Ratio (z) = 0.31129 0.23788
#
# Static dielectric constant tensor:
#      x y z
#    x 3.289100 0.000000 0.000000 
#    y 0.000000 3.008970 0.000000 
#    z 0.000000 0.000000 3.569630 
# 
# 
# High freq. dielectric constant tensor:
#      x y z
#    x 1.676920 0.000000 0.000000 
#    y 0.000000 1.661470 0.000000 
#    z 0.000000 0.000000 1.716960 
# 
# From -- ./inp_files/36935.got.cif
#   From: 2010.03.12/outbox.cif.g09.slc.cpg/sg51_19_cif.got.tgz:36935.got - 2010.04.16 13:43:02.
