data_PCOD8210806
_publ_section_title
;
Structure prediction by ZEFSAII (Michael W. Deem and Ramdas Pophale) SiO2 
 PCOD8210806
Probable space group: P M M A
;
_chemical_formula_sum "Si O2"
_cell_formula_units_Z 64
_cell_length_a 16.024987
_cell_length_b 9.282416
_cell_length_c 23.186738
_cell_angle_alpha 90.000000
_cell_angle_beta 90.000000
_cell_angle_gamma 90.000000
_cell_volume 3449.041091
_symmetry_space_group_name_H-M "P M M A"
_symmetry_group_IT_number 51
_symmetry_cell_setting 'orthorhombic'
loop_
_space_group_symop_operation_xyz
x,y,z
1/2-x,-y,z
1/2+x,-y,-z
-x,y,-z
-x,-y,-z
1/2+x,y,-z
1/2-x,y,z
x,-y,z
loop_
_atom_site_type_symbol
_atom_site_label
_atom_site_fract_x
_atom_site_fract_y
_atom_site_fract_z
Si Si1 0.422709 0.168624 0.073960
Si Si2 0.999543 0.332431 0.626347
Si Si3 0.345450 0.829546 0.428936
Si Si4 0.989438 0.666245 0.756562
Si Si5 0.572523 0.669152 0.128675
Si Si6 0.844292 0.666805 0.452540
Si Si7 0.343430 0.159117 0.956510
Si Si8 0.842608 0.833351 0.808354
O O1 0.503165 0.262036 0.087584
O O2 0.355537 0.200545 0.124093
O O3 0.444925 0.000000 0.072549
O O4 0.392229 0.222162 0.011738
O O5 0.978624 0.500000 0.615788
O O6 0.083326 0.286810 0.592147
O O7 0.916491 0.242397 0.610809
O O8 0.023209 0.301326 0.692804
O O9 0.250000 0.796189 0.407277
O O10 0.357515 0.766852 0.492521
O O11 0.360889 0.000000 0.430449
O O12 0.968008 0.500000 0.765280
O O13 0.903891 0.749197 0.766352
O O14 0.058753 0.712980 0.804230
O O15 0.575427 0.500000 0.121045
O O16 0.654747 0.740116 0.100905
O O17 0.750000 0.690042 0.427051
O O18 0.855786 0.500000 0.470519
O O19 0.250000 0.148908 0.978394
O O20 0.377105 0.000000 0.940212
O O21 0.750000 0.784590 0.791463
O O22 0.857302 0.000000 0.795362
#
# Coordination Sequence:
#
# PCOD8210806 Si02
#       8
#     8   8   8   8   8   8   8   8
#     4   9  17  31  51  72  94 123 158 196 242 296
#     4  10  20  35  55  77 102 136 177 216 251 292
#     4  10  21  35  52  79 114 144 167 198 247 304
#     4   9  20  36  50  68  97 132 169 205 243 290
#     4  10  20  34  50  69  96 128 160 197 243 293
#     4   9  18  34  56  80 104 132 170 214 256 298
#     4  10  20  33  50  72  96 122 156 199 245 295
#     4   9  17  30  49  72  97 126 162 204 248 295
#
# _framework density 18.555883000000001
#
# number of rings (size 3 to 8) (size 9 to 14) (size 15 to 20)
#    0.000    2.500    0.000    1.875    0.000    8.250 
#    0.000    3.125    0.000    4.500    0.000    1.750 
#    0.000    0.000    0.000    0.000    0.000    0.000 
#
# Total GULP energy -793147.342361 kJ/mol
# GULP energy per Si atom -12392.927224 kJ/mol
# Density = 1.851365 g / cm^3
# Si number density = 18.555883 Si / 1000 Ang^3
#
#
#
# Elastic Constant Matrix: (Units=GPa)
#
#
# Indices 1 2 3 4 5 6 
#
# 1 78.0773 26.2408 44.1437 0.0000 0.0000 0.0000
# 2 26.2408 55.3180 39.6970 0.0000 0.0000 0.0000
# 3 44.1437 39.6970 106.4291 0.0000 0.0000 0.0000
# 4 0.0000 0.0000 0.0000 22.8575 0.0000 0.0000
# 5 0.0000 0.0000 0.0000 0.0000 18.3630 0.0000
# 6 0.0000 0.0000 0.0000 0.0000 0.0000 37.3954
#
#
#
# Elastic Compliance Matrix: (Units=1/GPa)
#
#
# Indices 1 2 3 4 5 6 
#
# 1 0.017419 -0.004203 -0.005657 0.000000 0.000000 0.000000
# 2 -0.004203 0.025699 -0.007842 0.000000 0.000000 0.000000
# 3 -0.005657 -0.007842 0.014667 0.000000 0.000000 0.000000
# 4 0.000000 0.000000 0.000000 0.043749 0.000000 0.000000
# 5 0.000000 0.000000 0.000000 0.000000 0.054457 0.000000
# 6 0.000000 0.000000 0.000000 0.000000 0.000000 0.026741
#
#
# Mechanical properties :
#
#
# Convention : Reuss Voigt Hill
#
# Bulk Modulus (GPa) = 44.68224 51.10971 47.89598
# Shear Modulus (GPa) = 22.16336 24.37270 23.26803
#
# Velocity S-wave (km/s) = 3.45978 3.62812 3.54495
# Velocity P-wave (km/s) = 6.33184 6.71971 6.52865
#
# Compressibility (1/GPa) = 0.02238026
#
# Stress axis : x y z
#
# Youngs Moduli (GPa) = 57.40888 38.91251 68.17888
#
# Poissons Ratio (x) = 0.16356 0.38569
# Poissons Ratio (y) = 0.24130 0.53466
# Poissons Ratio (z) = 0.32477 0.30515
#
# Static dielectric constant tensor:
#      x y z
#    x 3.863520 0.000000 0.000000 
#    y 0.000000 3.387040 0.000000 
#    z 0.000000 0.000000 3.484240 
# 
# 
# High freq. dielectric constant tensor:
#      x y z
#    x 1.718480 0.000000 0.000000 
#    y 0.000000 1.713060 0.000000 
#    z 0.000000 0.000000 1.715050 
# 
# From -- ./inp_files/35814.got.cif
#   From: 2010.03.12/outbox.cif.g09.slc.cpg/sg51_18_cif.got.tgz:35814.got - 2010.04.16 13:43:02.
