data_PCOD8210336
_publ_section_title
;
Structure prediction by ZEFSAII (Michael W. Deem and Ramdas Pophale) SiO2 
 PCOD8210336
Probable space group: P M M A
;
_chemical_formula_sum "Si O2"
_cell_formula_units_Z 52
_cell_length_a 9.567773
_cell_length_b 19.662034
_cell_length_c 14.718372
_cell_angle_alpha 90.000000
_cell_angle_beta 90.000000
_cell_angle_gamma 90.000000
_cell_volume 2768.847782
_symmetry_space_group_name_H-M "P M M A"
_symmetry_group_IT_number 51
_symmetry_cell_setting 'orthorhombic'
loop_
_space_group_symop_operation_xyz
x,y,z
1/2-x,-y,z
1/2+x,-y,-z
-x,y,-z
-x,-y,-z
1/2+x,y,-z
1/2-x,y,z
x,-y,z
loop_
_atom_site_type_symbol
_atom_site_label
_atom_site_fract_x
_atom_site_fract_y
_atom_site_fract_z
Si Si1 0.406781 0.423418 0.338277
Si Si2 0.086921 0.187564 0.264202
Si Si3 0.917853 0.772992 0.093660
Si Si4 0.899146 0.500000 0.079892
Si Si5 0.593851 0.711501 0.580914
Si Si6 0.593653 0.635195 0.188871
Si Si7 0.588624 0.922330 0.586214
O O1 0.250000 0.432388 0.300617
O O2 0.468233 0.500000 0.358375
O O3 0.407717 0.371835 0.423763
O O4 0.491751 0.374677 0.272111
O O5 0.250000 0.189493 0.233979
O O6 0.046655 0.255011 0.322791
O O7 0.053069 0.121626 0.324815
O O8 0.987374 0.183140 0.175164
O O9 0.750000 0.787508 0.084349
O O10 0.948571 0.694607 0.119443
O O11 0.000000 0.789353 0.000000
O O12 0.750000 0.500000 0.032637
O O13 0.922092 0.435270 0.139703
O O14 0.000000 0.500000 0.000000
O O15 0.500000 0.740413 0.500000
O O16 0.750000 0.738376 0.562090
O O17 0.750000 0.647850 0.226116
O O18 0.500000 0.896517 0.500000
O O19 0.750000 0.914118 0.559379
O O20 0.550405 0.000000 0.610273
#
# Coordination Sequence:
#
# PCOD8210336 Si02
#       7
#     8   8   8   4   8   8   8
#     4  10  20  34  52  72  97 133 176 221 271 324
#     4  10  20  36  57  81 113 148 181 223 270 317
#     4  11  23  37  56  81 108 141 182 226 274 326
#     4  10  20  32  46  68  95 122 161 210 267 328
#     4  10  21  35  52  76 104 137 178 222 269 320
#     4  10  20  34  51  72  98 129 169 219 272 327
#     4   9  18  33  56  88 123 156 187 220 264 318
#
# _framework density 18.780376
#
# number of rings (size 3 to 8) (size 9 to 14) (size 15 to 20)
#    0.000    2.000    2.308    1.385    0.000    3.385 
#    0.000    0.000    0.000    0.462    0.000    0.000 
#    0.000    0.000    0.000    0.000    0.000    0.000 
#
# Total GULP energy -644194.871754 kJ/mol
# GULP energy per Si atom -12388.362918 kJ/mol
# Density = 1.873763 g / cm^3
# Si number density = 18.780376 Si / 1000 Ang^3
#
#
#
# Elastic Constant Matrix: (Units=GPa)
#
#
# Indices 1 2 3 4 5 6 
#
# 1 81.1607 27.6595 61.9607 0.0000 0.0000 0.0000
# 2 27.6595 92.4858 34.1531 0.0000 0.0000 0.0000
# 3 61.9607 34.1531 106.8992 0.0000 0.0000 0.0000
# 4 0.0000 0.0000 0.0000 18.0205 0.0000 0.0000
# 5 0.0000 0.0000 0.0000 0.0000 32.2029 0.0000
# 6 0.0000 0.0000 0.0000 0.0000 0.0000 41.7767
#
#
#
# Elastic Compliance Matrix: (Units=1/GPa)
#
#
# Indices 1 2 3 4 5 6 
#
# 1 0.022477 -0.002167 -0.012336 0.000000 0.000000 0.000000
# 2 -0.002167 0.012468 -0.002727 0.000000 0.000000 0.000000
# 3 -0.012336 -0.002727 0.017376 0.000000 0.000000 0.000000
# 4 0.000000 0.000000 0.000000 0.055492 0.000000 0.000000
# 5 0.000000 0.000000 0.000000 0.000000 0.031053 0.000000
# 6 0.000000 0.000000 0.000000 0.000000 0.000000 0.023937
#
#
# Mechanical properties :
#
#
# Convention : Reuss Voigt Hill
#
# Bulk Modulus (GPa) = 55.98851 58.67691 57.33271
# Shear Modulus (GPa) = 24.60416 28.85149 26.72783
#
# Velocity S-wave (km/s) = 3.62346 3.92376 3.77660
# Velocity P-wave (km/s) = 6.88352 7.19996 7.04352
#
# Compressibility (1/GPa) = 0.01786081
#
# Stress axis : x y z
#
# Youngs Moduli (GPa) = 44.48913 80.20763 57.55015
#
# Poissons Ratio (x) = 0.17380 0.70994
# Poissons Ratio (y) = 0.09640 0.15696
# Poissons Ratio (z) = 0.54882 0.21875
#
# Static dielectric constant tensor:
#      x y z
#    x 3.605160 0.000000 0.000000 
#    y 0.000000 3.466770 0.000000 
#    z 0.000000 0.000000 3.244660 
# 
# 
# High freq. dielectric constant tensor:
#      x y z
#    x 1.732870 0.000000 0.000000 
#    y 0.000000 1.726250 0.000000 
#    z 0.000000 0.000000 1.709840 
# 
# From -- ./inp_files/21547.got.cif
#   From: 2010.03.12/outbox.cif.g09.slc.cpg/sg51_11_cif.got.tgz:21547.got - 2010.04.16 13:43:02.
