data_PCOD8210066
_publ_section_title
;
Structure prediction by ZEFSAII (Michael W. Deem and Ramdas Pophale) SiO2 
 PCOD8210066
Probable space group: P M M A
;
_chemical_formula_sum "Si O2"
_cell_formula_units_Z 64
_cell_length_a 14.097871
_cell_length_b 13.445962
_cell_length_c 16.818018
_cell_angle_alpha 90.000000
_cell_angle_beta 90.000000
_cell_angle_gamma 90.000000
_cell_volume 3188.014036
_symmetry_space_group_name_H-M "P M M A"
_symmetry_group_IT_number 51
_symmetry_cell_setting 'orthorhombic'
loop_
_space_group_symop_operation_xyz
x,y,z
1/2-x,-y,z
1/2+x,-y,-z
-x,y,-z
-x,-y,-z
1/2+x,y,-z
1/2-x,y,z
x,-y,z
loop_
_atom_site_type_symbol
_atom_site_label
_atom_site_fract_x
_atom_site_fract_y
_atom_site_fract_z
Si Si1 0.951201 0.613787 0.322123
Si Si2 0.362081 0.202172 0.096028
Si Si3 0.137754 0.111288 0.930655
Si Si4 0.356087 0.611988 0.516126
Si Si5 0.138752 0.709581 0.820509
Si Si6 0.520319 0.391829 0.908527
Si Si7 0.138349 0.107807 0.257556
Si Si8 0.641686 0.699616 0.650480
O O1 0.922338 0.500000 0.301532
O O2 0.929610 0.638255 0.414285
O O3 0.891168 0.694573 0.271375
O O4 0.064358 0.627559 0.307707
O O5 0.250000 0.210462 0.092434
O O6 0.400702 0.311866 0.113767
O O7 0.399124 0.136133 0.169579
O O8 0.402835 0.156131 0.013780
O O9 0.250000 0.106026 0.938336
O O10 0.109048 0.182016 0.856240
O O11 0.096916 0.000000 0.916721
O O12 0.250000 0.618136 0.551799
O O13 0.375560 0.500000 0.483411
O O14 0.367219 0.689921 0.444503
O O15 0.250000 0.691055 0.832260
O O16 0.080874 0.625973 0.867126
O O17 0.557686 0.500000 0.881118
O O18 0.500000 0.389416 0.000000
O O19 0.250000 0.099494 0.251088
O O20 0.112280 0.188439 0.324807
O O21 0.094991 0.000000 0.281312
O O22 0.750000 0.673390 0.678100
#
# Coordination Sequence:
#
# PCOD8210066 Si02
#       8
#     8   8   8   8   8   8   8   8
#     4  11  22  36  57  86 119 151 190 238 280 330
#     4  10  19  36  60  85 112 143 183 232 286 341
#     4   9  18  35  60  85 109 142 185 236 290 338
#     4   9  18  34  58  88 117 149 190 231 275 329
#     4  11  23  40  58  79 110 151 196 238 283 338
#     4  11  23  37  53  77 112 148 186 230 274 331
#     4   9  18  33  55  81 109 144 185 231 284 339
#     4  10  20  35  57  85 118 151 182 225 286 348
#
# _framework density 20.075194
#
# number of rings (size 3 to 8) (size 9 to 14) (size 15 to 20)
#    0.000    2.000    1.250    2.625    0.000    5.000 
#    0.000    5.625    0.000    8.250    0.000    3.500 
#    0.000    0.000    0.000    0.000    0.000    0.000 
#
# Total GULP energy -793232.236864 kJ/mol
# GULP energy per Si atom -12394.253701 kJ/mol
# Density = 2.002950 g / cm^3
# Si number density = 20.075194 Si / 1000 Ang^3
#
#
#
# Elastic Constant Matrix: (Units=GPa)
#
#
# Indices 1 2 3 4 5 6 
#
# 1 57.7742 30.0355 19.2587 0.0000 0.0000 0.0000
# 2 30.0355 144.4979 70.8278 0.0000 0.0000 0.0000
# 3 19.2587 70.8278 101.7810 0.0000 0.0000 0.0000
# 4 0.0000 0.0000 0.0000 32.2364 0.0000 0.0000
# 5 0.0000 0.0000 0.0000 0.0000 21.2990 0.0000
# 6 0.0000 0.0000 0.0000 0.0000 0.0000 25.8377
#
#
#
# Elastic Compliance Matrix: (Units=1/GPa)
#
#
# Indices 1 2 3 4 5 6 
#
# 1 0.019522 -0.003411 -0.001321 0.000000 0.000000 0.000000
# 2 -0.003411 0.011099 -0.007078 0.000000 0.000000 0.000000
# 3 -0.001321 -0.007078 0.015001 0.000000 0.000000 0.000000
# 4 0.000000 0.000000 0.000000 0.031021 0.000000 0.000000
# 5 0.000000 0.000000 0.000000 0.000000 0.046951 0.000000
# 6 0.000000 0.000000 0.000000 0.000000 0.000000 0.038703
#
#
# Mechanical properties :
#
#
# Convention : Reuss Voigt Hill
#
# Bulk Modulus (GPa) = 45.44877 60.47746 52.96311
# Shear Modulus (GPa) = 25.87333 28.13667 27.00500
#
# Velocity S-wave (km/s) = 3.59391 3.74781 3.67167
# Velocity P-wave (km/s) = 6.31744 6.99421 6.66442
#
# Compressibility (1/GPa) = 0.02200280
#
# Stress axis : x y z
#
# Youngs Moduli (GPa) = 51.22408 90.09859 66.66432
#
# Poissons Ratio (x) = 0.30729 0.08803
# Poissons Ratio (y) = 0.17471 0.47187
# Poissons Ratio (z) = 0.06764 0.63774
#
# Static dielectric constant tensor:
#      x y z
#    x 3.639650 0.000000 0.000000 
#    y 0.000000 4.013230 0.000000 
#    z 0.000000 0.000000 3.618980 
# 
# 
# High freq. dielectric constant tensor:
#      x y z
#    x 1.784070 0.000000 0.000000 
#    y 0.000000 1.771400 0.000000 
#    z 0.000000 0.000000 1.776340 
# 
# From -- ./inp_files/29879.got.cif
#   From: 2010.03.12/outbox.cif.g09.slc.cpg/sg51_15_cif.got.tgz:29879.got - 2010.04.16 13:43:02.
