data_PCOD8210519
_publ_section_title
;
Structure prediction by ZEFSAII (Michael W. Deem and Ramdas Pophale) SiO2 
 PCOD8210519
Probable space group: P M M A
;
_chemical_formula_sum "Si O2"
_cell_formula_units_Z 48
_cell_length_a 9.081309
_cell_length_b 9.293765
_cell_length_c 30.414603
_cell_angle_alpha 90.000000
_cell_angle_beta 90.000000
_cell_angle_gamma 90.000000
_cell_volume 2566.978860
_symmetry_space_group_name_H-M "P M M A"
_symmetry_group_IT_number 51
_symmetry_cell_setting 'orthorhombic'
loop_
_space_group_symop_operation_xyz
x,y,z
1/2-x,-y,z
1/2+x,-y,-z
-x,y,-z
-x,-y,-z
1/2+x,y,-z
1/2-x,y,z
x,-y,z
loop_
_atom_site_type_symbol
_atom_site_label
_atom_site_fract_x
_atom_site_fract_y
_atom_site_fract_z
Si Si1 0.077791 0.166172 0.955020
Si Si2 0.419722 0.166092 0.803621
Si Si3 0.920588 0.330834 0.877669
Si Si4 0.583801 0.328489 0.457370
Si Si5 0.579473 0.667075 0.628904
Si Si6 0.416541 0.167254 0.702309
O O1 0.250000 0.195760 0.960144
O O2 0.015066 0.263117 0.916483
O O3 0.045112 0.000000 0.943806
O O4 0.000000 0.212621 0.000000
O O5 0.250000 0.199790 0.815188
O O6 0.526508 0.266662 0.831492
O O7 0.452442 0.200432 0.752911
O O8 0.454012 0.000000 0.814329
O O9 0.750000 0.292812 0.884747
O O10 0.948303 0.500000 0.877042
O O11 0.500000 0.266510 0.500000
O O12 0.750000 0.270559 0.458307
O O13 0.578620 0.500000 0.458105
O O14 0.506600 0.270273 0.413253
O O15 0.750000 0.696091 0.620520
O O16 0.544666 0.500000 0.635293
O O17 0.530111 0.745642 0.672962
O O18 0.250000 0.215567 0.691310
O O19 0.436661 0.000000 0.692350
#
# Coordination Sequence:
#
# PCOD8210519 Si02
#       6
#     8   8   8   8   8   8
#     4  10  21  38  61  86 110 140 180 222 263 310
#     4   9  19  37  59  80 102 133 176 221 263 311
#     4  11  24  38  53  79 114 147 178 215 262 313
#     4   9  16  27  45  69  98 132 170 212 257 305
#     4  10  20  32  48  74 106 137 171 212 257 307
#     4   9  19  36  56  77 102 134 173 216 262 313
#
# _framework density 18.699024000000001
#
# number of rings (size 3 to 8) (size 9 to 14) (size 15 to 20)
#    0.000    2.333    0.000    3.500    0.000    9.667 
#    0.000    5.000    0.000    0.500    0.000    0.000 
#    0.000    0.000    0.000    0.000    0.000    0.000 
#
# Total GULP energy -595345.314627 kJ/mol
# GULP energy per Si atom -12403.027388 kJ/mol
# Density = 1.865646 g / cm^3
# Si number density = 18.699024 Si / 1000 Ang^3
#
#
#
# Elastic Constant Matrix: (Units=GPa)
#
#
# Indices 1 2 3 4 5 6 
#
# 1 111.1639 49.2505 70.1980 0.0000 0.0000 0.0000
# 2 49.2505 56.4324 51.8845 0.0000 0.0000 0.0000
# 3 70.1980 51.8845 127.7309 0.0000 0.0000 0.0000
# 4 0.0000 0.0000 0.0000 29.4203 0.0000 0.0000
# 5 0.0000 0.0000 0.0000 0.0000 42.4729 0.0000
# 6 0.0000 0.0000 0.0000 0.0000 0.0000 29.2830
#
#
#
# Elastic Compliance Matrix: (Units=1/GPa)
#
#
# Indices 1 2 3 4 5 6 
#
# 1 0.016550 -0.009706 -0.005153 0.000000 0.000000 0.000000
# 2 -0.009706 0.033975 -0.008467 0.000000 0.000000 0.000000
# 3 -0.005153 -0.008467 0.014100 0.000000 0.000000 0.000000
# 4 0.000000 0.000000 0.000000 0.033990 0.000000 0.000000
# 5 0.000000 0.000000 0.000000 0.000000 0.023544 0.000000
# 6 0.000000 0.000000 0.000000 0.000000 0.000000 0.034150
#
#
# Mechanical properties :
#
#
# Convention : Reuss Voigt Hill
#
# Bulk Modulus (GPa) = 55.63518 70.88814 63.26166
# Shear Modulus (GPa) = 23.92897 28.50153 26.21525
#
# Velocity S-wave (km/s) = 3.58116 3.90837 3.74834
# Velocity P-wave (km/s) = 6.84961 7.63934 7.25523
#
# Compressibility (1/GPa) = 0.01797424
#
# Stress axis : x y z
#
# Youngs Moduli (GPa) = 60.42356 29.43303 70.92212
#
# Poissons Ratio (x) = 0.28568 0.36545
# Poissons Ratio (y) = 0.58648 0.60047
# Poissons Ratio (z) = 0.31135 0.24920
#
# Static dielectric constant tensor:
#      x y z
#    x 3.535060 0.000000 0.000000 
#    y 0.000000 3.165390 0.000000 
#    z 0.000000 0.000000 3.530720 
# 
# 
# High freq. dielectric constant tensor:
#      x y z
#    x 1.735650 0.000000 0.000000 
#    y 0.000000 1.699060 0.000000 
#    z 0.000000 0.000000 1.740310 
# 
# From -- ./inp_files/36998.got.cif
#   From: 2010.03.12/outbox.cif.g09.slc.cpg/sg51_19_cif.got.tgz:36998.got - 2010.04.16 13:43:02.
