data_PCOD8210514
_publ_section_title
;
Structure prediction by ZEFSAII (Michael W. Deem and Ramdas Pophale) SiO2 
 PCOD8210514
Probable space group: P M M A
;
_chemical_formula_sum "Si O2"
_cell_formula_units_Z 56
_cell_length_a 18.566160
_cell_length_b 9.103406
_cell_length_c 18.788392
_cell_angle_alpha 90.000000
_cell_angle_beta 90.000000
_cell_angle_gamma 90.000000
_cell_volume 3175.525566
_symmetry_space_group_name_H-M "P M M A"
_symmetry_group_IT_number 51
_symmetry_cell_setting 'orthorhombic'
loop_
_space_group_symop_operation_xyz
x,y,z
1/2-x,-y,z
1/2+x,-y,-z
-x,y,-z
-x,-y,-z
1/2+x,y,-z
1/2-x,y,z
x,-y,z
loop_
_atom_site_type_symbol
_atom_site_label
_atom_site_fract_x
_atom_site_fract_y
_atom_site_fract_z
Si Si1 0.328471 0.670609 0.882728
Si Si2 0.441738 0.328854 0.355555
Si Si3 0.333257 0.669972 0.476031
Si Si4 0.913357 0.173855 0.397984
Si Si5 0.867552 0.338961 0.267742
Si Si6 0.474055 0.338650 0.205282
Si Si7 0.529913 0.172024 0.076464
O O1 0.250000 0.700466 0.918173
O O2 0.350817 0.500000 0.889596
O O3 0.319738 0.712552 0.799148
O O4 0.389294 0.765956 0.920560
O O5 0.464760 0.500000 0.356534
O O6 0.368305 0.302220 0.398618
O O7 0.506587 0.239340 0.391957
O O8 0.426779 0.280089 0.272803
O O9 0.250000 0.717208 0.471981
O O10 0.341432 0.500000 0.498652
O O11 0.375657 0.771197 0.530805
O O12 0.862884 0.223308 0.331930
O O13 0.919124 0.000000 0.399326
O O14 0.842754 0.500000 0.295709
O O15 0.947292 0.349318 0.237722
O O16 0.447373 0.500000 0.180192
O O17 0.475252 0.233354 0.136685
O O18 0.533926 0.000000 0.087823
O O19 0.500000 0.217060 0.000000
#
# Coordination Sequence:
#
# PCOD8210514 Si02
#       7
#     8   8   8   8   8   8   8
#     4   9  18  32  50  72  97 127 164 202 240 285
#     4   9  18  34  54  73  93 121 162 206 245 291
#     4  10  21  36  52  68  90 125 165 205 251 296
#     4  11  21  31  47  73 101 128 161 200 241 288
#     4   8  15  29  47  68  95 125 156 191 233 282
#     4   8  15  29  50  73  93 117 152 195 239 279
#     4  10  20  32  48  74 105 134 163 194 231 281
#
# _framework density 17.634875999999998
#
# number of rings (size 3 to 8) (size 9 to 14) (size 15 to 20)
#    0.000    2.714    0.000    3.857    0.000    9.714 
#    0.000    1.429    0.000    0.857    0.000    2.000 
#    0.000    0.000    0.000    0.000    0.000    0.000 
#
# Total GULP energy -693984.629247 kJ/mol
# GULP energy per Si atom -12392.582665 kJ/mol
# Density = 1.759474 g / cm^3
# Si number density = 17.634876 Si / 1000 Ang^3
#
#
#
# Elastic Constant Matrix: (Units=GPa)
#
#
# Indices 1 2 3 4 5 6 
#
# 1 64.1253 37.5631 48.5297 0.0000 0.0000 0.0000
# 2 37.5631 87.7175 63.3440 0.0000 0.0000 0.0000
# 3 48.5297 63.3440 128.2780 0.0000 0.0000 0.0000
# 4 0.0000 0.0000 0.0000 11.6140 0.0000 0.0000
# 5 0.0000 0.0000 0.0000 0.0000 14.4619 0.0000
# 6 0.0000 0.0000 0.0000 0.0000 0.0000 9.7995
#
#
#
# Elastic Compliance Matrix: (Units=1/GPa)
#
#
# Indices 1 2 3 4 5 6 
#
# 1 0.023536 -0.005671 -0.006104 0.000000 0.000000 0.000000
# 2 -0.005671 0.019085 -0.007279 0.000000 0.000000 0.000000
# 3 -0.006104 -0.007279 0.013699 0.000000 0.000000 0.000000
# 4 0.000000 0.000000 0.000000 0.086103 0.000000 0.000000
# 5 0.000000 0.000000 0.000000 0.000000 0.069147 0.000000
# 6 0.000000 0.000000 0.000000 0.000000 0.000000 0.102046
#
#
# Mechanical properties :
#
#
# Convention : Reuss Voigt Hill
#
# Bulk Modulus (GPa) = 54.90641 64.33272 59.61957
# Shear Modulus (GPa) = 13.97452 15.88732 14.93092
#
# Velocity S-wave (km/s) = 2.81808 3.00476 2.91292
# Velocity P-wave (km/s) = 6.46463 6.97121 6.72269
#
# Compressibility (1/GPa) = 0.01821281
#
# Stress axis : x y z
#
# Youngs Moduli (GPa) = 42.48897 52.39711 72.99843
#
# Poissons Ratio (x) = 0.29714 0.44555
# Poissons Ratio (y) = 0.24096 0.53134
# Poissons Ratio (z) = 0.25933 0.38139
#
# Static dielectric constant tensor:
#      x y z
#    x 3.667630 0.000000 0.000000 
#    y 0.000000 3.174260 0.000000 
#    z 0.000000 0.000000 3.669540 
# 
# 
# High freq. dielectric constant tensor:
#      x y z
#    x 1.654830 0.000000 0.000000 
#    y 0.000000 1.671820 0.000000 
#    z 0.000000 0.000000 1.678610 
# 
# From -- ./inp_files/30452.got.cif
#   From: 2010.03.12/outbox.cif.g09.slc.cpg/sg51_16_cif.got.tgz:30452.got - 2010.04.16 13:43:02.
