data_PCOD8210008
_publ_section_title
;
Structure prediction by ZEFSAII (Michael W. Deem and Ramdas Pophale) SiO2 
 PCOD8210008
Probable space group: P M M A
;
_chemical_formula_sum "Si O2"
_cell_formula_units_Z 40
_cell_length_a 20.505773
_cell_length_b 8.692560
_cell_length_c 11.556885
_cell_angle_alpha 90.000000
_cell_angle_beta 90.000000
_cell_angle_gamma 90.000000
_cell_volume 2059.987733
_symmetry_space_group_name_H-M "P M M A"
_symmetry_group_IT_number 51
_symmetry_cell_setting 'orthorhombic'
loop_
_space_group_symop_operation_xyz
x,y,z
1/2-x,-y,z
1/2+x,-y,-z
-x,y,-z
-x,-y,-z
1/2+x,y,-z
1/2-x,y,z
x,-y,z
loop_
_atom_site_type_symbol
_atom_site_label
_atom_site_fract_x
_atom_site_fract_y
_atom_site_fract_z
Si Si1 0.503748 0.182118 0.635210
Si Si2 0.627471 0.817812 0.241388
Si Si3 0.750000 0.181892 0.636669
Si Si4 0.627315 0.318882 0.761853
Si Si5 0.750000 0.816062 0.378675
Si Si6 0.826237 0.182167 0.991531
O O1 0.500000 0.229105 0.500000
O O2 0.439710 0.241372 0.702962
O O3 0.562132 0.267436 0.698312
O O4 0.513753 0.000000 0.646859
O O5 0.686281 0.748525 0.316621
O O6 0.638624 0.764556 0.109751
O O7 0.629512 0.000000 0.248464
O O8 0.686623 0.239570 0.699060
O O9 0.750000 0.247701 0.507824
O O10 0.750000 0.000000 0.638752
O O11 0.634130 0.500000 0.755155
O O12 0.630425 0.265132 0.894617
O O13 0.750000 0.000000 0.374648
O O14 0.750000 0.233530 0.989624
O O15 0.830441 0.000000 0.974349
#
# Coordination Sequence:
#
# PCOD8210008 Si02
#       6
#     8   8   4   8   4   8
#     4  10  21  39  62  89 121 157 199 244 293 353
#     4   9  17  32  58  91 120 147 189 245 295 341
#     4  11  21  36  61  88 114 149 198 249 296 353
#     4  12  25  39  57  83 120 159 197 243 296 353
#     4   9  16  30  57  92 118 139 182 245 302 345
#     4  10  19  35  61  88 116 151 195 245 293 344
#
# _framework density 19.417591999999999
#
# number of rings (size 3 to 8) (size 9 to 14) (size 15 to 20)
#    0.000    1.800    2.000    3.300    0.000    4.400 
#    0.000    5.000    0.000    2.400    0.000    0.000 
#    0.000    0.000    0.000    0.000    0.000    0.000 
#
# Total GULP energy -495980.793433 kJ/mol
# GULP energy per Si atom -12399.519836 kJ/mol
# Density = 1.937340 g / cm^3
# Si number density = 19.417592 Si / 1000 Ang^3
#
#
#
# Elastic Constant Matrix: (Units=GPa)
#
#
# Indices 1 2 3 4 5 6 
#
# 1 129.2254 19.0954 67.6222 0.0000 0.0000 0.0000
# 2 19.0954 43.7154 29.3271 0.0000 0.0000 0.0000
# 3 67.6222 29.3271 168.8928 0.0000 0.0000 0.0000
# 4 0.0000 0.0000 0.0000 -4.9286 0.0000 0.0000
# 5 0.0000 0.0000 0.0000 0.0000 47.8822 0.0000
# 6 0.0000 0.0000 0.0000 0.0000 0.0000 11.5235
#
#
#
# Elastic Compliance Matrix: (Units=1/GPa)
#
#
# Indices 1 2 3 4 5 6 
#
# 1 0.009926 -0.001890 -0.003646 0.000000 0.000000 0.000000
# 2 -0.001890 0.026251 -0.003802 0.000000 0.000000 0.000000
# 3 -0.003646 -0.003802 0.008041 0.000000 0.000000 0.000000
# 4 0.000000 0.000000 0.000000 -0.202899 0.000000 0.000000
# 5 0.000000 0.000000 0.000000 0.000000 0.020885 0.000000
# 6 0.000000 0.000000 0.000000 0.000000 0.000000 0.086779
#
#
# Mechanical properties :
#
#
# Convention : Reuss Voigt Hill
#
# Bulk Modulus (GPa) = 39.14990 63.76922 51.45956
# Shear Modulus (GPa) = -209.82928 25.94803 -91.94063
#
# Velocity S-wave (km/s) = -10.40654 3.65953 -6.88854
# Velocity P-wave (km/s) = 11.14401 7.12520 6.05889
#
# Compressibility (1/GPa) = 0.02554285
#
# Stress axis : x y z
#
# Youngs Moduli (GPa) = 100.75054 38.09359 124.36531
#
# Poissons Ratio (x) = 0.07198 0.45342
# Poissons Ratio (y) = 0.19038 0.47281
# Poissons Ratio (z) = 0.36733 0.14482
#
# Static dielectric constant tensor:
#      x y z
#    x 3.568410 0.000000 0.000000 
#    y 0.000000 3.157570 0.000000 
#    z 0.000000 0.000000 3.910540 
# 
# 
# High freq. dielectric constant tensor:
#      x y z
#    x 1.765510 0.000000 0.000000 
#    y 0.000000 1.716300 0.000000 
#    z 0.000000 0.000000 1.778690 
# 
# From -- ./inp_files/17942.got.cif
#   From: 2010.03.12/outbox.cif.g09.slc.cpg/sg51_9_cif.got.tgz:17942.got - 2010.04.16 13:43:02.
