data_PCOD8210992
_publ_section_title
;
Structure prediction by ZEFSAII (Michael W. Deem and Ramdas Pophale) SiO2 
 PCOD8210992
Probable space group: P M M A
;
_chemical_formula_sum "Si O2"
_cell_formula_units_Z 48
_cell_length_a 13.613356
_cell_length_b 8.742131
_cell_length_c 21.109822
_cell_angle_alpha 90.000000
_cell_angle_beta 90.000000
_cell_angle_gamma 90.000000
_cell_volume 2512.274459
_symmetry_space_group_name_H-M "P M M A"
_symmetry_group_IT_number 51
_symmetry_cell_setting 'orthorhombic'
loop_
_space_group_symop_operation_xyz
x,y,z
1/2-x,-y,z
1/2+x,-y,-z
-x,y,-z
-x,-y,-z
1/2+x,y,-z
1/2-x,y,z
x,-y,z
loop_
_atom_site_type_symbol
_atom_site_label
_atom_site_fract_x
_atom_site_fract_y
_atom_site_fract_z
Si Si1 0.360094 0.319637 0.780133
Si Si2 0.133690 0.328713 0.541030
Si Si3 0.639792 0.176627 0.586245
Si Si4 0.544784 0.175214 0.339654
Si Si5 0.460846 0.681742 0.907928
Si Si6 0.137845 0.820970 0.027723
O O1 0.250000 0.249213 0.776740
O O2 0.352106 0.500000 0.784099
O O3 0.421911 0.277809 0.718516
O O4 0.415908 0.257485 0.842105
O O5 0.250000 0.325484 0.537405
O O6 0.094203 0.500000 0.553666
O O7 0.094328 0.270766 0.472832
O O8 0.103070 0.216868 0.597063
O O9 0.750000 0.230224 0.604091
O O10 0.571062 0.204232 0.647424
O O11 0.638695 0.000000 0.565830
O O12 0.566635 0.000000 0.322702
O O13 0.472806 0.500000 0.909422
O O14 0.567717 0.758974 0.916428
O O15 0.387117 0.732435 0.963242
O O16 0.250000 0.787258 0.047028
O O17 0.118933 0.000000 0.017085
#
# Coordination Sequence:
#
# PCOD8210992 Si02
#       6
#     8   8   8   8   8   8
#     4  10  22  39  56  76 105 139 173 211 258 310
#     4  10  20  33  51  76 104 133 166 208 259 311
#     4   9  19  36  54  72  98 131 168 212 260 309
#     4  11  22  34  52  77 102 133 173 213 256 308
#     4  10  20  35  57  82 109 143 182 223 264 309
#     4  10  20  34  55  84 116 146 177 217 263 311
#
# _framework density 19.106192
#
# number of rings (size 3 to 8) (size 9 to 14) (size 15 to 20)
#    0.000    2.000    0.000    4.500    0.000   10.000 
#    0.000    0.833    0.000    3.000    0.000    0.000 
#    0.000    0.000    0.000    0.000    0.000    0.000 
#
# Total GULP energy -595268.958050 kJ/mol
# GULP energy per Si atom -12401.436626 kJ/mol
# Density = 1.906271 g / cm^3
# Si number density = 19.106192 Si / 1000 Ang^3
#
#
#
# Elastic Constant Matrix: (Units=GPa)
#
#
# Indices 1 2 3 4 5 6 
#
# 1 113.1411 31.1208 64.8468 0.0000 0.0000 0.0000
# 2 31.1208 33.5814 6.9629 0.0000 0.0000 0.0000
# 3 64.8468 6.9629 109.8443 0.0000 0.0000 0.0000
# 4 0.0000 0.0000 0.0000 12.4030 0.0000 0.0000
# 5 0.0000 0.0000 0.0000 0.0000 27.5110 0.0000
# 6 0.0000 0.0000 0.0000 0.0000 0.0000 28.0361
#
#
#
# Elastic Compliance Matrix: (Units=1/GPa)
#
#
# Indices 1 2 3 4 5 6 
#
# 1 0.018923 -0.015423 -0.010194 0.000000 0.000000 0.000000
# 2 -0.015423 0.042745 0.006396 0.000000 0.000000 0.000000
# 3 -0.010194 0.006396 0.014716 0.000000 0.000000 0.000000
# 4 0.000000 0.000000 0.000000 0.080626 0.000000 0.000000
# 5 0.000000 0.000000 0.000000 0.000000 0.036349 0.000000
# 6 0.000000 0.000000 0.000000 0.000000 0.000000 0.035668
#
#
# Mechanical properties :
#
#
# Convention : Reuss Voigt Hill
#
# Bulk Modulus (GPa) = 26.35587 51.38086 38.86837
# Shear Modulus (GPa) = 17.84956 23.83244 20.84100
#
# Velocity S-wave (km/s) = 3.05983 3.53564 3.30631
# Velocity P-wave (km/s) = 5.12911 6.60442 5.91296
#
# Compressibility (1/GPa) = 0.03794221
#
# Stress axis : x y z
#
# Youngs Moduli (GPa) = 52.84441 23.39430 67.95161
#
# Poissons Ratio (x) = 0.36082 0.69269
# Poissons Ratio (y) = 0.81503 -0.43459
# Poissons Ratio (z) = 0.53869 -0.14962
#
# Static dielectric constant tensor:
#      x y z
#    x 3.774580 0.000000 0.000000 
#    y 0.000000 3.550740 0.000000 
#    z 0.000000 0.000000 3.359580 
# 
# 
# High freq. dielectric constant tensor:
#      x y z
#    x 1.757100 0.000000 0.000000 
#    y 0.000000 1.746990 0.000000 
#    z 0.000000 0.000000 1.723690 
# 
# From -- ./inp_files/29450.got.cif
#   From: 2010.03.12/outbox.cif.g09.slc.cpg/sg51_15_cif.got.tgz:29450.got - 2010.04.16 13:43:02.
