data_PCOD8210223
_publ_section_title
;
Structure prediction by ZEFSAII (Michael W. Deem and Ramdas Pophale) SiO2 
 PCOD8210223
Probable space group: P M M A
;
_chemical_formula_sum "Si O2"
_cell_formula_units_Z 64
_cell_length_a 9.303751
_cell_length_b 18.651527
_cell_length_c 23.652952
_cell_angle_alpha 90.000000
_cell_angle_beta 90.000000
_cell_angle_gamma 90.000000
_cell_volume 4104.476963
_symmetry_space_group_name_H-M "P M M A"
_symmetry_group_IT_number 51
_symmetry_cell_setting 'orthorhombic'
loop_
_space_group_symop_operation_xyz
x,y,z
1/2-x,-y,z
1/2+x,-y,-z
-x,y,-z
-x,-y,-z
1/2+x,y,-z
1/2-x,y,z
x,-y,z
loop_
_atom_site_type_symbol
_atom_site_label
_atom_site_fract_x
_atom_site_fract_y
_atom_site_fract_z
Si Si1 0.080795 0.292950 0.943784
Si Si2 0.915258 0.418009 0.886904
Si Si3 0.582912 0.917205 0.445484
Si Si4 0.417821 0.145753 0.672372
Si Si5 0.086036 0.710612 0.729609
Si Si6 0.582062 0.420640 0.756439
Si Si7 0.583745 0.197906 0.162598
Si Si8 0.416152 0.917049 0.224043
O O1 0.250000 0.301940 0.954627
O O2 0.048597 0.231254 0.898093
O O3 0.019152 0.369386 0.924388
O O4 0.000000 0.267420 0.000000
O O5 0.750000 0.394024 0.895564
O O6 0.935526 0.500000 0.906571
O O7 0.960425 0.409980 0.821724
O O8 0.500000 0.886925 0.500000
O O9 0.750000 0.906053 0.457059
O O10 0.531429 0.873353 0.390647
O O11 0.544258 0.000000 0.434872
O O12 0.250000 0.127177 0.681588
O O13 0.446223 0.230343 0.681471
O O14 0.506751 0.098747 0.716615
O O15 0.250000 0.686267 0.728816
O O16 0.043666 0.743535 0.790187
O O17 0.994273 0.639273 0.718112
O O18 0.750000 0.411656 0.748084
O O19 0.533257 0.500000 0.736530
O O20 0.750000 0.175632 0.168494
O O21 0.487630 0.127495 0.172756
O O22 0.250000 0.895077 0.229612
O O23 0.434161 0.000000 0.208720
#
# Coordination Sequence:
#
# PCOD8210223 Si02
#       8
#     8   8   8   8   8   8   8   8
#     4  11  22  35  50  68  88 113 148 186 224 269
#     4   9  18  32  48  66  89 118 150 182 219 265
#     4   9  17  29  45  64  90 128 166 196 225 258
#     4   9  18  31  46  66  95 128 159 188 224 270
#     4   9  16  28  45  66  89 114 149 188 221 263
#     4   9  17  28  43  64  90 119 148 178 219 270
#     4   9  19  34  49  66  89 116 146 178 220 276
#     4  10  20  31  47  73  97 116 144 185 227 265
#
# _framework density 15.59273
#
# number of rings (size 3 to 8) (size 9 to 14) (size 15 to 20)
#    0.000    2.625    1.250    2.625    0.000    5.750 
#    0.000    2.500    0.000    0.375    0.000    0.000 
#    0.000    0.500    0.000    1.125    0.000    2.000 
#
# Total GULP energy -793587.911023 kJ/mol
# GULP energy per Si atom -12399.811110 kJ/mol
# Density = 1.555724 g / cm^3
# Si number density = 15.592730 Si / 1000 Ang^3
#
#
#
# Elastic Constant Matrix: (Units=GPa)
#
#
# Indices 1 2 3 4 5 6 
#
# 1 72.3662 54.9856 43.3090 0.0000 0.0000 0.0000
# 2 54.9856 100.3883 51.7107 0.0000 0.0000 0.0000
# 3 43.3090 51.7107 88.7872 0.0000 0.0000 0.0000
# 4 0.0000 0.0000 0.0000 22.0506 0.0000 0.0000
# 5 0.0000 0.0000 0.0000 0.0000 23.5729 0.0000
# 6 0.0000 0.0000 0.0000 0.0000 0.0000 29.8051
#
#
#
# Elastic Compliance Matrix: (Units=1/GPa)
#
#
# Indices 1 2 3 4 5 6 
#
# 1 0.025883 -0.010962 -0.006241 0.000000 0.000000 0.000000
# 2 -0.010962 0.018873 -0.005645 0.000000 0.000000 0.000000
# 3 -0.006241 -0.005645 0.017595 0.000000 0.000000 0.000000
# 4 0.000000 0.000000 0.000000 0.045350 0.000000 0.000000
# 5 0.000000 0.000000 0.000000 0.000000 0.042422 0.000000
# 6 0.000000 0.000000 0.000000 0.000000 0.000000 0.033551
#
#
# Mechanical properties :
#
#
# Convention : Reuss Voigt Hill
#
# Bulk Modulus (GPa) = 60.04108 62.39470 61.21789
# Shear Modulus (GPa) = 21.28373 22.52148 21.90261
#
# Velocity S-wave (km/s) = 3.69857 3.80459 3.75196
# Velocity P-wave (km/s) = 7.53848 7.70727 7.62334
#
# Compressibility (1/GPa) = 0.01665526
#
# Stress axis : x y z
#
# Youngs Moduli (GPa) = 38.63570 52.98487 56.83535
#
# Poissons Ratio (x) = 0.58083 0.35470
# Poissons Ratio (y) = 0.42353 0.32083
# Poissons Ratio (z) = 0.24112 0.29909
#
# Static dielectric constant tensor:
#      x y z
#    x 2.986830 0.000000 0.000000 
#    y 0.000000 2.959760 0.000000 
#    z 0.000000 0.000000 2.875750 
# 
# 
# High freq. dielectric constant tensor:
#      x y z
#    x 1.603490 0.000000 0.000000 
#    y 0.000000 1.591840 0.000000 
#    z 0.000000 0.000000 1.568410 
# 
# From -- ./inp_files/35089.got.cif
#   From: 2010.03.12/outbox.cif.g09.slc.cpg/sg51_18_cif.got.tgz:35089.got - 2010.04.16 13:43:02.
