data_PCOD8210155
_publ_section_title
;
Structure prediction by ZEFSAII (Michael W. Deem and Ramdas Pophale) SiO2 
 PCOD8210155
Probable space group: P M M A
;
_chemical_formula_sum "Si O2"
_cell_formula_units_Z 56
_cell_length_a 9.247996
_cell_length_b 17.335146
_cell_length_c 22.834527
_cell_angle_alpha 90.000000
_cell_angle_beta 90.000000
_cell_angle_gamma 90.000000
_cell_volume 3660.725436
_symmetry_space_group_name_H-M "P M M A"
_symmetry_group_IT_number 51
_symmetry_cell_setting 'orthorhombic'
loop_
_space_group_symop_operation_xyz
x,y,z
1/2-x,-y,z
1/2+x,-y,-z
-x,y,-z
-x,-y,-z
1/2+x,y,-z
1/2-x,y,z
x,-y,z
loop_
_atom_site_type_symbol
_atom_site_label
_atom_site_fract_x
_atom_site_fract_y
_atom_site_fract_z
Si Si1 0.914231 0.299385 0.224451
Si Si2 0.916521 0.908868 0.059298
Si Si3 0.911919 0.188840 0.849445
Si Si4 0.420677 0.588733 0.672072
Si Si5 0.411339 0.415172 0.882029
Si Si6 0.593624 0.309756 0.950350
Si Si7 0.087469 0.591237 0.444852
O O1 0.750000 0.270996 0.234794
O O2 0.971602 0.348379 0.279932
O O3 0.922819 0.358383 0.171788
O O4 0.010560 0.223142 0.209245
O O5 0.750000 0.879476 0.055070
O O6 0.991975 0.875896 0.118070
O O7 0.921374 0.000000 0.066174
O O8 0.000000 0.883482 0.000000
O O9 0.750000 0.157334 0.833701
O O10 0.894673 0.258619 0.893525
O O11 0.250000 0.594331 0.660969
O O12 0.460181 0.500000 0.690276
O O13 0.503647 0.614225 0.613844
O O14 0.250000 0.414667 0.907551
O O15 0.456393 0.500000 0.860157
O O16 0.516168 0.389964 0.934439
O O17 0.750000 0.328125 0.976588
O O18 0.500000 0.266036 0.000000
O O19 0.250000 0.625779 0.443554
O O20 0.095643 0.500000 0.451307
O O21 0.000000 0.626361 0.500000
#
# Coordination Sequence:
#
# PCOD8210155 Si02
#       7
#     8   8   8   8   8   8   8
#     4   9  17  29  44  60  79 104 134 167 203 243
#     4  10  20  33  50  71  91 109 130 158 195 241
#     4  10  20  32  46  63  83 106 131 160 194 235
#     4   9  16  26  41  60  81 107 141 180 219 256
#     4   9  17  29  43  56  70  91 121 158 198 237
#     4  10  20  31  42  56  72  93 121 152 190 234
#     4   9  16  25  37  54  77 105 137 175 218 259
#
# _framework density 15.297514
#
# number of rings (size 3 to 8) (size 9 to 14) (size 15 to 20)
#    0.000    2.571    0.000    2.571    0.000    8.286 
#    0.000    0.000    0.000    2.571    0.000    0.000 
#    0.000    0.000    0.000    0.000    0.000    0.714 
#
# Total GULP energy -693946.453258 kJ/mol
# GULP energy per Si atom -12391.900951 kJ/mol
# Density = 1.526270 g / cm^3
# Si number density = 15.297514 Si / 1000 Ang^3
#
#
#
# Elastic Constant Matrix: (Units=GPa)
#
#
# Indices 1 2 3 4 5 6 
#
# 1 109.3791 26.3460 45.5907 0.0000 0.0000 0.0000
# 2 26.3460 36.5461 18.2785 0.0000 0.0000 0.0000
# 3 45.5907 18.2785 79.4449 0.0000 0.0000 0.0000
# 4 0.0000 0.0000 0.0000 82.2840 0.0000 0.0000
# 5 0.0000 0.0000 0.0000 0.0000 25.1922 0.0000
# 6 0.0000 0.0000 0.0000 0.0000 0.0000 -3.6876
#
#
#
# Elastic Compliance Matrix: (Units=1/GPa)
#
#
# Indices 1 2 3 4 5 6 
#
# 1 0.013255 -0.006499 -0.006111 0.000000 0.000000 0.000000
# 2 -0.006499 0.034107 -0.004118 0.000000 0.000000 0.000000
# 3 -0.006111 -0.004118 0.017042 0.000000 0.000000 0.000000
# 4 0.000000 0.000000 0.000000 0.012153 0.000000 0.000000
# 5 0.000000 0.000000 0.000000 0.000000 0.039695 0.000000
# 6 0.000000 0.000000 0.000000 0.000000 0.000000 -0.271179
#
#
# Mechanical properties :
#
#
# Convention : Reuss Voigt Hill
#
# Bulk Modulus (GPa) = 32.31232 45.08895 38.70063
# Shear Modulus (GPa) = -44.98237 29.76806 -7.60716
#
# Velocity S-wave (km/s) = -5.42852 4.41607 -2.23240
# Velocity P-wave (km/s) = 4.25715 7.45258 4.32536
#
# Compressibility (1/GPa) = 0.03094795
#
# Stress axis : x y z
#
# Youngs Moduli (GPa) = 75.44171 29.31922 58.67894
#
# Poissons Ratio (x) = 0.19055 0.35861
# Poissons Ratio (y) = 0.49030 0.24163
# Poissons Ratio (z) = 0.46106 0.12073
#
# Static dielectric constant tensor:
#      x y z
#    x 3.418340 0.000000 0.000000 
#    y 0.000000 2.696490 0.000000 
#    z 0.000000 0.000000 2.859190 
# 
# 
# High freq. dielectric constant tensor:
#      x y z
#    x 1.602230 0.000000 0.000000 
#    y 0.000000 1.544320 0.000000 
#    z 0.000000 0.000000 1.560790 
# 
# From -- ./inp_files/32228.got.cif
#   From: 2010.03.12/outbox.cif.g09.slc.cpg/sg51_17_cif.got.tgz:32228.got - 2010.04.16 13:43:02.
