data_PCOD8210315
_publ_section_title
;
Structure prediction by ZEFSAII (Michael W. Deem and Ramdas Pophale) SiO2 
 PCOD8210315
Probable space group: P M M A
;
_chemical_formula_sum "Si O2"
_cell_formula_units_Z 40
_cell_length_a 9.192956
_cell_length_b 9.327895
_cell_length_c 25.953230
_cell_angle_alpha 90.000000
_cell_angle_beta 90.000000
_cell_angle_gamma 90.000000
_cell_volume 2225.513565
_symmetry_space_group_name_H-M "P M M A"
_symmetry_group_IT_number 51
_symmetry_cell_setting 'orthorhombic'
loop_
_space_group_symop_operation_xyz
x,y,z
1/2-x,-y,z
1/2+x,-y,-z
-x,y,-z
-x,-y,-z
1/2+x,y,-z
1/2-x,y,z
x,-y,z
loop_
_atom_site_type_symbol
_atom_site_label
_atom_site_fract_x
_atom_site_fract_y
_atom_site_fract_z
Si Si1 0.590177 0.830189 0.047065
Si Si2 0.414975 0.329067 0.449971
Si Si3 0.079959 0.833494 0.838413
Si Si4 0.917631 0.330917 0.750424
Si Si5 0.414744 0.329301 0.649658
O O1 0.750000 0.763055 0.042799
O O2 0.526276 0.794559 0.103626
O O3 0.598661 0.000000 0.040753
O O4 0.500000 0.761266 0.000000
O O5 0.500000 0.271279 0.500000
O O6 0.250000 0.270033 0.450405
O O7 0.413344 0.500000 0.449708
O O8 0.498217 0.269716 0.399720
O O9 0.250000 0.795916 0.831701
O O10 0.982625 0.740073 0.800980
O O11 0.053218 0.000000 0.826541
O O12 0.750000 0.286893 0.743901
O O13 0.935767 0.500000 0.756129
O O14 0.004903 0.273241 0.700789
O O15 0.250000 0.269678 0.648805
O O16 0.414033 0.500000 0.648430
#
# Coordination Sequence:
#
# PCOD8210315 Si02
#       5
#     8   8   8   8   8
#     4   8  14  25  42  65  91 116 143 178 221 268
#     4   9  15  22  33  51  77 108 142 181 224 269
#     4   9  18  32  49  70  95 121 151 188 228 271
#     4  10  20  32  46  66  92 122 156 192 229 272
#     4   9  16  26  40  57  79 111 149 185 224 271
#
# _framework density 17.973379999999999
#
# number of rings (size 3 to 8) (size 9 to 14) (size 15 to 20)
#    0.000    3.000    0.000    3.000    0.000    7.200 
#    0.000    2.000    0.000    0.600    0.000    0.000 
#    0.000    0.800    0.000    3.000    0.000    6.600 
#
# Total GULP energy -495835.554752 kJ/mol
# GULP energy per Si atom -12395.888869 kJ/mol
# Density = 1.793247 g / cm^3
# Si number density = 17.973380 Si / 1000 Ang^3
#
#
#
# Elastic Constant Matrix: (Units=GPa)
#
#
# Indices 1 2 3 4 5 6 
#
# 1 152.4937 20.8531 99.4208 0.0000 0.0000 0.0000
# 2 20.8531 9.8659 22.0915 0.0000 0.0000 0.0000
# 3 99.4208 22.0915 180.4077 0.0000 0.0000 0.0000
# 4 0.0000 0.0000 0.0000 -33.0803 0.0000 0.0000
# 5 0.0000 0.0000 0.0000 0.0000 42.9384 0.0000
# 6 0.0000 0.0000 0.0000 0.0000 0.0000 16.1167
#
#
#
# Elastic Compliance Matrix: (Units=1/GPa)
#
#
# Indices 1 2 3 4 5 6 
#
# 1 0.011470 -0.013901 -0.004619 0.000000 0.000000 0.000000
# 2 -0.013901 0.156499 -0.011503 0.000000 0.000000 0.000000
# 3 -0.004619 -0.011503 0.009497 0.000000 0.000000 0.000000
# 4 0.000000 0.000000 0.000000 -0.030229 0.000000 0.000000
# 5 0.000000 0.000000 0.000000 0.000000 0.023289 0.000000
# 6 0.000000 0.000000 0.000000 0.000000 0.000000 0.062048
#
#
# Mechanical properties :
#
#
# Convention : Reuss Voigt Hill
#
# Bulk Modulus (GPa) = 8.51644 69.72199 39.11922
# Shear Modulus (GPa) = 15.07121 18.55509 16.81315
#
# Velocity S-wave (km/s) = 2.89888 3.21653 3.06183
# Velocity P-wave (km/s) = 3.99416 7.25746 5.85765
#
# Compressibility (1/GPa) = 0.11741996
#
# Stress axis : x y z
#
# Youngs Moduli (GPa) = 87.18558 6.38982 105.29803
#
# Poissons Ratio (x) = 0.08883 0.48633
# Poissons Ratio (y) = 1.21199 1.21124
# Poissons Ratio (z) = 0.40268 0.07350
#
# Static dielectric constant tensor:
#      x y z
#    x 3.588870 0.000000 0.000000 
#    y 0.000000 2.611360 0.000000 
#    z 0.000000 0.000000 3.583030 
# 
# 
# High freq. dielectric constant tensor:
#      x y z
#    x 1.705970 0.000000 0.000000 
#    y 0.000000 1.616570 0.000000 
#    z 0.000000 0.000000 1.716310 
# 
# From -- ./inp_files/31378.got.cif
#   From: 2010.03.12/outbox.cif.g09.slc.cpg/sg51_16_cif.got.tgz:31378.got - 2010.04.16 13:43:02.
