data_PCOD8210811
_publ_section_title
;
Structure prediction by ZEFSAII (Michael W. Deem and Ramdas Pophale) SiO2 
 PCOD8210811
Probable space group: P M M A
;
_chemical_formula_sum "Si O2"
_cell_formula_units_Z 48
_cell_length_a 9.528455
_cell_length_b 9.090277
_cell_length_c 31.098216
_cell_angle_alpha 90.000000
_cell_angle_beta 90.000000
_cell_angle_gamma 90.000000
_cell_volume 2693.612261
_symmetry_space_group_name_H-M "P M M A"
_symmetry_group_IT_number 51
_symmetry_cell_setting 'orthorhombic'
loop_
_space_group_symop_operation_xyz
x,y,z
1/2-x,-y,z
1/2+x,-y,-z
-x,y,-z
-x,-y,-z
1/2+x,y,-z
1/2-x,y,z
x,-y,z
loop_
_atom_site_type_symbol
_atom_site_label
_atom_site_fract_x
_atom_site_fract_y
_atom_site_fract_z
Si Si1 0.586939 0.672724 0.289193
Si Si2 0.916720 0.834326 0.374449
Si Si3 0.412449 0.671594 0.541039
Si Si4 0.584711 0.169887 0.784200
Si Si5 0.416670 0.336539 0.132071
Si Si6 0.405942 0.324754 0.038172
O O1 0.750000 0.711053 0.281466
O O2 0.562442 0.500000 0.292977
O O3 0.529563 0.746017 0.332933
O O4 0.497209 0.735106 0.250354
O O5 0.750000 0.831922 0.375239
O O6 0.972825 0.757283 0.417664
O O7 0.975563 0.000000 0.372253
O O8 0.500000 0.725529 0.500000
O O9 0.250000 0.708580 0.532468
O O10 0.434988 0.500000 0.549966
O O11 0.750000 0.196251 0.777937
O O12 0.534375 0.223509 0.831237
O O13 0.544158 0.000000 0.779068
O O14 0.250000 0.345262 0.129596
O O15 0.476106 0.500000 0.142629
O O16 0.469741 0.281362 0.085099
O O17 0.250000 0.259251 0.032484
O O18 0.400812 0.500000 0.035216
O O19 0.500000 0.257208 0.000000
#
# Coordination Sequence:
#
# PCOD8210811 Si02
#       6
#     8   8   8   8   8   8
#     4  10  20  34  53  75  97 124 160 199 239 285
#     4   9  17  30  49  71  95 125 159 193 232 281
#     4   9  17  30  48  69  93 122 157 195 233 275
#     4  10  20  33  50  72  97 126 160 197 239 286
#     4   8  14  26  44  64  88 120 155 189 229 279
#     4   8  13  22  38  60  84 111 145 186 230 272
#
# _framework density 17.819935999999998
#
# number of rings (size 3 to 8) (size 9 to 14) (size 15 to 20)
#    0.000    3.000    0.000    2.500    0.000    4.333 
#    0.000    1.667    0.000    6.500    0.000    0.000 
#    0.000    0.000    0.000    0.000    0.000    0.000 
#
# Total GULP energy -595045.685490 kJ/mol
# GULP energy per Si atom -12396.785114 kJ/mol
# Density = 1.777938 g / cm^3
# Si number density = 17.819936 Si / 1000 Ang^3
#
#
#
# Elastic Constant Matrix: (Units=GPa)
#
#
# Indices 1 2 3 4 5 6 
#
# 1 39.3032 27.2804 48.1405 0.0000 0.0000 0.0000
# 2 27.2804 81.3203 62.9815 0.0000 0.0000 0.0000
# 3 48.1405 62.9815 175.7659 0.0000 0.0000 0.0000
# 4 0.0000 0.0000 0.0000 11.2748 0.0000 0.0000
# 5 0.0000 0.0000 0.0000 0.0000 30.6203 0.0000
# 6 0.0000 0.0000 0.0000 0.0000 0.0000 16.8185
#
#
#
# Elastic Compliance Matrix: (Units=1/GPa)
#
#
# Indices 1 2 3 4 5 6 
#
# 1 0.040974 -0.006995 -0.008716 0.000000 0.000000 0.000000
# 2 -0.006995 0.018215 -0.004611 0.000000 0.000000 0.000000
# 3 -0.008716 -0.004611 0.009729 0.000000 0.000000 0.000000
# 4 0.000000 0.000000 0.000000 0.088693 0.000000 0.000000
# 5 0.000000 0.000000 0.000000 0.000000 0.032658 0.000000
# 6 0.000000 0.000000 0.000000 0.000000 0.000000 0.059458
#
#
# Mechanical properties :
#
#
# Convention : Reuss Voigt Hill
#
# Bulk Modulus (GPa) = 35.36844 63.68824 49.52834
# Shear Modulus (GPa) = 16.67801 22.27520 19.47661
#
# Velocity S-wave (km/s) = 3.06260 3.53939 3.30959
# Velocity P-wave (km/s) = 5.69182 7.24710 6.51603
#
# Compressibility (1/GPa) = 0.02827380
#
# Stress axis : x y z
#
# Youngs Moduli (GPa) = 24.40561 54.90029 102.78783
#
# Poissons Ratio (x) = 0.38404 0.89588
# Poissons Ratio (y) = 0.17072 0.47395
# Poissons Ratio (z) = 0.21272 0.25314
#
# Static dielectric constant tensor:
#      x y z
#    x 2.962130 0.000000 0.000000 
#    y 0.000000 3.236480 0.000000 
#    z 0.000000 0.000000 3.669820 
# 
# 
# High freq. dielectric constant tensor:
#      x y z
#    x 1.646450 0.000000 0.000000 
#    y 0.000000 1.675870 0.000000 
#    z 0.000000 0.000000 1.708280 
# 
# From -- ./inp_files/35315.got.cif
#   From: 2010.03.12/outbox.cif.g09.slc.cpg/sg51_18_cif.got.tgz:35315.got - 2010.04.16 13:43:02.
