data_PCOD8210218
_publ_section_title
;
Structure prediction by ZEFSAII (Michael W. Deem and Ramdas Pophale) SiO2 
 PCOD8210218
Probable space group: P M M A
;
_chemical_formula_sum "Si O2"
_cell_formula_units_Z 48
_cell_length_a 20.244722
_cell_length_b 9.147396
_cell_length_c 15.054310
_cell_angle_alpha 90.000000
_cell_angle_beta 90.000000
_cell_angle_gamma 90.000000
_cell_volume 2787.854814
_symmetry_space_group_name_H-M "P M M A"
_symmetry_group_IT_number 51
_symmetry_cell_setting 'orthorhombic'
loop_
_space_group_symop_operation_xyz
x,y,z
1/2-x,-y,z
1/2+x,-y,-z
-x,y,-z
-x,-y,-z
1/2+x,y,-z
1/2-x,y,z
x,-y,z
loop_
_atom_site_type_symbol
_atom_site_label
_atom_site_fract_x
_atom_site_fract_y
_atom_site_fract_z
Si Si1 0.176262 0.170227 0.126511
Si Si2 0.346524 0.336805 0.301830
Si Si3 0.322701 0.667042 0.498659
Si Si4 0.995549 0.336096 0.728194
Si Si5 0.047328 0.673015 0.079346
Si Si6 0.054262 0.827387 0.571182
O O1 0.250000 0.198205 0.086302
O O2 0.176964 0.223112 0.228176
O O3 0.119736 0.253652 0.070141
O O4 0.158808 0.000000 0.125167
O O5 0.324865 0.500000 0.271537
O O6 0.314541 0.293358 0.394964
O O7 0.424524 0.332616 0.317431
O O8 0.250000 0.687013 0.541976
O O9 0.347745 0.500000 0.509463
O O10 0.373034 0.776034 0.544986
O O11 0.025233 0.500000 0.727540
O O12 0.988632 0.278588 0.829469
O O13 0.041937 0.231889 0.670428
O O14 0.059232 0.500000 0.078809
O O15 0.000000 0.725056 0.000000
O O16 0.000000 0.769337 0.500000
O O17 0.052677 0.000000 0.575156
#
# Coordination Sequence:
#
# PCOD8210218 Si02
#       6
#     8   8   8   8   8   8
#     4  10  20  31  46  73 108 140 167 199 247 309
#     4   9  17  30  49  72  99 132 169 207 249 298
#     4  10  20  33  50  71  97 133 176 219 259 299
#     4   9  17  31  53  76  98 129 166 209 252 296
#     4   9  19  36  57  80 103 129 168 215 261 306
#     4  11  22  33  48  72 103 138 173 208 247 297
#
# _framework density 17.217538999999999
#
# number of rings (size 3 to 8) (size 9 to 14) (size 15 to 20)
#    0.000    2.333    1.667    2.500    0.000    6.667 
#    0.000    0.000    0.000    1.000    0.000    2.333 
#    0.000    0.000    0.000    0.000    0.000    0.000 
#
# Total GULP energy -595048.711992 kJ/mol
# GULP energy per Si atom -12396.848167 kJ/mol
# Density = 1.717835 g / cm^3
# Si number density = 17.217539 Si / 1000 Ang^3
#
#
#
# Elastic Constant Matrix: (Units=GPa)
#
#
# Indices 1 2 3 4 5 6 
#
# 1 109.8078 47.1343 54.5112 0.0000 0.0000 0.0000
# 2 47.1343 67.2007 37.1186 0.0000 0.0000 0.0000
# 3 54.5112 37.1186 77.8088 0.0000 0.0000 0.0000
# 4 0.0000 0.0000 0.0000 13.4788 0.0000 0.0000
# 5 0.0000 0.0000 0.0000 0.0000 11.8032 0.0000
# 6 0.0000 0.0000 0.0000 0.0000 0.0000 29.9542
#
#
#
# Elastic Compliance Matrix: (Units=1/GPa)
#
#
# Indices 1 2 3 4 5 6 
#
# 1 0.015975 -0.006820 -0.007938 0.000000 0.000000 0.000000
# 2 -0.006820 0.023116 -0.006250 0.000000 0.000000 0.000000
# 3 -0.007938 -0.006250 0.021395 0.000000 0.000000 0.000000
# 4 0.000000 0.000000 0.000000 0.074190 0.000000 0.000000
# 5 0.000000 0.000000 0.000000 0.000000 0.084723 0.000000
# 6 0.000000 0.000000 0.000000 0.000000 0.000000 0.033384
#
#
# Mechanical properties :
#
#
# Convention : Reuss Voigt Hill
#
# Bulk Modulus (GPa) = 54.14117 59.14951 56.64534
# Shear Modulus (GPa) = 16.61370 18.78412 17.69891
#
# Velocity S-wave (km/s) = 3.10970 3.30659 3.20966
# Velocity P-wave (km/s) = 6.66388 7.00049 6.83426
#
# Compressibility (1/GPa) = 0.01847023
#
# Stress axis : x y z
#
# Youngs Moduli (GPa) = 62.59756 43.25937 46.74041
#
# Poissons Ratio (x) = 0.29503 0.37104
# Poissons Ratio (y) = 0.42692 0.29211
# Poissons Ratio (z) = 0.49692 0.27035
#
# Static dielectric constant tensor:
#      x y z
#    x 3.227920 0.000000 0.000000 
#    y 0.000000 3.121380 0.000000 
#    z 0.000000 0.000000 3.015450 
# 
# 
# High freq. dielectric constant tensor:
#      x y z
#    x 1.663170 0.000000 0.000000 
#    y 0.000000 1.660510 0.000000 
#    z 0.000000 0.000000 1.633640 
# 
# From -- ./inp_files/25480.got.cif
#   From: 2010.03.12/outbox.cif.g09.slc.cpg/sg51_13_cif.got.tgz:25480.got - 2010.04.16 13:43:02.
