data_PCOD8210043
_publ_section_title
;
Structure prediction by ZEFSAII (Michael W. Deem and Ramdas Pophale) SiO2 
 PCOD8210043
Probable space group: P M M A
;
_chemical_formula_sum "Si O2"
_cell_formula_units_Z 32
_cell_length_a 15.575437
_cell_length_b 11.877845
_cell_length_c 8.795480
_cell_angle_alpha 90.000000
_cell_angle_beta 90.000000
_cell_angle_gamma 90.000000
_cell_volume 1627.186901
_symmetry_space_group_name_H-M "P M M A"
_symmetry_group_IT_number 51
_symmetry_cell_setting 'orthorhombic'
loop_
_space_group_symop_operation_xyz
x,y,z
1/2-x,-y,z
1/2+x,-y,-z
-x,y,-z
-x,-y,-z
1/2+x,y,-z
1/2-x,y,z
x,-y,z
loop_
_atom_site_type_symbol
_atom_site_label
_atom_site_fract_x
_atom_site_fract_y
_atom_site_fract_z
Si Si1 0.845251 0.500000 0.195200
Si Si2 0.750000 0.873658 0.698577
Si Si3 0.084222 0.500000 0.107390
Si Si4 0.903718 0.277502 0.340046
Si Si5 0.750000 0.875283 0.337505
Si Si6 0.406276 0.720621 0.310805
O O1 0.750000 0.500000 0.266654
O O2 0.898843 0.392461 0.247465
O O3 0.837514 0.500000 0.012314
O O4 0.750000 0.882347 0.518090
O O5 0.664055 0.808476 0.754207
O O6 0.750000 0.000000 0.768292
O O7 0.093780 0.391574 0.212527
O O8 0.000000 0.500000 0.000000
O O9 0.834506 0.188614 0.277718
O O10 0.884079 0.308949 0.514888
O O11 0.998168 0.224829 0.310579
O O12 0.750000 0.000000 0.266406
#
# Coordination Sequence:
#
# PCOD8210043 Si02
#       6
#     4   4   4   8   4   8
#     4  12  23  35  55  82 116 148 183 224 281 341
#     4   9  20  37  57  82 112 147 188 233 274 327
#     4  12  23  37  54  85 116 149 182 232 274 338
#     4  10  19  36  58  83 112 147 181 230 280 333
#     4   9  18  33  55  86 112 137 184 237 284 325
#     4  10  21  36  58  84 114 146 187 226 279 333
#
# _framework density 19.665842000000001
#
# number of rings (size 3 to 8) (size 9 to 14) (size 15 to 20)
#    0.000    1.750    3.750    0.750    1.750    3.000 
#    0.000    5.000    0.000    3.750    0.000    0.000 
#    0.000    0.000    0.000    0.000    0.000    0.000 
#
# Total GULP energy -396693.610781 kJ/mol
# GULP energy per Si atom -12396.675337 kJ/mol
# Density = 1.962108 g / cm^3
# Si number density = 19.665842 Si / 1000 Ang^3
#
#
#
# Elastic Constant Matrix: (Units=GPa)
#
#
# Indices 1 2 3 4 5 6 
#
# 1 163.4329 83.5612 28.9910 0.0000 0.0000 0.0000
# 2 83.5612 168.7233 42.1132 0.0000 0.0000 0.0000
# 3 28.9910 42.1132 57.7230 0.0000 0.0000 0.0000
# 4 0.0000 0.0000 0.0000 -10.5020 0.0000 0.0000
# 5 0.0000 0.0000 0.0000 0.0000 20.4022 0.0000
# 6 0.0000 0.0000 0.0000 0.0000 0.0000 18.5844
#
#
#
# Elastic Compliance Matrix: (Units=1/GPa)
#
#
# Indices 1 2 3 4 5 6 
#
# 1 0.008289 -0.003749 -0.001428 0.000000 0.000000 0.000000
# 2 -0.003749 0.008942 -0.004641 0.000000 0.000000 0.000000
# 3 -0.001428 -0.004641 0.021427 0.000000 0.000000 0.000000
# 4 0.000000 0.000000 0.000000 -0.095220 0.000000 0.000000
# 5 0.000000 0.000000 0.000000 0.000000 0.049014 0.000000
# 6 0.000000 0.000000 0.000000 0.000000 0.000000 0.053808
#
#
# Mechanical properties :
#
#
# Convention : Reuss Voigt Hill
#
# Bulk Modulus (GPa) = 52.56937 77.68999 65.12968
# Shear Modulus (GPa) = 69.21717 21.37786 45.29752
#
# Velocity S-wave (km/s) = 5.93911 3.30063 4.80454
# Velocity P-wave (km/s) = 8.59186 7.35638 7.99801
#
# Compressibility (1/GPa) = 0.01902248
#
# Stress axis : x y z
#
# Youngs Moduli (GPa) = 120.64735 111.83518 46.66942
#
# Poissons Ratio (x) = 0.41922 0.06665
# Poissons Ratio (y) = 0.45225 0.21659
# Poissons Ratio (z) = 0.17229 0.51902
#
# Static dielectric constant tensor:
#      x y z
#    x 3.931550 0.000000 0.000000 
#    y 0.000000 3.578800 0.000000 
#    z 0.000000 0.000000 3.428000 
# 
# 
# High freq. dielectric constant tensor:
#      x y z
#    x 1.787930 0.000000 0.000000 
#    y 0.000000 1.751250 0.000000 
#    z 0.000000 0.000000 1.737980 
# 
# From -- ./inp_files/7644.got.cif
#   From: 2010.03.12/outbox.cif.g09.slc.cpg/sg51_4_cif.got.tgz:7644.got - 2010.04.16 13:43:02.
