data_PCOD8210088
_publ_section_title
;
Structure prediction by ZEFSAII (Michael W. Deem and Ramdas Pophale) SiO2 
 PCOD8210088
Probable space group: P M M A
;
_chemical_formula_sum "Si O2"
_cell_formula_units_Z 48
_cell_length_a 15.015672
_cell_length_b 8.974174
_cell_length_c 19.023975
_cell_angle_alpha 90.000000
_cell_angle_beta 90.000000
_cell_angle_gamma 90.000000
_cell_volume 2563.542521
_symmetry_space_group_name_H-M "P M M A"
_symmetry_group_IT_number 51
_symmetry_cell_setting 'orthorhombic'
loop_
_space_group_symop_operation_xyz
x,y,z
1/2-x,-y,z
1/2+x,-y,-z
-x,y,-z
-x,-y,-z
1/2+x,y,-z
1/2-x,y,z
x,-y,z
loop_
_atom_site_type_symbol
_atom_site_label
_atom_site_fract_x
_atom_site_fract_y
_atom_site_fract_z
Si Si1 0.852651 0.826262 0.171898
Si Si2 0.250000 0.177496 0.571781
Si Si3 0.250000 0.676362 0.420937
Si Si4 0.501195 0.324581 0.080658
Si Si5 0.598504 0.174782 0.324558
Si Si6 0.104355 0.825435 0.327935
Si Si7 0.647455 0.172285 0.830307
O O1 0.750000 0.798297 0.153749
O O2 0.875224 0.757941 0.248683
O O3 0.910406 0.742894 0.114243
O O4 0.877445 0.000000 0.169382
O O5 0.250000 0.259782 0.498563
O O6 0.336738 0.233967 0.614483
O O7 0.250000 0.000000 0.559799
O O8 0.250000 0.500000 0.423384
O O9 0.161969 0.731791 0.381949
O O10 0.504765 0.500000 0.089182
O O11 0.411578 0.267261 0.117027
O O12 0.500000 0.274379 0.000000
O O13 0.497690 0.215475 0.344189
O O14 0.613144 0.000000 0.318084
O O15 0.128855 0.776253 0.249221
O O16 0.124318 0.000000 0.338813
O O17 0.750000 0.200719 0.849462
O O18 0.620973 0.000000 0.838470
#
# Coordination Sequence:
#
# PCOD8210088 Si02
#       7
#     8   4   4   8   8   8   8
#     4  10  19  36  64  93 117 146 193 251 298 342
#     4  10  20  38  62  88 117 150 189 234 287 346
#     4  12  26  40  54  82 123 160 193 236 287 342
#     4  11  25  41  56  82 124 166 198 234 287 353
#     4   9  17  33  63  93 113 141 188 240 288 342
#     4  10  19  37  63  88 114 148 192 243 291 343
#     4  10  20  37  64  92 115 145 194 252 299 343
#
# _framework density 18.724088999999999
#
# number of rings (size 3 to 8) (size 9 to 14) (size 15 to 20)
#    0.000    1.833    3.333    1.250    0.000    4.000 
#    0.000    8.333    0.000    0.000    0.000    0.000 
#    0.000    0.000    0.000    0.000    0.000    0.000 
#
# Total GULP energy -595331.815759 kJ/mol
# GULP energy per Si atom -12402.746162 kJ/mol
# Density = 1.868147 g / cm^3
# Si number density = 18.724089 Si / 1000 Ang^3
#
#
#
# Elastic Constant Matrix: (Units=GPa)
#
#
# Indices 1 2 3 4 5 6 
#
# 1 140.5794 49.8794 91.1227 0.0000 0.0000 0.0000
# 2 49.8794 65.5741 68.5474 0.0000 0.0000 0.0000
# 3 91.1227 68.5474 177.8062 0.0000 0.0000 0.0000
# 4 0.0000 0.0000 0.0000 -141.3251 0.0000 0.0000
# 5 0.0000 0.0000 0.0000 0.0000 29.0612 0.0000
# 6 0.0000 0.0000 0.0000 0.0000 0.0000 -18.9947
#
#
#
# Elastic Compliance Matrix: (Units=1/GPa)
#
#
# Indices 1 2 3 4 5 6 
#
# 1 0.011322 -0.004266 -0.004158 0.000000 0.000000 0.000000
# 2 -0.004266 0.027151 -0.008281 0.000000 0.000000 0.000000
# 3 -0.004158 -0.008281 0.010947 0.000000 0.000000 0.000000
# 4 0.000000 0.000000 0.000000 -0.007076 0.000000 0.000000
# 5 0.000000 0.000000 0.000000 0.000000 0.034410 0.000000
# 6 0.000000 0.000000 0.000000 0.000000 0.000000 -0.052646
#
#
# Mechanical properties :
#
#
# Convention : Reuss Voigt Hill
#
# Bulk Modulus (GPa) = 62.45601 89.22874 75.84237
# Shear Modulus (GPa) = 79.54738 -14.62436 32.46151
#
# Velocity S-wave (km/s) = 6.52504 -2.79775 4.16826
# Velocity P-wave (km/s) = 9.49719 6.10913 7.98493
#
# Compressibility (1/GPa) = 0.01601127
#
# Stress axis : x y z
#
# Youngs Moduli (GPa) = 88.32302 36.83042 91.34562
#
# Poissons Ratio (x) = 0.15711 0.37980
# Poissons Ratio (y) = 0.37678 0.75645
# Poissons Ratio (z) = 0.36723 0.30500
#
# Static dielectric constant tensor:
#      x y z
#    x 3.829270 0.000000 0.000000 
#    y 0.000000 3.153930 0.000000 
#    z 0.000000 0.000000 3.504700 
# 
# 
# High freq. dielectric constant tensor:
#      x y z
#    x 1.746730 0.000000 0.000000 
#    y 0.000000 1.697770 0.000000 
#    z 0.000000 0.000000 1.730710 
# 
# From -- ./inp_files/29578.got.cif
#   From: 2010.03.12/outbox.cif.g09.slc.cpg/sg51_15_cif.got.tgz:29578.got - 2010.04.16 13:43:02.
