data_PCOD8210119
_publ_section_title
;
Structure prediction by ZEFSAII (Michael W. Deem and Ramdas Pophale) SiO2 
 PCOD8210119
Probable space group: P M M A
;
_chemical_formula_sum "Si O2"
_cell_formula_units_Z 40
_cell_length_a 16.276179
_cell_length_b 8.684773
_cell_length_c 13.774658
_cell_angle_alpha 90.000000
_cell_angle_beta 90.000000
_cell_angle_gamma 90.000000
_cell_volume 1947.115679
_symmetry_space_group_name_H-M "P M M A"
_symmetry_group_IT_number 51
_symmetry_cell_setting 'orthorhombic'
loop_
_space_group_symop_operation_xyz
x,y,z
1/2-x,-y,z
1/2+x,-y,-z
-x,y,-z
-x,-y,-z
1/2+x,y,-z
1/2-x,y,z
x,-y,z
loop_
_atom_site_type_symbol
_atom_site_label
_atom_site_fract_x
_atom_site_fract_y
_atom_site_fract_z
Si Si1 0.908710 0.181124 0.135771
Si Si2 0.935450 0.322259 0.766965
Si Si3 0.156529 0.825646 0.070568
Si Si4 0.250000 0.183590 0.531549
Si Si5 0.079310 0.818187 0.441626
Si Si6 0.250000 0.817336 0.750975
O O1 0.830149 0.243763 0.194065
O O2 0.984135 0.278533 0.173721
O O3 0.922925 0.000000 0.154158
O O4 0.899360 0.216595 0.021712
O O5 0.934908 0.500000 0.738198
O O6 0.859515 0.285001 0.838137
O O7 0.929262 0.223089 0.670278
O O8 0.250000 0.808459 0.036478
O O9 0.137340 0.000000 0.103856
O O10 0.333449 0.248202 0.481185
O O11 0.250000 0.245332 0.641427
O O12 0.250000 0.000000 0.527634
O O13 0.000000 0.750826 0.500000
O O14 0.080011 0.000000 0.454023
O O15 0.250000 0.000000 0.752997
#
# Coordination Sequence:
#
# PCOD8210119 Si02
#       6
#     8   8   8   4   8   4
#     4  10  19  37  64  92 118 151 198 253 304 352
#     4  12  26  39  56  85 125 168 202 238 297 366
#     4  10  21  39  63  91 119 153 201 254 302 352
#     4   9  18  32  58  91 116 144 189 249 312 365
#     4  10  21  40  64  90 117 153 204 261 310 354
#     4   9  16  32  62  95 118 140 187 253 312 357
#
# _framework density 20.543206999999999
#
# number of rings (size 3 to 8) (size 9 to 14) (size 15 to 20)
#    0.000    1.800    1.000    3.600    1.400    7.200 
#    0.000    0.500    0.000    1.200    0.000    0.000 
#    0.000    0.000    0.000    0.000    0.000    0.000 
#
# Total GULP energy -496044.428067 kJ/mol
# GULP energy per Si atom -12401.110702 kJ/mol
# Density = 2.049645 g / cm^3
# Si number density = 20.543207 Si / 1000 Ang^3
#
#
#
# Elastic Constant Matrix: (Units=GPa)
#
#
# Indices 1 2 3 4 5 6 
#
# 1 121.4669 15.2692 46.9935 0.0000 0.0000 0.0000
# 2 15.2692 18.2515 6.2110 0.0000 0.0000 0.0000
# 3 46.9935 6.2110 119.1986 0.0000 0.0000 0.0000
# 4 0.0000 0.0000 0.0000 7.1849 0.0000 0.0000
# 5 0.0000 0.0000 0.0000 0.0000 20.4263 0.0000
# 6 0.0000 0.0000 0.0000 0.0000 0.0000 -4.2347
#
#
#
# Elastic Compliance Matrix: (Units=1/GPa)
#
#
# Indices 1 2 3 4 5 6 
#
# 1 0.010664 -0.007626 -0.003807 0.000000 0.000000 0.000000
# 2 -0.007626 0.061233 -0.000184 0.000000 0.000000 0.000000
# 3 -0.003807 -0.000184 0.009900 0.000000 0.000000 0.000000
# 4 0.000000 0.000000 0.000000 0.139181 0.000000 0.000000
# 5 0.000000 0.000000 0.000000 0.000000 0.048957 0.000000
# 6 0.000000 0.000000 0.000000 0.000000 0.000000 -0.236145
#
#
# Mechanical properties :
#
#
# Convention : Reuss Voigt Hill
#
# Bulk Modulus (GPa) = 17.07576 43.98492 30.53034
# Shear Modulus (GPa) = 65.32145 17.37153 41.34649
#
# Velocity S-wave (km/s) = 5.64501 2.91109 4.49113
# Velocity P-wave (km/s) = 7.12870 5.72335 6.46433
#
# Compressibility (1/GPa) = 0.05856255
#
# Stress axis : x y z
#
# Youngs Moduli (GPa) = 93.77183 16.33112 101.01200
#
# Poissons Ratio (x) = 0.12454 0.38455
# Poissons Ratio (y) = 0.71512 0.01859
# Poissons Ratio (z) = 0.35698 0.00301
#
# Static dielectric constant tensor:
#      x y z
#    x 4.037210 0.000000 0.000000 
#    y 0.000000 3.267760 0.000000 
#    z 0.000000 0.000000 3.793000 
# 
# 
# High freq. dielectric constant tensor:
#      x y z
#    x 1.821790 0.000000 0.000000 
#    y 0.000000 1.753220 0.000000 
#    z 0.000000 0.000000 1.816840 
# 
# From -- ./inp_files/23776.got.cif
#   From: 2010.03.12/outbox.cif.g09.slc.cpg/sg51_12_cif.got.tgz:23776.got - 2010.04.16 13:43:02.
