data_PCOD8210463
_publ_section_title
;
Structure prediction by ZEFSAII (Michael W. Deem and Ramdas Pophale) SiO2 
 PCOD8210463
Probable space group: P M M A
;
_chemical_formula_sum "Si O2"
_cell_formula_units_Z 52
_cell_length_a 9.275222
_cell_length_b 17.188917
_cell_length_c 18.559256
_cell_angle_alpha 90.000000
_cell_angle_beta 90.000000
_cell_angle_gamma 90.000000
_cell_volume 2958.921135
_symmetry_space_group_name_H-M "P M M A"
_symmetry_group_IT_number 51
_symmetry_cell_setting 'orthorhombic'
loop_
_space_group_symop_operation_xyz
x,y,z
1/2-x,-y,z
1/2+x,-y,-z
-x,y,-z
-x,-y,-z
1/2+x,y,-z
1/2-x,y,z
x,-y,z
loop_
_atom_site_type_symbol
_atom_site_label
_atom_site_fract_x
_atom_site_fract_y
_atom_site_fract_z
Si Si1 0.583262 0.263194 0.711234
Si Si2 0.917425 0.658094 0.074947
Si Si3 0.917269 0.169786 0.574212
Si Si4 0.915229 0.188695 0.163472
Si Si5 0.409884 0.908538 0.066860
Si Si6 0.085211 0.412774 0.204376
Si Si7 0.415823 0.000000 0.427215
O O1 0.750000 0.241616 0.726989
O O2 0.541818 0.238896 0.629835
O O3 0.478227 0.213837 0.760798
O O4 0.553846 0.354399 0.728468
O O5 0.750000 0.636201 0.064357
O O6 0.935672 0.745928 0.102394
O O7 0.984064 0.602045 0.135696
O O8 0.000000 0.646393 0.000000
O O9 0.750000 0.174534 0.554771
O O10 0.952937 0.083720 0.610508
O O11 0.000000 0.184442 0.500000
O O12 0.750000 0.165026 0.173796
O O13 0.006262 0.113839 0.139289
O O14 0.250000 0.870911 0.065297
O O15 0.396474 0.000000 0.062852
O O16 0.500000 0.875055 0.000000
O O17 0.250000 0.402054 0.178364
O O18 0.056572 0.500000 0.232985
O O19 0.500000 0.000000 0.500000
O O20 0.250000 0.000000 0.447511
#
# Coordination Sequence:
#
# PCOD8210463 Si02
#       7
#     8   8   8   8   8   8   4
#     4   9  18  33  51  72  98 127 161 200 244 293
#     4  10  20  32  48  71  96 125 159 199 246 295
#     4   9  17  30  50  74 100 130 161 197 237 284
#     4  10  20  33  49  69  95 126 162 203 247 294
#     4  10  20  33  49  68  91 124 165 208 251 292
#     4   9  18  33  52  71  93 125 163 202 244 292
#     4   8  14  26  44  68  96 124 153 184 223 272
#
# _framework density 17.573974
#
# number of rings (size 3 to 8) (size 9 to 14) (size 15 to 20)
#    0.000    2.615    0.000    1.846    0.000    5.231 
#    1.385    0.000    0.000    0.462    0.000    0.000 
#    0.000    0.000    0.000    0.000    0.000    0.000 
#
# Total GULP energy -644384.330992 kJ/mol
# GULP energy per Si atom -12392.006365 kJ/mol
# Density = 1.753397 g / cm^3
# Si number density = 17.573974 Si / 1000 Ang^3
#
#
#
# Elastic Constant Matrix: (Units=GPa)
#
#
# Indices 1 2 3 4 5 6 
#
# 1 107.0111 36.3534 55.9196 0.0000 0.0000 0.0000
# 2 36.3534 54.0748 60.4588 0.0000 0.0000 0.0000
# 3 55.9196 60.4588 108.2363 0.0000 0.0000 0.0000
# 4 0.0000 0.0000 0.0000 21.6884 0.0000 0.0000
# 5 0.0000 0.0000 0.0000 0.0000 27.6799 0.0000
# 6 0.0000 0.0000 0.0000 0.0000 0.0000 17.7958
#
#
#
# Elastic Compliance Matrix: (Units=1/GPa)
#
#
# Indices 1 2 3 4 5 6 
#
# 1 0.013016 -0.003281 -0.004892 0.000000 0.000000 0.000000
# 2 -0.003281 0.050079 -0.026278 0.000000 0.000000 0.000000
# 3 -0.004892 -0.026278 0.026445 0.000000 0.000000 0.000000
# 4 0.000000 0.000000 0.000000 0.046108 0.000000 0.000000
# 5 0.000000 0.000000 0.000000 0.000000 0.036127 0.000000
# 6 0.000000 0.000000 0.000000 0.000000 0.000000 0.056193
#
#
# Mechanical properties :
#
#
# Convention : Reuss Voigt Hill
#
# Bulk Modulus (GPa) = 48.45446 63.86510 56.15978
# Shear Modulus (GPa) = 16.46093 21.20551 18.83322
#
# Velocity S-wave (km/s) = 3.06382 3.47744 3.27716
# Velocity P-wave (km/s) = 6.33621 7.24866 6.80774
#
# Compressibility (1/GPa) = 0.02063793
#
# Stress axis : x y z
#
# Youngs Moduli (GPa) = 76.83064 19.96831 37.81426
#
# Poissons Ratio (x) = 0.06551 0.18498
# Poissons Ratio (y) = 0.25206 0.99370
# Poissons Ratio (z) = 0.37585 0.52474
#
# Static dielectric constant tensor:
#      x y z
#    x 3.433720 0.000000 0.000000 
#    y 0.000000 3.460780 0.000000 
#    z 0.000000 0.000000 2.978850 
# 
# 
# High freq. dielectric constant tensor:
#      x y z
#    x 1.690340 0.000000 0.000000 
#    y 0.000000 1.673560 0.000000 
#    z 0.000000 0.000000 1.648900 
# 
# From -- ./inp_files/27934.got.cif
#   From: 2010.03.12/outbox.cif.g09.slc.cpg/sg51_14_cif.got.tgz:27934.got - 2010.04.16 13:43:02.
