data_PCOD8210774
_publ_section_title
;
Structure prediction by ZEFSAII (Michael W. Deem and Ramdas Pophale) SiO2 
 PCOD8210774
Probable space group: P M M A
;
_chemical_formula_sum "Si O2"
_cell_formula_units_Z 56
_cell_length_a 8.830752
_cell_length_b 14.111883
_cell_length_c 25.815283
_cell_angle_alpha 90.000000
_cell_angle_beta 90.000000
_cell_angle_gamma 90.000000
_cell_volume 3217.062852
_symmetry_space_group_name_H-M "P M M A"
_symmetry_group_IT_number 51
_symmetry_cell_setting 'orthorhombic'
loop_
_space_group_symop_operation_xyz
x,y,z
1/2-x,-y,z
1/2+x,-y,-z
-x,y,-z
-x,-y,-z
1/2+x,y,-z
1/2-x,y,z
x,-y,z
loop_
_atom_site_type_symbol
_atom_site_label
_atom_site_fract_x
_atom_site_fract_y
_atom_site_fract_z
Si Si1 0.923261 0.105551 0.109572
Si Si2 0.426453 0.106975 0.217676
Si Si3 0.420691 0.612776 0.551574
Si Si4 0.072172 0.288373 0.751681
Si Si5 0.073333 0.706521 0.945835
Si Si6 0.576970 0.387741 0.656245
Si Si7 0.426193 0.609973 0.150867
O O1 0.750000 0.117881 0.128776
O O2 0.962325 0.182924 0.066017
O O3 0.032432 0.123726 0.157807
O O4 0.949403 0.000000 0.086430
O O5 0.250000 0.127335 0.224976
O O6 0.521066 0.178817 0.253576
O O7 0.468587 0.000000 0.234480
O O8 0.500000 0.653559 0.500000
O O9 0.250000 0.652460 0.554870
O O10 0.418923 0.500000 0.549636
O O11 0.515221 0.648290 0.601042
O O12 0.250000 0.296024 0.759398
O O13 0.025847 0.343223 0.700359
O O14 0.991923 0.331967 0.801461
O O15 0.250000 0.686758 0.949446
O O16 0.006700 0.638970 0.901992
O O17 0.000000 0.678296 0.000000
O O18 0.750000 0.354337 0.662540
O O19 0.563536 0.500000 0.660805
O O20 0.250000 0.633335 0.145989
O O21 0.456130 0.500000 0.161679
#
# Coordination Sequence:
#
# PCOD8210774 Si02
#       7
#     8   8   8   8   8   8   8
#     4   9  18  34  55  79 105 131 160 196 244 301
#     4  10  20  34  55  80 104 133 167 203 247 302
#     4   9  16  27  44  67  98 138 182 224 265 309
#     4  12  23  35  54  79 107 138 169 209 258 310
#     4  11  23  38  57  79 103 133 165 206 252 301
#     4  10  20  33  49  72 104 142 183 225 264 303
#     4  11  24  41  59  77  99 130 169 213 257 304
#
# _framework density 17.407183
#
# number of rings (size 3 to 8) (size 9 to 14) (size 15 to 20)
#    0.000    1.714    1.429    3.857    0.000    7.429 
#    0.000    0.000    0.000    0.000    0.000    0.000 
#    0.000    0.571    0.000    2.143    0.000    3.286 
#
# Total GULP energy -694544.737357 kJ/mol
# GULP energy per Si atom -12402.584596 kJ/mol
# Density = 1.736756 g / cm^3
# Si number density = 17.407183 Si / 1000 Ang^3
#
#
#
# Elastic Constant Matrix: (Units=GPa)
#
#
# Indices 1 2 3 4 5 6 
#
# 1 83.3255 41.4857 27.5045 0.0000 0.0000 0.0000
# 2 41.4857 58.1162 27.1675 0.0000 0.0000 0.0000
# 3 27.5045 27.1675 93.8809 0.0000 0.0000 0.0000
# 4 0.0000 0.0000 0.0000 5.9870 0.0000 0.0000
# 5 0.0000 0.0000 0.0000 0.0000 33.3827 0.0000
# 6 0.0000 0.0000 0.0000 0.0000 0.0000 24.4784
#
#
#
# Elastic Compliance Matrix: (Units=1/GPa)
#
#
# Indices 1 2 3 4 5 6 
#
# 1 0.018903 -0.012611 -0.001889 0.000000 0.000000 0.000000
# 2 -0.012611 0.028312 -0.004498 0.000000 0.000000 0.000000
# 3 -0.001889 -0.004498 0.012507 0.000000 0.000000 0.000000
# 4 0.000000 0.000000 0.000000 0.167029 0.000000 0.000000
# 5 0.000000 0.000000 0.000000 0.000000 0.029956 0.000000
# 6 0.000000 0.000000 0.000000 0.000000 0.000000 0.040852
#
#
# Mechanical properties :
#
#
# Convention : Reuss Voigt Hill
#
# Bulk Modulus (GPa) = 46.02776 47.51534 46.77155
# Shear Modulus (GPa) = 14.58587 22.04727 18.31657
#
# Velocity S-wave (km/s) = 2.89783 3.56274 3.24735
# Velocity P-wave (km/s) = 6.13969 6.65431 6.40217
#
# Compressibility (1/GPa) = 0.02172602
#
# Stress axis : x y z
#
# Youngs Moduli (GPa) = 52.90082 35.32071 79.95602
#
# Poissons Ratio (x) = 0.44543 0.15102
# Poissons Ratio (y) = 0.66713 0.35967
# Poissons Ratio (z) = 0.09992 0.15888
#
# Static dielectric constant tensor:
#      x y z
#    x 3.417890 0.000000 0.000000 
#    y 0.000000 3.294010 0.000000 
#    z 0.000000 0.000000 3.137370 
# 
# 
# High freq. dielectric constant tensor:
#      x y z
#    x 1.691680 0.000000 0.000000 
#    y 0.000000 1.653640 0.000000 
#    z 0.000000 0.000000 1.657160 
# 
# From -- ./inp_files/31982.got.cif
#   From: 2010.03.12/outbox.cif.g09.slc.cpg/sg51_16_cif.got.tgz:31982.got - 2010.04.16 13:43:02.
