data_PCOD8210968
_publ_section_title
;
Structure prediction by ZEFSAII (Michael W. Deem and Ramdas Pophale) SiO2 
 PCOD8210968
Probable space group: P M M A
;
_chemical_formula_sum "Si O2"
_cell_formula_units_Z 56
_cell_length_a 14.908963
_cell_length_b 9.103560
_cell_length_c 20.837739
_cell_angle_alpha 90.000000
_cell_angle_beta 90.000000
_cell_angle_gamma 90.000000
_cell_volume 2828.194608
_symmetry_space_group_name_H-M "P M M A"
_symmetry_group_IT_number 51
_symmetry_cell_setting 'orthorhombic'
loop_
_space_group_symop_operation_xyz
x,y,z
1/2-x,-y,z
1/2+x,-y,-z
-x,y,-z
-x,-y,-z
1/2+x,y,-z
1/2-x,y,z
x,-y,z
loop_
_atom_site_type_symbol
_atom_site_label
_atom_site_fract_x
_atom_site_fract_y
_atom_site_fract_z
Si Si1 0.147899 0.173159 0.483628
Si Si2 0.594942 0.836199 0.915450
Si Si3 0.650335 0.336076 0.033270
Si Si4 0.025297 0.326118 0.731837
Si Si5 0.980822 0.173881 0.401247
Si Si6 0.652897 0.333777 0.799531
Si Si7 0.903358 0.834379 0.150152
O O1 0.250000 0.241031 0.478164
O O2 0.098793 0.217730 0.549754
O O3 0.079791 0.223961 0.426819
O O4 0.156820 0.000000 0.480582
O O5 0.659916 0.759995 0.864371
O O6 0.498432 0.837365 0.884033
O O7 0.630070 0.000000 0.929724
O O8 0.589153 0.750332 0.982527
O O9 0.750000 0.343406 0.004114
O O10 0.610806 0.500000 0.043310
O O11 0.659385 0.254780 0.101691
O O12 0.041248 0.500000 0.731863
O O13 0.923399 0.280870 0.750422
O O14 0.043936 0.261699 0.662268
O O15 0.093099 0.250391 0.782054
O O16 0.980823 0.000000 0.388304
O O17 0.750000 0.321153 0.764872
O O18 0.631445 0.500000 0.820773
O O19 0.867399 0.000000 0.161600
#
# Coordination Sequence:
#
# PCOD8210968 Si02
#       7
#     8   8   8   8   8   8   8
#     4   8  15  30  53  80 108 137 170 209 251 294
#     4  10  20  33  51  75  99 125 163 211 259 307
#     4  11  23  36  51  73 100 129 163 206 258 313
#     4  10  20  34  52  73 102 139 171 205 254 305
#     4   9  17  31  53  79 105 135 173 212 248 296
#     4   9  18  32  48  68  97 133 171 208 252 311
#     4  10  21  37  55  74  97 128 170 214 252 297
#
# _framework density 19.800619000000001
#
# number of rings (size 3 to 8) (size 9 to 14) (size 15 to 20)
#    0.000    2.429    0.000    3.429    0.000    7.714 
#    0.000    2.143    0.000    3.857    0.000    0.000 
#    0.000    0.000    0.000    0.000    0.000    0.000 
#
# Total GULP energy -694089.007671 kJ/mol
# GULP energy per Si atom -12394.446566 kJ/mol
# Density = 1.975555 g / cm^3
# Si number density = 19.800619 Si / 1000 Ang^3
#
#
#
# Elastic Constant Matrix: (Units=GPa)
#
#
# Indices 1 2 3 4 5 6 
#
# 1 56.6656 7.3082 7.5928 0.0000 0.0000 0.0000
# 2 7.3082 108.7333 49.8654 0.0000 0.0000 0.0000
# 3 7.5928 49.8654 122.5532 0.0000 0.0000 0.0000
# 4 0.0000 0.0000 0.0000 26.8259 0.0000 0.0000
# 5 0.0000 0.0000 0.0000 0.0000 18.4259 0.0000
# 6 0.0000 0.0000 0.0000 0.0000 0.0000 11.8506
#
#
#
# Elastic Compliance Matrix: (Units=1/GPa)
#
#
# Indices 1 2 3 4 5 6 
#
# 1 0.017859 -0.000852 -0.000760 0.000000 0.000000 0.000000
# 2 -0.000852 0.011347 -0.004564 0.000000 0.000000 0.000000
# 3 -0.000760 -0.004564 0.010064 0.000000 0.000000 0.000000
# 4 0.000000 0.000000 0.000000 0.037277 0.000000 0.000000
# 5 0.000000 0.000000 0.000000 0.000000 0.054272 0.000000
# 6 0.000000 0.000000 0.000000 0.000000 0.000000 0.084384
#
#
# Mechanical properties :
#
#
# Convention : Reuss Voigt Hill
#
# Bulk Modulus (GPa) = 37.14951 46.38723 41.76837
# Shear Modulus (GPa) = 21.13916 26.29952 23.71934
#
# Velocity S-wave (km/s) = 3.27096 3.64842 3.46484
# Velocity P-wave (km/s) = 5.75049 6.42075 6.09484
#
# Compressibility (1/GPa) = 0.02691826
#
# Stress axis : x y z
#
# Youngs Moduli (GPa) = 55.99399 88.12697 99.36455
#
# Poissons Ratio (x) = 0.07507 0.07550
# Poissons Ratio (y) = 0.04770 0.45353
# Poissons Ratio (z) = 0.04255 0.40224
#
# Static dielectric constant tensor:
#      x y z
#    x 3.671520 0.000000 0.000000 
#    y 0.000000 3.629760 0.000000 
#    z 0.000000 0.000000 3.472070 
# 
# 
# High freq. dielectric constant tensor:
#      x y z
#    x 1.765800 0.000000 0.000000 
#    y 0.000000 1.761360 0.000000 
#    z 0.000000 0.000000 1.759430 
# 
# From -- ./inp_files/33735.got.cif
#   From: 2010.03.12/outbox.cif.g09.slc.cpg/sg51_17_cif.got.tgz:33735.got - 2010.04.16 13:43:02.
