data_PCOD8210488
_publ_section_title
;
Structure prediction by ZEFSAII (Michael W. Deem and Ramdas Pophale) SiO2 
 PCOD8210488
Probable space group: P M M A
;
_chemical_formula_sum "Si O2"
_cell_formula_units_Z 64
_cell_length_a 17.150884
_cell_length_b 9.185929
_cell_length_c 23.043141
_cell_angle_alpha 90.000000
_cell_angle_beta 90.000000
_cell_angle_gamma 90.000000
_cell_volume 3630.373189
_symmetry_space_group_name_H-M "P M M A"
_symmetry_group_IT_number 51
_symmetry_cell_setting 'orthorhombic'
loop_
_space_group_symop_operation_xyz
x,y,z
1/2-x,-y,z
1/2+x,-y,-z
-x,y,-z
-x,-y,-z
1/2+x,y,-z
1/2-x,y,z
x,-y,z
loop_
_atom_site_type_symbol
_atom_site_label
_atom_site_fract_x
_atom_site_fract_y
_atom_site_fract_z
Si Si1 0.665900 0.165875 0.194895
Si Si2 0.411150 0.164460 0.020966
Si Si3 0.626886 0.337473 0.085740
Si Si4 0.962176 0.172061 0.632816
Si Si5 0.548706 0.663620 0.871955
Si Si6 0.499108 0.171037 0.761767
Si Si7 0.659435 0.330973 0.554006
Si Si8 0.576330 0.160305 0.461077
O O1 0.750000 0.182329 0.227790
O O2 0.673110 0.261473 0.137357
O O3 0.593112 0.213352 0.235091
O O4 0.652279 0.000000 0.174982
O O5 0.399273 0.245273 0.082666
O O6 0.380364 0.000000 0.027670
O O7 0.500000 0.164288 0.000000
O O8 0.359278 0.248396 0.973435
O O9 0.659613 0.500000 0.076846
O O10 0.536760 0.342457 0.101787
O O11 0.888516 0.252793 0.604847
O O12 0.968980 0.220254 0.699435
O O13 0.044437 0.214768 0.601568
O O14 0.948144 0.000000 0.625882
O O15 0.582126 0.500000 0.864513
O O16 0.548705 0.743249 0.809770
O O17 0.511227 0.000000 0.771934
O O18 0.750000 0.302929 0.566168
O O19 0.638154 0.500000 0.554466
O O20 0.638105 0.269694 0.489965
O O21 0.500000 0.150463 0.500000
O O22 0.615242 0.000000 0.456068
#
# Coordination Sequence:
#
# PCOD8210488 Si02
#       8
#     8   8   8   8   8   8   8   8
#     4   9  17  29  44  61  84 117 155 194 236 281
#     4   9  15  23  37  57  81 108 137 173 220 270
#     4   9  16  25  38  57  81 108 140 182 229 274
#     4   9  18  32  50  72  97 126 161 198 235 278
#     4   9  16  25  38  59  86 114 145 181 223 270
#     4   9  17  30  46  65  91 122 158 197 233 274
#     4  10  20  32  48  73 101 126 155 192 234 281
#     4   8  15  29  48  70  95 123 155 190 230 275
#
# _framework density 17.629041000000001
#
# number of rings (size 3 to 8) (size 9 to 14) (size 15 to 20)
#    0.000    3.000    0.000    2.250    0.000    8.500 
#    0.000    0.625    0.000    2.250    0.000    0.875 
#    0.000    3.000    0.000    0.000    0.000    0.000 
#
# Total GULP energy -793197.449795 kJ/mol
# GULP energy per Si atom -12393.710153 kJ/mol
# Density = 1.758892 g / cm^3
# Si number density = 17.629041 Si / 1000 Ang^3
#
#
#
# Elastic Constant Matrix: (Units=GPa)
#
#
# Indices 1 2 3 4 5 6 
#
# 1 52.5865 35.1889 32.7955 0.0000 0.0000 0.0000
# 2 35.1889 108.6772 63.3423 0.0000 0.0000 0.0000
# 3 32.7955 63.3423 131.1461 0.0000 0.0000 0.0000
# 4 0.0000 0.0000 0.0000 17.3549 0.0000 0.0000
# 5 0.0000 0.0000 0.0000 0.0000 13.3883 0.0000
# 6 0.0000 0.0000 0.0000 0.0000 0.0000 16.0282
#
#
#
# Elastic Compliance Matrix: (Units=1/GPa)
#
#
# Indices 1 2 3 4 5 6 
#
# 1 0.025258 -0.006259 -0.003293 0.000000 0.000000 0.000000
# 2 -0.006259 0.014358 -0.005369 0.000000 0.000000 0.000000
# 3 -0.003293 -0.005369 0.011042 0.000000 0.000000 0.000000
# 4 0.000000 0.000000 0.000000 0.057621 0.000000 0.000000
# 5 0.000000 0.000000 0.000000 0.000000 0.074692 0.000000
# 6 0.000000 0.000000 0.000000 0.000000 0.000000 0.062390
#
#
# Mechanical properties :
#
#
# Convention : Reuss Voigt Hill
#
# Bulk Modulus (GPa) = 48.04302 61.67367 54.85834
# Shear Modulus (GPa) = 17.72151 20.09315 18.90733
#
# Velocity S-wave (km/s) = 3.17400 3.37972 3.27847
# Velocity P-wave (km/s) = 6.38308 7.09155 6.74662
#
# Compressibility (1/GPa) = 0.02081468
#
# Stress axis : x y z
#
# Youngs Moduli (GPa) = 39.59075 69.64867 90.56301
#
# Poissons Ratio (x) = 0.43593 0.29825
# Poissons Ratio (y) = 0.24780 0.48628
# Poissons Ratio (z) = 0.13038 0.37398
#
# Static dielectric constant tensor:
#      x y z
#    x 2.897520 0.000000 0.000000 
#    y 0.000000 3.409820 0.000000 
#    z 0.000000 0.000000 3.417330 
# 
# 
# High freq. dielectric constant tensor:
#      x y z
#    x 1.639720 0.000000 0.000000 
#    y 0.000000 1.687800 0.000000 
#    z 0.000000 0.000000 1.670370 
# 
# From -- ./inp_files/35902.got.cif
#   From: 2010.03.12/outbox.cif.g09.slc.cpg/sg51_18_cif.got.tgz:35902.got - 2010.04.16 13:43:02.
