data_PCOD8210125
_publ_section_title
;
Structure prediction by ZEFSAII (Michael W. Deem and Ramdas Pophale) SiO2 
 PCOD8210125
Probable space group: P M M A
;
_chemical_formula_sum "Si O2"
_cell_formula_units_Z 18
_cell_length_a 5.232950
_cell_length_b 7.291419
_cell_length_c 24.079855
_cell_angle_alpha 90.000000
_cell_angle_beta 90.000000
_cell_angle_gamma 90.000000
_cell_volume 918.782063
_symmetry_space_group_name_H-M "P M M A"
_symmetry_group_IT_number 51
_symmetry_cell_setting 'orthorhombic'
loop_
_space_group_symop_operation_xyz
x,y,z
1/2-x,-y,z
1/2+x,-y,-z
-x,y,-z
-x,-y,-z
1/2+x,y,-z
1/2-x,y,z
x,-y,z
loop_
_atom_site_type_symbol
_atom_site_label
_atom_site_fract_x
_atom_site_fract_y
_atom_site_fract_z
Si Si1 0.750000 0.786203 0.465618
Si Si2 0.250000 0.720287 0.867099
Si Si3 0.250000 0.500000 0.629207
Si Si4 0.250000 0.701746 0.189770
Si Si5 0.750000 0.000000 0.037113
Si Si6 0.250000 0.500000 0.296543
O O1 0.500000 0.728459 0.500000
O O2 0.750000 0.682055 0.407657
O O3 0.750000 0.000000 0.451502
O O4 0.250000 0.500000 0.872976
O O5 0.493507 0.797867 0.832514
O O6 0.250000 0.813842 0.927029
O O7 0.499362 0.500000 0.666648
O O8 0.250000 0.500000 0.162434
O O9 0.250000 0.682253 0.257214
O O10 0.500000 0.000000 0.000000
#
# Coordination Sequence:
#
# PCOD8210125 Si02
#       6
#     4   4   2   4   2   2
#     4  10  21  37  56  79 113 153 194 229 270 345
#     4  10  19  38  62  76 110 149 183 217 266 338
#     4  12  20  33  60  84 116 145 180 236 302 316
#     4   8  17  34  59  80 103 148 187 211 271 326
#     4  12  26  38  56  92 118 136 184 240 278 314
#     4  10  20  33  60  86 114 141 180 250 272 322
#
# _framework density 19.591155000000001
#
# number of rings (size 3 to 8) (size 9 to 14) (size 15 to 20)
#    0.667    1.333    0.000    4.667    0.000    0.889 
#    0.000    0.000   14.667    0.000    0.000    0.000 
#    0.000    0.000    0.000    0.000    0.000    0.000 
#
# Total GULP energy -223081.126313 kJ/mol
# GULP energy per Si atom -12393.395906 kJ/mol
# Density = 1.954656 g / cm^3
# Si number density = 19.591155 Si / 1000 Ang^3
#
#
#
# Elastic Constant Matrix: (Units=GPa)
#
#
# Indices 1 2 3 4 5 6 
#
# 1 236.2552 34.2034 111.2487 0.0000 0.0000 0.0000
# 2 34.2034 66.2905 47.1392 0.0000 0.0000 0.0000
# 3 111.2487 47.1392 171.4370 0.0000 0.0000 0.0000
# 4 0.0000 0.0000 0.0000 10.3742 0.0000 0.0000
# 5 0.0000 0.0000 0.0000 0.0000 54.6774 0.0000
# 6 0.0000 0.0000 0.0000 0.0000 0.0000 -2.9864
#
#
#
# Elastic Compliance Matrix: (Units=1/GPa)
#
#
# Indices 1 2 3 4 5 6 
#
# 1 0.006104 -0.000414 -0.003847 0.000000 0.000000 0.000000
# 2 -0.000414 0.018780 -0.004895 0.000000 0.000000 0.000000
# 3 -0.003847 -0.004895 0.009676 0.000000 0.000000 0.000000
# 4 0.000000 0.000000 0.000000 0.096393 0.000000 0.000000
# 5 0.000000 0.000000 0.000000 0.000000 0.018289 0.000000
# 6 0.000000 0.000000 0.000000 0.000000 0.000000 -0.334853
#
#
# Mechanical properties :
#
#
# Convention : Reuss Voigt Hill
#
# Bulk Modulus (GPa) = 61.55047 95.46283 78.50665
# Shear Modulus (GPa) = -30.88646 31.17247 0.14301
#
# Velocity S-wave (km/s) = -3.97489 3.99325 0.27047
# Velocity P-wave (km/s) = 3.22790 8.37226 6.34484
#
# Compressibility (1/GPa) = 0.01624683
#
# Stress axis : x y z
#
# Youngs Moduli (GPa) = 163.81890 53.24930 103.35097
#
# Poissons Ratio (x) = 0.02203 0.39764
# Poissons Ratio (y) = 0.06777 0.50593
# Poissons Ratio (z) = 0.63029 0.26067
#
# Static dielectric constant tensor:
#      x y z
#    x 3.963080 0.000000 0.000000 
#    y 0.000000 3.825530 0.000000 
#    z 0.000000 0.000000 3.458880 
# 
# 
# High freq. dielectric constant tensor:
#      x y z
#    x 1.794140 0.000000 0.000000 
#    y 0.000000 1.743640 0.000000 
#    z 0.000000 0.000000 1.756510 
# 
# From -- ./inp_files/26754.got.cif
#   From: 2010.03.12/outbox.cif.g09.slc.cpg/sg51_14_cif.got.tgz:26754.got - 2010.04.16 13:43:02.
