data_PCOD8210906
_publ_section_title
;
Structure prediction by ZEFSAII (Michael W. Deem and Ramdas Pophale) SiO2 
 PCOD8210906
Probable space group: P M M A
;
_chemical_formula_sum "Si O2"
_cell_formula_units_Z 48
_cell_length_a 8.820380
_cell_length_b 13.559317
_cell_length_c 19.354805
_cell_angle_alpha 90.000000
_cell_angle_beta 90.000000
_cell_angle_gamma 90.000000
_cell_volume 2314.802326
_symmetry_space_group_name_H-M "P M M A"
_symmetry_group_IT_number 51
_symmetry_cell_setting 'orthorhombic'
loop_
_space_group_symop_operation_xyz
x,y,z
1/2-x,-y,z
1/2+x,-y,-z
-x,y,-z
-x,-y,-z
1/2+x,y,-z
1/2-x,y,z
x,-y,z
loop_
_atom_site_type_symbol
_atom_site_label
_atom_site_fract_x
_atom_site_fract_y
_atom_site_fract_z
Si Si1 0.070719 0.300509 0.424321
Si Si2 0.927686 0.719400 0.822264
Si Si3 0.928419 0.112022 0.926868
Si Si4 0.926102 0.611347 0.299307
Si Si5 0.426991 0.893639 0.574508
Si Si6 0.583167 0.386052 0.064947
O O1 0.250000 0.303709 0.430287
O O2 0.000000 0.316113 0.500000
O O3 0.011438 0.384827 0.372981
O O4 0.014603 0.196753 0.389306
O O5 0.750000 0.721831 0.808176
O O6 0.983841 0.818047 0.863265
O O7 0.009858 0.698360 0.749810
O O8 0.975359 0.627197 0.869409
O O9 0.750000 0.122912 0.935432
O O10 0.975929 0.000000 0.908115
O O11 0.000000 0.144129 0.000000
O O12 0.750000 0.632796 0.310657
O O13 0.951286 0.500000 0.269826
O O14 0.500000 0.903667 0.500000
O O15 0.250000 0.867417 0.567608
O O16 0.448711 0.000000 0.613130
O O17 0.750000 0.337921 0.076191
O O18 0.605081 0.500000 0.049779
O O19 0.500000 0.334505 0.000000
#
# Coordination Sequence:
#
# PCOD8210906 Si02
#       6
#     8   8   8   8   8   8
#     4  11  22  38  62  89 118 152 193 244 300 361
#     4  11  22  36  57  83 112 148 188 233 286 344
#     4   9  19  36  58  86 120 157 197 239 283 333
#     4  11  25  44  63  83 111 149 193 243 300 362
#     4   9  16  28  50  81 116 150 183 222 270 327
#     4  10  20  33  50  75 108 145 184 227 274 325
#
# _framework density 20.736111999999999
#
# number of rings (size 3 to 8) (size 9 to 14) (size 15 to 20)
#    0.000    1.833    0.000    5.500    0.000    8.333 
#    0.000    0.833    0.000    3.000    0.000    0.000 
#    0.000    0.000    0.000    0.000    0.000    0.000 
#
# Total GULP energy -594808.259883 kJ/mol
# GULP energy per Si atom -12391.838748 kJ/mol
# Density = 2.068892 g / cm^3
# Si number density = 20.736112 Si / 1000 Ang^3
#
#
#
# Elastic Constant Matrix: (Units=GPa)
#
#
# Indices 1 2 3 4 5 6 
#
# 1 130.2193 48.4623 48.6491 0.0000 0.0000 0.0000
# 2 48.4623 93.0377 44.9701 0.0000 0.0000 0.0000
# 3 48.6491 44.9701 112.4005 0.0000 0.0000 0.0000
# 4 0.0000 0.0000 0.0000 32.0316 0.0000 0.0000
# 5 0.0000 0.0000 0.0000 0.0000 35.7646 0.0000
# 6 0.0000 0.0000 0.0000 0.0000 0.0000 24.6340
#
#
#
# Elastic Compliance Matrix: (Units=1/GPa)
#
#
# Indices 1 2 3 4 5 6 
#
# 1 0.010208 -0.003945 -0.002840 0.000000 0.000000 0.000000
# 2 -0.003945 0.014849 -0.004234 0.000000 0.000000 0.000000
# 3 -0.002840 -0.004234 0.011820 0.000000 0.000000 0.000000
# 4 0.000000 0.000000 0.000000 0.031219 0.000000 0.000000
# 5 0.000000 0.000000 0.000000 0.000000 0.027961 0.000000
# 6 0.000000 0.000000 0.000000 0.000000 0.000000 0.040594
#
#
# Mechanical properties :
#
#
# Convention : Reuss Voigt Hill
#
# Bulk Modulus (GPa) = 67.38272 68.86894 68.12583
# Shear Modulus (GPa) = 30.55560 31.39111 30.97335
#
# Velocity S-wave (km/s) = 3.84284 3.89503 3.86902
# Velocity P-wave (km/s) = 7.22882 7.31522 7.27215
#
# Compressibility (1/GPa) = 0.01484060
#
# Stress axis : x y z
#
# Youngs Moduli (GPa) = 97.95775 67.34243 84.60280
#
# Poissons Ratio (x) = 0.26564 0.24029
# Poissons Ratio (y) = 0.38641 0.35819
# Poissons Ratio (z) = 0.27822 0.28511
#
# Static dielectric constant tensor:
#      x y z
#    x 4.158490 0.000000 0.000000 
#    y 0.000000 4.261030 0.000000 
#    z 0.000000 0.000000 3.533680 
# 
# 
# High freq. dielectric constant tensor:
#      x y z
#    x 1.822120 0.000000 0.000000 
#    y 0.000000 1.814890 0.000000 
#    z 0.000000 0.000000 1.784680 
# 
# From -- ./inp_files/27597.got.cif
#   From: 2010.03.12/outbox.cif.g09.slc.cpg/sg51_14_cif.got.tgz:27597.got - 2010.04.16 13:43:02.
