data_PCOD8210565
_publ_section_title
;
Structure prediction by ZEFSAII (Michael W. Deem and Ramdas Pophale) SiO2 
 PCOD8210565
Probable space group: P M M A
;
_chemical_formula_sum "Si O2"
_cell_formula_units_Z 64
_cell_length_a 18.733031
_cell_length_b 9.153757
_cell_length_c 20.169401
_cell_angle_alpha 90.000000
_cell_angle_beta 90.000000
_cell_angle_gamma 90.000000
_cell_volume 3458.600752
_symmetry_space_group_name_H-M "P M M A"
_symmetry_group_IT_number 51
_symmetry_cell_setting 'orthorhombic'
loop_
_space_group_symop_operation_xyz
x,y,z
1/2-x,-y,z
1/2+x,-y,-z
-x,y,-z
-x,-y,-z
1/2+x,y,-z
1/2-x,y,z
x,-y,z
loop_
_atom_site_type_symbol
_atom_site_label
_atom_site_fract_x
_atom_site_fract_y
_atom_site_fract_z
Si Si1 0.907478 0.832139 0.705192
Si Si2 0.834771 0.338061 0.077581
Si Si3 0.430357 0.168843 0.671840
Si Si4 0.832497 0.671364 0.823136
Si Si5 0.333298 0.831288 0.430230
Si Si6 0.666296 0.668763 0.225902
Si Si7 0.574080 0.327222 0.466599
Si Si8 0.334997 0.836697 0.046647
O O1 0.878110 0.730103 0.762505
O O2 0.872882 0.780346 0.636332
O O3 0.991666 0.808696 0.702105
O O4 0.886817 0.000000 0.720003
O O5 0.750000 0.343610 0.072795
O O6 0.865390 0.500000 0.064319
O O7 0.856505 0.285511 0.151193
O O8 0.866403 0.231064 0.021425
O O9 0.373773 0.223812 0.724996
O O10 0.420866 0.261746 0.605995
O O11 0.415734 0.000000 0.655206
O O12 0.750000 0.711943 0.810866
O O13 0.843950 0.500000 0.829772
O O14 0.861460 0.743655 0.890626
O O15 0.250000 0.803247 0.420557
O O16 0.360468 0.733898 0.490742
O O17 0.350518 0.000000 0.445780
O O18 0.750000 0.691765 0.236801
O O19 0.645634 0.500000 0.239178
O O20 0.500000 0.278047 0.500000
O O21 0.580955 0.500000 0.461792
O O22 0.250000 0.836187 0.043786
O O23 0.365207 0.000000 0.053650
#
# Coordination Sequence:
#
# PCOD8210565 Si02
#       8
#     8   8   8   8   8   8   8   8
#     4  10  21  37  56  78 108 145 182 222 270 323
#     4   8  14  27  48  73 103 139 177 219 269 323
#     4  11  23  38  60  84 109 144 183 224 269 323
#     4  10  20  32  49  76 109 144 183 227 271 319
#     4  10  21  38  61  86 112 144 181 224 274 325
#     4   9  19  36  57  82 113 146 180 224 276 327
#     4  11  23  39  60  83 109 143 181 223 271 323
#     4   9  16  26  44  72 105 141 180 223 271 321
#
# _framework density 18.504594000000001
#
# number of rings (size 3 to 8) (size 9 to 14) (size 15 to 20)
#    0.000    2.250    1.250    2.625    0.000    6.250 
#    0.000    1.250    0.000    0.750    0.000    5.250 
#    0.000    0.000    0.000    0.000    0.000    0.000 
#
# Total GULP energy -793717.019707 kJ/mol
# GULP energy per Si atom -12401.828433 kJ/mol
# Density = 1.846248 g / cm^3
# Si number density = 18.504594 Si / 1000 Ang^3
#
#
#
# Elastic Constant Matrix: (Units=GPa)
#
#
# Indices 1 2 3 4 5 6 
#
# 1 51.1753 34.3510 33.0431 0.0000 0.0000 0.0000
# 2 34.3510 93.7297 65.4308 0.0000 0.0000 0.0000
# 3 33.0431 65.4308 133.5851 0.0000 0.0000 0.0000
# 4 0.0000 0.0000 0.0000 39.7855 0.0000 0.0000
# 5 0.0000 0.0000 0.0000 0.0000 9.3462 0.0000
# 6 0.0000 0.0000 0.0000 0.0000 0.0000 24.5016
#
#
#
# Elastic Compliance Matrix: (Units=1/GPa)
#
#
# Indices 1 2 3 4 5 6 
#
# 1 0.026559 -0.007822 -0.002738 0.000000 0.000000 0.000000
# 2 -0.007822 0.018516 -0.007134 0.000000 0.000000 0.000000
# 3 -0.002738 -0.007134 0.011658 0.000000 0.000000 0.000000
# 4 0.000000 0.000000 0.000000 0.025135 0.000000 0.000000
# 5 0.000000 0.000000 0.000000 0.000000 0.106996 0.000000
# 6 0.000000 0.000000 0.000000 0.000000 0.000000 0.040814
#
#
# Mechanical properties :
#
#
# Convention : Reuss Voigt Hill
#
# Bulk Modulus (GPa) = 46.85305 60.46000 53.65653
# Shear Modulus (GPa) = 18.37008 24.43766 21.40387
#
# Velocity S-wave (km/s) = 3.15418 3.63798 3.40469
# Velocity P-wave (km/s) = 6.21609 7.09862 6.67197
#
# Compressibility (1/GPa) = 0.02134333
#
# Stress axis : x y z
#
# Youngs Moduli (GPa) = 37.65156 54.00688 85.78040
#
# Poissons Ratio (x) = 0.42245 0.23489
# Poissons Ratio (y) = 0.29452 0.61200
# Poissons Ratio (z) = 0.10310 0.38531
#
# Static dielectric constant tensor:
#      x y z
#    x 3.121800 0.000000 0.000000 
#    y 0.000000 3.495210 0.000000 
#    z 0.000000 0.000000 3.556890 
# 
# 
# High freq. dielectric constant tensor:
#      x y z
#    x 1.687120 0.000000 0.000000 
#    y 0.000000 1.723000 0.000000 
#    z 0.000000 0.000000 1.731870 
# 
# From -- ./inp_files/30563.got.cif
#   From: 2010.03.12/outbox.cif.g09.slc.cpg/sg51_16_cif.got.tgz:30563.got - 2010.04.16 13:43:02.
