data_PCOD8210597
_publ_section_title
;
Structure prediction by ZEFSAII (Michael W. Deem and Ramdas Pophale) SiO2 
 PCOD8210597
Probable space group: P M M A
;
_chemical_formula_sum "Si O2"
_cell_formula_units_Z 48
_cell_length_a 15.256854
_cell_length_b 8.945317
_cell_length_c 19.142601
_cell_angle_alpha 90.000000
_cell_angle_beta 90.000000
_cell_angle_gamma 90.000000
_cell_volume 2612.532327
_symmetry_space_group_name_H-M "P M M A"
_symmetry_group_IT_number 51
_symmetry_cell_setting 'orthorhombic'
loop_
_space_group_symop_operation_xyz
x,y,z
1/2-x,-y,z
1/2+x,-y,-z
-x,y,-z
-x,-y,-z
1/2+x,y,-z
1/2-x,y,z
x,-y,z
loop_
_atom_site_type_symbol
_atom_site_label
_atom_site_fract_x
_atom_site_fract_y
_atom_site_fract_z
Si Si1 0.498312 0.177747 0.578064
Si Si2 0.992356 0.177048 0.080016
Si Si3 0.652955 0.177744 0.672884
Si Si4 0.349990 0.825255 0.682473
Si Si5 0.851311 0.324880 0.173812
Si Si6 0.846910 0.822313 0.829358
O O1 0.500000 0.245474 0.500000
O O2 0.581532 0.244807 0.619779
O O3 0.409342 0.226728 0.617324
O O4 0.504665 0.000000 0.574611
O O5 0.905919 0.250672 0.111851
O O6 0.078923 0.240317 0.118891
O O7 0.983720 0.000000 0.088187
O O8 0.000000 0.226115 0.000000
O O9 0.750000 0.230133 0.649212
O O10 0.632826 0.235913 0.751107
O O11 0.647771 0.000000 0.672789
O O12 0.250000 0.785386 0.663126
O O13 0.381602 0.740156 0.751671
O O14 0.362315 0.000000 0.697765
O O15 0.750000 0.285152 0.160172
O O16 0.868455 0.500000 0.174424
O O17 0.750000 0.766150 0.853000
O O18 0.848061 0.000000 0.830324
#
# Coordination Sequence:
#
# PCOD8210597 Si02
#       6
#     8   8   8   8   8   8
#     4   9  16  24  37  62  95 124 148 184 239 296
#     4  10  20  32  50  77 104 129 157 195 246 299
#     4   8  13  21  34  52  77 112 148 178 212 261
#     4   9  17  30  49  71  94 123 162 207 249 289
#     4  10  21  36  53  72  96 131 173 212 250 294
#     4   8  14  26  44  66  92 121 154 191 230 277
#
# _framework density 18.372976999999999
#
# number of rings (size 3 to 8) (size 9 to 14) (size 15 to 20)
#    0.000    3.000    0.000    2.500    0.000    5.333 
#    0.000    5.000    0.000    1.000    0.000    0.000 
#    0.000    0.000    0.000    0.000    0.000    0.000 
#
# Total GULP energy -595056.532591 kJ/mol
# GULP energy per Si atom -12397.011096 kJ/mol
# Density = 1.833116 g / cm^3
# Si number density = 18.372977 Si / 1000 Ang^3
#
#
#
# Elastic Constant Matrix: (Units=GPa)
#
#
# Indices 1 2 3 4 5 6 
#
# 1 139.3983 23.4974 102.0525 0.0000 0.0000 0.0000
# 2 23.4974 22.9380 29.5386 0.0000 0.0000 0.0000
# 3 102.0525 29.5386 167.9769 0.0000 0.0000 0.0000
# 4 0.0000 0.0000 0.0000 3.0935 0.0000 0.0000
# 5 0.0000 0.0000 0.0000 0.0000 25.8569 0.0000
# 6 0.0000 0.0000 0.0000 0.0000 0.0000 13.2190
#
#
#
# Elastic Compliance Matrix: (Units=1/GPa)
#
#
# Indices 1 2 3 4 5 6 
#
# 1 0.013217 -0.004135 -0.007303 0.000000 0.000000 0.000000
# 2 -0.004135 0.057652 -0.007626 0.000000 0.000000 0.000000
# 3 -0.007303 -0.007626 0.011731 0.000000 0.000000 0.000000
# 4 0.000000 0.000000 0.000000 0.323257 0.000000 0.000000
# 5 0.000000 0.000000 0.000000 0.000000 0.038674 0.000000
# 6 0.000000 0.000000 0.000000 0.000000 0.000000 0.075649
#
#
# Mechanical properties :
#
#
# Convention : Reuss Voigt Hill
#
# Bulk Modulus (GPa) = 22.48577 71.16559 46.82568
# Shear Modulus (GPa) = 8.72400 20.11552 14.41976
#
# Velocity S-wave (km/s) = 2.18142 3.31243 2.80453
# Velocity P-wave (km/s) = 4.31391 7.31078 6.00239
#
# Compressibility (1/GPa) = 0.04447258
#
# Stress axis : x y z
#
# Youngs Moduli (GPa) = 75.66042 17.34542 85.24558
#
# Poissons Ratio (x) = 0.07173 0.62252
# Poissons Ratio (y) = 0.31288 0.65006
# Poissons Ratio (z) = 0.55252 0.13227
#
# Static dielectric constant tensor:
#      x y z
#    x 3.704170 0.000000 0.000000 
#    y 0.000000 2.797060 0.000000 
#    z 0.000000 0.000000 3.554870 
# 
# 
# High freq. dielectric constant tensor:
#      x y z
#    x 1.728650 0.000000 0.000000 
#    y 0.000000 1.649180 0.000000 
#    z 0.000000 0.000000 1.711640 
# 
# From -- ./inp_files/29435.got.cif
#   From: 2010.03.12/outbox.cif.g09.slc.cpg/sg51_15_cif.got.tgz:29435.got - 2010.04.16 13:43:02.
