data_PCOD8210189
_publ_section_title
;
Structure prediction by ZEFSAII (Michael W. Deem and Ramdas Pophale) SiO2 
 PCOD8210189
Probable space group: P M M A
;
_chemical_formula_sum "Si O2"
_cell_formula_units_Z 40
_cell_length_a 9.685579
_cell_length_b 8.799500
_cell_length_c 25.758794
_cell_angle_alpha 90.000000
_cell_angle_beta 90.000000
_cell_angle_gamma 90.000000
_cell_volume 2195.376997
_symmetry_space_group_name_H-M "P M M A"
_symmetry_group_IT_number 51
_symmetry_cell_setting 'orthorhombic'
loop_
_space_group_symop_operation_xyz
x,y,z
1/2-x,-y,z
1/2+x,-y,-z
-x,y,-z
-x,-y,-z
1/2+x,y,-z
1/2-x,y,z
x,-y,z
loop_
_atom_site_type_symbol
_atom_site_label
_atom_site_fract_x
_atom_site_fract_y
_atom_site_fract_z
Si Si1 0.902129 0.319665 0.955873
Si Si2 0.906420 0.180281 0.247860
Si Si3 0.090380 0.677838 0.160791
Si Si4 0.095599 0.180815 0.455148
Si Si5 0.405259 0.180753 0.340082
O O1 0.750000 0.252353 0.965432
O O2 0.897573 0.500000 0.961115
O O3 0.951911 0.277261 0.897978
O O4 0.000000 0.247439 0.000000
O O5 0.750000 0.245088 0.247359
O O6 0.987587 0.229173 0.196765
O O7 0.987057 0.246960 0.298120
O O8 0.903155 0.000000 0.250057
O O9 0.250000 0.722586 0.171546
O O10 0.069016 0.500000 0.170697
O O11 0.250000 0.238777 0.465782
O O12 0.047846 0.234636 0.397685
O O13 0.000000 0.253088 0.500000
O O14 0.090032 0.000000 0.457643
O O15 0.250000 0.240592 0.327893
O O16 0.404007 0.000000 0.337801
#
# Coordination Sequence:
#
# PCOD8210189 Si02
#       5
#     8   8   8   8   8
#     4   8  14  25  42  65  90 113 139 173 214 260
#     4  10  20  31  44  65  91 119 152 188 225 264
#     4   9  18  32  49  69  92 118 149 183 219 263
#     4   8  13  20  31  49  73 102 136 173 214 258
#     4   8  14  25  39  54  76 110 148 180 214 261
#
# _framework density 18.220106000000001
#
# number of rings (size 3 to 8) (size 9 to 14) (size 15 to 20)
#    0.000    3.400    0.000    3.000    0.000    3.200 
#    0.000    6.000    0.000    0.600    0.000    0.000 
#    0.000    0.800    0.000    2.600    0.000    5.200 
#
# Total GULP energy -495682.672027 kJ/mol
# GULP energy per Si atom -12392.066801 kJ/mol
# Density = 1.817864 g / cm^3
# Si number density = 18.220106 Si / 1000 Ang^3
#
#
#
# Elastic Constant Matrix: (Units=GPa)
#
#
# Indices 1 2 3 4 5 6 
#
# 1 129.2460 10.4443 103.2429 0.0000 0.0000 0.0000
# 2 10.4443 5.0451 9.2785 0.0000 0.0000 0.0000
# 3 103.2429 9.2785 169.7217 0.0000 0.0000 0.0000
# 4 0.0000 0.0000 0.0000 -15.7035 0.0000 0.0000
# 5 0.0000 0.0000 0.0000 0.0000 42.4037 0.0000
# 6 0.0000 0.0000 0.0000 0.0000 0.0000 15.0057
#
#
#
# Elastic Compliance Matrix: (Units=1/GPa)
#
#
# Indices 1 2 3 4 5 6 
#
# 1 0.016296 -0.017238 -0.008971 0.000000 0.000000 0.000000
# 2 -0.017238 0.238601 -0.002558 0.000000 0.000000 0.000000
# 3 -0.008971 -0.002558 0.011489 0.000000 0.000000 0.000000
# 4 0.000000 0.000000 0.000000 -0.063680 0.000000 0.000000
# 5 0.000000 0.000000 0.000000 0.000000 0.023583 0.000000
# 6 0.000000 0.000000 0.000000 0.000000 0.000000 0.066641
#
#
# Mechanical properties :
#
#
# Convention : Reuss Voigt Hill
#
# Bulk Modulus (GPa) = 4.78806 61.10491 32.94649
# Shear Modulus (GPa) = 11.90249 20.41101 16.15675
#
# Velocity S-wave (km/s) = 2.55867 3.35064 2.98107
# Velocity P-wave (km/s) = 3.37085 6.96986 5.47456
#
# Compressibility (1/GPa) = 0.20885285
#
# Stress axis : x y z
#
# Youngs Moduli (GPa) = 61.36505 4.19109 87.04199
#
# Poissons Ratio (x) = 0.07225 0.78082
# Poissons Ratio (y) = 1.05780 0.22267
# Poissons Ratio (z) = 0.55048 0.01072
#
# Static dielectric constant tensor:
#      x y z
#    x 3.723360 0.000000 0.000000 
#    y 0.000000 2.654890 0.000000 
#    z 0.000000 0.000000 3.718060 
# 
# 
# High freq. dielectric constant tensor:
#      x y z
#    x 1.706650 0.000000 0.000000 
#    y 0.000000 1.633200 0.000000 
#    z 0.000000 0.000000 1.722370 
# 
# From -- ./inp_files/35976.got.cif
#   From: 2010.03.12/outbox.cif.g09.slc.cpg/sg51_18_cif.got.tgz:35976.got - 2010.04.16 13:43:02.
