data_PCOD8210540
_publ_section_title
;
Structure prediction by ZEFSAII (Michael W. Deem and Ramdas Pophale) SiO2 
 PCOD8210540
Probable space group: P M M A
;
_chemical_formula_sum "Si O2"
_cell_formula_units_Z 40
_cell_length_a 8.721086
_cell_length_b 25.587346
_cell_length_c 9.981114
_cell_angle_alpha 90.000000
_cell_angle_beta 90.000000
_cell_angle_gamma 90.000000
_cell_volume 2227.280049
_symmetry_space_group_name_H-M "P M M A"
_symmetry_group_IT_number 51
_symmetry_cell_setting 'orthorhombic'
loop_
_space_group_symop_operation_xyz
x,y,z
1/2-x,-y,z
1/2+x,-y,-z
-x,y,-z
-x,-y,-z
1/2+x,y,-z
1/2-x,y,z
x,-y,z
loop_
_atom_site_type_symbol
_atom_site_label
_atom_site_fract_x
_atom_site_fract_y
_atom_site_fract_z
Si Si1 0.930884 0.441155 0.139057
Si Si2 0.431798 0.751904 0.357252
Si Si3 0.069421 0.160411 0.147203
Si Si4 0.067703 0.358839 0.642165
Si Si5 0.070409 0.943490 0.853815
O O1 0.750000 0.439324 0.126684
O O2 0.988088 0.500000 0.171458
O O3 0.989163 0.402758 0.254731
O O4 0.000000 0.420984 0.000000
O O5 0.500000 0.769487 0.500000
O O6 0.250000 0.747357 0.371038
O O7 0.482253 0.793172 0.244777
O O8 0.500488 0.696599 0.311318
O O9 0.250000 0.157526 0.132845
O O10 0.009216 0.106344 0.216623
O O11 0.000000 0.169743 0.000000
O O12 0.250000 0.354847 0.633303
O O13 0.000000 0.375623 0.500000
O O14 0.250000 0.932583 0.864460
O O15 0.039333 0.000000 0.781477
O O16 0.000000 0.946566 0.000000
#
# Coordination Sequence:
#
# PCOD8210540 Si02
#       5
#     8   8   8   8   8
#     4   9  19  35  53  75 103 133 165 201 243 291
#     4  10  21  36  53  73  98 130 167 204 246 294
#     4  10  20  32  49  74 100 128 163 202 244 291
#     4  10  20  34  53  75  99 129 165 204 245 290
#     4   9  16  26  43  68  97 128 160 197 242 288
#
# _framework density 17.959123999999999
#
# number of rings (size 3 to 8) (size 9 to 14) (size 15 to 20)
#    0.000    2.400    0.000    4.800    0.000    7.200 
#    0.000    4.000    0.000    0.600    0.000    0.000 
#    0.000    0.000    0.000    0.000    0.000    0.000 
#
# Total GULP energy -495813.965849 kJ/mol
# GULP energy per Si atom -12395.349146 kJ/mol
# Density = 1.791825 g / cm^3
# Si number density = 17.959124 Si / 1000 Ang^3
#
#
#
# Elastic Constant Matrix: (Units=GPa)
#
#
# Indices 1 2 3 4 5 6 
#
# 1 73.7711 52.9734 41.2923 0.0000 0.0000 0.0000
# 2 52.9734 162.7158 101.9938 0.0000 0.0000 0.0000
# 3 41.2923 101.9938 104.1132 0.0000 0.0000 0.0000
# 4 0.0000 0.0000 0.0000 13.8320 0.0000 0.0000
# 5 0.0000 0.0000 0.0000 0.0000 25.6643 0.0000
# 6 0.0000 0.0000 0.0000 0.0000 0.0000 21.7698
#
#
#
# Elastic Compliance Matrix: (Units=1/GPa)
#
#
# Indices 1 2 3 4 5 6 
#
# 1 0.018216 -0.003632 -0.003666 0.000000 0.000000 0.000000
# 2 -0.003632 0.016648 -0.014869 0.000000 0.000000 0.000000
# 3 -0.003666 -0.014869 0.025625 0.000000 0.000000 0.000000
# 4 0.000000 0.000000 0.000000 0.072296 0.000000 0.000000
# 5 0.000000 0.000000 0.000000 0.000000 0.038965 0.000000
# 6 0.000000 0.000000 0.000000 0.000000 0.000000 0.045935
#
#
# Mechanical properties :
#
#
# Convention : Reuss Voigt Hill
#
# Bulk Modulus (GPa) = 61.90185 81.45765 71.67975
# Shear Modulus (GPa) = 18.69827 21.87594 20.28710
#
# Velocity S-wave (km/s) = 3.23020 3.49391 3.36464
# Velocity P-wave (km/s) = 6.96098 7.85699 7.42252
#
# Compressibility (1/GPa) = 0.01615461
#
# Stress axis : x y z
#
# Youngs Moduli (GPa) = 54.89745 60.06648 39.02424
#
# Poissons Ratio (x) = 0.21817 0.14308
# Poissons Ratio (y) = 0.19940 0.58024
# Poissons Ratio (z) = 0.20127 0.89311
#
# Static dielectric constant tensor:
#      x y z
#    x 3.382990 0.000000 0.000000 
#    y 0.000000 3.967070 0.000000 
#    z 0.000000 0.000000 3.148410 
# 
# 
# High freq. dielectric constant tensor:
#      x y z
#    x 1.708350 0.000000 0.000000 
#    y 0.000000 1.712480 0.000000 
#    z 0.000000 0.000000 1.664220 
# 
# From -- ./inp_files/14231.got.cif
#   From: 2010.03.12/outbox.cif.g09.slc.cpg/sg51_8_cif.got.tgz:14231.got - 2010.04.16 13:43:02.
