data_PCOD8210378
_publ_section_title
;
Structure prediction by ZEFSAII (Michael W. Deem and Ramdas Pophale) SiO2 
 PCOD8210378
Probable space group: P M M A
;
_chemical_formula_sum "Si O2"
_cell_formula_units_Z 48
_cell_length_a 9.820518
_cell_length_b 9.202355
_cell_length_c 30.894527
_cell_angle_alpha 90.000000
_cell_angle_beta 90.000000
_cell_angle_gamma 90.000000
_cell_volume 2791.996886
_symmetry_space_group_name_H-M "P M M A"
_symmetry_group_IT_number 51
_symmetry_cell_setting 'orthorhombic'
loop_
_space_group_symop_operation_xyz
x,y,z
1/2-x,-y,z
1/2+x,-y,-z
-x,y,-z
-x,-y,-z
1/2+x,y,-z
1/2-x,y,z
x,-y,z
loop_
_atom_site_type_symbol
_atom_site_label
_atom_site_fract_x
_atom_site_fract_y
_atom_site_fract_z
Si Si1 0.909391 0.831937 0.633520
Si Si2 0.088158 0.837303 0.786784
Si Si3 0.598209 0.673406 0.036885
Si Si4 0.087765 0.338100 0.867963
Si Si5 0.600158 0.172038 0.535827
Si Si6 0.907641 0.670795 0.298496
O O1 0.750000 0.802188 0.641957
O O2 0.948812 0.790851 0.584274
O O3 0.001001 0.729168 0.662741
O O4 0.943861 0.000000 0.643203
O O5 0.250000 0.839156 0.789248
O O6 0.028265 0.766055 0.830628
O O7 0.040098 0.744704 0.745622
O O8 0.029515 0.000000 0.782590
O O9 0.750000 0.734253 0.028428
O O10 0.600600 0.500000 0.035303
O O11 0.544725 0.721525 0.084521
O O12 0.500000 0.738754 0.000000
O O13 0.250000 0.344472 0.865912
O O14 0.028995 0.500000 0.860286
O O15 0.500000 0.241399 0.500000
O O16 0.750000 0.238179 0.527731
O O17 0.607061 0.000000 0.530408
O O18 0.750000 0.709713 0.307721
O O19 0.928748 0.500000 0.293580
#
# Coordination Sequence:
#
# PCOD8210378 Si02
#       6
#     8   8   8   8   8   8
#     4   9  18  32  49  70  97 127 157 189 227 273
#     4   9  16  26  42  64  88 113 144 184 227 269
#     4   8  13  21  35  56  80 106 137 172 209 250
#     4   8  13  22  37  57  81 109 141 177 217 260
#     4   8  14  25  42  66  94 121 150 185 224 265
#     4  10  20  32  47  69  95 121 152 192 234 274
#
# _framework density 17.191996
#
# number of rings (size 3 to 8) (size 9 to 14) (size 15 to 20)
#    0.000    3.333    0.000    3.000    0.000    4.000 
#    0.000    1.667    0.000    2.000    0.000    2.333 
#    0.000    0.000    0.000    0.000    0.000    0.000 
#
# Total GULP energy -594913.241513 kJ/mol
# GULP energy per Si atom -12394.025865 kJ/mol
# Density = 1.715287 g / cm^3
# Si number density = 17.191996 Si / 1000 Ang^3
#
#
#
# Elastic Constant Matrix: (Units=GPa)
#
#
# Indices 1 2 3 4 5 6 
#
# 1 51.3494 30.5544 61.9222 0.0000 0.0000 0.0000
# 2 30.5544 73.6149 59.8376 0.0000 0.0000 0.0000
# 3 61.9222 59.8376 165.8594 0.0000 0.0000 0.0000
# 4 0.0000 0.0000 0.0000 24.7413 0.0000 0.0000
# 5 0.0000 0.0000 0.0000 0.0000 25.0509 0.0000
# 6 0.0000 0.0000 0.0000 0.0000 0.0000 15.2916
#
#
#
# Elastic Compliance Matrix: (Units=1/GPa)
#
#
# Indices 1 2 3 4 5 6 
#
# 1 0.037127 -0.005862 -0.011746 0.000000 0.000000 0.000000
# 2 -0.005862 0.020146 -0.005080 0.000000 0.000000 0.000000
# 3 -0.011746 -0.005080 0.012247 0.000000 0.000000 0.000000
# 4 0.000000 0.000000 0.000000 0.040418 0.000000 0.000000
# 5 0.000000 0.000000 0.000000 0.000000 0.039919 0.000000
# 6 0.000000 0.000000 0.000000 0.000000 0.000000 0.065395
#
#
# Mechanical properties :
#
#
# Convention : Reuss Voigt Hill
#
# Bulk Modulus (GPa) = 41.41684 66.16132 53.78908
# Shear Modulus (GPa) = 18.60969 22.25075 20.43022
#
# Velocity S-wave (km/s) = 3.29365 3.60147 3.45099
# Velocity P-wave (km/s) = 6.21347 7.47405 6.87273
#
# Compressibility (1/GPa) = 0.02414477
#
# Stress axis : x y z
#
# Youngs Moduli (GPa) = 26.93435 49.63694 81.65130
#
# Poissons Ratio (x) = 0.29097 0.95910
# Poissons Ratio (y) = 0.15789 0.41476
# Poissons Ratio (z) = 0.31638 0.25214
#
# Static dielectric constant tensor:
#      x y z
#    x 3.074980 0.000000 0.000000 
#    y 0.000000 2.981290 0.000000 
#    z 0.000000 0.000000 3.510100 
# 
# 
# High freq. dielectric constant tensor:
#      x y z
#    x 1.622560 0.000000 0.000000 
#    y 0.000000 1.630290 0.000000 
#    z 0.000000 0.000000 1.680180 
# 
# From -- ./inp_files/35288.got.cif
#   From: 2010.03.12/outbox.cif.g09.slc.cpg/sg51_18_cif.got.tgz:35288.got - 2010.04.16 13:43:02.
