data_PCOD8210707
_publ_section_title
;
Structure prediction by ZEFSAII (Michael W. Deem and Ramdas Pophale) SiO2 
 PCOD8210707
Probable space group: P M M A
;
_chemical_formula_sum "Si O2"
_cell_formula_units_Z 64
_cell_length_a 19.328888
_cell_length_b 9.790271
_cell_length_c 19.588013
_cell_angle_alpha 90.000000
_cell_angle_beta 90.000000
_cell_angle_gamma 90.000000
_cell_volume 3706.738652
_symmetry_space_group_name_H-M "P M M A"
_symmetry_group_IT_number 51
_symmetry_cell_setting 'orthorhombic'
loop_
_space_group_symop_operation_xyz
x,y,z
1/2-x,-y,z
1/2+x,-y,-z
-x,y,-z
-x,-y,-z
1/2+x,y,-z
1/2-x,y,z
x,-y,z
loop_
_atom_site_type_symbol
_atom_site_label
_atom_site_fract_x
_atom_site_fract_y
_atom_site_fract_z
Si Si1 0.548095 0.656769 0.101933
Si Si2 0.330008 0.157563 0.654013
Si Si3 0.589261 0.841041 0.725347
Si Si4 0.831994 0.650394 0.465631
Si Si5 0.063341 0.157863 0.769858
Si Si6 0.101189 0.343802 0.043518
Si Si7 0.830078 0.659815 0.619235
Si Si8 0.671288 0.845348 0.858228
O O1 0.551698 0.500000 0.126250
O O2 0.572614 0.752857 0.162719
O O3 0.471176 0.695127 0.078596
O O4 0.598697 0.680782 0.037635
O O5 0.250000 0.192259 0.669358
O O6 0.359803 0.242149 0.589771
O O7 0.373449 0.197091 0.720636
O O8 0.340158 0.000000 0.634764
O O9 0.507824 0.810718 0.730335
O O10 0.620542 0.749989 0.665791
O O11 0.623718 0.794815 0.796266
O O12 0.604774 0.000000 0.710054
O O13 0.750000 0.644907 0.463446
O O14 0.861863 0.500000 0.448002
O O15 0.853992 0.693155 0.541951
O O16 0.065913 0.000000 0.792120
O O17 0.120234 0.500000 0.059249
O O18 0.159699 0.247786 0.075428
O O19 0.750000 0.700655 0.631090
O O20 0.840549 0.500000 0.635581
O O21 0.750000 0.832112 0.833943
O O22 0.652497 0.000000 0.878626
#
# Coordination Sequence:
#
# PCOD8210707 Si02
#       8
#     8   8   8   8   8   8   8   8
#     4   9  18  33  53  75  98 125 162 206 246 291
#     4   9  18  33  53  76  99 124 160 206 253 302
#     4  10  20  33  48  70 101 136 171 205 244 293
#     4   8  15  30  51  73  97 126 163 205 247 296
#     4  10  20  34  52  75 102 133 166 203 249 300
#     4   9  18  33  52  74  98 126 164 207 248 290
#     4   9  18  32  50  73 100 131 169 210 248 289
#     4  10  20  33  49  72 103 136 170 208 247 290
#
# _framework density 17.265851000000001
#
# number of rings (size 3 to 8) (size 9 to 14) (size 15 to 20)
#    0.000    2.750    1.250    1.875    0.000    3.500 
#    0.000    3.750    0.000    6.000    0.000    0.000 
#    0.000    0.000    0.000    0.000    0.000    0.000 
#
# Total GULP energy -793574.175995 kJ/mol
# GULP energy per Si atom -12399.596500 kJ/mol
# Density = 1.722655 g / cm^3
# Si number density = 17.265851 Si / 1000 Ang^3
#
#
#
# Elastic Constant Matrix: (Units=GPa)
#
#
# Indices 1 2 3 4 5 6 
#
# 1 63.5942 38.4973 47.0007 0.0000 0.0000 0.0000
# 2 38.4973 84.4478 80.0204 0.0000 0.0000 0.0000
# 3 47.0007 80.0204 127.4515 0.0000 0.0000 0.0000
# 4 0.0000 0.0000 0.0000 36.5501 0.0000 0.0000
# 5 0.0000 0.0000 0.0000 0.0000 26.1906 0.0000
# 6 0.0000 0.0000 0.0000 0.0000 0.0000 23.6194
#
#
#
# Elastic Compliance Matrix: (Units=1/GPa)
#
#
# Indices 1 2 3 4 5 6 
#
# 1 0.022779 -0.005985 -0.004642 0.000000 0.000000 0.000000
# 2 -0.005985 0.030806 -0.017135 0.000000 0.000000 0.000000
# 3 -0.004642 -0.017135 0.020316 0.000000 0.000000 0.000000
# 4 0.000000 0.000000 0.000000 0.027360 0.000000 0.000000
# 5 0.000000 0.000000 0.000000 0.000000 0.038182 0.000000
# 6 0.000000 0.000000 0.000000 0.000000 0.000000 0.042338
#
#
# Mechanical properties :
#
#
# Convention : Reuss Voigt Hill
#
# Bulk Modulus (GPa) = 54.41605 67.39229 60.90417
# Shear Modulus (GPa) = 20.53967 24.60368 22.57168
#
# Velocity S-wave (km/s) = 3.45282 3.77900 3.61959
# Velocity P-wave (km/s) = 6.89064 7.62614 7.26770
#
# Compressibility (1/GPa) = 0.01837693
#
# Stress axis : x y z
#
# Youngs Moduli (GPa) = 43.90001 32.46079 49.22202
#
# Poissons Ratio (x) = 0.19428 0.22851
# Poissons Ratio (y) = 0.26275 0.84340
# Poissons Ratio (z) = 0.20381 0.55620
#
# Static dielectric constant tensor:
#      x y z
#    x 3.027480 0.000000 0.000000 
#    y 0.000000 3.289660 0.000000 
#    z 0.000000 0.000000 3.241460 
# 
# 
# High freq. dielectric constant tensor:
#      x y z
#    x 1.645210 0.000000 0.000000 
#    y 0.000000 1.668550 0.000000 
#    z 0.000000 0.000000 1.665770 
# 
# From -- ./inp_files/30532.got.cif
#   From: 2010.03.12/outbox.cif.g09.slc.cpg/sg51_16_cif.got.tgz:30532.got - 2010.04.16 13:43:02.
