data_PCOD8210624
_publ_section_title
;
Structure prediction by ZEFSAII (Michael W. Deem and Ramdas Pophale) SiO2 
 PCOD8210624
Probable space group: P M M A
;
_chemical_formula_sum "Si O2"
_cell_formula_units_Z 48
_cell_length_a 15.198956
_cell_length_b 9.016648
_cell_length_c 19.584477
_cell_angle_alpha 90.000000
_cell_angle_beta 90.000000
_cell_angle_gamma 90.000000
_cell_volume 2683.927942
_symmetry_space_group_name_H-M "P M M A"
_symmetry_group_IT_number 51
_symmetry_cell_setting 'orthorhombic'
loop_
_space_group_symop_operation_xyz
x,y,z
1/2-x,-y,z
1/2+x,-y,-z
-x,y,-z
-x,-y,-z
1/2+x,y,-z
1/2-x,y,z
x,-y,z
loop_
_atom_site_type_symbol
_atom_site_label
_atom_site_fract_x
_atom_site_fract_y
_atom_site_fract_z
Si Si1 0.574109 0.328181 0.055708
Si Si2 0.436850 0.175062 0.804615
Si Si3 0.649425 0.674450 0.424770
Si Si4 0.250000 0.836899 0.953208
Si Si5 0.650594 0.826776 0.564891
Si Si6 0.250000 0.840115 0.792611
Si Si7 0.504276 0.172299 0.338368
O O1 0.594142 0.500000 0.068642
O O2 0.536941 0.258994 0.126399
O O3 0.662193 0.252396 0.026267
O O4 0.500000 0.302164 0.000000
O O5 0.342453 0.240059 0.775672
O O6 0.505841 0.203104 0.743186
O O7 0.427138 0.000000 0.821447
O O8 0.750000 0.719596 0.407142
O O9 0.638288 0.500000 0.429401
O O10 0.620625 0.741221 0.497370
O O11 0.586450 0.736659 0.366660
O O12 0.250000 0.859865 0.873415
O O13 0.250000 0.000000 0.988941
O O14 0.750000 0.783863 0.586239
O O15 0.586782 0.777937 0.626538
O O16 0.642316 0.000000 0.548968
O O17 0.250000 0.000000 0.755449
O O18 0.523708 0.000000 0.352049
#
# Coordination Sequence:
#
# PCOD8210624 Si02
#       7
#     8   8   8   4   8   4   8
#     4  10  20  34  54  79 108 142 175 211 257 310
#     4   9  18  31  49  74 102 133 169 209 254 307
#     4  10  21  34  48  72 103 133 166 206 254 307
#     4   9  17  31  53  79 103 133 172 211 252 299
#     4   9  18  34  53  71  95 131 172 213 254 298
#     4   7  12  25  43  65  93 123 152 189 240 295
#     4  10  20  32  51  76 100 131 170 210 256 304
#
# _framework density 17.884236000000001
#
# number of rings (size 3 to 8) (size 9 to 14) (size 15 to 20)
#    0.000    2.667    0.000    2.750    1.167    5.667 
#    0.000    0.000    1.833    0.000    0.000    0.000 
#    0.000    0.000    0.000    0.000    0.000    0.000 
#
# Total GULP energy -594886.789688 kJ/mol
# GULP energy per Si atom -12393.474785 kJ/mol
# Density = 1.784353 g / cm^3
# Si number density = 17.884236 Si / 1000 Ang^3
#
#
#
# Elastic Constant Matrix: (Units=GPa)
#
#
# Indices 1 2 3 4 5 6 
#
# 1 84.0521 44.7037 52.8096 0.0000 0.0000 0.0000
# 2 44.7037 77.8166 45.3382 0.0000 0.0000 0.0000
# 3 52.8096 45.3382 96.0408 0.0000 0.0000 0.0000
# 4 0.0000 0.0000 0.0000 13.4049 0.0000 0.0000
# 5 0.0000 0.0000 0.0000 0.0000 26.3999 0.0000
# 6 0.0000 0.0000 0.0000 0.0000 0.0000 22.0432
#
#
#
# Elastic Compliance Matrix: (Units=1/GPa)
#
#
# Indices 1 2 3 4 5 6 
#
# 1 0.020797 -0.007290 -0.007994 0.000000 0.000000 0.000000
# 2 -0.007290 0.020281 -0.005566 0.000000 0.000000 0.000000
# 3 -0.007994 -0.005566 0.017436 0.000000 0.000000 0.000000
# 4 0.000000 0.000000 0.000000 0.074600 0.000000 0.000000
# 5 0.000000 0.000000 0.000000 0.000000 0.037879 0.000000
# 6 0.000000 0.000000 0.000000 0.000000 0.000000 0.045365
#
#
# Mechanical properties :
#
#
# Convention : Reuss Voigt Hill
#
# Bulk Modulus (GPa) = 59.47379 60.40140 59.93759
# Shear Modulus (GPa) = 18.96357 20.04014 19.50185
#
# Velocity S-wave (km/s) = 3.25984 3.35109 3.30578
# Velocity P-wave (km/s) = 6.89172 6.98713 6.93959
#
# Compressibility (1/GPa) = 0.01681413
#
# Stress axis : x y z
#
# Youngs Moduli (GPa) = 48.08294 49.30637 57.35383
#
# Poissons Ratio (x) = 0.35943 0.45851
# Poissons Ratio (y) = 0.35051 0.31922
# Poissons Ratio (z) = 0.38440 0.27443
#
# Static dielectric constant tensor:
#      x y z
#    x 3.610260 0.000000 0.000000 
#    y 0.000000 3.271050 0.000000 
#    z 0.000000 0.000000 3.143300 
# 
# 
# High freq. dielectric constant tensor:
#      x y z
#    x 1.687620 0.000000 0.000000 
#    y 0.000000 1.684250 0.000000 
#    z 0.000000 0.000000 1.674560 
# 
# From -- ./inp_files/29545.got.cif
#   From: 2010.03.12/outbox.cif.g09.slc.cpg/sg51_15_cif.got.tgz:29545.got - 2010.04.16 13:43:02.
