data_PCOD8210174
_publ_section_title
;
Structure prediction by ZEFSAII (Michael W. Deem and Ramdas Pophale) SiO2 
 PCOD8210174
Probable space group: P M M A
;
_chemical_formula_sum "Si O2"
_cell_formula_units_Z 64
_cell_length_a 9.009955
_cell_length_b 15.245726
_cell_length_c 25.663781
_cell_angle_alpha 90.000000
_cell_angle_beta 90.000000
_cell_angle_gamma 90.000000
_cell_volume 3525.261782
_symmetry_space_group_name_H-M "P M M A"
_symmetry_group_IT_number 51
_symmetry_cell_setting 'orthorhombic'
loop_
_space_group_symop_operation_xyz
x,y,z
1/2-x,-y,z
1/2+x,-y,-z
-x,y,-z
-x,-y,-z
1/2+x,y,-z
1/2-x,y,z
x,-y,z
loop_
_atom_site_type_symbol
_atom_site_label
_atom_site_fract_x
_atom_site_fract_y
_atom_site_fract_z
Si Si1 0.917348 0.179966 0.349921
Si Si2 0.911555 0.378241 0.361518
Si Si3 0.924752 0.597833 0.244476
Si Si4 0.422506 0.896500 0.843718
Si Si5 0.572759 0.222085 0.758868
Si Si6 0.095084 0.403548 0.456861
Si Si7 0.582324 0.104049 0.949055
Si Si8 0.917239 0.896661 0.551729
O O1 0.750000 0.142691 0.339401
O O2 0.904785 0.275959 0.373355
O O3 0.007135 0.187093 0.295757
O O4 0.999603 0.123355 0.393810
O O5 0.750000 0.420170 0.369699
O O6 0.969375 0.403264 0.304776
O O7 0.022869 0.419984 0.401554
O O8 0.750000 0.616812 0.236913
O O9 0.965354 0.500000 0.221284
O O10 0.015158 0.681137 0.221847
O O11 0.250000 0.869172 0.840011
O O12 0.520266 0.848046 0.800912
O O13 0.485981 0.866709 0.899499
O O14 0.442238 0.000000 0.835206
O O15 0.750000 0.224481 0.755235
O O16 0.250000 0.351865 0.449780
O O17 0.126863 0.500000 0.480214
O O18 0.000000 0.350203 0.500000
O O19 0.750000 0.142143 0.945462
O O20 0.589917 0.000000 0.952820
O O21 0.500000 0.142574 0.000000
O O22 0.750000 0.857707 0.553701
O O23 0.000000 0.858663 0.500000
O O24 0.909935 0.000000 0.546600
#
# Coordination Sequence:
#
# PCOD8210174 Si02
#       8
#     8   8   8   8   8   8   8   8
#     4  10  21  37  54  71  93 122 155 192 239 295
#     4   9  18  32  49  68  88 111 141 177 220 274
#     4   9  18  34  55  75  97 128 164 204 253 308
#     4  10  20  34  52  74 104 145 188 226 265 309
#     4  11  22  35  52  76 107 138 172 217 264 316
#     4  10  20  31  43  60  82 108 136 166 203 252
#     4   9  16  27  45  71 104 142 184 226 265 306
#     4  10  21  37  56  76  95 117 150 194 245 301
#
# _framework density 18.154679999999999
#
# number of rings (size 3 to 8) (size 9 to 14) (size 15 to 20)
#    0.000    2.250    0.000    4.125    0.000    8.000 
#    0.000    0.000    0.000    0.000    0.000    0.000 
#    0.000    0.500    0.000    1.875    0.000    2.875 
#
# Total GULP energy -792892.498346 kJ/mol
# GULP energy per Si atom -12388.945287 kJ/mol
# Density = 1.811336 g / cm^3
# Si number density = 18.154680 Si / 1000 Ang^3
#
#
#
# Elastic Constant Matrix: (Units=GPa)
#
#
# Indices 1 2 3 4 5 6 
#
# 1 135.7656 30.0192 50.8454 0.0000 0.0000 0.0000
# 2 30.0192 46.3016 28.2683 0.0000 0.0000 0.0000
# 3 50.8454 28.2683 94.0970 0.0000 0.0000 0.0000
# 4 0.0000 0.0000 0.0000 8.6292 0.0000 0.0000
# 5 0.0000 0.0000 0.0000 0.0000 32.2274 0.0000
# 6 0.0000 0.0000 0.0000 0.0000 0.0000 19.9996
#
#
#
# Elastic Compliance Matrix: (Units=1/GPa)
#
#
# Indices 1 2 3 4 5 6 
#
# 1 0.009752 -0.003803 -0.004127 0.000000 0.000000 0.000000
# 2 -0.003803 0.027932 -0.006336 0.000000 0.000000 0.000000
# 3 -0.004127 -0.006336 0.014761 0.000000 0.000000 0.000000
# 4 0.000000 0.000000 0.000000 0.115885 0.000000 0.000000
# 5 0.000000 0.000000 0.000000 0.000000 0.031029 0.000000
# 6 0.000000 0.000000 0.000000 0.000000 0.000000 0.050001
#
#
# Mechanical properties :
#
#
# Convention : Reuss Voigt Hill
#
# Bulk Modulus (GPa) = 41.81985 54.93667 48.37826
# Shear Modulus (GPa) = 17.49087 23.30667 20.39877
#
# Velocity S-wave (km/s) = 3.10729 3.58688 3.35567
# Velocity P-wave (km/s) = 5.99658 6.89059 6.45908
#
# Compressibility (1/GPa) = 0.02391209
#
# Stress axis : x y z
#
# Youngs Moduli (GPa) = 102.54139 35.80181 67.74656
#
# Poissons Ratio (x) = 0.13615 0.27960
# Poissons Ratio (y) = 0.38997 0.42925
# Poissons Ratio (z) = 0.42320 0.22685
#
# Static dielectric constant tensor:
#      x y z
#    x 3.614100 0.000000 0.000000 
#    y 0.000000 3.347840 0.000000 
#    z 0.000000 0.000000 3.169830 
# 
# 
# High freq. dielectric constant tensor:
#      x y z
#    x 1.721140 0.000000 0.000000 
#    y 0.000000 1.680380 0.000000 
#    z 0.000000 0.000000 1.677970 
# 
# From -- ./inp_files/34920.got.cif
#   From: 2010.03.12/outbox.cif.g09.slc.cpg/sg51_18_cif.got.tgz:34920.got - 2010.04.16 13:43:02.
