data_PCOD8210126
_publ_section_title
;
Structure prediction by ZEFSAII (Michael W. Deem and Ramdas Pophale) SiO2 
 PCOD8210126
Probable space group: P M M A
;
_chemical_formula_sum "Si O2"
_cell_formula_units_Z 48
_cell_length_a 17.374086
_cell_length_b 14.185456
_cell_length_c 9.901491
_cell_angle_alpha 90.000000
_cell_angle_beta 90.000000
_cell_angle_gamma 90.000000
_cell_volume 2440.314863
_symmetry_space_group_name_H-M "P M M A"
_symmetry_group_IT_number 51
_symmetry_cell_setting 'orthorhombic'
loop_
_space_group_symop_operation_xyz
x,y,z
1/2-x,-y,z
1/2+x,-y,-z
-x,y,-z
-x,-y,-z
1/2+x,y,-z
1/2-x,y,z
x,-y,z
loop_
_atom_site_type_symbol
_atom_site_label
_atom_site_fract_x
_atom_site_fract_y
_atom_site_fract_z
Si Si1 0.162307 0.782857 0.470478
Si Si2 0.570712 0.606101 0.595212
Si Si3 0.559593 0.888863 0.733274
Si Si4 0.973796 0.606252 0.148571
Si Si5 0.837231 0.108081 0.984475
Si Si6 0.397917 0.786152 0.761764
O O1 0.250000 0.802474 0.428563
O O2 0.141273 0.676232 0.428259
O O3 0.107509 0.858372 0.397763
O O4 0.153956 0.796503 0.630048
O O5 0.500000 0.638784 0.500000
O O6 0.596212 0.500000 0.555889
O O7 0.546985 0.611617 0.751888
O O8 0.480043 0.833926 0.737354
O O9 0.544398 0.000000 0.726446
O O10 0.606463 0.858411 0.866013
O O11 0.939842 0.500000 0.146739
O O12 0.907909 0.675975 0.202019
O O13 0.000000 0.637977 0.000000
O O14 0.750000 0.123355 0.934725
O O15 0.851723 0.166659 0.118077
O O16 0.853675 0.000000 0.020437
#
# Coordination Sequence:
#
# PCOD8210126 Si02
#       6
#     8   8   8   8   8   8
#     4  12  25  39  56  86 123 158 198 247 308 362
#     4  10  19  38  63  87 117 154 198 244 289 350
#     4  11  23  41  63  86 115 156 205 254 300 356
#     4  10  20  35  61  93 120 149 192 243 295 348
#     4  10  22  40  61  88 121 156 195 245 308 364
#     4  12  22  38  62  91 117 157 204 251 292 355
#
# _framework density 19.669592999999999
#
# number of rings (size 3 to 8) (size 9 to 14) (size 15 to 20)
#    0.000    1.167    3.333    3.500    0.000    4.667 
#    0.000    0.000    0.000    1.500    0.000    0.000 
#    0.000    0.000    0.000    0.000    0.000    0.000 
#
# Total GULP energy -595430.348521 kJ/mol
# GULP energy per Si atom -12404.798928 kJ/mol
# Density = 1.962482 g / cm^3
# Si number density = 19.669593 Si / 1000 Ang^3
#
#
#
# Elastic Constant Matrix: (Units=GPa)
#
#
# Indices 1 2 3 4 5 6 
#
# 1 70.8099 21.7043 5.1623 0.0000 0.0000 0.0000
# 2 21.7043 82.3727 22.5593 0.0000 0.0000 0.0000
# 3 5.1623 22.5593 108.3595 0.0000 0.0000 0.0000
# 4 0.0000 0.0000 0.0000 28.7923 0.0000 0.0000
# 5 0.0000 0.0000 0.0000 0.0000 30.3530 0.0000
# 6 0.0000 0.0000 0.0000 0.0000 0.0000 22.5195
#
#
#
# Elastic Compliance Matrix: (Units=1/GPa)
#
#
# Indices 1 2 3 4 5 6 
#
# 1 0.015365 -0.004081 0.000118 0.000000 0.000000 0.000000
# 2 -0.004081 0.013958 -0.002711 0.000000 0.000000 0.000000
# 3 0.000118 -0.002711 0.009787 0.000000 0.000000 0.000000
# 4 0.000000 0.000000 0.000000 0.034732 0.000000 0.000000
# 5 0.000000 0.000000 0.000000 0.000000 0.032946 0.000000
# 6 0.000000 0.000000 0.000000 0.000000 0.000000 0.044406
#
#
# Mechanical properties :
#
#
# Convention : Reuss Voigt Hill
#
# Bulk Modulus (GPa) = 38.81877 40.04376 39.43126
# Shear Modulus (GPa) = 28.88025 30.47403 29.67714
#
# Velocity S-wave (km/s) = 3.83596 3.94038 3.88852
# Velocity P-wave (km/s) = 6.27676 6.41128 6.34438
#
# Compressibility (1/GPa) = 0.02576074
#
# Stress axis : x y z
#
# Youngs Moduli (GPa) = 65.08502 71.64493 102.17182
#
# Poissons Ratio (x) = 0.29235 -0.01201
# Poissons Ratio (y) = 0.26559 0.27703
# Poissons Ratio (z) = -0.00765 0.19426
#
# Static dielectric constant tensor:
#      x y z
#    x 3.438360 0.000000 0.000000 
#    y 0.000000 3.790630 0.000000 
#    z 0.000000 0.000000 3.787660 
# 
# 
# High freq. dielectric constant tensor:
#      x y z
#    x 1.740160 0.000000 0.000000 
#    y 0.000000 1.778540 0.000000 
#    z 0.000000 0.000000 1.785600 
# 
# From -- ./inp_files/9591.got.cif
#   From: 2010.03.12/outbox.cif.g09.slc.cpg/sg51_5_cif.got.tgz:9591.got - 2010.04.16 13:43:02.
