data_PCOD8210363
_publ_section_title
;
Structure prediction by ZEFSAII (Michael W. Deem and Ramdas Pophale) SiO2 
 PCOD8210363
Probable space group: P M M A
;
_chemical_formula_sum "Si O2"
_cell_formula_units_Z 64
_cell_length_a 23.795896
_cell_length_b 9.412121
_cell_length_c 16.862638
_cell_angle_alpha 90.000000
_cell_angle_beta 90.000000
_cell_angle_gamma 90.000000
_cell_volume 3776.722545
_symmetry_space_group_name_H-M "P M M A"
_symmetry_group_IT_number 51
_symmetry_cell_setting 'orthorhombic'
loop_
_space_group_symop_operation_xyz
x,y,z
1/2-x,-y,z
1/2+x,-y,-z
-x,y,-z
-x,-y,-z
1/2+x,y,-z
1/2-x,y,z
x,-y,z
loop_
_atom_site_type_symbol
_atom_site_label
_atom_site_fract_x
_atom_site_fract_y
_atom_site_fract_z
Si Si1 0.870357 0.166185 0.734103
Si Si2 0.522276 0.831843 0.832269
Si Si3 0.186260 0.334637 0.744235
Si Si4 0.083363 0.336099 0.034576
Si Si5 0.312491 0.660542 0.136498
Si Si6 0.683271 0.157670 0.404699
Si Si7 0.187089 0.168872 0.422563
Si Si8 0.916375 0.665607 0.148387
O O1 0.824806 0.237871 0.790353
O O2 0.857488 0.219172 0.644496
O O3 0.933405 0.205479 0.762217
O O4 0.859949 0.000000 0.741572
O O5 0.541364 0.762545 0.915572
O O6 0.463343 0.760539 0.807139
O O7 0.515619 0.000000 0.843763
O O8 0.250000 0.285207 0.765772
O O9 0.185500 0.500000 0.724923
O O10 0.162152 0.258098 0.665870
O O11 0.145077 0.296900 0.816973
O O12 0.064632 0.500000 0.046239
O O13 0.146805 0.309581 0.062888
O O14 0.082366 0.291212 0.943458
O O15 0.250000 0.689617 0.104796
O O16 0.319923 0.500000 0.167398
O O17 0.750000 0.149693 0.404627
O O18 0.664885 0.220596 0.490912
O O19 0.657971 0.000000 0.391047
O O20 0.250000 0.228690 0.404208
O O21 0.190603 0.000000 0.425717
O O22 0.930199 0.500000 0.161151
#
# Coordination Sequence:
#
# PCOD8210363 Si02
#       8
#     8   8   8   8   8   8   8   8
#     4   9  17  29  45  65  90 121 154 185 218 259
#     4  10  20  32  47  68  92 117 149 190 229 261
#     4   9  18  32  49  70  94 116 142 181 226 269
#     4   9  18  32  48  65  87 118 154 188 222 263
#     4   9  17  28  42  63  92 121 147 180 223 266
#     4   8  14  26  45  68  92 117 144 175 215 262
#     4   8  13  23  43  69  92 116 148 181 212 255
#     4  10  20  33  50  68  86 115 152 185 221 269
#
# _framework density 16.945910000000001
#
# number of rings (size 3 to 8) (size 9 to 14) (size 15 to 20)
#    0.000    3.000    0.000    1.875    0.000    4.250 
#    0.000    3.125    0.000    3.000    0.000    8.750 
#    0.000    0.000    0.000    0.000    0.000    0.000 
#
# Total GULP energy -793268.604616 kJ/mol
# GULP energy per Si atom -12394.821947 kJ/mol
# Density = 1.690734 g / cm^3
# Si number density = 16.945910 Si / 1000 Ang^3
#
#
#
# Elastic Constant Matrix: (Units=GPa)
#
#
# Indices 1 2 3 4 5 6 
#
# 1 99.4386 37.4831 50.7060 0.0000 0.0000 0.0000
# 2 37.4831 45.3481 35.2095 0.0000 0.0000 0.0000
# 3 50.7060 35.2095 98.3402 0.0000 0.0000 0.0000
# 4 0.0000 0.0000 0.0000 23.1136 0.0000 0.0000
# 5 0.0000 0.0000 0.0000 0.0000 17.3185 0.0000
# 6 0.0000 0.0000 0.0000 0.0000 0.0000 21.3928
#
#
#
# Elastic Compliance Matrix: (Units=1/GPa)
#
#
# Indices 1 2 3 4 5 6 
#
# 1 0.016159 -0.009539 -0.004917 0.000000 0.000000 0.000000
# 2 -0.009539 0.036173 -0.008033 0.000000 0.000000 0.000000
# 3 -0.004917 -0.008033 0.015580 0.000000 0.000000 0.000000
# 4 0.000000 0.000000 0.000000 0.043264 0.000000 0.000000
# 5 0.000000 0.000000 0.000000 0.000000 0.057742 0.000000
# 6 0.000000 0.000000 0.000000 0.000000 0.000000 0.046745
#
#
# Mechanical properties :
#
#
# Convention : Reuss Voigt Hill
#
# Bulk Modulus (GPa) = 43.60117 54.43603 49.01860
# Shear Modulus (GPa) = 18.63683 20.34688 19.49185
#
# Velocity S-wave (km/s) = 3.31990 3.46886 3.39520
# Velocity P-wave (km/s) = 6.36247 6.94530 6.66026
#
# Compressibility (1/GPa) = 0.02293517
#
# Stress axis : x y z
#
# Youngs Moduli (GPa) = 61.88350 27.64466 64.18515
#
# Poissons Ratio (x) = 0.26371 0.31558
# Poissons Ratio (y) = 0.59033 0.51558
# Poissons Ratio (z) = 0.30426 0.22206
#
# Static dielectric constant tensor:
#      x y z
#    x 3.202770 0.000000 0.000000 
#    y 0.000000 3.116170 0.000000 
#    z 0.000000 0.000000 3.373520 
# 
# 
# High freq. dielectric constant tensor:
#      x y z
#    x 1.640390 0.000000 0.000000 
#    y 0.000000 1.639060 0.000000 
#    z 0.000000 0.000000 1.646330 
# 
# From -- ./inp_files/30548.got.cif
#   From: 2010.03.12/outbox.cif.g09.slc.cpg/sg51_16_cif.got.tgz:30548.got - 2010.04.16 13:43:02.
