data_PCOD8210923
_publ_section_title
;
Structure prediction by ZEFSAII (Michael W. Deem and Ramdas Pophale) SiO2 
 PCOD8210923
Probable space group: P M M A
;
_chemical_formula_sum "Si O2"
_cell_formula_units_Z 40
_cell_length_a 10.007161
_cell_length_b 24.358973
_cell_length_c 8.947123
_cell_angle_alpha 90.000000
_cell_angle_beta 90.000000
_cell_angle_gamma 90.000000
_cell_volume 2180.987964
_symmetry_space_group_name_H-M "P M M A"
_symmetry_group_IT_number 51
_symmetry_cell_setting 'orthorhombic'
loop_
_space_group_symop_operation_xyz
x,y,z
1/2-x,-y,z
1/2+x,-y,-z
-x,y,-z
-x,-y,-z
1/2+x,y,-z
1/2-x,y,z
x,-y,z
loop_
_atom_site_type_symbol
_atom_site_label
_atom_site_fract_x
_atom_site_fract_y
_atom_site_fract_z
Si Si1 0.250000 0.936792 0.186993
Si Si2 0.750000 0.939251 0.170099
Si Si3 0.906865 0.244144 0.141634
Si Si4 0.403137 0.563099 0.866465
Si Si5 0.495524 0.128043 0.821965
Si Si6 0.098615 0.655178 0.636467
O O1 0.126278 0.900610 0.246557
O O2 0.250000 0.000000 0.248192
O O3 0.250000 0.939340 0.008810
O O4 0.622876 0.909380 0.238143
O O5 0.750000 0.000000 0.234535
O O6 0.750000 0.234197 0.095311
O O7 0.919639 0.294558 0.252026
O O8 0.967876 0.190836 0.227177
O O9 0.000000 0.257666 0.000000
O O10 0.250000 0.573230 0.917920
O O11 0.428062 0.500000 0.822282
O O12 0.437586 0.598981 0.721671
O O13 0.500000 0.581419 0.000000
O O14 0.500000 0.128078 0.000000
O O15 0.250000 0.652988 0.575476
O O16 0.000000 0.662898 0.500000
#
# Coordination Sequence:
#
# PCOD8210923 Si02
#       6
#     4   4   8   8   8   8
#     4   9  16  24  36  58  91 127 160 197 246 305
#     4   9  14  22  36  56  87 125 156 191 244 305
#     4  10  20  33  51  73 100 133 173 218 260 309
#     4   9  18  34  57  84 113 143 177 216 257 305
#     4   9  16  25  38  60  90 124 162 201 246 306
#     4  10  22  38  53  76 108 140 178 220 262 308
#
# _framework density 18.340312000000001
#
# number of rings (size 3 to 8) (size 9 to 14) (size 15 to 20)
#    0.000    2.600    1.000    1.200    4.200    4.400 
#    0.000    0.000    0.000    0.000    0.000    0.000 
#    0.000    4.800    0.000    0.000    0.000    0.000 
#
# Total GULP energy -495788.437286 kJ/mol
# GULP energy per Si atom -12394.710932 kJ/mol
# Density = 1.829857 g / cm^3
# Si number density = 18.340312 Si / 1000 Ang^3
#
#
#
# Elastic Constant Matrix: (Units=GPa)
#
#
# Indices 1 2 3 4 5 6 
#
# 1 146.2253 63.8344 46.5279 0.0000 0.0000 0.0000
# 2 63.8344 121.9424 35.2537 0.0000 0.0000 0.0000
# 3 46.5279 35.2537 49.2467 0.0000 0.0000 0.0000
# 4 0.0000 0.0000 0.0000 -2.6225 0.0000 0.0000
# 5 0.0000 0.0000 0.0000 0.0000 22.6549 0.0000
# 6 0.0000 0.0000 0.0000 0.0000 0.0000 39.4721
#
#
#
# Elastic Compliance Matrix: (Units=1/GPa)
#
#
# Indices 1 2 3 4 5 6 
#
# 1 0.010796 -0.003408 -0.007760 0.000000 0.000000 0.000000
# 2 -0.003408 0.011416 -0.004953 0.000000 0.000000 0.000000
# 3 -0.007760 -0.004953 0.031183 0.000000 0.000000 0.000000
# 4 0.000000 0.000000 0.000000 -0.381318 0.000000 0.000000
# 5 0.000000 0.000000 0.000000 0.000000 0.044141 0.000000
# 6 0.000000 0.000000 0.000000 0.000000 0.000000 0.025334
#
#
# Mechanical properties :
#
#
# Convention : Reuss Voigt Hill
#
# Bulk Modulus (GPa) = 47.27320 67.62737 57.45028
# Shear Modulus (GPa) = -22.81490 23.35414 0.26962
#
# Velocity S-wave (km/s) = -3.53083 3.57231 0.38383
# Velocity P-wave (km/s) = 3.03466 7.34635 5.62041
#
# Compressibility (1/GPa) = 0.02115364
#
# Stress axis : x y z
#
# Youngs Moduli (GPa) = 92.62970 87.59327 32.06858
#
# Poissons Ratio (x) = 0.29850 0.24886
# Poissons Ratio (y) = 0.31567 0.15883
# Poissons Ratio (z) = 0.71882 0.43383
#
# Static dielectric constant tensor:
#      x y z
#    x 3.639630 0.000000 0.000000 
#    y 0.000000 3.701160 0.000000 
#    z 0.000000 0.000000 2.729660 
# 
# 
# High freq. dielectric constant tensor:
#      x y z
#    x 1.727340 0.000000 0.000000 
#    y 0.000000 1.735580 0.000000 
#    z 0.000000 0.000000 1.643370 
# 
# From -- ./inp_files/5528.got.cif
#   From: 2010.03.12/outbox.cif.g09.slc.cpg/sg51_3_cif.got.tgz:5528.got - 2010.04.16 13:43:02.
