data_PCOD8210989
_publ_section_title
;
Structure prediction by ZEFSAII (Michael W. Deem and Ramdas Pophale) SiO2 
 PCOD8210989
Probable space group: P M M A
;
_chemical_formula_sum "Si O2"
_cell_formula_units_Z 40
_cell_length_a 9.198471
_cell_length_b 9.261954
_cell_length_c 25.946035
_cell_angle_alpha 90.000000
_cell_angle_beta 90.000000
_cell_angle_gamma 90.000000
_cell_volume 2210.493605
_symmetry_space_group_name_H-M "P M M A"
_symmetry_group_IT_number 51
_symmetry_cell_setting 'orthorhombic'
loop_
_space_group_symop_operation_xyz
x,y,z
1/2-x,-y,z
1/2+x,-y,-z
-x,y,-z
-x,-y,-z
1/2+x,y,-z
1/2-x,y,z
x,-y,z
loop_
_atom_site_type_symbol
_atom_site_label
_atom_site_fract_x
_atom_site_fract_y
_atom_site_fract_z
Si Si1 0.912116 0.671957 0.646768
Si Si2 0.913318 0.327721 0.450541
Si Si3 0.422713 0.660462 0.240698
Si Si4 0.081512 0.169631 0.141627
Si Si5 0.419909 0.666914 0.947732
O O1 0.750000 0.734963 0.638461
O O2 0.905444 0.500000 0.644364
O O3 0.976052 0.716893 0.703065
O O4 0.014250 0.733876 0.601673
O O5 0.750000 0.268172 0.453596
O O6 0.915297 0.500000 0.450100
O O7 0.000000 0.268633 0.500000
O O8 0.250000 0.652958 0.243035
O O9 0.484897 0.500000 0.228958
O O10 0.475254 0.768425 0.196148
O O11 0.250000 0.210946 0.132160
O O12 0.983570 0.236336 0.097351
O O13 0.057935 0.000000 0.142368
O O14 0.250000 0.699113 0.954387
O O15 0.449787 0.500000 0.934504
O O16 0.500000 0.712249 0.000000
#
# Coordination Sequence:
#
# PCOD8210989 Si02
#       5
#     8   8   8   8   8
#     4   8  13  22  36  53  74 105 146 186 223 266
#     4   9  15  21  30  47  74 107 140 176 221 273
#     4   8  14  26  45  66  89 121 159 196 233 275
#     4  10  20  33  51  76 104 133 164 198 238 285
#     4  10  21  37  57  79 101 128 163 201 241 285
#
# _framework density 18.095507000000001
#
# number of rings (size 3 to 8) (size 9 to 14) (size 15 to 20)
#    0.000    3.000    0.000    3.000    0.000    5.200 
#    0.000    1.000    0.000    3.600    0.000    0.000 
#    0.000    0.800    0.000    1.400    0.000    2.000 
#
# Total GULP energy -495846.591002 kJ/mol
# GULP energy per Si atom -12396.164775 kJ/mol
# Density = 1.805432 g / cm^3
# Si number density = 18.095507 Si / 1000 Ang^3
#
#
#
# Elastic Constant Matrix: (Units=GPa)
#
#
# Indices 1 2 3 4 5 6 
#
# 1 101.2267 32.3819 79.3378 0.0000 0.0000 0.0000
# 2 32.3819 45.6312 53.1637 0.0000 0.0000 0.0000
# 3 79.3378 53.1637 188.7923 0.0000 0.0000 0.0000
# 4 0.0000 0.0000 0.0000 -1.5252 0.0000 0.0000
# 5 0.0000 0.0000 0.0000 0.0000 32.5275 0.0000
# 6 0.0000 0.0000 0.0000 0.0000 0.0000 14.6207
#
#
#
# Elastic Compliance Matrix: (Units=1/GPa)
#
#
# Indices 1 2 3 4 5 6 
#
# 1 0.015480 -0.005069 -0.005078 0.000000 0.000000 0.000000
# 2 -0.005069 0.034276 -0.007522 0.000000 0.000000 0.000000
# 3 -0.005078 -0.007522 0.009549 0.000000 0.000000 0.000000
# 4 0.000000 0.000000 0.000000 -0.655647 0.000000 0.000000
# 5 0.000000 0.000000 0.000000 0.000000 0.030743 0.000000
# 6 0.000000 0.000000 0.000000 0.000000 0.000000 0.068396
#
#
# Mechanical properties :
#
#
# Convention : Reuss Voigt Hill
#
# Bulk Modulus (GPa) = 41.72422 73.93524 57.82973
# Shear Modulus (GPa) = -11.01622 20.50904 4.74641
#
# Velocity S-wave (km/s) = -2.47003 3.37022 1.62132
# Velocity P-wave (km/s) = 3.86951 7.48943 5.96090
#
# Compressibility (1/GPa) = 0.02396690
#
# Stress axis : x y z
#
# Youngs Moduli (GPa) = 64.59783 29.17533 104.72483
#
# Poissons Ratio (x) = 0.14790 0.53178
# Poissons Ratio (y) = 0.32747 0.78770
# Poissons Ratio (z) = 0.32802 0.21944
#
# Static dielectric constant tensor:
#      x y z
#    x 3.285930 0.000000 0.000000 
#    y 0.000000 2.885630 0.000000 
#    z 0.000000 0.000000 3.768280 
# 
# 
# High freq. dielectric constant tensor:
#      x y z
#    x 1.681390 0.000000 0.000000 
#    y 0.000000 1.646460 0.000000 
#    z 0.000000 0.000000 1.722210 
# 
# From -- ./inp_files/35978.got.cif
#   From: 2010.03.12/outbox.cif.g09.slc.cpg/sg51_18_cif.got.tgz:35978.got - 2010.04.16 13:43:02.
