data_PCOD8210663
_publ_section_title
;
Structure prediction by ZEFSAII (Michael W. Deem and Ramdas Pophale) SiO2 
 PCOD8210663
Probable space group: P M M A
;
_chemical_formula_sum "Si O2"
_cell_formula_units_Z 40
_cell_length_a 8.839888
_cell_length_b 15.116707
_cell_length_c 20.399312
_cell_angle_alpha 90.000000
_cell_angle_beta 90.000000
_cell_angle_gamma 90.000000
_cell_volume 2725.959997
_symmetry_space_group_name_H-M "P M M A"
_symmetry_group_IT_number 51
_symmetry_cell_setting 'orthorhombic'
loop_
_space_group_symop_operation_xyz
x,y,z
1/2-x,-y,z
1/2+x,-y,-z
-x,y,-z
-x,-y,-z
1/2+x,y,-z
1/2-x,y,z
x,-y,z
loop_
_atom_site_type_symbol
_atom_site_label
_atom_site_fract_x
_atom_site_fract_y
_atom_site_fract_z
Si Si1 0.920478 0.394486 0.565429
Si Si2 0.572937 0.095932 0.929025
Si Si3 0.423885 0.395607 0.172074
Si Si4 0.428941 0.730656 0.928272
Si Si5 0.419960 0.394805 0.695616
O O1 0.750000 0.358655 0.566962
O O2 0.923096 0.500000 0.565668
O O3 0.000000 0.357743 0.500000
O O4 0.006798 0.356812 0.629064
O O5 0.750000 0.116718 0.935388
O O6 0.490908 0.178687 0.893429
O O7 0.547253 0.000000 0.893547
O O8 0.500000 0.089943 0.000000
O O9 0.250000 0.367328 0.164801
O O10 0.445225 0.500000 0.165048
O O11 0.522864 0.352203 0.115267
O O12 0.482668 0.362098 0.242559
O O13 0.250000 0.734063 0.934161
O O14 0.500000 0.719078 0.000000
O O15 0.250000 0.357776 0.702107
O O16 0.419128 0.500000 0.692665
#
# Coordination Sequence:
#
# PCOD8210663 Si02
#       5
#     8   8   8   8   8
#     4   9  15  22  33  50  71  94 121 155 194 232
#     4   9  16  27  44  64  84 103 123 151 190 237
#     4  10  20  33  46  58  75 102 136 172 207 242
#     4  11  21  32  46  62  81 103 130 166 204 243
#     4   9  16  26  39  54  72  95 125 160 197 237
#
# _framework density 14.673730000000001
#
# number of rings (size 3 to 8) (size 9 to 14) (size 15 to 20)
#    0.000    2.400    0.000    5.400    0.000    7.600 
#    0.000    0.000    0.000    0.000    0.000    0.000 
#    0.000    0.000    0.000    0.000    0.000    1.000 
#
# Total GULP energy -495785.057424 kJ/mol
# GULP energy per Si atom -12394.626436 kJ/mol
# Density = 1.464033 g / cm^3
# Si number density = 14.673730 Si / 1000 Ang^3
#
#
#
# Elastic Constant Matrix: (Units=GPa)
#
#
# Indices 1 2 3 4 5 6 
#
# 1 133.1045 32.5239 46.7082 0.0000 0.0000 0.0000
# 2 32.5239 36.6661 30.0769 0.0000 0.0000 0.0000
# 3 46.7082 30.0769 86.7857 0.0000 0.0000 0.0000
# 4 0.0000 0.0000 0.0000 0.4616 0.0000 0.0000
# 5 0.0000 0.0000 0.0000 0.0000 27.9464 0.0000
# 6 0.0000 0.0000 0.0000 0.0000 0.0000 18.4571
#
#
#
# Elastic Compliance Matrix: (Units=1/GPa)
#
#
# Indices 1 2 3 4 5 6 
#
# 1 0.010225 -0.006365 -0.003297 0.000000 0.000000 0.000000
# 2 -0.006365 0.042069 -0.011154 0.000000 0.000000 0.000000
# 3 -0.003297 -0.011154 0.017163 0.000000 0.000000 0.000000
# 4 0.000000 0.000000 0.000000 2.166267 0.000000 0.000000
# 5 0.000000 0.000000 0.000000 0.000000 0.035783 0.000000
# 6 0.000000 0.000000 0.000000 0.000000 0.000000 0.054180
#
#
# Mechanical properties :
#
#
# Convention : Reuss Voigt Hill
#
# Bulk Modulus (GPa) = 35.94016 52.79715 44.36865
# Shear Modulus (GPa) = 2.10385 19.18951 10.64668
#
# Velocity S-wave (km/s) = 1.19869 3.62020 2.69655
# Velocity P-wave (km/s) = 5.14411 7.31665 6.32436
#
# Compressibility (1/GPa) = 0.02782403
#
# Stress axis : x y z
#
# Youngs Moduli (GPa) = 97.79623 23.77063 58.26599
#
# Poissons Ratio (x) = 0.15131 0.19212
# Poissons Ratio (y) = 0.62252 0.64988
# Poissons Ratio (z) = 0.32246 0.26513
#
# Static dielectric constant tensor:
#      x y z
#    x 3.123270 0.000000 0.000000 
#    y 0.000000 2.885390 0.000000 
#    z 0.000000 0.000000 2.777680 
# 
# 
# High freq. dielectric constant tensor:
#      x y z
#    x 1.587300 0.000000 0.000000 
#    y 0.000000 1.509130 0.000000 
#    z 0.000000 0.000000 1.540990 
# 
# From -- ./inp_files/27234.got.cif
#   From: 2010.03.12/outbox.cif.g09.slc.cpg/sg51_14_cif.got.tgz:27234.got - 2010.04.16 13:43:02.
