data_PCOD8210861
_publ_section_title
;
Structure prediction by ZEFSAII (Michael W. Deem and Ramdas Pophale) SiO2 
 PCOD8210861
Probable space group: P M M A
;
_chemical_formula_sum "Si O2"
_cell_formula_units_Z 64
_cell_length_a 9.591218
_cell_length_b 9.176790
_cell_length_c 41.198306
_cell_angle_alpha 90.000000
_cell_angle_beta 90.000000
_cell_angle_gamma 90.000000
_cell_volume 3626.134549
_symmetry_space_group_name_H-M "P M M A"
_symmetry_group_IT_number 51
_symmetry_cell_setting 'orthorhombic'
loop_
_space_group_symop_operation_xyz
x,y,z
1/2-x,-y,z
1/2+x,-y,-z
-x,y,-z
-x,-y,-z
1/2+x,y,-z
1/2-x,y,z
x,-y,z
loop_
_atom_site_type_symbol
_atom_site_label
_atom_site_fract_x
_atom_site_fract_y
_atom_site_fract_z
Si Si1 0.584178 0.164515 0.594201
Si Si2 0.411225 0.330116 0.469190
Si Si3 0.915650 0.335708 0.905784
Si Si4 0.588497 0.670675 0.657429
Si Si5 0.588610 0.830288 0.969125
Si Si6 0.412219 0.170548 0.157897
Si Si7 0.596163 0.672831 0.283873
Si Si8 0.586251 0.332066 0.211137
O O1 0.750000 0.169933 0.594465
O O2 0.529688 0.244137 0.561888
O O3 0.527410 0.247601 0.625934
O O4 0.527407 0.000000 0.594480
O O5 0.500000 0.278208 0.500000
O O6 0.250000 0.293174 0.476050
O O7 0.432521 0.500000 0.462066
O O8 0.750000 0.333474 0.906030
O O9 0.974177 0.500000 0.904688
O O10 0.970331 0.257297 0.938240
O O11 0.970001 0.249640 0.874318
O O12 0.750000 0.705977 0.662731
O O13 0.562313 0.500000 0.652190
O O14 0.510136 0.732828 0.689150
O O15 0.750000 0.794407 0.976033
O O16 0.566748 0.000000 0.961730
O O17 0.500000 0.779005 0.000000
O O18 0.250000 0.206259 0.163732
O O19 0.498524 0.227728 0.188244
O O20 0.437726 0.000000 0.153485
O O21 0.750000 0.736690 0.291150
O O22 0.602362 0.500000 0.285371
O O23 0.547883 0.717627 0.247765
O O24 0.750000 0.310966 0.204678
O O25 0.543570 0.500000 0.205114
#
# Coordination Sequence:
#
# PCOD8210861 Si02
#       8
#     8   8   8   8   8   8   8   8
#     4   9  17  29  45  65  90 120 150 181 222 268
#     4   9  17  30  48  68  89 114 146 183 221 263
#     4   9  17  30  49  71  94 123 159 198 240 283
#     4   9  16  27  46  70  91 114 150 191 225 262
#     4   9  17  30  48  69  94 124 156 190 231 281
#     4  10  20  33  50  73  99 127 162 202 242 287
#     4   8  15  29  48  69  93 121 152 187 229 276
#     4   9  18  33  52  73  98 128 161 197 240 290
#
# _framework density 17.649647999999999
#
# number of rings (size 3 to 8) (size 9 to 14) (size 15 to 20)
#    0.000    3.000    0.000    1.875    0.000    5.000 
#    0.000    3.125    0.000    8.625    0.000    0.000 
#    0.000    0.000    0.000    0.000    0.000    0.000 
#
# Total GULP energy -793531.100602 kJ/mol
# GULP energy per Si atom -12398.923447 kJ/mol
# Density = 1.760948 g / cm^3
# Si number density = 17.649648 Si / 1000 Ang^3
#
#
#
# Elastic Constant Matrix: (Units=GPa)
#
#
# Indices 1 2 3 4 5 6 
#
# 1 48.2387 34.3615 62.6282 0.0000 0.0000 0.0000
# 2 34.3615 82.7725 74.6024 0.0000 0.0000 0.0000
# 3 62.6282 74.6024 186.4656 0.0000 0.0000 0.0000
# 4 0.0000 0.0000 0.0000 18.1783 0.0000 0.0000
# 5 0.0000 0.0000 0.0000 0.0000 30.3575 0.0000
# 6 0.0000 0.0000 0.0000 0.0000 0.0000 16.7947
#
#
#
# Elastic Compliance Matrix: (Units=1/GPa)
#
#
# Indices 1 2 3 4 5 6 
#
# 1 0.039111 -0.006876 -0.010385 0.000000 0.000000 0.000000
# 2 -0.006876 0.020104 -0.005734 0.000000 0.000000 0.000000
# 3 -0.010385 -0.005734 0.011145 0.000000 0.000000 0.000000
# 4 0.000000 0.000000 0.000000 0.055011 0.000000 0.000000
# 5 0.000000 0.000000 0.000000 0.000000 0.032941 0.000000
# 6 0.000000 0.000000 0.000000 0.000000 0.000000 0.059543
#
#
# Mechanical properties :
#
#
# Convention : Reuss Voigt Hill
#
# Bulk Modulus (GPa) = 41.03454 73.40677 57.22065
# Shear Modulus (GPa) = 18.38455 22.79176 20.58815
#
# Velocity S-wave (km/s) = 3.23094 3.59743 3.41910
# Velocity P-wave (km/s) = 6.10071 7.67702 6.93380
#
# Compressibility (1/GPa) = 0.02436972
#
# Stress axis : x y z
#
# Youngs Moduli (GPa) = 25.56793 49.74250 89.72643
#
# Poissons Ratio (x) = 0.34204 0.93184
# Poissons Ratio (y) = 0.17581 0.51446
# Poissons Ratio (z) = 0.26553 0.28521
#
# Static dielectric constant tensor:
#      x y z
#    x 3.160060 0.000000 0.000000 
#    y 0.000000 3.190070 0.000000 
#    z 0.000000 0.000000 3.517590 
# 
# 
# High freq. dielectric constant tensor:
#      x y z
#    x 1.649440 0.000000 0.000000 
#    y 0.000000 1.670370 0.000000 
#    z 0.000000 0.000000 1.696930 
# 
# From -- ./inp_files/37774.got.cif
#   From: 2010.03.12/outbox.cif.g09.slc.cpg/sg51_19_cif.got.tgz:37774.got - 2010.04.16 13:43:02.
