data_PCOD8210347
_publ_section_title
;
Structure prediction by ZEFSAII (Michael W. Deem and Ramdas Pophale) SiO2 
 PCOD8210347
Probable space group: P M M A
;
_chemical_formula_sum "Si O2"
_cell_formula_units_Z 52
_cell_length_a 8.843672
_cell_length_b 13.389238
_cell_length_c 24.855499
_cell_angle_alpha 90.000000
_cell_angle_beta 90.000000
_cell_angle_gamma 90.000000
_cell_volume 2943.140362
_symmetry_space_group_name_H-M "P M M A"
_symmetry_group_IT_number 51
_symmetry_cell_setting 'orthorhombic'
loop_
_space_group_symop_operation_xyz
x,y,z
1/2-x,-y,z
1/2+x,-y,-z
-x,y,-z
-x,-y,-z
1/2+x,y,-z
1/2-x,y,z
x,-y,z
loop_
_atom_site_type_symbol
_atom_site_label
_atom_site_fract_x
_atom_site_fract_y
_atom_site_fract_z
Si Si1 0.428379 0.181168 0.631492
Si Si2 0.072119 0.886162 0.056875
Si Si3 0.430539 0.000000 0.558420
Si Si4 0.580355 0.383786 0.780789
Si Si5 0.429766 0.889556 0.745314
Si Si6 0.071628 0.388382 0.667425
Si Si7 0.071102 0.767513 0.847314
O O1 0.250000 0.167365 0.631052
O O2 0.495190 0.152997 0.689650
O O3 0.470648 0.300232 0.623763
O O4 0.491632 0.101935 0.587631
O O5 0.250000 0.871108 0.052762
O O6 0.004607 0.809470 0.099396
O O7 0.030309 0.000000 0.073197
O O8 0.000000 0.858646 0.000000
O O9 0.500000 0.000000 0.500000
O O10 0.250000 0.000000 0.555205
O O11 0.750000 0.339710 0.779041
O O12 0.584398 0.500000 0.790398
O O13 0.499535 0.358543 0.724411
O O14 0.487881 0.342669 0.832522
O O15 0.250000 0.886933 0.744014
O O16 0.490061 0.829412 0.796213
O O17 0.493178 0.000000 0.752431
O O18 0.250000 0.388513 0.676746
O O19 0.017927 0.500000 0.648007
O O20 0.250000 0.770386 0.854880
#
# Coordination Sequence:
#
# PCOD8210347 Si02
#       7
#     8   8   4   8   8   8   8
#     4   9  15  27  47  71  96 128 163 203 249 296
#     4  10  21  37  55  75 103 137 175 215 256 306
#     4  10  20  34  54  72  98 134 175 212 249 300
#     4  10  20  32  46  69 104 140 170 204 255 314
#     4   9  15  24  42  71 101 126 157 196 245 299
#     4   9  16  28  48  73  98 125 165 211 254 305
#     4  11  20  31  51  76 102 133 172 214 256 308
#
# _framework density 17.668203999999999
#
# number of rings (size 3 to 8) (size 9 to 14) (size 15 to 20)
#    0.000    2.308    2.308    1.846    0.000    2.462 
#    0.000    0.769    0.000    0.923    0.000    0.000 
#    0.000    0.000    0.000    0.000    0.000    0.000 
#
# Total GULP energy -644310.036841 kJ/mol
# GULP energy per Si atom -12390.577632 kJ/mol
# Density = 1.762799 g / cm^3
# Si number density = 17.668204 Si / 1000 Ang^3
#
#
#
# Elastic Constant Matrix: (Units=GPa)
#
#
# Indices 1 2 3 4 5 6 
#
# 1 46.9419 30.1552 29.8302 0.0000 0.0000 0.0000
# 2 30.1552 107.7000 64.1738 0.0000 0.0000 0.0000
# 3 29.8302 64.1738 105.1457 0.0000 0.0000 0.0000
# 4 0.0000 0.0000 0.0000 20.9397 0.0000 0.0000
# 5 0.0000 0.0000 0.0000 0.0000 24.2297 0.0000
# 6 0.0000 0.0000 0.0000 0.0000 0.0000 17.7275
#
#
#
# Elastic Compliance Matrix: (Units=1/GPa)
#
#
# Indices 1 2 3 4 5 6 
#
# 1 0.027476 -0.004790 -0.004871 0.000000 0.000000 0.000000
# 2 -0.004790 0.015427 -0.008056 0.000000 0.000000 0.000000
# 3 -0.004871 -0.008056 0.015810 0.000000 0.000000 0.000000
# 4 0.000000 0.000000 0.000000 0.047756 0.000000 0.000000
# 5 0.000000 0.000000 0.000000 0.000000 0.041272 0.000000
# 6 0.000000 0.000000 0.000000 0.000000 0.000000 0.056409
#
#
# Mechanical properties :
#
#
# Convention : Reuss Voigt Hill
#
# Bulk Modulus (GPa) = 42.96250 56.45622 49.70936
# Shear Modulus (GPa) = 20.21472 21.62127 20.91800
#
# Velocity S-wave (km/s) = 3.38617 3.50199 3.44457
# Velocity P-wave (km/s) = 6.29740 6.95521 6.63446
#
# Compressibility (1/GPa) = 0.02327612
#
# Stress axis : x y z
#
# Youngs Moduli (GPa) = 36.39566 64.82214 63.25239
#
# Poissons Ratio (x) = 0.31053 0.30811
# Poissons Ratio (y) = 0.17435 0.50959
# Poissons Ratio (z) = 0.17729 0.52223
#
# Static dielectric constant tensor:
#      x y z
#    x 3.126890 0.000000 0.000000 
#    y 0.000000 3.688600 0.000000 
#    z 0.000000 0.000000 3.125420 
# 
# 
# High freq. dielectric constant tensor:
#      x y z
#    x 1.661450 0.000000 0.000000 
#    y 0.000000 1.696810 0.000000 
#    z 0.000000 0.000000 1.652980 
# 
# From -- ./inp_files/31692.got.cif
#   From: 2010.03.12/outbox.cif.g09.slc.cpg/sg51_16_cif.got.tgz:31692.got - 2010.04.16 13:43:02.
