data_PCOD8210962
_publ_section_title
;
Structure prediction by ZEFSAII (Michael W. Deem and Ramdas Pophale) SiO2 
 PCOD8210962
Probable space group: P M M A
;
_chemical_formula_sum "Si O2"
_cell_formula_units_Z 64
_cell_length_a 17.802288
_cell_length_b 9.241489
_cell_length_c 22.849067
_cell_angle_alpha 90.000000
_cell_angle_beta 90.000000
_cell_angle_gamma 90.000000
_cell_volume 3759.120477
_symmetry_space_group_name_H-M "P M M A"
_symmetry_group_IT_number 51
_symmetry_cell_setting 'orthorhombic'
loop_
_space_group_symop_operation_xyz
x,y,z
1/2-x,-y,z
1/2+x,-y,-z
-x,y,-z
-x,-y,-z
1/2+x,y,-z
1/2-x,y,z
x,-y,z
loop_
_atom_site_type_symbol
_atom_site_label
_atom_site_fract_x
_atom_site_fract_y
_atom_site_fract_z
Si Si1 0.957784 0.330657 0.879661
Si Si2 0.929299 0.170299 0.536845
Si Si3 0.333963 0.827541 0.565647
Si Si4 0.977409 0.172224 0.358538
Si Si5 0.036183 0.331339 0.759461
Si Si6 0.335900 0.163843 0.815377
Si Si7 0.663692 0.830472 0.942617
Si Si8 0.589953 0.833864 0.064166
O O1 0.953957 0.500000 0.891704
O O2 0.877403 0.257675 0.891175
O O3 0.979984 0.296365 0.812821
O O4 0.016832 0.262741 0.925198
O O5 0.856355 0.228402 0.500706
O O6 0.000000 0.221225 0.500000
O O7 0.949328 0.222379 0.602746
O O8 0.923115 0.000000 0.538444
O O9 0.250000 0.767579 0.580916
O O10 0.397442 0.777115 0.612579
O O11 0.332622 0.000000 0.565813
O O12 0.992595 0.248756 0.297343
O O13 0.976185 0.000000 0.350254
O O14 0.041046 0.500000 0.745957
O O15 0.118622 0.274971 0.775682
O O16 0.250000 0.195081 0.801749
O O17 0.350385 0.189025 0.883969
O O18 0.358271 0.000000 0.797820
O O19 0.750000 0.784693 0.941159
O O20 0.653251 0.000000 0.931408
O O21 0.630117 0.783597 0.005087
O O22 0.563201 0.000000 0.060271
#
# Coordination Sequence:
#
# PCOD8210962 Si02
#       8
#     8   8   8   8   8   8   8   8
#     4  10  21  35  49  67  93 126 163 197 229 273
#     4   7  11  21  38  61  88 115 141 172 213 257
#     4   8  13  22  40  68  97 118 139 175 222 268
#     4   9  16  27  45  67  88 115 153 189 220 262
#     4  10  21  34  46  63  90 125 162 197 232 267
#     4   9  17  30  48  68  91 121 155 188 224 273
#     4  10  20  33  51  75  98 118 145 188 243 295
#     4   9  17  31  51  73  96 121 149 185 233 286
#
# _framework density 17.025258000000001
#
# number of rings (size 3 to 8) (size 9 to 14) (size 15 to 20)
#    0.000    3.000    0.000    3.000    0.000    6.000 
#    0.000    1.250    0.000    6.375    0.000    1.750 
#    0.000    0.000    0.000    0.000    0.000    0.000 
#
# Total GULP energy -792996.069774 kJ/mol
# GULP energy per Si atom -12390.563590 kJ/mol
# Density = 1.698651 g / cm^3
# Si number density = 17.025258 Si / 1000 Ang^3
#
#
#
# Elastic Constant Matrix: (Units=GPa)
#
#
# Indices 1 2 3 4 5 6 
#
# 1 83.7250 37.0454 49.4663 0.0000 0.0000 0.0000
# 2 37.0454 53.2797 46.4340 0.0000 0.0000 0.0000
# 3 49.4663 46.4340 104.4180 0.0000 0.0000 0.0000
# 4 0.0000 0.0000 0.0000 15.8886 0.0000 0.0000
# 5 0.0000 0.0000 0.0000 0.0000 17.0547 0.0000
# 6 0.0000 0.0000 0.0000 0.0000 0.0000 12.3329
#
#
#
# Elastic Compliance Matrix: (Units=1/GPa)
#
#
# Indices 1 2 3 4 5 6 
#
# 1 0.018744 -0.008644 -0.005036 0.000000 0.000000 0.000000
# 2 -0.008644 0.034632 -0.011306 0.000000 0.000000 0.000000
# 3 -0.005036 -0.011306 0.016990 0.000000 0.000000 0.000000
# 4 0.000000 0.000000 0.000000 0.062938 0.000000 0.000000
# 5 0.000000 0.000000 0.000000 0.000000 0.058635 0.000000
# 6 0.000000 0.000000 0.000000 0.000000 0.000000 0.081084
#
#
# Mechanical properties :
#
#
# Convention : Reuss Voigt Hill
#
# Bulk Modulus (GPa) = 49.03101 56.36823 52.69962
# Shear Modulus (GPa) = 15.16110 16.28705 15.72407
#
# Velocity S-wave (km/s) = 2.98737 3.09632 3.04233
# Velocity P-wave (km/s) = 6.38441 6.77963 6.58498
#
# Compressibility (1/GPa) = 0.02039526
#
# Stress axis : x y z
#
# Youngs Moduli (GPa) = 53.35155 28.87496 58.85801
#
# Poissons Ratio (x) = 0.24959 0.29639
# Poissons Ratio (y) = 0.46116 0.66544
# Poissons Ratio (z) = 0.26866 0.32645
#
# Static dielectric constant tensor:
#      x y z
#    x 3.313600 0.000000 0.000000 
#    y 0.000000 2.910530 0.000000 
#    z 0.000000 0.000000 3.282310 
# 
# 
# High freq. dielectric constant tensor:
#      x y z
#    x 1.644120 0.000000 0.000000 
#    y 0.000000 1.626220 0.000000 
#    z 0.000000 0.000000 1.654690 
# 
# From -- ./inp_files/35912.got.cif
#   From: 2010.03.12/outbox.cif.g09.slc.cpg/sg51_18_cif.got.tgz:35912.got - 2010.04.16 13:43:02.
