data_PCOD8210320
_publ_section_title
;
Structure prediction by ZEFSAII (Michael W. Deem and Ramdas Pophale) SiO2 
 PCOD8210320
Probable space group: P M M A
;
_chemical_formula_sum "Si O2"
_cell_formula_units_Z 64
_cell_length_a 19.087250
_cell_length_b 9.267701
_cell_length_c 19.058352
_cell_angle_alpha 90.000000
_cell_angle_beta 90.000000
_cell_angle_gamma 90.000000
_cell_volume 3371.325765
_symmetry_space_group_name_H-M "P M M A"
_symmetry_group_IT_number 51
_symmetry_cell_setting 'orthorhombic'
loop_
_space_group_symop_operation_xyz
x,y,z
1/2-x,-y,z
1/2+x,-y,-z
-x,y,-z
-x,-y,-z
1/2+x,y,-z
1/2-x,y,z
x,-y,z
loop_
_atom_site_type_symbol
_atom_site_label
_atom_site_fract_x
_atom_site_fract_y
_atom_site_fract_z
Si Si1 0.522928 0.160393 0.797773
Si Si2 0.167324 0.833607 0.995528
Si Si3 0.561007 0.171480 0.648903
Si Si4 0.828627 0.656192 0.134219
Si Si5 0.670692 0.828083 0.536893
Si Si6 0.949146 0.670208 0.935391
Si Si7 0.586264 0.169451 0.404382
Si Si8 0.633432 0.157630 0.256108
O O1 0.567577 0.220794 0.730803
O O2 0.521372 0.272469 0.861705
O O3 0.445496 0.147390 0.768910
O O4 0.549087 0.000000 0.821618
O O5 0.250000 0.815369 0.007995
O O6 0.126246 0.747239 0.055643
O O7 0.145279 0.000000 0.995989
O O8 0.139221 0.767936 0.921627
O O9 0.630862 0.221205 0.607938
O O10 0.491676 0.235261 0.609160
O O11 0.553048 0.000000 0.649307
O O12 0.750000 0.627907 0.110258
O O13 0.868419 0.500000 0.132079
O O14 0.826836 0.721365 0.211943
O O15 0.750000 0.765494 0.537279
O O16 0.625801 0.763393 0.471744
O O17 0.673684 0.000000 0.531680
O O18 0.937861 0.500000 0.930921
O O19 0.000000 0.712113 0.000000
O O20 0.635924 0.201873 0.337567
O O21 0.577702 0.000000 0.416456
O O22 0.669149 0.000000 0.245437
#
# Coordination Sequence:
#
# PCOD8210320 Si02
#       8
#     8   8   8   8   8   8   8   8
#     4   9  18  32  49  70  96 127 165 206 247 294
#     4  10  21  37  56  76  98 129 169 209 251 300
#     4   8  14  26  42  59  86 125 162 196 240 293
#     4  10  20  32  46  66  95 130 163 196 240 296
#     4   9  15  22  36  62  94 124 155 197 247 292
#     4  11  23  36  53  79 107 134 165 205 256 308
#     4   8  14  24  39  61  89 122 158 195 241 294
#     4   9  17  29  46  68  94 126 164 205 245 287
#
# _framework density 18.983629000000001
#
# number of rings (size 3 to 8) (size 9 to 14) (size 15 to 20)
#    0.000    2.750    0.000    3.750    0.000    7.000 
#    0.000    1.875    0.000    2.250    0.000    0.875 
#    0.000    5.000    0.000    0.000    0.000    0.000 
#
# Total GULP energy -793053.349067 kJ/mol
# GULP energy per Si atom -12391.458579 kJ/mol
# Density = 1.894042 g / cm^3
# Si number density = 18.983629 Si / 1000 Ang^3
#
#
#
# Elastic Constant Matrix: (Units=GPa)
#
#
# Indices 1 2 3 4 5 6 
#
# 1 67.3812 24.8441 41.5721 0.0000 0.0000 0.0000
# 2 24.8441 75.8108 39.3652 0.0000 0.0000 0.0000
# 3 41.5721 39.3652 129.6240 0.0000 0.0000 0.0000
# 4 0.0000 0.0000 0.0000 6.5279 0.0000 0.0000
# 5 0.0000 0.0000 0.0000 0.0000 25.4588 0.0000
# 6 0.0000 0.0000 0.0000 0.0000 0.0000 13.7857
#
#
#
# Elastic Compliance Matrix: (Units=1/GPa)
#
#
# Indices 1 2 3 4 5 6 
#
# 1 0.019339 -0.003701 -0.005078 0.000000 0.000000 0.000000
# 2 -0.003701 0.016368 -0.003784 0.000000 0.000000 0.000000
# 3 -0.005078 -0.003784 0.010492 0.000000 0.000000 0.000000
# 4 0.000000 0.000000 0.000000 0.153189 0.000000 0.000000
# 5 0.000000 0.000000 0.000000 0.000000 0.039279 0.000000
# 6 0.000000 0.000000 0.000000 0.000000 0.000000 0.072539
#
#
# Mechanical properties :
#
#
# Convention : Reuss Voigt Hill
#
# Bulk Modulus (GPa) = 47.45286 53.81986 50.63636
# Shear Modulus (GPa) = 14.56211 20.29011 17.42611
#
# Velocity S-wave (km/s) = 2.77264 3.27283 3.03306
# Velocity P-wave (km/s) = 5.94147 6.53407 6.24480
#
# Compressibility (1/GPa) = 0.02107355
#
# Stress axis : x y z
#
# Youngs Moduli (GPa) = 51.71026 61.09361 95.30653
#
# Poissons Ratio (x) = 0.22608 0.48400
# Poissons Ratio (y) = 0.19136 0.36064
# Poissons Ratio (z) = 0.26260 0.23118
#
# Static dielectric constant tensor:
#      x y z
#    x 3.467050 0.000000 0.000000 
#    y 0.000000 3.256780 0.000000 
#    z 0.000000 0.000000 3.815850 
# 
# 
# High freq. dielectric constant tensor:
#      x y z
#    x 1.725120 0.000000 0.000000 
#    y 0.000000 1.690820 0.000000 
#    z 0.000000 0.000000 1.740740 
# 
# From -- ./inp_files/30657.got.cif
#   From: 2010.03.12/outbox.cif.g09.slc.cpg/sg51_16_cif.got.tgz:30657.got - 2010.04.16 13:43:02.
