data_PCOD8210372
_publ_section_title
;
Structure prediction by ZEFSAII (Michael W. Deem and Ramdas Pophale) SiO2 
 PCOD8210372
Probable space group: P M M A
;
_chemical_formula_sum "Si O2"
_cell_formula_units_Z 44
_cell_length_a 10.264531
_cell_length_b 13.908053
_cell_length_c 18.018360
_cell_angle_alpha 90.000000
_cell_angle_beta 90.000000
_cell_angle_gamma 90.000000
_cell_volume 2572.294608
_symmetry_space_group_name_H-M "P M M A"
_symmetry_group_IT_number 51
_symmetry_cell_setting 'orthorhombic'
loop_
_space_group_symop_operation_xyz
x,y,z
1/2-x,-y,z
1/2+x,-y,-z
-x,y,-z
-x,-y,-z
1/2+x,y,-z
1/2-x,y,z
x,-y,z
loop_
_atom_site_type_symbol
_atom_site_label
_atom_site_fract_x
_atom_site_fract_y
_atom_site_fract_z
Si Si1 0.500000 0.760984 0.000000
Si Si2 0.100102 0.113587 0.436945
Si Si3 0.595674 0.108468 0.866224
Si Si4 0.900447 0.198802 0.715081
Si Si5 0.891607 0.607630 0.095326
Si Si6 0.101671 0.607014 0.219051
O O1 0.551876 0.828130 0.935121
O O2 0.390120 0.687813 0.969226
O O3 0.250000 0.147202 0.453506
O O4 0.040673 0.158318 0.361160
O O5 0.000000 0.149260 0.500000
O O6 0.096067 0.000000 0.428645
O O7 0.750000 0.110321 0.862995
O O8 0.537210 0.150644 0.788958
O O9 0.542938 0.000000 0.876445
O O10 0.750000 0.170172 0.714009
O O11 0.921919 0.314377 0.716734
O O12 0.750000 0.613226 0.135097
O O13 0.911802 0.500000 0.062376
O O14 0.006708 0.631963 0.151860
O O15 0.250000 0.615951 0.189086
O O16 0.074673 0.500000 0.251083
#
# Coordination Sequence:
#
# PCOD8210372 Si02
#       6
#     4   8   8   8   8   8
#     4  12  20  32  48  66  94 132 170 210 250 294
#     4   9  17  30  51  77 103 128 157 195 239 288
#     4  10  20  32  47  68  93 126 171 214 247 287
#     4   9  16  30  51  74  96 125 162 201 243 289
#     4  10  21  34  48  69  97 128 163 207 259 307
#     4   9  17  31  52  75  96 122 162 209 249 290
#
# _framework density 17.105350000000001
#
# number of rings (size 3 to 8) (size 9 to 14) (size 15 to 20)
#    0.000    2.364    1.818    1.636    0.000    2.909 
#    0.000    2.727    0.000    0.545    0.000    0.000 
#    0.000    0.000    0.000    0.000    0.000    0.000 
#
# Total GULP energy -545203.074419 kJ/mol
# GULP energy per Si atom -12390.978964 kJ/mol
# Density = 1.706642 g / cm^3
# Si number density = 17.105350 Si / 1000 Ang^3
#
#
#
# Elastic Constant Matrix: (Units=GPa)
#
#
# Indices 1 2 3 4 5 6 
#
# 1 61.6167 26.8057 38.2610 0.0000 0.0000 0.0000
# 2 26.8057 109.6867 61.7700 0.0000 0.0000 0.0000
# 3 38.2610 61.7700 128.9022 0.0000 0.0000 0.0000
# 4 0.0000 0.0000 0.0000 24.3207 0.0000 0.0000
# 5 0.0000 0.0000 0.0000 0.0000 22.7542 0.0000
# 6 0.0000 0.0000 0.0000 0.0000 0.0000 3.6939
#
#
#
# Elastic Compliance Matrix: (Units=1/GPa)
#
#
# Indices 1 2 3 4 5 6 
#
# 1 0.020258 -0.002143 -0.004986 0.000000 0.000000 0.000000
# 2 -0.002143 0.012713 -0.005456 0.000000 0.000000 0.000000
# 3 -0.004986 -0.005456 0.011852 0.000000 0.000000 0.000000
# 4 0.000000 0.000000 0.000000 0.041117 0.000000 0.000000
# 5 0.000000 0.000000 0.000000 0.000000 0.043948 0.000000
# 6 0.000000 0.000000 0.000000 0.000000 0.000000 0.270719
#
#
# Mechanical properties :
#
#
# Convention : Reuss Voigt Hill
#
# Bulk Modulus (GPa) = 50.88216 61.54210 56.21213
# Shear Modulus (GPa) = 11.56527 21.71166 16.63846
#
# Velocity S-wave (km/s) = 2.60305 3.56658 3.12221
# Velocity P-wave (km/s) = 6.23261 7.28128 6.77726
#
# Compressibility (1/GPa) = 0.01965325
#
# Stress axis : x y z
#
# Youngs Moduli (GPa) = 49.36397 78.65869 84.37106
#
# Poissons Ratio (x) = 0.16854 0.42069
# Poissons Ratio (y) = 0.10577 0.46034
# Poissons Ratio (z) = 0.24614 0.42917
#
# Static dielectric constant tensor:
#      x y z
#    x 3.104330 0.000000 0.000000 
#    y 0.000000 3.491820 0.000000 
#    z 0.000000 0.000000 3.153810 
# 
# 
# High freq. dielectric constant tensor:
#      x y z
#    x 1.635290 0.000000 0.000000 
#    y 0.000000 1.675040 0.000000 
#    z 0.000000 0.000000 1.634800 
# 
# From -- ./inp_files/23169.got.cif
#   From: 2010.03.12/outbox.cif.g09.slc.cpg/sg51_12_cif.got.tgz:23169.got - 2010.04.16 13:43:02.
