data_PCOD8210940
_publ_section_title
;
Structure prediction by ZEFSAII (Michael W. Deem and Ramdas Pophale) SiO2 
 PCOD8210940
Probable space group: P M M A
;
_chemical_formula_sum "Si O2"
_cell_formula_units_Z 48
_cell_length_a 9.759864
_cell_length_b 7.680726
_cell_length_c 34.225105
_cell_angle_alpha 90.000000
_cell_angle_beta 90.000000
_cell_angle_gamma 90.000000
_cell_volume 2565.611111
_symmetry_space_group_name_H-M "P M M A"
_symmetry_group_IT_number 51
_symmetry_cell_setting 'orthorhombic'
loop_
_space_group_symop_operation_xyz
x,y,z
1/2-x,-y,z
1/2+x,-y,-z
-x,y,-z
-x,-y,-z
1/2+x,y,-z
1/2-x,y,z
x,-y,z
loop_
_atom_site_type_symbol
_atom_site_label
_atom_site_fract_x
_atom_site_fract_y
_atom_site_fract_z
Si Si1 0.091675 0.000000 0.096352
Si Si2 0.907192 0.301579 0.963476
Si Si3 0.402121 0.293479 0.684920
Si Si4 0.087179 0.693010 0.771131
Si Si5 0.097231 0.204658 0.466666
Si Si6 0.586670 0.000000 0.173107
Si Si7 0.597299 0.295329 0.618356
O O1 0.057939 0.826534 0.071939
O O2 0.250000 0.000000 0.110032
O O3 0.989857 0.000000 0.132369
O O4 0.750000 0.278887 0.976634
O O5 0.937407 0.500000 0.950032
O O6 0.000000 0.248380 0.000000
O O7 0.250000 0.213646 0.679212
O O8 0.393446 0.500000 0.680916
O O9 0.461882 0.246793 0.727926
O O10 0.501161 0.212241 0.651874
O O11 0.250000 0.686093 0.769953
O O12 0.029490 0.500000 0.781562
O O13 0.036572 0.829760 0.803329
O O14 0.250000 0.285918 0.470534
O O15 0.035426 0.250012 0.424147
O O16 0.000000 0.287721 0.500000
O O17 0.104769 0.000000 0.472467
O O18 0.750000 0.000000 0.166432
O O19 0.750000 0.214367 0.622058
O O20 0.603848 0.500000 0.624236
#
# Coordination Sequence:
#
# PCOD8210940 Si02
#       7
#     4   8   8   8   8   4   8
#     4  10  21  35  49  70 106 140 164 203 257 300
#     4   9  18  33  53  76 102 134 171 210 253 299
#     4   8  14  27  47  67  88 115 143 176 224 275
#     4   8  15  30  50  70  95 125 157 200 249 287
#     4   9  18  32  46  59  82 115 145 173 210 257
#     4  10  20  33  51  74  97 128 173 211 240 288
#     4   9  17  29  45  66  90 112 138 176 220 265
#
# _framework density 18.708991999999999
#
# number of rings (size 3 to 8) (size 9 to 14) (size 15 to 20)
#    0.000    3.167    0.000    1.250    0.000    2.333 
#    1.500    0.833    0.000    1.000    0.000    0.000 
#    0.000    0.000    0.000    0.000    0.000    0.000 
#
# Total GULP energy -594976.563473 kJ/mol
# GULP energy per Si atom -12395.345072 kJ/mol
# Density = 1.866641 g / cm^3
# Si number density = 18.708992 Si / 1000 Ang^3
#
#
#
# Elastic Constant Matrix: (Units=GPa)
#
#
# Indices 1 2 3 4 5 6 
#
# 1 74.3275 31.3833 79.8996 0.0000 0.0000 0.0000
# 2 31.3833 69.2618 57.5139 0.0000 0.0000 0.0000
# 3 79.8996 57.5139 173.3738 0.0000 0.0000 0.0000
# 4 0.0000 0.0000 0.0000 33.7860 0.0000 0.0000
# 5 0.0000 0.0000 0.0000 0.0000 35.3220 0.0000
# 6 0.0000 0.0000 0.0000 0.0000 0.0000 11.1471
#
#
#
# Elastic Compliance Matrix: (Units=1/GPa)
#
#
# Indices 1 2 3 4 5 6 
#
# 1 0.027004 -0.002625 -0.011574 0.000000 0.000000 0.000000
# 2 -0.002625 0.020182 -0.005485 0.000000 0.000000 0.000000
# 3 -0.011574 -0.005485 0.012922 0.000000 0.000000 0.000000
# 4 0.000000 0.000000 0.000000 0.029598 0.000000 0.000000
# 5 0.000000 0.000000 0.000000 0.000000 0.028311 0.000000
# 6 0.000000 0.000000 0.000000 0.000000 0.000000 0.089709
#
#
# Mechanical properties :
#
#
# Convention : Reuss Voigt Hill
#
# Bulk Modulus (GPa) = 48.21825 72.72853 60.47339
# Shear Modulus (GPa) = 19.68441 25.92879 22.80660
#
# Velocity S-wave (km/s) = 3.24718 3.72681 3.49523
# Velocity P-wave (km/s) = 6.31567 7.58134 6.97726
#
# Compressibility (1/GPa) = 0.02073904
#
# Stress axis : x y z
#
# Youngs Moduli (GPa) = 37.03141 49.54814 77.39002
#
# Poissons Ratio (x) = 0.13006 0.89572
# Poissons Ratio (y) = 0.09720 0.42452
# Poissons Ratio (z) = 0.42861 0.27180
#
# Static dielectric constant tensor:
#      x y z
#    x 3.529090 0.000000 0.000000 
#    y 0.000000 3.481260 0.000000 
#    z 0.000000 0.000000 3.451710 
# 
# 
# High freq. dielectric constant tensor:
#      x y z
#    x 1.701070 0.000000 0.000000 
#    y 0.000000 1.721200 0.000000 
#    z 0.000000 0.000000 1.722360 
# 
# From -- ./inp_files/37217.got.cif
#   From: 2010.03.12/outbox.cif.g09.slc.cpg/sg51_19_cif.got.tgz:37217.got - 2010.04.16 13:43:02.
