data_PCOD8210232
_publ_section_title
;
Structure prediction by ZEFSAII (Michael W. Deem and Ramdas Pophale) SiO2 
 PCOD8210232
Probable space group: P M M A
;
_chemical_formula_sum "Si O2"
_cell_formula_units_Z 48
_cell_length_a 9.286603
_cell_length_b 7.750952
_cell_length_c 34.832683
_cell_angle_alpha 90.000000
_cell_angle_beta 90.000000
_cell_angle_gamma 90.000000
_cell_volume 2507.257013
_symmetry_space_group_name_H-M "P M M A"
_symmetry_group_IT_number 51
_symmetry_cell_setting 'orthorhombic'
loop_
_space_group_symop_operation_xyz
x,y,z
1/2-x,-y,z
1/2+x,-y,-z
-x,y,-z
-x,-y,-z
1/2+x,y,-z
1/2-x,y,z
x,-y,z
loop_
_atom_site_type_symbol
_atom_site_label
_atom_site_fract_x
_atom_site_fract_y
_atom_site_fract_z
Si Si1 0.917367 0.695605 0.538496
Si Si2 0.081269 0.000000 0.405276
Si Si3 0.577995 0.306677 0.271608
Si Si4 0.911284 0.199643 0.107981
Si Si5 0.421156 0.000000 0.674472
Si Si6 0.091081 0.296923 0.811439
Si Si7 0.412078 0.205826 0.036722
O O1 0.750000 0.715298 0.529059
O O2 0.955150 0.500000 0.551692
O O3 0.963657 0.828111 0.571600
O O4 0.000000 0.746198 0.500000
O O5 0.991641 0.000000 0.366754
O O6 0.250000 0.000000 0.395731
O O7 0.750000 0.307316 0.268709
O O8 0.523859 0.500000 0.282693
O O9 0.524334 0.170633 0.303199
O O10 0.516275 0.248792 0.229473
O O11 0.750000 0.283138 0.107030
O O12 0.987250 0.229243 0.149869
O O13 0.011056 0.281833 0.074932
O O14 0.897741 0.000000 0.099021
O O15 0.250000 0.000000 0.670045
O O16 0.250000 0.212309 0.812051
O O17 0.101958 0.500000 0.813265
O O18 0.250000 0.279310 0.034887
O O19 0.408595 0.000000 0.037335
O O20 0.500000 0.273801 0.000000
#
# Coordination Sequence:
#
# PCOD8210232 Si02
#       7
#     8   4   8   8   4   8   8
#     4   9  18  33  53  76 101 132 169 208 251 297
#     4  10  21  35  49  70 104 138 166 201 249 300
#     4   8  15  28  45  68  97 124 155 201 250 288
#     4   9  16  24  39  65  88 106 136 176 215 259
#     4  10  20  31  49  74  97 128 171 211 246 286
#     4   8  14  25  42  64  89 115 141 176 225 273
#     4   9  16  26  40  58  84 115 143 173 212 257
#
# _framework density 19.144427
#
# number of rings (size 3 to 8) (size 9 to 14) (size 15 to 20)
#    0.000    3.167    0.000    1.750    1.167    3.333 
#    0.000    0.000    0.000    2.000    0.000    2.333 
#    0.000    0.000    0.000    0.000    0.000    0.000 
#
# Total GULP energy -594764.352263 kJ/mol
# GULP energy per Si atom -12390.924005 kJ/mol
# Density = 1.910085 g / cm^3
# Si number density = 19.144427 Si / 1000 Ang^3
#
#
#
# Elastic Constant Matrix: (Units=GPa)
#
#
# Indices 1 2 3 4 5 6 
#
# 1 60.7963 26.0291 61.1310 0.0000 0.0000 0.0000
# 2 26.0291 78.5672 73.3724 0.0000 0.0000 0.0000
# 3 61.1310 73.3724 196.8273 0.0000 0.0000 0.0000
# 4 0.0000 0.0000 0.0000 -9.1299 0.0000 0.0000
# 5 0.0000 0.0000 0.0000 0.0000 26.7910 0.0000
# 6 0.0000 0.0000 0.0000 0.0000 0.0000 6.8306
#
#
#
# Elastic Compliance Matrix: (Units=1/GPa)
#
#
# Indices 1 2 3 4 5 6 
#
# 1 0.024036 -0.001521 -0.006898 0.000000 0.000000 0.000000
# 2 -0.001521 0.019621 -0.006842 0.000000 0.000000 0.000000
# 3 -0.006898 -0.006842 0.009774 0.000000 0.000000 0.000000
# 4 0.000000 0.000000 0.000000 -0.109531 0.000000 0.000000
# 5 0.000000 0.000000 0.000000 0.000000 0.037326 0.000000
# 6 0.000000 0.000000 0.000000 0.000000 0.000000 0.146400
#
#
# Mechanical properties :
#
#
# Convention : Reuss Voigt Hill
#
# Bulk Modulus (GPa) = 43.65183 73.02842 58.34013
# Shear Modulus (GPa) = 30.15973 16.60890 23.38432
#
# Velocity S-wave (km/s) = 3.97341 2.94863 3.49874
# Velocity P-wave (km/s) = 6.62582 7.05843 6.84554
#
# Compressibility (1/GPa) = 0.02290855
#
# Stress axis : x y z
#
# Youngs Moduli (GPa) = 41.60501 50.96453 102.31703
#
# Poissons Ratio (x) = 0.07751 0.70579
# Poissons Ratio (y) = 0.06328 0.70006
# Poissons Ratio (z) = 0.28699 0.34870
#
# Static dielectric constant tensor:
#      x y z
#    x 3.371780 0.000000 0.000000 
#    y 0.000000 3.460840 0.000000 
#    z 0.000000 0.000000 3.687670 
# 
# 
# High freq. dielectric constant tensor:
#      x y z
#    x 1.691070 0.000000 0.000000 
#    y 0.000000 1.736060 0.000000 
#    z 0.000000 0.000000 1.753160 
# 
# From -- ./inp_files/37219.got.cif
#   From: 2010.03.12/outbox.cif.g09.slc.cpg/sg51_19_cif.got.tgz:37219.got - 2010.04.16 13:43:02.
