data_PCOD8210316
_publ_section_title
;
Structure prediction by ZEFSAII (Michael W. Deem and Ramdas Pophale) SiO2 
 PCOD8210316
Probable space group: P M M A
;
_chemical_formula_sum "Si O2"
_cell_formula_units_Z 56
_cell_length_a 24.871453
_cell_length_b 9.116402
_cell_length_c 14.949421
_cell_angle_alpha 90.000000
_cell_angle_beta 90.000000
_cell_angle_gamma 90.000000
_cell_volume 3389.604268
_symmetry_space_group_name_H-M "P M M A"
_symmetry_group_IT_number 51
_symmetry_cell_setting 'orthorhombic'
loop_
_space_group_symop_operation_xyz
x,y,z
1/2-x,-y,z
1/2+x,-y,-z
-x,y,-z
-x,-y,-z
1/2+x,y,-z
1/2-x,y,z
x,-y,z
loop_
_atom_site_type_symbol
_atom_site_label
_atom_site_fract_x
_atom_site_fract_y
_atom_site_fract_z
Si Si1 0.313998 0.335933 0.597824
Si Si2 0.686092 0.837281 0.570869
Si Si3 0.396164 0.670067 0.109448
Si Si4 0.392007 0.329335 0.899659
Si Si5 0.813348 0.830444 0.226278
Si Si6 0.312510 0.829003 0.229386
Si Si7 0.001923 0.834219 0.893704
O O1 0.250000 0.336972 0.594435
O O2 0.336711 0.500000 0.609727
O O3 0.337256 0.270893 0.504886
O O4 0.333922 0.236944 0.680155
O O5 0.750000 0.843249 0.565836
O O6 0.669218 0.784648 0.670037
O O7 0.663193 0.000000 0.552312
O O8 0.404541 0.500000 0.130948
O O9 0.344332 0.729898 0.160002
O O10 0.448839 0.755471 0.144291
O O11 0.386563 0.696857 0.004947
O O12 0.393907 0.500000 0.875201
O O13 0.340437 0.254747 0.855300
O O14 0.445823 0.254168 0.860780
O O15 0.750000 0.809227 0.214962
O O16 0.829985 0.000000 0.223943
O O17 0.250000 0.794605 0.214960
O O18 0.324413 0.000000 0.211993
O O19 0.004395 0.000000 0.856598
O O20 0.000000 0.832578 0.000000
#
# Coordination Sequence:
#
# PCOD8210316 Si02
#       7
#     8   8   8   8   8   8   8
#     4   9  16  26  42  64  89 117 149 187 230 272
#     4   8  14  26  43  62  86 117 152 189 227 266
#     4  10  20  32  47  68  94 123 154 191 234 275
#     4  10  20  33  48  67  93 122 153 192 235 275
#     4  10  20  32  46  66  93 125 159 191 225 272
#     4   9  18  31  46  66  94 127 160 192 227 271
#     4   9  17  31  51  70  87 112 151 195 233 271
#
# _framework density 16.521101999999999
#
# number of rings (size 3 to 8) (size 9 to 14) (size 15 to 20)
#    0.000    2.714    0.000    3.000    0.000    7.429 
#    0.000    4.286    0.000    0.000    0.000    1.000 
#    0.000    8.000    0.000    0.000    0.000    0.000 
#
# Total GULP energy -694344.360690 kJ/mol
# GULP energy per Si atom -12399.006441 kJ/mol
# Density = 1.648350 g / cm^3
# Si number density = 16.521102 Si / 1000 Ang^3
#
#
#
# Elastic Constant Matrix: (Units=GPa)
#
#
# Indices 1 2 3 4 5 6 
#
# 1 55.9794 50.4079 39.3955 0.0000 0.0000 0.0000
# 2 50.4079 139.1877 62.5872 0.0000 0.0000 0.0000
# 3 39.3955 62.5872 71.2626 0.0000 0.0000 0.0000
# 4 0.0000 0.0000 0.0000 29.4809 0.0000 0.0000
# 5 0.0000 0.0000 0.0000 0.0000 1.6967 0.0000
# 6 0.0000 0.0000 0.0000 0.0000 0.0000 28.0899
#
#
#
# Elastic Compliance Matrix: (Units=1/GPa)
#
#
# Indices 1 2 3 4 5 6 
#
# 1 0.032017 -0.006010 -0.012422 0.000000 0.000000 0.000000
# 2 -0.006010 0.013002 -0.008097 0.000000 0.000000 0.000000
# 3 -0.012422 -0.008097 0.028010 0.000000 0.000000 0.000000
# 4 0.000000 0.000000 0.000000 0.033920 0.000000 0.000000
# 5 0.000000 0.000000 0.000000 0.000000 0.589375 0.000000
# 6 0.000000 0.000000 0.000000 0.000000 0.000000 0.035600
#
#
# Mechanical properties :
#
#
# Convention : Reuss Voigt Hill
#
# Bulk Modulus (GPa) = 50.06671 63.46789 56.76730
# Shear Modulus (GPa) = 6.31602 19.45611 12.88606
#
# Velocity S-wave (km/s) = 1.95737 3.43542 2.79583
# Velocity P-wave (km/s) = 5.95642 7.36449 6.69756
#
# Compressibility (1/GPa) = 0.01997335
#
# Stress axis : x y z
#
# Youngs Moduli (GPa) = 31.23349 76.91281 35.70091
#
# Poissons Ratio (x) = 0.46222 0.44346
# Poissons Ratio (y) = 0.18770 0.28906
# Poissons Ratio (z) = 0.38797 0.62274
#
# Static dielectric constant tensor:
#      x y z
#    x 2.841970 0.000000 0.000000 
#    y 0.000000 3.322330 0.000000 
#    z 0.000000 0.000000 3.069460 
# 
# 
# High freq. dielectric constant tensor:
#      x y z
#    x 1.599530 0.000000 0.000000 
#    y 0.000000 1.651800 0.000000 
#    z 0.000000 0.000000 1.622760 
# 
# From -- ./inp_files/25668.got.cif
#   From: 2010.03.12/outbox.cif.g09.slc.cpg/sg51_13_cif.got.tgz:25668.got - 2010.04.16 13:43:02.
