data_PCOD8210926
_publ_section_title
;
Structure prediction by ZEFSAII (Michael W. Deem and Ramdas Pophale) SiO2 
 PCOD8210926
Probable space group: P M M A
;
_chemical_formula_sum "Si O2"
_cell_formula_units_Z 56
_cell_length_a 18.714692
_cell_length_b 8.934577
_cell_length_c 18.339568
_cell_angle_alpha 90.000000
_cell_angle_beta 90.000000
_cell_angle_gamma 90.000000
_cell_volume 3066.519858
_symmetry_space_group_name_H-M "P M M A"
_symmetry_group_IT_number 51
_symmetry_cell_setting 'orthorhombic'
loop_
_space_group_symop_operation_xyz
x,y,z
1/2-x,-y,z
1/2+x,-y,-z
-x,y,-z
-x,-y,-z
1/2+x,y,-z
1/2-x,y,z
x,-y,z
loop_
_atom_site_type_symbol
_atom_site_label
_atom_site_fract_x
_atom_site_fract_y
_atom_site_fract_z
Si Si1 0.832380 0.177304 0.666628
Si Si2 0.333997 0.667219 0.948668
Si Si3 0.828070 0.321829 0.211626
Si Si4 0.455253 0.332194 0.694183
Si Si5 0.587887 0.332026 0.796053
Si Si6 0.934292 0.175184 0.949907
Si Si7 0.034798 0.175027 0.426730
O O1 0.750000 0.221898 0.647783
O O2 0.854684 0.248720 0.744105
O O3 0.886495 0.234135 0.601225
O O4 0.840019 0.000000 0.675371
O O5 0.250000 0.659480 0.957525
O O6 0.366062 0.500000 0.961211
O O7 0.353910 0.730105 0.868364
O O8 0.362751 0.784894 0.006835
O O9 0.750000 0.255456 0.230251
O O10 0.825083 0.500000 0.209773
O O11 0.881833 0.266457 0.273617
O O12 0.446123 0.500000 0.661218
O O13 0.511645 0.337953 0.758520
O O14 0.476949 0.213241 0.633974
O O15 0.616880 0.500000 0.810187
O O16 0.572877 0.251050 0.871721
O O17 0.941223 0.000000 0.936620
O O18 0.000000 0.234987 0.000000
O O19 0.000000 0.248007 0.500000
O O20 0.041486 0.000000 0.438378
#
# Coordination Sequence:
#
# PCOD8210926 Si02
#       7
#     8   8   8   8   8   8   8
#     4   9  18  34  55  76 100 133 170 207 250 300
#     4   9  18  33  52  71  92 124 165 205 247 295
#     4   8  14  27  48  71  94 121 154 192 234 282
#     4   9  17  30  50  74  96 121 156 195 235 281
#     4  10  20  33  51  73  96 126 165 210 255 297
#     4  11  23  35  48  70 100 133 169 210 256 304
#     4   9  18  33  52  74 101 132 163 195 235 286
#
# _framework density 18.261745000000001
#
# number of rings (size 3 to 8) (size 9 to 14) (size 15 to 20)
#    0.000    2.714    0.000    2.571    0.000    4.286 
#    0.000    1.429    0.000    2.143    0.000    0.000 
#    0.000    0.000    0.000    0.000    0.000    0.000 
#
# Total GULP energy -693902.730236 kJ/mol
# GULP energy per Si atom -12391.120183 kJ/mol
# Density = 1.822018 g / cm^3
# Si number density = 18.261745 Si / 1000 Ang^3
#
#
#
# Elastic Constant Matrix: (Units=GPa)
#
#
# Indices 1 2 3 4 5 6 
#
# 1 81.3430 30.7278 70.4789 0.0000 0.0000 0.0000
# 2 30.7278 35.3739 27.8865 0.0000 0.0000 0.0000
# 3 70.4789 27.8865 123.3452 0.0000 0.0000 0.0000
# 4 0.0000 0.0000 0.0000 -28.1657 0.0000 0.0000
# 5 0.0000 0.0000 0.0000 0.0000 19.9385 0.0000
# 6 0.0000 0.0000 0.0000 0.0000 0.0000 21.4427
#
#
#
# Elastic Compliance Matrix: (Units=1/GPa)
#
#
# Indices 1 2 3 4 5 6 
#
# 1 0.029812 -0.015172 -0.013605 0.000000 0.000000 0.000000
# 2 -0.015172 0.042122 -0.000854 0.000000 0.000000 0.000000
# 3 -0.013605 -0.000854 0.016074 0.000000 0.000000 0.000000
# 4 0.000000 0.000000 0.000000 -0.035504 0.000000 0.000000
# 5 0.000000 0.000000 0.000000 0.000000 0.050154 0.000000
# 6 0.000000 0.000000 0.000000 0.000000 0.000000 0.046636
#
#
# Mechanical properties :
#
#
# Convention : Reuss Voigt Hill
#
# Bulk Modulus (GPa) = 34.78566 55.36092 45.07329
# Shear Modulus (GPa) = 22.92131 10.04101 16.48116
#
# Velocity S-wave (km/s) = 3.54666 2.34741 3.00742
# Velocity P-wave (km/s) = 5.98844 6.14232 6.06587
#
# Compressibility (1/GPa) = 0.02874747
#
# Stress axis : x y z
#
# Youngs Moduli (GPa) = 33.54303 23.74067 62.21225
#
# Poissons Ratio (x) = 0.36019 0.84637
# Poissons Ratio (y) = 0.50891 0.05313
# Poissons Ratio (z) = 0.45634 0.02027
#
# Static dielectric constant tensor:
#      x y z
#    x 3.689640 0.000000 0.000000 
#    y 0.000000 3.217440 0.000000 
#    z 0.000000 0.000000 3.499080 
# 
# 
# High freq. dielectric constant tensor:
#      x y z
#    x 1.710040 0.000000 0.000000 
#    y 0.000000 1.687480 0.000000 
#    z 0.000000 0.000000 1.700520 
# 
# From -- ./inp_files/25735.got.cif
#   From: 2010.03.12/outbox.cif.g09.slc.cpg/sg51_13_cif.got.tgz:25735.got - 2010.04.16 13:43:02.
