data_PCOD8210279
_publ_section_title
;
Structure prediction by ZEFSAII (Michael W. Deem and Ramdas Pophale) SiO2 
 PCOD8210279
Probable space group: P M M A
;
_chemical_formula_sum "Si O2"
_cell_formula_units_Z 36
_cell_length_a 9.309378
_cell_length_b 12.597895
_cell_length_c 16.769158
_cell_angle_alpha 90.000000
_cell_angle_beta 90.000000
_cell_angle_gamma 90.000000
_cell_volume 1966.662813
_symmetry_space_group_name_H-M "P M M A"
_symmetry_group_IT_number 51
_symmetry_cell_setting 'orthorhombic'
loop_
_space_group_symop_operation_xyz
x,y,z
1/2-x,-y,z
1/2+x,-y,-z
-x,y,-z
-x,-y,-z
1/2+x,y,-z
1/2-x,y,z
x,-y,z
loop_
_atom_site_type_symbol
_atom_site_label
_atom_site_fract_x
_atom_site_fract_y
_atom_site_fract_z
Si Si1 0.414557 0.686466 0.302070
Si Si2 0.912972 0.620001 0.875841
Si Si3 0.581170 0.814343 0.074683
Si Si4 0.920731 0.500000 0.583211
Si Si5 0.417127 0.881058 0.750501
O O1 0.250000 0.716459 0.316700
O O2 0.437438 0.627581 0.218618
O O3 0.470004 0.605764 0.369702
O O4 0.501081 0.797172 0.305151
O O5 0.750000 0.655538 0.897042
O O6 0.941528 0.500000 0.902990
O O7 0.027111 0.692741 0.921572
O O8 0.750000 0.818596 0.059318
O O9 0.536931 0.872420 0.156575
O O10 0.500000 0.870228 0.000000
O O11 0.750000 0.500000 0.571884
O O12 0.000000 0.500000 0.500000
O O13 0.250000 0.855399 0.742690
O O14 0.453597 0.000000 0.721143
#
# Coordination Sequence:
#
# PCOD8210279 Si02
#       5
#     8   8   8   4   8
#     4   9  17  32  53  77 105 134 167 206 246 294
#     4   9  16  29  49  68  90 126 166 205 251 299
#     4  10  20  32  45  65  94 128 166 211 259 304
#     4  10  20  34  54  84 117 142 163 196 243 296
#     4   9  19  35  53  74 100 131 170 216 261 301
#
# _framework density 18.305121
#
# number of rings (size 3 to 8) (size 9 to 14) (size 15 to 20)
#    0.000    2.667    1.111    0.667    0.000    3.556 
#    0.000    0.000    0.000    0.667    0.000    0.000 
#    0.000    0.000    0.000    0.000    0.000    0.000 
#
# Total GULP energy -446335.160034 kJ/mol
# GULP energy per Si atom -12398.198890 kJ/mol
# Density = 1.826346 g / cm^3
# Si number density = 18.305121 Si / 1000 Ang^3
#
#
#
# Elastic Constant Matrix: (Units=GPa)
#
#
# Indices 1 2 3 4 5 6 
#
# 1 65.1635 45.8852 35.3113 0.0000 0.0000 0.0000
# 2 45.8852 119.3082 39.0620 0.0000 0.0000 0.0000
# 3 35.3113 39.0620 82.5028 0.0000 0.0000 0.0000
# 4 0.0000 0.0000 0.0000 15.3711 0.0000 0.0000
# 5 0.0000 0.0000 0.0000 0.0000 29.6512 0.0000
# 6 0.0000 0.0000 0.0000 0.0000 0.0000 28.3996
#
#
#
# Elastic Compliance Matrix: (Units=1/GPa)
#
#
# Indices 1 2 3 4 5 6 
#
# 1 0.024032 -0.006953 -0.006994 0.000000 0.000000 0.000000
# 2 -0.006953 0.011931 -0.002673 0.000000 0.000000 0.000000
# 3 -0.006994 -0.002673 0.016380 0.000000 0.000000 0.000000
# 4 0.000000 0.000000 0.000000 0.065057 0.000000 0.000000
# 5 0.000000 0.000000 0.000000 0.000000 0.033725 0.000000
# 6 0.000000 0.000000 0.000000 0.000000 0.000000 0.035212
#
#
# Mechanical properties :
#
#
# Convention : Reuss Voigt Hill
#
# Bulk Modulus (GPa) = 52.34710 56.38792 54.36751
# Shear Modulus (GPa) = 22.12950 24.46545 23.29747
#
# Velocity S-wave (km/s) = 3.48073 3.65983 3.57140
# Velocity P-wave (km/s) = 6.69425 6.98072 6.83899
#
# Compressibility (1/GPa) = 0.01910326
#
# Stress axis : x y z
#
# Youngs Moduli (GPa) = 41.61198 83.81703 61.05114
#
# Poissons Ratio (x) = 0.58275 0.42698
# Poissons Ratio (y) = 0.28931 0.16319
# Poissons Ratio (z) = 0.29102 0.22405
#
# Static dielectric constant tensor:
#      x y z
#    x 3.297570 0.000000 0.000000 
#    y 0.000000 3.367390 0.000000 
#    z 0.000000 0.000000 3.169590 
# 
# 
# High freq. dielectric constant tensor:
#      x y z
#    x 1.704360 0.000000 0.000000 
#    y 0.000000 1.707850 0.000000 
#    z 0.000000 0.000000 1.681280 
# 
# From -- ./inp_files/20341.got.cif
#   From: 2010.03.12/outbox.cif.g09.slc.cpg/sg51_11_cif.got.tgz:20341.got - 2010.04.16 13:43:02.
