data_PCOD8210995
_publ_section_title
;
Structure prediction by ZEFSAII (Michael W. Deem and Ramdas Pophale) SiO2 
 PCOD8210995
Probable space group: P M M A
;
_chemical_formula_sum "Si O2"
_cell_formula_units_Z 48
_cell_length_a 9.109996
_cell_length_b 9.407696
_cell_length_c 30.840005
_cell_angle_alpha 90.000000
_cell_angle_beta 90.000000
_cell_angle_gamma 90.000000
_cell_volume 2643.114038
_symmetry_space_group_name_H-M "P M M A"
_symmetry_group_IT_number 51
_symmetry_cell_setting 'orthorhombic'
loop_
_space_group_symop_operation_xyz
x,y,z
1/2-x,-y,z
1/2+x,-y,-z
-x,y,-z
-x,-y,-z
1/2+x,y,-z
1/2-x,y,z
x,-y,z
loop_
_atom_site_type_symbol
_atom_site_label
_atom_site_fract_x
_atom_site_fract_y
_atom_site_fract_z
Si Si1 0.920978 0.335169 0.956866
Si Si2 0.579535 0.165535 0.116668
Si Si3 0.578722 0.664673 0.544352
Si Si4 0.086009 0.830918 0.295299
Si Si5 0.580952 0.168051 0.380617
Si Si6 0.912803 0.168857 0.213569
O O1 0.750000 0.305972 0.962496
O O2 0.957341 0.500000 0.949869
O O3 0.978367 0.252828 0.915349
O O4 0.000000 0.277222 0.000000
O O5 0.750000 0.200274 0.108295
O O6 0.534240 0.212335 0.165447
O O7 0.548364 0.000000 0.109368
O O8 0.500000 0.708625 0.500000
O O9 0.750000 0.699374 0.539761
O O10 0.550879 0.500000 0.555205
O O11 0.511078 0.758425 0.582029
O O12 0.250000 0.769991 0.301621
O O13 0.984185 0.779817 0.334781
O O14 0.021576 0.769319 0.250167
O O15 0.089350 0.000000 0.293478
O O16 0.750000 0.215573 0.383049
O O17 0.564115 0.000000 0.386108
O O18 0.750000 0.230079 0.222345
O O19 0.906048 0.000000 0.216481
#
# Coordination Sequence:
#
# PCOD8210995 Si02
#       6
#     8   8   8   8   8   8
#     4  10  21  36  53  72  95 127 166 204 245 295
#     4   9  18  32  51  76 103 130 162 201 245 291
#     4  10  21  37  56  76  99 130 167 205 248 299
#     4   9  16  26  43  69 100 132 165 202 244 289
#     4  10  20  33  51  76 104 134 168 206 248 292
#     4   8  14  26  44  67  97 130 161 195 238 290
#
# _framework density 18.160395999999999
#
# number of rings (size 3 to 8) (size 9 to 14) (size 15 to 20)
#    0.000    2.667    0.000    3.000    0.000    6.667 
#    0.000    1.667    0.000    1.000    0.000    4.667 
#    0.000    0.000    0.000    0.000    0.000    0.000 
#
# Total GULP energy -595170.946055 kJ/mol
# GULP energy per Si atom -12399.394709 kJ/mol
# Density = 1.811906 g / cm^3
# Si number density = 18.160396 Si / 1000 Ang^3
#
#
#
# Elastic Constant Matrix: (Units=GPa)
#
#
# Indices 1 2 3 4 5 6 
#
# 1 124.7057 34.1119 80.7251 0.0000 0.0000 0.0000
# 2 34.1119 28.3085 39.5422 0.0000 0.0000 0.0000
# 3 80.7251 39.5422 156.1569 0.0000 0.0000 0.0000
# 4 0.0000 0.0000 0.0000 -28.9292 0.0000 0.0000
# 5 0.0000 0.0000 0.0000 0.0000 41.7327 0.0000
# 6 0.0000 0.0000 0.0000 0.0000 0.0000 23.7352
#
#
#
# Elastic Compliance Matrix: (Units=1/GPa)
#
#
# Indices 1 2 3 4 5 6 
#
# 1 0.013744 -0.010269 -0.004504 0.000000 0.000000 0.000000
# 2 -0.010269 0.062331 -0.010475 0.000000 0.000000 0.000000
# 3 -0.004504 -0.010475 0.011385 0.000000 0.000000 0.000000
# 4 0.000000 0.000000 0.000000 -0.034567 0.000000 0.000000
# 5 0.000000 0.000000 0.000000 0.000000 0.023962 0.000000
# 6 0.000000 0.000000 0.000000 0.000000 0.000000 0.042131
#
#
# Mechanical properties :
#
#
# Convention : Reuss Voigt Hill
#
# Bulk Modulus (GPa) = 27.05442 68.65883 47.85662
# Shear Modulus (GPa) = 27.50210 17.62722 22.56466
#
# Velocity S-wave (km/s) = 3.89575 3.11889 3.52876
# Velocity P-wave (km/s) = 5.93006 7.13155 6.55838
#
# Compressibility (1/GPa) = 0.03696254
#
# Stress axis : x y z
#
# Youngs Moduli (GPa) = 72.76017 16.04331 87.83654
#
# Poissons Ratio (x) = 0.16476 0.39565
# Poissons Ratio (y) = 0.74721 0.92007
# Poissons Ratio (z) = 0.32774 0.16805
#
# Static dielectric constant tensor:
#      x y z
#    x 3.553540 0.000000 0.000000 
#    y 0.000000 2.938080 0.000000 
#    z 0.000000 0.000000 3.574760 
# 
# 
# High freq. dielectric constant tensor:
#      x y z
#    x 1.715050 0.000000 0.000000 
#    y 0.000000 1.656450 0.000000 
#    z 0.000000 0.000000 1.719980 
# 
# From -- ./inp_files/37026.got.cif
#   From: 2010.03.12/outbox.cif.g09.slc.cpg/sg51_19_cif.got.tgz:37026.got - 2010.04.16 13:43:02.
