data_PCOD8210518
_publ_section_title
;
Structure prediction by ZEFSAII (Michael W. Deem and Ramdas Pophale) SiO2 
 PCOD8210518
Probable space group: P M M A
;
_chemical_formula_sum "Si O2"
_cell_formula_units_Z 56
_cell_length_a 8.995813
_cell_length_b 14.057082
_cell_length_c 23.581300
_cell_angle_alpha 90.000000
_cell_angle_beta 90.000000
_cell_angle_gamma 90.000000
_cell_volume 2981.970485
_symmetry_space_group_name_H-M "P M M A"
_symmetry_group_IT_number 51
_symmetry_cell_setting 'orthorhombic'
loop_
_space_group_symop_operation_xyz
x,y,z
1/2-x,-y,z
1/2+x,-y,-z
-x,y,-z
-x,-y,-z
1/2+x,y,-z
1/2-x,y,z
x,-y,z
loop_
_atom_site_type_symbol
_atom_site_label
_atom_site_fract_x
_atom_site_fract_y
_atom_site_fract_z
Si Si1 0.920360 0.607139 0.873925
Si Si2 0.421404 0.892513 0.273404
Si Si3 0.417996 0.387363 0.761443
Si Si4 0.078472 0.786624 0.058315
Si Si5 0.417970 0.112633 0.839849
Si Si6 0.075609 0.391267 0.559069
Si Si7 0.577846 0.288536 0.660035
O O1 0.750000 0.612156 0.853014
O O2 0.963685 0.500000 0.892192
O O3 0.946295 0.675018 0.927824
O O4 0.023558 0.645046 0.823002
O O5 0.250000 0.888989 0.254534
O O6 0.516178 0.853156 0.220408
O O7 0.449209 0.823545 0.327168
O O8 0.468136 0.000000 0.290734
O O9 0.250000 0.349611 0.752852
O O10 0.423513 0.500000 0.757179
O O11 0.526519 0.347978 0.713993
O O12 0.250000 0.812372 0.051533
O O13 0.014375 0.849238 0.108704
O O14 0.000000 0.813238 0.000000
O O15 0.250000 0.150738 0.844798
O O16 0.425052 0.000000 0.842388
O O17 0.250000 0.376584 0.552419
O O18 0.037891 0.500000 0.576855
O O19 0.000000 0.364979 0.500000
O O20 0.016174 0.318270 0.605591
O O21 0.750000 0.310584 0.648306
#
# Coordination Sequence:
#
# PCOD8210518 Si02
#       7
#     8   8   8   8   8   8   8
#     4   9  19  36  54  72  98 132 168 207 254 308
#     4   9  19  36  56  79 108 140 173 211 258 311
#     4  10  20  32  48  74 106 137 169 208 256 308
#     4  11  23  37  54  75  99 130 168 210 256 307
#     4  10  21  37  57  80 105 133 166 208 260 314
#     4  10  21  37  56  79 110 147 184 221 260 303
#     4  11  21  32  52  80 108 141 178 216 259 305
#
# _framework density 18.779530000000001
#
# number of rings (size 3 to 8) (size 9 to 14) (size 15 to 20)
#    0.000    2.000    0.000    3.429    0.000   10.571 
#    0.000    0.000    0.000    0.429    0.000    0.000 
#    0.000    0.000    0.000    0.000    0.000    0.000 
#
# Total GULP energy -694552.277386 kJ/mol
# GULP energy per Si atom -12402.719239 kJ/mol
# Density = 1.873679 g / cm^3
# Si number density = 18.779530 Si / 1000 Ang^3
#
#
#
# Elastic Constant Matrix: (Units=GPa)
#
#
# Indices 1 2 3 4 5 6 
#
# 1 101.6464 39.3215 51.4826 0.0000 0.0000 0.0000
# 2 39.3215 48.3311 53.1163 0.0000 0.0000 0.0000
# 3 51.4826 53.1163 105.6291 0.0000 0.0000 0.0000
# 4 0.0000 0.0000 0.0000 24.4037 0.0000 0.0000
# 5 0.0000 0.0000 0.0000 0.0000 37.2415 0.0000
# 6 0.0000 0.0000 0.0000 0.0000 0.0000 25.1367
#
#
#
# Elastic Compliance Matrix: (Units=1/GPa)
#
#
# Indices 1 2 3 4 5 6 
#
# 1 0.014661 -0.009109 -0.002565 0.000000 0.000000 0.000000
# 2 -0.009109 0.051910 -0.021664 0.000000 0.000000 0.000000
# 3 -0.002565 -0.021664 0.021611 0.000000 0.000000 0.000000
# 4 0.000000 0.000000 0.000000 0.040977 0.000000 0.000000
# 5 0.000000 0.000000 0.000000 0.000000 0.026852 0.000000
# 6 0.000000 0.000000 0.000000 0.000000 0.000000 0.039783
#
#
# Mechanical properties :
#
#
# Convention : Reuss Voigt Hill
#
# Bulk Modulus (GPa) = 46.49729 60.38305 53.44017
# Shear Modulus (GPa) = 18.54335 24.80211 21.67273
#
# Velocity S-wave (km/s) = 3.14574 3.63809 3.40083
# Velocity P-wave (km/s) = 6.16503 7.06194 6.62867
#
# Compressibility (1/GPa) = 0.02150663
#
# Stress axis : x y z
#
# Youngs Moduli (GPa) = 68.20844 19.26407 46.27236
#
# Poissons Ratio (x) = 0.17547 0.11870
# Poissons Ratio (y) = 0.62129 1.00244
# Poissons Ratio (z) = 0.17497 0.41733
#
# Static dielectric constant tensor:
#      x y z
#    x 3.618560 0.000000 0.000000 
#    y 0.000000 3.591170 0.000000 
#    z 0.000000 0.000000 3.319880 
# 
# 
# High freq. dielectric constant tensor:
#      x y z
#    x 1.742560 0.000000 0.000000 
#    y 0.000000 1.732070 0.000000 
#    z 0.000000 0.000000 1.710780 
# 
# From -- ./inp_files/31885.got.cif
#   From: 2010.03.12/outbox.cif.g09.slc.cpg/sg51_16_cif.got.tgz:31885.got - 2010.04.16 13:43:02.
