data_PCOD8210054
_publ_section_title
;
Structure prediction by ZEFSAII (Michael W. Deem and Ramdas Pophale) SiO2 
 PCOD8210054
Probable space group: P M M A
;
_chemical_formula_sum "Si O2"
_cell_formula_units_Z 48
_cell_length_a 7.779148
_cell_length_b 17.150086
_cell_length_c 17.998040
_cell_angle_alpha 90.000000
_cell_angle_beta 90.000000
_cell_angle_gamma 90.000000
_cell_volume 2401.173540
_symmetry_space_group_name_H-M "P M M A"
_symmetry_group_IT_number 51
_symmetry_cell_setting 'orthorhombic'
loop_
_space_group_symop_operation_xyz
x,y,z
1/2-x,-y,z
1/2+x,-y,-z
-x,y,-z
-x,-y,-z
1/2+x,y,-z
1/2-x,y,z
x,-y,z
loop_
_atom_site_type_symbol
_atom_site_label
_atom_site_fract_x
_atom_site_fract_y
_atom_site_fract_z
Si Si1 0.044921 0.000000 0.156206
Si Si2 0.949058 0.697303 0.821799
Si Si3 0.559231 0.695340 0.649075
Si Si4 0.453157 0.000000 0.325708
Si Si5 0.750000 0.587492 0.355410
Si Si6 0.553822 0.851597 0.418309
Si Si7 0.250000 0.413771 0.820819
Si Si8 0.451103 0.155869 0.084246
O O1 0.966465 0.924525 0.114294
O O2 0.250000 0.000000 0.153012
O O3 0.982684 0.000000 0.241027
O O4 0.750000 0.675830 0.839956
O O5 0.975841 0.714789 0.735068
O O6 0.015779 0.772996 0.865478
O O7 0.074778 0.627912 0.847976
O O8 0.750000 0.658983 0.638842
O O9 0.420581 0.633576 0.617626
O O10 0.555561 0.776459 0.605044
O O11 0.526480 0.923019 0.363267
O O12 0.250000 0.000000 0.332569
O O13 0.750000 0.500000 0.389739
O O14 0.750000 0.581550 0.267446
O O15 0.500000 0.879598 0.500000
O O16 0.750000 0.825355 0.416251
O O17 0.250000 0.500000 0.855785
O O18 0.250000 0.148990 0.093218
O O19 0.500000 0.172025 0.000000
#
# Coordination Sequence:
#
# PCOD8210054 Si02
#       8
#     4   8   8   4   4   8   4   8
#     4   9  19  37  57  78 113 147 188 235 282 335
#     4   9  19  34  55  82 114 148 189 233 286 341
#     4  10  19  36  59  85 115 154 193 237 292 344
#     4  11  22  39  60  82 112 153 194 240 291 339
#     4   9  18  34  56  89 121 147 185 241 289 345
#     4  12  24  39  57  84 115 153 194 241 283 341
#     4   9  18  32  56  85 113 143 183 235 289 337
#     4  10  20  34  53  80 109 151 189 233 281 335
#
# _framework density 19.990227000000001
#
# number of rings (size 3 to 8) (size 9 to 14) (size 15 to 20)
#    0.000    2.000    0.833    3.250    1.167    3.333 
#    0.000    5.000    0.000    1.000    0.000    0.000 
#    0.000    0.000    0.000    0.000    0.000    0.000 
#
# Total GULP energy -595234.948315 kJ/mol
# GULP energy per Si atom -12400.728090 kJ/mol
# Density = 1.994473 g / cm^3
# Si number density = 19.990227 Si / 1000 Ang^3
#
#
#
# Elastic Constant Matrix: (Units=GPa)
#
#
# Indices 1 2 3 4 5 6 
#
# 1 101.1857 48.1288 16.7655 0.0000 0.0000 0.0000
# 2 48.1288 135.8983 15.2157 0.0000 0.0000 0.0000
# 3 16.7655 15.2157 56.2568 0.0000 0.0000 0.0000
# 4 0.0000 0.0000 0.0000 0.0366 0.0000 0.0000
# 5 0.0000 0.0000 0.0000 0.0000 21.6879 0.0000
# 6 0.0000 0.0000 0.0000 0.0000 0.0000 24.4976
#
#
#
# Elastic Compliance Matrix: (Units=1/GPa)
#
#
# Indices 1 2 3 4 5 6 
#
# 1 0.012230 -0.004046 -0.002550 0.000000 0.000000 0.000000
# 2 -0.004046 0.008927 -0.001209 0.000000 0.000000 0.000000
# 3 -0.002550 -0.001209 0.018863 0.000000 0.000000 0.000000
# 4 0.000000 0.000000 0.000000 27.353375 0.000000 0.000000
# 5 0.000000 0.000000 0.000000 0.000000 0.046109 0.000000
# 6 0.000000 0.000000 0.000000 0.000000 0.000000 0.040820
#
#
# Mechanical properties :
#
#
# Convention : Reuss Voigt Hill
#
# Bulk Modulus (GPa) = 40.96789 50.39562 45.68175
# Shear Modulus (GPa) = 0.18179 23.45980 11.82079
#
# Velocity S-wave (km/s) = 0.30189 3.42945 2.43436
# Velocity P-wave (km/s) = 4.54532 6.39893 5.55006
#
# Compressibility (1/GPa) = 0.02440936
#
# Stress axis : x y z
#
# Youngs Moduli (GPa) = 81.76818 112.02548 53.01489
#
# Poissons Ratio (x) = 0.45321 0.13521
# Poissons Ratio (y) = 0.33080 0.06408
# Poissons Ratio (z) = 0.20854 0.13540
#
# Static dielectric constant tensor:
#      x y z
#    x 3.708090 0.000000 0.000000 
#    y 0.000000 3.814570 0.000000 
#    z 0.000000 0.000000 3.418640 
# 
# 
# High freq. dielectric constant tensor:
#      x y z
#    x 1.786280 0.000000 0.000000 
#    y 0.000000 1.777720 0.000000 
#    z 0.000000 0.000000 1.760180 
# 
# From -- ./inp_files/27719.got.cif
#   From: 2010.03.12/outbox.cif.g09.slc.cpg/sg51_14_cif.got.tgz:27719.got - 2010.04.16 13:43:02.
