data_PCOD8210796
_publ_section_title
;
Structure prediction by ZEFSAII (Michael W. Deem and Ramdas Pophale) SiO2 
 PCOD8210796
Probable space group: P M M A
;
_chemical_formula_sum "Si O2"
_cell_formula_units_Z 56
_cell_length_a 15.009830
_cell_length_b 9.189892
_cell_length_c 21.057405
_cell_angle_alpha 90.000000
_cell_angle_beta 90.000000
_cell_angle_gamma 90.000000
_cell_volume 2904.631421
_symmetry_space_group_name_H-M "P M M A"
_symmetry_group_IT_number 51
_symmetry_cell_setting 'orthorhombic'
loop_
_space_group_symop_operation_xyz
x,y,z
1/2-x,-y,z
1/2+x,-y,-z
-x,y,-z
-x,-y,-z
1/2+x,y,-z
1/2-x,y,z
x,-y,z
loop_
_atom_site_type_symbol
_atom_site_label
_atom_site_fract_x
_atom_site_fract_y
_atom_site_fract_z
Si Si1 0.404336 0.164574 0.851751
Si Si2 0.406892 0.163264 0.080582
Si Si3 0.648168 0.672863 0.512800
Si Si4 0.022364 0.671479 0.737601
Si Si5 0.349153 0.336951 0.965313
Si Si6 0.515361 0.327212 0.404963
Si Si7 0.346438 0.336281 0.192912
O O1 0.497616 0.166033 0.887478
O O2 0.409950 0.241223 0.782915
O O3 0.340743 0.258040 0.897036
O O4 0.368731 0.000000 0.842757
O O5 0.340706 0.237029 0.130526
O O6 0.374454 0.000000 0.065960
O O7 0.410892 0.249223 0.014316
O O8 0.750000 0.737118 0.518085
O O9 0.655186 0.500000 0.513762
O O10 0.581773 0.727538 0.569293
O O11 0.598942 0.725116 0.447933
O O12 0.042538 0.500000 0.743087
O O13 0.033270 0.730293 0.666028
O O14 0.921189 0.711092 0.757021
O O15 0.250000 0.342638 0.994036
O O16 0.387840 0.500000 0.956303
O O17 0.511329 0.500000 0.405466
O O18 0.250000 0.326008 0.227155
O O19 0.366595 0.500000 0.169378
#
# Coordination Sequence:
#
# PCOD8210796 Si02
#       7
#     8   8   8   8   8   8   8
#     4  10  21  36  52  70  93 123 160 196 233 284
#     4  10  20  33  50  71  93 120 155 194 239 291
#     4   8  13  22  38  63  95 125 153 190 234 280
#     4   9  17  30  47  66  93 127 159 196 239 281
#     4  11  23  36  51  72  95 119 152 196 244 289
#     4   8  14  24  39  62  92 125 157 189 234 286
#     4   9  17  28  42  63  91 122 157 196 240 290
#
# _framework density 19.279555999999999
#
# number of rings (size 3 to 8) (size 9 to 14) (size 15 to 20)
#    0.000    2.714    0.000    3.000    0.000    7.143 
#    0.000    3.571    0.000    2.571    0.000    2.000 
#    0.000    1.143    0.000    0.000    0.000    0.000 
#
# Total GULP energy -693976.820984 kJ/mol
# GULP energy per Si atom -12392.443232 kJ/mol
# Density = 1.923567 g / cm^3
# Si number density = 19.279556 Si / 1000 Ang^3
#
#
#
# Elastic Constant Matrix: (Units=GPa)
#
#
# Indices 1 2 3 4 5 6 
#
# 1 64.2854 11.0849 18.5306 0.0000 0.0000 0.0000
# 2 11.0849 86.9406 44.3621 0.0000 0.0000 0.0000
# 3 18.5306 44.3621 141.1024 0.0000 0.0000 0.0000
# 4 0.0000 0.0000 0.0000 8.7945 0.0000 0.0000
# 5 0.0000 0.0000 0.0000 0.0000 19.1431 0.0000
# 6 0.0000 0.0000 0.0000 0.0000 0.0000 8.4541
#
#
#
# Elastic Compliance Matrix: (Units=1/GPa)
#
#
# Indices 1 2 3 4 5 6 
#
# 1 0.016267 -0.001172 -0.001768 0.000000 0.000000 0.000000
# 2 -0.001172 0.013784 -0.004180 0.000000 0.000000 0.000000
# 3 -0.001768 -0.004180 0.008633 0.000000 0.000000 0.000000
# 4 0.000000 0.000000 0.000000 0.113708 0.000000 0.000000
# 5 0.000000 0.000000 0.000000 0.000000 0.052238 0.000000
# 6 0.000000 0.000000 0.000000 0.000000 0.000000 0.118286
#
#
# Mechanical properties :
#
#
# Convention : Reuss Voigt Hill
#
# Bulk Modulus (GPa) = 40.90718 48.92040 44.91379
# Shear Modulus (GPa) = 14.47996 21.83506 18.15751
#
# Velocity S-wave (km/s) = 2.74351 3.36899 3.07221
# Velocity P-wave (km/s) = 5.59462 6.36889 5.99427
#
# Compressibility (1/GPa) = 0.02444558
#
# Stress axis : x y z
#
# Youngs Moduli (GPa) = 61.47289 72.54614 115.83001
#
# Poissons Ratio (x) = 0.08503 0.20477
# Poissons Ratio (y) = 0.07205 0.48415
# Poissons Ratio (z) = 0.10868 0.30323
#
# Static dielectric constant tensor:
#      x y z
#    x 3.507150 0.000000 0.000000 
#    y 0.000000 3.349630 0.000000 
#    z 0.000000 0.000000 3.638830 
# 
# 
# High freq. dielectric constant tensor:
#      x y z
#    x 1.744660 0.000000 0.000000 
#    y 0.000000 1.714830 0.000000 
#    z 0.000000 0.000000 1.740190 
# 
# From -- ./inp_files/33474.got.cif
#   From: 2010.03.12/outbox.cif.g09.slc.cpg/sg51_17_cif.got.tgz:33474.got - 2010.04.16 13:43:02.
