data_PCOD8210650
_publ_section_title
;
Structure prediction by ZEFSAII (Michael W. Deem and Ramdas Pophale) SiO2 
 PCOD8210650
Probable space group: P M M A
;
_chemical_formula_sum "Si O2"
_cell_formula_units_Z 56
_cell_length_a 16.512294
_cell_length_b 18.001117
_cell_length_c 9.502927
_cell_angle_alpha 90.000000
_cell_angle_beta 90.000000
_cell_angle_gamma 90.000000
_cell_volume 2824.647515
_symmetry_space_group_name_H-M "P M M A"
_symmetry_group_IT_number 51
_symmetry_cell_setting 'orthorhombic'
loop_
_space_group_symop_operation_xyz
x,y,z
1/2-x,-y,z
1/2+x,-y,-z
-x,y,-z
-x,-y,-z
1/2+x,y,-z
1/2-x,y,z
x,-y,z
loop_
_atom_site_type_symbol
_atom_site_label
_atom_site_fract_x
_atom_site_fract_y
_atom_site_fract_z
Si Si1 0.344978 0.913455 0.711144
Si Si2 0.842789 0.256177 0.787972
Si Si3 0.156393 0.698667 0.722149
Si Si4 0.342929 0.581067 0.257623
Si Si5 0.589774 0.805109 0.060050
Si Si6 0.094649 0.196451 0.493056
Si Si7 0.415879 0.417566 0.550413
O O1 0.250000 0.895251 0.714270
O O2 0.385110 0.877382 0.850177
O O3 0.382459 0.882445 0.565081
O O4 0.363829 0.000000 0.716461
O O5 0.750000 0.266118 0.746732
O O6 0.880661 0.340919 0.803210
O O7 0.883372 0.203908 0.670308
O O8 0.850537 0.209150 0.930292
O O9 0.250000 0.699268 0.771176
O O10 0.098024 0.734043 0.838832
O O11 0.145704 0.741430 0.574993
O O12 0.123147 0.616831 0.691346
O O13 0.250000 0.578039 0.213654
O O14 0.381891 0.500000 0.208181
O O15 0.350553 0.585750 0.426025
O O16 0.500000 0.813817 0.000000
O O17 0.000000 0.209833 0.500000
O O18 0.500000 0.378006 0.500000
O O19 0.438489 0.500000 0.598231
#
# Coordination Sequence:
#
# PCOD8210650 Si02
#       7
#     8   8   8   8   8   8   8
#     4  10  22  43  66  87 117 155 190 229 287 359
#     4  11  20  34  57  84 114 150 193 242 286 341
#     4  11  21  37  58  82 116 159 203 245 292 354
#     4   9  18  31  50  78 111 149 190 236 290 338
#     4  11  24  39  59  85 116 153 193 241 292 350
#     4  11  21  35  59  88 118 147 187 238 287 342
#     4  10  20  32  53  84 117 150 196 253 303 345
#
# _framework density 19.825483999999999
#
# number of rings (size 3 to 8) (size 9 to 14) (size 15 to 20)
#    0.000    1.571    1.429    6.000    2.000    1.429 
#    0.000    1.429    0.000    5.143    0.000    0.000 
#    0.000    0.000    0.000    0.000    0.000    0.000 
#
# Total GULP energy -693901.766879 kJ/mol
# GULP energy per Si atom -12391.102980 kJ/mol
# Density = 1.978036 g / cm^3
# Si number density = 19.825484 Si / 1000 Ang^3
#
#
#
# Elastic Constant Matrix: (Units=GPa)
#
#
# Indices 1 2 3 4 5 6 
#
# 1 81.0887 40.8106 11.0243 0.0000 0.0000 0.0000
# 2 40.8106 131.3220 56.3803 0.0000 0.0000 0.0000
# 3 11.0243 56.3803 89.2269 0.0000 0.0000 0.0000
# 4 0.0000 0.0000 0.0000 23.2624 0.0000 0.0000
# 5 0.0000 0.0000 0.0000 0.0000 23.9304 0.0000
# 6 0.0000 0.0000 0.0000 0.0000 0.0000 19.7046
#
#
#
# Elastic Compliance Matrix: (Units=1/GPa)
#
#
# Indices 1 2 3 4 5 6 
#
# 1 0.014759 -0.005220 0.001475 0.000000 0.000000 0.000000
# 2 -0.005220 0.012296 -0.007124 0.000000 0.000000 0.000000
# 3 0.001475 -0.007124 0.015527 0.000000 0.000000 0.000000
# 4 0.000000 0.000000 0.000000 0.042988 0.000000 0.000000
# 5 0.000000 0.000000 0.000000 0.000000 0.041788 0.000000
# 6 0.000000 0.000000 0.000000 0.000000 0.000000 0.050749
#
#
# Mechanical properties :
#
#
# Convention : Reuss Voigt Hill
#
# Bulk Modulus (GPa) = 47.97892 57.56310 52.77101
# Shear Modulus (GPa) = 24.17880 26.27431 25.22656
#
# Velocity S-wave (km/s) = 3.49604 3.64439 3.57098
# Velocity P-wave (km/s) = 6.36785 6.84154 6.60894
#
# Compressibility (1/GPa) = 0.02084249
#
# Stress axis : x y z
#
# Youngs Moduli (GPa) = 67.75693 81.32932 64.40413
#
# Poissons Ratio (x) = 0.42451 -0.09497
# Poissons Ratio (y) = 0.35367 0.45884
# Poissons Ratio (z) = -0.09992 0.57943
#
# Static dielectric constant tensor:
#      x y z
#    x 3.615830 0.000000 0.000000 
#    y 0.000000 3.810980 0.000000 
#    z 0.000000 0.000000 3.621680 
# 
# 
# High freq. dielectric constant tensor:
#      x y z
#    x 1.774940 0.000000 0.000000 
#    y 0.000000 1.770010 0.000000 
#    z 0.000000 0.000000 1.753240 
# 
# From -- ./inp_files/8579.got.cif
#   From: 2010.03.12/outbox.cif.g09.slc.cpg/sg51_5_cif.got.tgz:8579.got - 2010.04.16 13:43:02.
