data_PCOD8210652
_publ_section_title
;
Structure prediction by ZEFSAII (Michael W. Deem and Ramdas Pophale) SiO2 
 PCOD8210652
Probable space group: P M M A
;
_chemical_formula_sum "Si O2"
_cell_formula_units_Z 56
_cell_length_a 20.149917
_cell_length_b 9.544272
_cell_length_c 14.969182
_cell_angle_alpha 90.000000
_cell_angle_beta 90.000000
_cell_angle_gamma 90.000000
_cell_volume 2878.817526
_symmetry_space_group_name_H-M "P M M A"
_symmetry_group_IT_number 51
_symmetry_cell_setting 'orthorhombic'
loop_
_space_group_symop_operation_xyz
x,y,z
1/2-x,-y,z
1/2+x,-y,-z
-x,y,-z
-x,-y,-z
1/2+x,y,-z
1/2-x,y,z
x,-y,z
loop_
_atom_site_type_symbol
_atom_site_label
_atom_site_fract_x
_atom_site_fract_y
_atom_site_fract_z
Si Si1 0.423836 0.334553 0.998857
Si Si2 0.324364 0.333660 0.848949
Si Si3 0.999849 0.843370 0.601453
Si Si4 0.647768 0.842052 0.668123
Si Si5 0.177356 0.346919 0.491738
Si Si6 0.825741 0.661571 0.841718
Si Si7 0.392310 0.335202 0.668876
O O1 0.429301 0.500000 0.988685
O O2 0.381400 0.294036 0.086273
O O3 0.500000 0.273103 0.000000
O O4 0.380630 0.273121 0.916053
O O5 0.250000 0.274577 0.869317
O O6 0.322321 0.500000 0.858256
O O7 0.344639 0.287663 0.749136
O O8 0.038590 0.746657 0.672185
O O9 0.000000 0.781374 0.500000
O O10 0.928708 0.844600 0.645374
O O11 0.030254 0.000000 0.598024
O O12 0.683450 0.760761 0.588729
O O13 0.663577 0.762163 0.758689
O O14 0.675914 0.000000 0.675347
O O15 0.250000 0.369878 0.531545
O O16 0.149058 0.500000 0.460731
O O17 0.136095 0.285333 0.573804
O O18 0.750000 0.680191 0.878893
O O19 0.836436 0.500000 0.813013
O O20 0.405629 0.500000 0.673785
#
# Coordination Sequence:
#
# PCOD8210652 Si02
#       7
#     8   8   8   8   8   8   8
#     4   9  18  32  53  83 116 146 179 220 269 329
#     4   9  17  31  52  80 113 145 178 221 274 327
#     4  10  21  38  54  72 106 148 186 227 277 327
#     4  11  23  37  55  78 106 145 189 229 272 326
#     4  10  20  34  51  76 111 144 177 224 275 323
#     4  10  21  37  58  84 114 146 180 226 281 327
#     4  10  20  32  54  83 108 139 182 226 271 323
#
# _framework density 19.452431000000001
#
# number of rings (size 3 to 8) (size 9 to 14) (size 15 to 20)
#    0.000    2.143    1.429    1.714    2.000    7.143 
#    0.000    0.000    0.000    2.571    0.000    0.000 
#    0.000    0.000    0.000    0.000    0.000    0.000 
#
# Total GULP energy -693981.872532 kJ/mol
# GULP energy per Si atom -12392.533438 kJ/mol
# Density = 1.940816 g / cm^3
# Si number density = 19.452431 Si / 1000 Ang^3
#
#
#
# Elastic Constant Matrix: (Units=GPa)
#
#
# Indices 1 2 3 4 5 6 
#
# 1 134.9239 29.0660 58.0178 0.0000 0.0000 0.0000
# 2 29.0660 55.5802 44.0898 0.0000 0.0000 0.0000
# 3 58.0178 44.0898 117.0569 0.0000 0.0000 0.0000
# 4 0.0000 0.0000 0.0000 13.7276 0.0000 0.0000
# 5 0.0000 0.0000 0.0000 0.0000 34.2867 0.0000
# 6 0.0000 0.0000 0.0000 0.0000 0.0000 11.0044
#
#
#
# Elastic Compliance Matrix: (Units=1/GPa)
#
#
# Indices 1 2 3 4 5 6 
#
# 1 0.009539 -0.001766 -0.004063 0.000000 0.000000 0.000000
# 2 -0.001766 0.025985 -0.008912 0.000000 0.000000 0.000000
# 3 -0.004063 -0.008912 0.013913 0.000000 0.000000 0.000000
# 4 0.000000 0.000000 0.000000 0.072846 0.000000 0.000000
# 5 0.000000 0.000000 0.000000 0.000000 0.029166 0.000000
# 6 0.000000 0.000000 0.000000 0.000000 0.000000 0.090873
#
#
# Mechanical properties :
#
#
# Convention : Reuss Voigt Hill
#
# Bulk Modulus (GPa) = 50.11002 63.32314 56.71658
# Shear Modulus (GPa) = 17.95617 23.56289 20.75953
#
# Velocity S-wave (km/s) = 3.04152 3.48416 3.27034
# Velocity P-wave (km/s) = 6.17662 6.98637 6.59394
#
# Compressibility (1/GPa) = 0.01995609
#
# Stress axis : x y z
#
# Youngs Moduli (GPa) = 104.83299 38.48353 71.87307
#
# Poissons Ratio (x) = 0.06794 0.29201
# Poissons Ratio (y) = 0.18508 0.64056
# Poissons Ratio (z) = 0.42592 0.34298
#
# Static dielectric constant tensor:
#      x y z
#    x 3.807490 0.000000 0.000000 
#    y 0.000000 3.367820 0.000000 
#    z 0.000000 0.000000 3.533720 
# 
# 
# High freq. dielectric constant tensor:
#      x y z
#    x 1.774340 0.000000 0.000000 
#    y 0.000000 1.716030 0.000000 
#    z 0.000000 0.000000 1.754940 
# 
# From -- ./inp_files/25776.got.cif
#   From: 2010.03.12/outbox.cif.g09.slc.cpg/sg51_13_cif.got.tgz:25776.got - 2010.04.16 13:43:02.
