data_PCOD8210052
_publ_section_title
;
Structure prediction by ZEFSAII (Michael W. Deem and Ramdas Pophale) SiO2 
 PCOD8210052
Probable space group: P M M A
;
_chemical_formula_sum "Si O2"
_cell_formula_units_Z 64
_cell_length_a 19.340143
_cell_length_b 8.992070
_cell_length_c 18.967415
_cell_angle_alpha 90.000000
_cell_angle_beta 90.000000
_cell_angle_gamma 90.000000
_cell_volume 3298.583684
_symmetry_space_group_name_H-M "P M M A"
_symmetry_group_IT_number 51
_symmetry_cell_setting 'orthorhombic'
loop_
_space_group_symop_operation_xyz
x,y,z
1/2-x,-y,z
1/2+x,-y,-z
-x,y,-z
-x,-y,-z
1/2+x,y,-z
1/2-x,y,z
x,-y,z
loop_
_atom_site_type_symbol
_atom_site_label
_atom_site_fract_x
_atom_site_fract_y
_atom_site_fract_z
Si Si1 0.174218 0.824541 0.458864
Si Si2 0.931942 0.173271 0.138927
Si Si3 0.485260 0.174475 0.709078
Si Si4 0.673663 0.666561 0.818659
Si Si5 0.081146 0.826801 0.081327
Si Si6 0.330317 0.676303 0.959196
Si Si7 0.943938 0.824740 0.444885
Si Si8 0.119092 0.667105 0.325045
O O1 0.250000 0.750898 0.463809
O O2 0.131765 0.776130 0.528045
O O3 0.134656 0.772962 0.389746
O O4 0.179839 0.000000 0.453696
O O5 0.938989 0.209011 0.222254
O O6 0.864988 0.264016 0.112819
O O7 0.000679 0.217507 0.093468
O O8 0.917496 0.000000 0.127340
O O9 0.449637 0.228818 0.635912
O O10 0.552710 0.273950 0.716658
O O11 0.504238 0.000000 0.706792
O O12 0.750000 0.697932 0.849438
O O13 0.649605 0.500000 0.841706
O O14 0.621187 0.790888 0.846529
O O15 0.678939 0.674085 0.733691
O O16 0.086820 0.000000 0.063118
O O17 0.120347 0.734770 0.021359
O O18 0.250000 0.730985 0.965490
O O19 0.332213 0.500000 0.959510
O O20 0.000000 0.755137 0.500000
O O21 0.953366 0.000000 0.447037
O O22 0.108018 0.500000 0.353260
#
# Coordination Sequence:
#
# PCOD8210052 Si02
#       8
#     8   8   8   8   8   8   8   8
#     4  10  20  34  53  78 107 143 188 234 281 337
#     4  10  22  39  61  89 119 148 187 240 290 337
#     4  10  19  36  59  84 114 147 188 236 285 336
#     4  10  21  35  50  74 113 156 192 226 272 335
#     4  11  22  37  60  90 119 146 184 234 284 337
#     4  11  25  43  62  85 115 153 195 235 281 341
#     4   9  16  30  56  81 107 143 182 227 277 325
#     4  11  21  33  52  78 113 151 188 230 279 335
#
# _framework density 19.402265
#
# number of rings (size 3 to 8) (size 9 to 14) (size 15 to 20)
#    0.000    1.750    2.500    2.250    0.000    7.000 
#    0.000    1.875    0.000    2.250    0.000    0.000 
#    0.000    0.000    0.000    0.000    0.000    0.000 
#
# Total GULP energy -793243.287717 kJ/mol
# GULP energy per Si atom -12394.426371 kJ/mol
# Density = 1.935811 g / cm^3
# Si number density = 19.402265 Si / 1000 Ang^3
#
#
#
# Elastic Constant Matrix: (Units=GPa)
#
#
# Indices 1 2 3 4 5 6 
#
# 1 96.4434 38.9686 57.2963 0.0000 0.0000 0.0000
# 2 38.9686 36.4995 23.1350 0.0000 0.0000 0.0000
# 3 57.2963 23.1350 122.8065 0.0000 0.0000 0.0000
# 4 0.0000 0.0000 0.0000 15.0914 0.0000 0.0000
# 5 0.0000 0.0000 0.0000 0.0000 24.4759 0.0000
# 6 0.0000 0.0000 0.0000 0.0000 0.0000 22.7982
#
#
#
# Elastic Compliance Matrix: (Units=1/GPa)
#
#
# Indices 1 2 3 4 5 6 
#
# 1 0.022216 -0.019474 -0.006696 0.000000 0.000000 0.000000
# 2 -0.019474 0.048184 0.000009 0.000000 0.000000 0.000000
# 3 -0.006696 0.000009 0.011265 0.000000 0.000000 0.000000
# 4 0.000000 0.000000 0.000000 0.066263 0.000000 0.000000
# 5 0.000000 0.000000 0.000000 0.000000 0.040856 0.000000
# 6 0.000000 0.000000 0.000000 0.000000 0.000000 0.043863
#
#
# Mechanical properties :
#
#
# Convention : Reuss Voigt Hill
#
# Bulk Modulus (GPa) = 34.08151 54.94991 44.51571
# Shear Modulus (GPa) = 16.96349 21.56308 19.26328
#
# Velocity S-wave (km/s) = 2.96007 3.33734 3.15435
# Velocity P-wave (km/s) = 5.41171 6.57520 6.02162
#
# Compressibility (1/GPa) = 0.02934142
#
# Stress axis : x y z
#
# Youngs Moduli (GPa) = 45.01348 20.75393 88.76717
#
# Poissons Ratio (x) = 0.40416 0.59440
# Poissons Ratio (y) = 0.87660 -0.00077
# Poissons Ratio (z) = 0.30142 -0.00018
#
# Static dielectric constant tensor:
#      x y z
#    x 3.781980 0.000000 0.000000 
#    y 0.000000 3.345590 0.000000 
#    z 0.000000 0.000000 3.726820 
# 
# 
# High freq. dielectric constant tensor:
#      x y z
#    x 1.748960 0.000000 0.000000 
#    y 0.000000 1.735520 0.000000 
#    z 0.000000 0.000000 1.762320 
# 
# From -- ./inp_files/33853.got.cif
#   From: 2010.03.12/outbox.cif.g09.slc.cpg/sg51_17_cif.got.tgz:33853.got - 2010.04.16 13:43:02.
