data_PCOD8210212
_publ_section_title
;
Structure prediction by ZEFSAII (Michael W. Deem and Ramdas Pophale) SiO2 
 PCOD8210212
Probable space group: P M M A
;
_chemical_formula_sum "Si O2"
_cell_formula_units_Z 56
_cell_length_a 18.740854
_cell_length_b 9.685180
_cell_length_c 17.758367
_cell_angle_alpha 90.000000
_cell_angle_beta 90.000000
_cell_angle_gamma 90.000000
_cell_volume 3223.295344
_symmetry_space_group_name_H-M "P M M A"
_symmetry_group_IT_number 51
_symmetry_cell_setting 'orthorhombic'
loop_
_space_group_symop_operation_xyz
x,y,z
1/2-x,-y,z
1/2+x,-y,-z
-x,y,-z
-x,-y,-z
1/2+x,y,-z
1/2-x,y,z
x,-y,z
loop_
_atom_site_type_symbol
_atom_site_label
_atom_site_fract_x
_atom_site_fract_y
_atom_site_fract_z
Si Si1 0.911615 0.342558 0.080375
Si Si2 0.165170 0.152774 0.372031
Si Si3 0.165192 0.157157 0.803158
Si Si4 0.834803 0.344845 0.331368
Si Si5 0.165104 0.345750 0.501706
Si Si6 0.331603 0.837026 0.204238
Si Si7 0.923534 0.656822 0.906579
O O1 0.889199 0.500000 0.099711
O O2 0.861437 0.234753 0.122682
O O3 0.992827 0.316779 0.104595
O O4 0.901263 0.314370 0.992227
O O5 0.250000 0.147769 0.378312
O O6 0.131528 0.249481 0.436826
O O7 0.144750 0.206870 0.288747
O O8 0.133794 0.000000 0.384903
O O9 0.250000 0.158830 0.803967
O O10 0.134679 0.237147 0.729702
O O11 0.136495 0.000000 0.801770
O O12 0.750000 0.346304 0.328120
O O13 0.863064 0.500000 0.313914
O O14 0.859751 0.297268 0.414924
O O15 0.250000 0.341878 0.497357
O O16 0.137237 0.500000 0.486597
O O17 0.250000 0.793200 0.189300
O O18 0.381530 0.760722 0.145849
O O19 0.340721 0.000000 0.193887
O O20 0.904240 0.500000 0.884534
#
# Coordination Sequence:
#
# PCOD8210212 Si02
#       7
#     8   8   8   8   8   8   8
#     4   9  19  36  53  68  90 119 152 191 234 279
#     4   8  14  24  37  56  86 122 153 180 217 265
#     4  10  20  31  45  70  99 123 153 191 227 270
#     4   8  14  25  40  59  87 122 154 185 226 270
#     4   8  13  21  35  57  84 115 152 189 222 259
#     4   9  18  31  46  68  99 129 154 185 229 277
#     4   9  19  35  53  71  89 115 155 196 230 272
#
# _framework density 17.373525000000001
#
# number of rings (size 3 to 8) (size 9 to 14) (size 15 to 20)
#    0.000    3.286    0.000    3.000    0.000    4.000 
#    0.000    8.571    0.000    0.000    0.000    1.000 
#    0.000    8.000    0.000    0.000    0.000    0.000 
#
# Total GULP energy -694091.403801 kJ/mol
# GULP energy per Si atom -12394.489354 kJ/mol
# Density = 1.733398 g / cm^3
# Si number density = 17.373525 Si / 1000 Ang^3
#
#
#
# Elastic Constant Matrix: (Units=GPa)
#
#
# Indices 1 2 3 4 5 6 
#
# 1 15.5942 22.7076 24.2051 0.0000 0.0000 0.0000
# 2 22.7076 103.0486 73.2540 0.0000 0.0000 0.0000
# 3 24.2051 73.2540 116.2053 0.0000 0.0000 0.0000
# 4 0.0000 0.0000 0.0000 30.7574 0.0000 0.0000
# 5 0.0000 0.0000 0.0000 0.0000 -3.0615 0.0000
# 6 0.0000 0.0000 0.0000 0.0000 0.0000 21.7463
#
#
#
# Elastic Compliance Matrix: (Units=1/GPa)
#
#
# Indices 1 2 3 4 5 6 
#
# 1 0.104420 -0.013677 -0.013128 0.000000 0.000000 0.000000
# 2 -0.013677 0.019375 -0.009365 0.000000 0.000000 0.000000
# 3 -0.013128 -0.009365 0.017244 0.000000 0.000000 0.000000
# 4 0.000000 0.000000 0.000000 0.032512 0.000000 0.000000
# 5 0.000000 0.000000 0.000000 0.000000 -0.326634 0.000000
# 6 0.000000 0.000000 0.000000 0.000000 0.000000 0.045985
#
#
# Mechanical properties :
#
#
# Convention : Reuss Voigt Hill
#
# Bulk Modulus (GPa) = 14.55648 52.79793 33.67721
# Shear Modulus (GPa) = -421.70300 17.53388 -202.08456
#
# Velocity S-wave (km/s) = -15.59661 3.18028 -10.79676
# Velocity P-wave (km/s) = 17.77477 6.62884 11.66192
#
# Compressibility (1/GPa) = 0.06869791
#
# Stress axis : x y z
#
# Youngs Moduli (GPa) = 9.57668 51.61201 57.99269
#
# Poissons Ratio (x) = 0.70592 0.76135
# Poissons Ratio (y) = 0.13098 0.54310
# Poissons Ratio (z) = 0.12573 0.48334
#
# Static dielectric constant tensor:
#      x y z
#    x 2.705610 0.000000 0.000000 
#    y 0.000000 3.406980 0.000000 
#    z 0.000000 0.000000 3.460830 
# 
# 
# High freq. dielectric constant tensor:
#      x y z
#    x 1.615190 0.000000 0.000000 
#    y 0.000000 1.673140 0.000000 
#    z 0.000000 0.000000 1.683770 
# 
# From -- ./inp_files/30417.got.cif
#   From: 2010.03.12/outbox.cif.g09.slc.cpg/sg51_16_cif.got.tgz:30417.got - 2010.04.16 13:43:02.
