data_PCOD8210592
_publ_section_title
;
Structure prediction by ZEFSAII (Michael W. Deem and Ramdas Pophale) SiO2 
 PCOD8210592
Probable space group: P M M A
;
_chemical_formula_sum "Si O2"
_cell_formula_units_Z 48
_cell_length_a 18.948050
_cell_length_b 9.658074
_cell_length_c 13.602170
_cell_angle_alpha 90.000000
_cell_angle_beta 90.000000
_cell_angle_gamma 90.000000
_cell_volume 2489.219813
_symmetry_space_group_name_H-M "P M M A"
_symmetry_group_IT_number 51
_symmetry_cell_setting 'orthorhombic'
loop_
_space_group_symop_operation_xyz
x,y,z
1/2-x,-y,z
1/2+x,-y,-z
-x,y,-z
-x,-y,-z
1/2+x,y,-z
1/2-x,y,z
x,-y,z
loop_
_atom_site_type_symbol
_atom_site_label
_atom_site_fract_x
_atom_site_fract_y
_atom_site_fract_z
Si Si1 0.544364 0.661053 0.712359
Si Si2 0.596550 0.338702 0.385661
Si Si3 0.461820 0.158074 0.100494
Si Si4 0.671179 0.157115 0.012542
Si Si5 0.830179 0.335130 0.579960
Si Si6 0.333169 0.657485 0.809620
O O1 0.544881 0.500000 0.742061
O O2 0.487727 0.686821 0.624153
O O3 0.519153 0.745296 0.807825
O O4 0.621283 0.709245 0.672972
O O5 0.613848 0.500000 0.390564
O O6 0.631934 0.271394 0.482685
O O7 0.633749 0.277370 0.288708
O O8 0.483171 0.000000 0.125624
O O9 0.500000 0.205868 0.000000
O O10 0.377710 0.172379 0.083075
O O11 0.750000 0.203758 0.982171
O O12 0.639963 0.251951 0.099148
O O13 0.670149 0.000000 0.051849
O O14 0.750000 0.277307 0.591232
O O15 0.828670 0.500000 0.573638
O O16 0.250000 0.666853 0.799202
O O17 0.358755 0.500000 0.826743
#
# Coordination Sequence:
#
# PCOD8210592 Si02
#       6
#     8   8   8   8   8   8
#     4  10  20  32  50  76 100 124 160 204 243 279
#     4   9  16  28  47  71 100 130 158 193 239 288
#     4  10  21  36  52  70  95 130 167 199 239 293
#     4   9  18  32  48  66  91 125 162 198 240 291
#     4   9  17  30  49  74 103 132 161 194 235 286
#     4   9  16  26  44  71  97 122 157 200 243 284
#
# _framework density 19.283152000000001
#
# number of rings (size 3 to 8) (size 9 to 14) (size 15 to 20)
#    0.000    2.667    0.000    2.000    0.000    5.667 
#    0.000    0.000    0.000    3.000    0.000    0.000 
#    0.000    0.000    0.000    0.000    0.000    0.000 
#
# Total GULP energy -594946.532483 kJ/mol
# GULP energy per Si atom -12394.719427 kJ/mol
# Density = 1.923926 g / cm^3
# Si number density = 19.283152 Si / 1000 Ang^3
#
#
#
# Elastic Constant Matrix: (Units=GPa)
#
#
# Indices 1 2 3 4 5 6 
#
# 1 85.9936 16.4970 38.9212 0.0000 0.0000 0.0000
# 2 16.4970 41.2527 33.3571 0.0000 0.0000 0.0000
# 3 38.9212 33.3571 91.0475 0.0000 0.0000 0.0000
# 4 0.0000 0.0000 0.0000 3.3852 0.0000 0.0000
# 5 0.0000 0.0000 0.0000 0.0000 31.2980 0.0000
# 6 0.0000 0.0000 0.0000 0.0000 0.0000 15.6665
#
#
#
# Elastic Compliance Matrix: (Units=1/GPa)
#
#
# Indices 1 2 3 4 5 6 
#
# 1 0.014454 -0.001114 -0.005771 0.000000 0.000000 0.000000
# 2 -0.001114 0.034531 -0.012175 0.000000 0.000000 0.000000
# 3 -0.005771 -0.012175 0.017911 0.000000 0.000000 0.000000
# 4 0.000000 0.000000 0.000000 0.295400 0.000000 0.000000
# 5 0.000000 0.000000 0.000000 0.000000 0.031951 0.000000
# 6 0.000000 0.000000 0.000000 0.000000 0.000000 0.063830
#
#
# Mechanical properties :
#
#
# Convention : Reuss Voigt Hill
#
# Bulk Modulus (GPa) = 34.75044 43.98271 39.36658
# Shear Modulus (GPa) = 9.88554 18.70451 14.29503
#
# Velocity S-wave (km/s) = 2.26664 3.11785 2.72568
# Velocity P-wave (km/s) = 4.99104 5.98496 5.51045
#
# Compressibility (1/GPa) = 0.02877661
#
# Stress axis : x y z
#
# Youngs Moduli (GPa) = 69.18305 28.95945 55.83242
#
# Poissons Ratio (x) = 0.03226 0.32220
# Poissons Ratio (y) = 0.07707 0.67976
# Poissons Ratio (z) = 0.39925 0.35258
#
# Static dielectric constant tensor:
#      x y z
#    x 3.827610 0.000000 0.000000 
#    y 0.000000 3.157410 0.000000 
#    z 0.000000 0.000000 3.448040 
# 
# 
# High freq. dielectric constant tensor:
#      x y z
#    x 1.771640 0.000000 0.000000 
#    y 0.000000 1.696400 0.000000 
#    z 0.000000 0.000000 1.740200 
# 
# From -- ./inp_files/18102.got.cif
#   From: 2010.03.12/outbox.cif.g09.slc.cpg/sg51_10_cif.got.tgz:18102.got - 2010.04.16 13:43:02.
