data_PCOD8210949
_publ_section_title
;
Structure prediction by ZEFSAII (Michael W. Deem and Ramdas Pophale) SiO2 
 PCOD8210949
Probable space group: P M M A
;
_chemical_formula_sum "Si O2"
_cell_formula_units_Z 64
_cell_length_a 18.379510
_cell_length_b 9.380826
_cell_length_c 20.522071
_cell_angle_alpha 90.000000
_cell_angle_beta 90.000000
_cell_angle_gamma 90.000000
_cell_volume 3538.312569
_symmetry_space_group_name_H-M "P M M A"
_symmetry_group_IT_number 51
_symmetry_cell_setting 'orthorhombic'
loop_
_space_group_symop_operation_xyz
x,y,z
1/2-x,-y,z
1/2+x,-y,-z
-x,y,-z
-x,-y,-z
1/2+x,y,-z
1/2-x,y,z
x,-y,z
loop_
_atom_site_type_symbol
_atom_site_label
_atom_site_fract_x
_atom_site_fract_y
_atom_site_fract_z
Si Si1 0.076143 0.831119 0.926058
Si Si2 0.074042 0.332189 0.307200
Si Si3 0.424026 0.831673 0.684128
Si Si4 0.168749 0.830291 0.807063
Si Si5 0.666517 0.166310 0.441787
Si Si6 0.166169 0.665232 0.181812
Si Si7 0.087780 0.168638 0.071742
Si Si8 0.833630 0.665416 0.568058
O O1 0.128763 0.766851 0.870874
O O2 0.994026 0.778511 0.912274
O O3 0.074740 0.000000 0.922833
O O4 0.105050 0.785356 0.997243
O O5 0.058463 0.500000 0.307181
O O6 0.118396 0.285291 0.243283
O O7 0.120467 0.286002 0.369813
O O8 0.999521 0.247957 0.309495
O O9 0.373350 0.779573 0.743057
O O10 0.383896 0.786225 0.617944
O O11 0.438086 0.000000 0.687095
O O12 0.250000 0.767183 0.804888
O O13 0.171176 0.000000 0.810202
O O14 0.750000 0.206340 0.425188
O O15 0.638323 0.248583 0.505378
O O16 0.658823 0.000000 0.456029
O O17 0.250000 0.695746 0.198776
O O18 0.153157 0.500000 0.166440
O O19 0.144460 0.753879 0.118325
O O20 0.096160 0.000000 0.081352
O O21 0.750000 0.701806 0.583287
O O22 0.844462 0.500000 0.552595
#
# Coordination Sequence:
#
# PCOD8210949 Si02
#       8
#     8   8   8   8   8   8   8   8
#     4   8  15  28  47  73 104 132 159 199 246 286
#     4  10  21  36  53  72  96 128 165 204 246 293
#     4  10  20  33  51  75 101 128 161 203 245 286
#     4   9  16  27  46  71  97 128 166 202 237 283
#     4   9  18  33  52  75 104 134 161 194 241 292
#     4  10  21  36  52  71  98 131 165 204 251 298
#     4   9  17  31  51  75 102 130 162 201 244 290
#     4   9  18  34  55  75  95 125 166 205 238 280
#
# _framework density 18.087717999999999
#
# number of rings (size 3 to 8) (size 9 to 14) (size 15 to 20)
#    0.000    2.750    0.000    2.250    0.000    6.750 
#    0.000    5.000    0.000    4.125    0.000    0.000 
#    0.000    0.000    0.000    0.000    0.000    0.000 
#
# Total GULP energy -793601.749728 kJ/mol
# GULP energy per Si atom -12400.027340 kJ/mol
# Density = 1.804655 g / cm^3
# Si number density = 18.087718 Si / 1000 Ang^3
#
#
#
# Elastic Constant Matrix: (Units=GPa)
#
#
# Indices 1 2 3 4 5 6 
#
# 1 118.3253 35.7805 78.3694 0.0000 0.0000 0.0000
# 2 35.7805 31.0158 40.8519 0.0000 0.0000 0.0000
# 3 78.3694 40.8519 153.4507 0.0000 0.0000 0.0000
# 4 0.0000 0.0000 0.0000 22.7271 0.0000 0.0000
# 5 0.0000 0.0000 0.0000 0.0000 40.2251 0.0000
# 6 0.0000 0.0000 0.0000 0.0000 0.0000 27.8483
#
#
#
# Elastic Compliance Matrix: (Units=1/GPa)
#
#
# Indices 1 2 3 4 5 6 
#
# 1 0.014869 -0.011013 -0.004662 0.000000 0.000000 0.000000
# 2 -0.011013 0.057809 -0.009766 0.000000 0.000000 0.000000
# 3 -0.004662 -0.009766 0.011498 0.000000 0.000000 0.000000
# 4 0.000000 0.000000 0.000000 0.044000 0.000000 0.000000
# 5 0.000000 0.000000 0.000000 0.000000 0.024860 0.000000
# 6 0.000000 0.000000 0.000000 0.000000 0.000000 0.035909
#
#
# Mechanical properties :
#
#
# Convention : Reuss Voigt Hill
#
# Bulk Modulus (GPa) = 30.03482 68.08836 49.06159
# Shear Modulus (GPa) = 19.92632 28.01278 23.96955
#
# Velocity S-wave (km/s) = 3.32271 3.93965 3.64426
# Velocity P-wave (km/s) = 5.60015 7.64327 6.70005
#
# Compressibility (1/GPa) = 0.03329469
#
# Stress axis : x y z
#
# Youngs Moduli (GPa) = 67.25282 17.29834 86.97521
#
# Poissons Ratio (x) = 0.19051 0.40548
# Poissons Ratio (y) = 0.74065 0.84936
# Poissons Ratio (z) = 0.31354 0.16893
#
# Static dielectric constant tensor:
#      x y z
#    x 3.478340 0.000000 0.000000 
#    y 0.000000 2.988890 0.000000 
#    z 0.000000 0.000000 3.589700 
# 
# 
# High freq. dielectric constant tensor:
#      x y z
#    x 1.704520 0.000000 0.000000 
#    y 0.000000 1.663480 0.000000 
#    z 0.000000 0.000000 1.716540 
# 
# From -- ./inp_files/33765.got.cif
#   From: 2010.03.12/outbox.cif.g09.slc.cpg/sg51_17_cif.got.tgz:33765.got - 2010.04.16 13:43:02.
