data_PCOD8210313
_publ_section_title
;
Structure prediction by ZEFSAII (Michael W. Deem and Ramdas Pophale) SiO2 
 PCOD8210313
Probable space group: P M M A
;
_chemical_formula_sum "Si O2"
_cell_formula_units_Z 48
_cell_length_a 9.200423
_cell_length_b 9.300921
_cell_length_c 31.088117
_cell_angle_alpha 90.000000
_cell_angle_beta 90.000000
_cell_angle_gamma 90.000000
_cell_volume 2660.285016
_symmetry_space_group_name_H-M "P M M A"
_symmetry_group_IT_number 51
_symmetry_cell_setting 'orthorhombic'
loop_
_space_group_symop_operation_xyz
x,y,z
1/2-x,-y,z
1/2+x,-y,-z
-x,y,-z
-x,-y,-z
1/2+x,y,-z
1/2-x,y,z
x,-y,z
loop_
_atom_site_type_symbol
_atom_site_label
_atom_site_fract_x
_atom_site_fract_y
_atom_site_fract_z
Si Si1 0.085404 0.171198 0.124814
Si Si2 0.087261 0.671615 0.541122
Si Si3 0.410893 0.670672 0.378433
Si Si4 0.585154 0.828568 0.041735
Si Si5 0.581407 0.332196 0.717841
Si Si6 0.582107 0.830949 0.208879
O O1 0.250000 0.230901 0.123862
O O2 0.997834 0.231042 0.083713
O O3 0.005964 0.227330 0.167655
O O4 0.085778 0.000000 0.123760
O O5 0.250000 0.731403 0.538073
O O6 0.085313 0.500000 0.541445
O O7 0.000000 0.730644 0.500000
O O8 0.017780 0.733060 0.585176
O O9 0.250000 0.732856 0.387227
O O10 0.404489 0.500000 0.381358
O O11 0.462832 0.714260 0.330638
O O12 0.750000 0.769368 0.041304
O O13 0.586764 0.000000 0.041965
O O14 0.500000 0.770648 0.000000
O O15 0.750000 0.295149 0.726539
O O16 0.552756 0.500000 0.725251
O O17 0.478283 0.243485 0.748800
O O18 0.750000 0.790522 0.202424
O O19 0.560258 0.000000 0.214324
#
# Coordination Sequence:
#
# PCOD8210313 Si02
#       6
#     8   8   8   8   8   8
#     4   9  16  26  40  57  79 110 146 182 222 266
#     4   9  15  21  31  49  74 105 139 172 208 253
#     4   8  14  25  39  55  78 107 138 174 216 260
#     4   9  15  22  33  51  77 108 141 176 215 262
#     4   9  18  32  49  68  90 118 152 189 229 272
#     4  10  20  32  46  66  92 121 153 189 228 270
#
# _framework density 18.043178999999999
#
# number of rings (size 3 to 8) (size 9 to 14) (size 15 to 20)
#    0.000    3.000    0.000    3.000    0.000    8.000 
#    0.000    1.667    0.000    0.000    0.000    0.000 
#    0.000    1.333    0.000    4.667    0.000   10.333 
#
# Total GULP energy -595055.929958 kJ/mol
# GULP energy per Si atom -12396.998541 kJ/mol
# Density = 1.800211 g / cm^3
# Si number density = 18.043179 Si / 1000 Ang^3
#
#
#
# Elastic Constant Matrix: (Units=GPa)
#
#
# Indices 1 2 3 4 5 6 
#
# 1 172.5253 20.5174 109.1629 0.0000 0.0000 0.0000
# 2 20.5174 9.1868 19.9183 0.0000 0.0000 0.0000
# 3 109.1629 19.9183 180.8563 0.0000 0.0000 0.0000
# 4 0.0000 0.0000 0.0000 17.0304 0.0000 0.0000
# 5 0.0000 0.0000 0.0000 0.0000 43.3577 0.0000
# 6 0.0000 0.0000 0.0000 0.0000 0.0000 13.9059
#
#
#
# Elastic Compliance Matrix: (Units=1/GPa)
#
#
# Indices 1 2 3 4 5 6 
#
# 1 0.010382 -0.012612 -0.004878 0.000000 0.000000 0.000000
# 2 -0.012612 0.158318 -0.009824 0.000000 0.000000 0.000000
# 3 -0.004878 -0.009824 0.009555 0.000000 0.000000 0.000000
# 4 0.000000 0.000000 0.000000 0.058719 0.000000 0.000000
# 5 0.000000 0.000000 0.000000 0.000000 0.023064 0.000000
# 6 0.000000 0.000000 0.000000 0.000000 0.000000 0.071912
#
#
# Mechanical properties :
#
#
# Convention : Reuss Voigt Hill
#
# Bulk Modulus (GPa) = 8.08870 73.52950 40.80910
# Shear Modulus (GPa) = 11.68807 29.05681 20.37244
#
# Velocity S-wave (km/s) = 2.54792 4.01734 3.36384
# Velocity P-wave (km/s) = 3.62609 7.89678 6.14441
#
# Compressibility (1/GPa) = 0.12362925
#
# Stress axis : x y z
#
# Youngs Moduli (GPa) = 96.31666 6.31639 104.65415
#
# Poissons Ratio (x) = 0.07966 0.51047
# Poissons Ratio (y) = 1.21475 1.02808
# Poissons Ratio (z) = 0.46980 0.06205
#
# Static dielectric constant tensor:
#      x y z
#    x 3.564520 0.000000 0.000000 
#    y 0.000000 2.552060 0.000000 
#    z 0.000000 0.000000 3.599800 
# 
# 
# High freq. dielectric constant tensor:
#      x y z
#    x 1.711500 0.000000 0.000000 
#    y 0.000000 1.610200 0.000000 
#    z 0.000000 0.000000 1.718950 
# 
# From -- ./inp_files/36870.got.cif
#   From: 2010.03.12/outbox.cif.g09.slc.cpg/sg51_19_cif.got.tgz:36870.got - 2010.04.16 13:43:02.
