data_PCOD8210538
_publ_section_title
;
Structure prediction by ZEFSAII (Michael W. Deem and Ramdas Pophale) SiO2 
 PCOD8210538
Probable space group: P M M A
;
_chemical_formula_sum "Si O2"
_cell_formula_units_Z 44
_cell_length_a 9.511432
_cell_length_b 7.910989
_cell_length_c 30.033757
_cell_angle_alpha 90.000000
_cell_angle_beta 90.000000
_cell_angle_gamma 90.000000
_cell_volume 2259.885058
_symmetry_space_group_name_H-M "P M M A"
_symmetry_group_IT_number 51
_symmetry_cell_setting 'orthorhombic'
loop_
_space_group_symop_operation_xyz
x,y,z
1/2-x,-y,z
1/2+x,-y,-z
-x,y,-z
-x,-y,-z
1/2+x,y,-z
1/2-x,y,z
x,-y,z
loop_
_atom_site_type_symbol
_atom_site_label
_atom_site_fract_x
_atom_site_fract_y
_atom_site_fract_z
Si Si1 0.586954 0.500000 0.455324
Si Si2 0.408358 0.308349 0.770329
Si Si3 0.095137 0.805986 0.307573
Si Si4 0.407023 0.202212 0.960029
Si Si5 0.413108 0.803572 0.609887
Si Si6 0.583406 0.187087 0.136029
O O1 0.750000 0.500000 0.467736
O O2 0.500000 0.500000 0.500000
O O3 0.548667 0.673561 0.429456
O O4 0.250000 0.231545 0.766288
O O5 0.407976 0.500000 0.754368
O O6 0.515702 0.209654 0.739230
O O7 0.461203 0.299515 0.821600
O O8 0.250000 0.717471 0.305910
O O9 0.001114 0.734932 0.347882
O O10 0.118500 0.000000 0.317504
O O11 0.250000 0.272547 0.967067
O O12 0.469833 0.261064 0.911680
O O13 0.406919 0.000000 0.960634
O O14 0.500000 0.277752 0.000000
O O15 0.250000 0.787786 0.623053
O O16 0.447904 0.000000 0.596663
O O17 0.750000 0.177874 0.131512
O O18 0.521495 0.000000 0.144371
#
# Coordination Sequence:
#
# PCOD8210538 Si02
#       6
#     4   8   8   8   8   8
#     4  10  22  38  58  86 116 148 188 228 271 322
#     4  10  20  32  49  73  99 131 170 209 252 305
#     4  10  21  36  54  78 106 136 172 215 265 316
#     4   8  13  22  38  60  83 108 144 192 243 292
#     4   9  19  37  59  82 111 147 186 229 270 315
#     4   8  14  26  44  64  88 120 157 198 244 295
#
# _framework density 19.470016999999999
#
# number of rings (size 3 to 8) (size 9 to 14) (size 15 to 20)
#    0.000    2.909    0.000    2.182    1.273    3.273 
#    0.000    0.909    0.000    3.818    0.000    0.000 
#    0.000    0.000    0.000    0.000    0.000    0.000 
#
# Total GULP energy -545196.782386 kJ/mol
# GULP energy per Si atom -12390.835963 kJ/mol
# Density = 1.942570 g / cm^3
# Si number density = 19.470017 Si / 1000 Ang^3
#
#
#
# Elastic Constant Matrix: (Units=GPa)
#
#
# Indices 1 2 3 4 5 6 
#
# 1 92.3936 22.1049 79.9699 0.0000 0.0000 0.0000
# 2 22.1049 52.3587 34.5282 0.0000 0.0000 0.0000
# 3 79.9699 34.5282 173.5677 0.0000 0.0000 0.0000
# 4 0.0000 0.0000 0.0000 15.1865 0.0000 0.0000
# 5 0.0000 0.0000 0.0000 0.0000 34.3831 0.0000
# 6 0.0000 0.0000 0.0000 0.0000 0.0000 11.6990
#
#
#
# Elastic Compliance Matrix: (Units=1/GPa)
#
#
# Indices 1 2 3 4 5 6 
#
# 1 0.018280 -0.002490 -0.007927 0.000000 0.000000 0.000000
# 2 -0.002490 0.022322 -0.003293 0.000000 0.000000 0.000000
# 3 -0.007927 -0.003293 0.010069 0.000000 0.000000 0.000000
# 4 0.000000 0.000000 0.000000 0.065848 0.000000 0.000000
# 5 0.000000 0.000000 0.000000 0.000000 0.029084 0.000000
# 6 0.000000 0.000000 0.000000 0.000000 0.000000 0.085478
#
#
# Mechanical properties :
#
#
# Convention : Reuss Voigt Hill
#
# Bulk Modulus (GPa) = 43.01017 65.72511 54.36764
# Shear Modulus (GPa) = 18.77921 24.36818 21.57369
#
# Velocity S-wave (km/s) = 3.10904 3.54160 3.33235
# Velocity P-wave (km/s) = 5.91833 7.11015 6.54144
#
# Compressibility (1/GPa) = 0.02325031
#
# Stress axis : x y z
#
# Youngs Moduli (GPa) = 54.70411 44.79871 99.31537
#
# Poissons Ratio (x) = 0.11155 0.78728
# Poissons Ratio (y) = 0.13621 0.32708
# Poissons Ratio (z) = 0.43364 0.14754
#
# Static dielectric constant tensor:
#      x y z
#    x 3.647690 0.000000 0.000000 
#    y 0.000000 3.367780 0.000000 
#    z 0.000000 0.000000 3.685790 
# 
# 
# High freq. dielectric constant tensor:
#      x y z
#    x 1.728830 0.000000 0.000000 
#    y 0.000000 1.737660 0.000000 
#    z 0.000000 0.000000 1.764300 
# 
# From -- ./inp_files/36805.got.cif
#   From: 2010.03.12/outbox.cif.g09.slc.cpg/sg51_19_cif.got.tgz:36805.got - 2010.04.16 13:43:02.
