data_PCOD8210911
_publ_section_title
;
Structure prediction by ZEFSAII (Michael W. Deem and Ramdas Pophale) SiO2 
 PCOD8210911
Probable space group: P M M A
;
_chemical_formula_sum "Si O2"
_cell_formula_units_Z 64
_cell_length_a 8.706957
_cell_length_b 28.208434
_cell_length_c 13.344788
_cell_angle_alpha 90.000000
_cell_angle_beta 90.000000
_cell_angle_gamma 90.000000
_cell_volume 3277.608335
_symmetry_space_group_name_H-M "P M M A"
_symmetry_group_IT_number 51
_symmetry_cell_setting 'orthorhombic'
loop_
_space_group_symop_operation_xyz
x,y,z
1/2-x,-y,z
1/2+x,-y,-z
-x,y,-z
-x,-y,-z
1/2+x,y,-z
1/2-x,y,z
x,-y,z
loop_
_atom_site_type_symbol
_atom_site_label
_atom_site_fract_x
_atom_site_fract_y
_atom_site_fract_z
Si Si1 0.070597 0.555412 0.107191
Si Si2 0.421075 0.055932 0.401432
Si Si3 0.926634 0.705815 0.391961
Si Si4 0.570369 0.220007 0.226618
Si Si5 0.070357 0.945664 0.805369
Si Si6 0.930179 0.858105 0.895257
Si Si7 0.428135 0.632330 0.768254
Si Si8 0.573389 0.294207 0.901186
O O1 0.250000 0.568817 0.107982
O O2 0.044043 0.500000 0.122852
O O3 0.982101 0.579168 0.203085
O O4 0.000000 0.571704 0.000000
O O5 0.500000 0.078509 0.500000
O O6 0.250000 0.077441 0.387878
O O7 0.525429 0.069135 0.307118
O O8 0.408780 0.000000 0.415049
O O9 0.750000 0.717442 0.405618
O O10 0.993666 0.748500 0.320785
O O11 0.947280 0.652321 0.345643
O O12 0.000000 0.707549 0.500000
O O13 0.750000 0.211462 0.237162
O O14 0.489831 0.169548 0.205087
O O15 0.529947 0.249196 0.126990
O O16 0.250000 0.937334 0.820005
O O17 0.978203 0.913001 0.882961
O O18 0.023518 0.000000 0.826992
O O19 0.750000 0.852846 0.901892
O O20 0.000000 0.838856 0.000000
O O21 0.250000 0.639888 0.800715
O O22 0.553234 0.663527 0.824567
O O23 0.750000 0.279150 0.910728
O O24 0.500000 0.315698 0.000000
#
# Coordination Sequence:
#
# PCOD8210911 Si02
#       8
#     8   8   8   8   8   8   8   8
#     4  10  20  33  50  75 109 151 196 242 292 343
#     4   9  16  28  49  77 107 138 172 213 262 313
#     4   9  20  37  60  86 113 144 178 223 276 331
#     4  10  21  39  58  81 111 141 176 218 267 324
#     4  10  21  38  59  83 112 147 188 234 280 326
#     4  12  25  41  61  84 111 146 184 224 273 328
#     4  10  20  34  51  76 108 144 186 231 281 333
#     4  11  20  31  49  75 106 140 176 218 268 323
#
# _framework density 19.526432
#
# number of rings (size 3 to 8) (size 9 to 14) (size 15 to 20)
#    0.000    1.875    0.000    5.625    0.000    6.250 
#    0.000    0.625    0.000    1.875    0.000    0.000 
#    0.000    0.000    0.000    0.000    0.000    0.000 
#
# Total GULP energy -793032.099720 kJ/mol
# GULP energy per Si atom -12391.126558 kJ/mol
# Density = 1.948199 g / cm^3
# Si number density = 19.526432 Si / 1000 Ang^3
#
#
#
# Elastic Constant Matrix: (Units=GPa)
#
#
# Indices 1 2 3 4 5 6 
#
# 1 105.3938 39.0864 49.9242 0.0000 0.0000 0.0000
# 2 39.0864 87.0436 45.6397 0.0000 0.0000 0.0000
# 3 49.9242 45.6397 108.5335 0.0000 0.0000 0.0000
# 4 0.0000 0.0000 0.0000 23.7490 0.0000 0.0000
# 5 0.0000 0.0000 0.0000 0.0000 34.9016 0.0000
# 6 0.0000 0.0000 0.0000 0.0000 0.0000 25.0900
#
#
#
# Elastic Compliance Matrix: (Units=1/GPa)
#
#
# Indices 1 2 3 4 5 6 
#
# 1 0.012886 -0.003436 -0.004482 0.000000 0.000000 0.000000
# 2 -0.003436 0.015654 -0.005002 0.000000 0.000000 0.000000
# 3 -0.004482 -0.005002 0.013379 0.000000 0.000000 0.000000
# 4 0.000000 0.000000 0.000000 0.042107 0.000000 0.000000
# 5 0.000000 0.000000 0.000000 0.000000 0.028652 0.000000
# 6 0.000000 0.000000 0.000000 0.000000 0.000000 0.039856
#
#
# Mechanical properties :
#
#
# Convention : Reuss Voigt Hill
#
# Bulk Modulus (GPa) = 62.19780 63.36349 62.78065
# Shear Modulus (GPa) = 27.21303 27.83615 27.52459
#
# Velocity S-wave (km/s) = 3.73721 3.77976 3.75855
# Velocity P-wave (km/s) = 7.10948 7.18118 7.14542
#
# Compressibility (1/GPa) = 0.01607774
#
# Stress axis : x y z
#
# Youngs Moduli (GPa) = 77.60478 63.88028 74.74319
#
# Poissons Ratio (x) = 0.21949 0.33503
# Poissons Ratio (y) = 0.26665 0.37389
# Poissons Ratio (z) = 0.34786 0.31955
#
# Static dielectric constant tensor:
#      x y z
#    x 3.751590 0.000000 0.000000 
#    y 0.000000 3.679490 0.000000 
#    z 0.000000 0.000000 4.040530 
# 
# 
# High freq. dielectric constant tensor:
#      x y z
#    x 1.771250 0.000000 0.000000 
#    y 0.000000 1.746430 0.000000 
#    z 0.000000 0.000000 1.742570 
# 
# From -- ./inp_files/14822.got.cif
#   From: 2010.03.12/outbox.cif.g09.slc.cpg/sg51_8_cif.got.tgz:14822.got - 2010.04.16 13:43:02.
