data_PCOD8210211
_publ_section_title
;
Structure prediction by ZEFSAII (Michael W. Deem and Ramdas Pophale) SiO2 
 PCOD8210211
Probable space group: P M M A
;
_chemical_formula_sum "Si O2"
_cell_formula_units_Z 56
_cell_length_a 9.069773
_cell_length_b 15.224875
_cell_length_c 20.261187
_cell_angle_alpha 90.000000
_cell_angle_beta 90.000000
_cell_angle_gamma 90.000000
_cell_volume 2797.789514
_symmetry_space_group_name_H-M "P M M A"
_symmetry_group_IT_number 51
_symmetry_cell_setting 'orthorhombic'
loop_
_space_group_symop_operation_xyz
x,y,z
1/2-x,-y,z
1/2+x,-y,-z
-x,y,-z
-x,-y,-z
1/2+x,y,-z
1/2-x,y,z
x,-y,z
loop_
_atom_site_type_symbol
_atom_site_label
_atom_site_fract_x
_atom_site_fract_y
_atom_site_fract_z
Si Si1 0.415467 0.170249 0.795103
Si Si2 0.584417 0.368322 0.237794
Si Si3 0.079758 0.402019 0.613896
Si Si4 0.420049 0.901605 0.322223
Si Si5 0.425388 0.232163 0.433376
Si Si6 0.080667 0.597627 0.109972
Si Si7 0.574852 0.233603 0.064694
O O1 0.250000 0.133638 0.797182
O O2 0.423872 0.263648 0.759584
O O3 0.509463 0.104601 0.750567
O O4 0.474882 0.178582 0.870586
O O5 0.750000 0.397842 0.217565
O O6 0.541237 0.404939 0.308861
O O7 0.468745 0.406952 0.186140
O O8 0.250000 0.374158 0.603124
O O9 0.050339 0.500000 0.585368
O O10 0.975124 0.332587 0.577789
O O11 0.250000 0.881583 0.311871
O O12 0.483621 0.831417 0.374744
O O13 0.447862 0.000000 0.349393
O O14 0.500000 0.196443 0.500000
O O15 0.250000 0.228566 0.440367
O O16 0.250000 0.629113 0.106453
O O17 0.062958 0.500000 0.079400
O O18 0.979443 0.665732 0.070151
O O19 0.750000 0.234607 0.057640
O O20 0.500000 0.190280 0.000000
#
# Coordination Sequence:
#
# PCOD8210211 Si02
#       7
#     8   8   8   8   8   8   8
#     4   9  18  34  58  86 114 145 185 232 282 340
#     4   9  17  31  52  77 108 145 188 236 289 341
#     4  10  20  35  57  83 114 154 198 243 290 341
#     4  10  22  40  63  92 121 149 186 233 289 350
#     4  11  24  41  61  85 118 157 195 240 290 344
#     4  10  20  31  45  70 105 145 191 241 290 341
#     4  10  21  36  54  78 108 147 192 236 286 346
#
# _framework density 20.015801
#
# number of rings (size 3 to 8) (size 9 to 14) (size 15 to 20)
#    0.000    2.143    1.429    2.571    0.000    7.143 
#    0.000    0.000    0.000    0.429    0.000    0.000 
#    0.000    0.000    0.000    0.000    0.000    0.000 
#
# Total GULP energy -694307.359642 kJ/mol
# GULP energy per Si atom -12398.345708 kJ/mol
# Density = 1.997024 g / cm^3
# Si number density = 20.015801 Si / 1000 Ang^3
#
#
#
# Elastic Constant Matrix: (Units=GPa)
#
#
# Indices 1 2 3 4 5 6 
#
# 1 75.8444 28.8098 48.5611 0.0000 0.0000 0.0000
# 2 28.8098 70.7849 41.7844 0.0000 0.0000 0.0000
# 3 48.5611 41.7844 121.5650 0.0000 0.0000 0.0000
# 4 0.0000 0.0000 0.0000 -204.5210 0.0000 0.0000
# 5 0.0000 0.0000 0.0000 0.0000 35.5813 0.0000
# 6 0.0000 0.0000 0.0000 0.0000 0.0000 23.7116
#
#
#
# Elastic Compliance Matrix: (Units=1/GPa)
#
#
# Indices 1 2 3 4 5 6 
#
# 1 0.018572 -0.003989 -0.006048 0.000000 0.000000 0.000000
# 2 -0.003989 0.018580 -0.004793 0.000000 0.000000 0.000000
# 3 -0.006048 -0.004793 0.012289 0.000000 0.000000 0.000000
# 4 0.000000 0.000000 0.000000 -0.004889 0.000000 0.000000
# 5 0.000000 0.000000 0.000000 0.000000 0.028105 0.000000
# 6 0.000000 0.000000 0.000000 0.000000 0.000000 0.042174
#
#
# Mechanical properties :
#
#
# Convention : Reuss Voigt Hill
#
# Bulk Modulus (GPa) = 50.55026 56.27834 53.41430
# Shear Modulus (GPa) = 33.09407 -19.10969 6.99219
#
# Velocity S-wave (km/s) = 4.07061 -3.09322 1.87107
# Velocity P-wave (km/s) = 6.88500 3.92691 5.60463
#
# Compressibility (1/GPa) = 0.01978229
#
# Stress axis : x y z
#
# Youngs Moduli (GPa) = 53.84311 53.82106 81.37070
#
# Poissons Ratio (x) = 0.21469 0.49213
# Poissons Ratio (y) = 0.21478 0.39000
# Poissons Ratio (z) = 0.32564 0.25796
#
# Static dielectric constant tensor:
#      x y z
#    x 3.552410 0.000000 0.000000 
#    y 0.000000 3.433600 0.000000 
#    z 0.000000 0.000000 3.702890 
# 
# 
# High freq. dielectric constant tensor:
#      x y z
#    x 1.774950 0.000000 0.000000 
#    y 0.000000 1.760080 0.000000 
#    z 0.000000 0.000000 1.781700 
# 
# From -- ./inp_files/31898.got.cif
#   From: 2010.03.12/outbox.cif.g09.slc.cpg/sg51_16_cif.got.tgz:31898.got - 2010.04.16 13:43:02.
