data_PCOD8210929
_publ_section_title
;
Structure prediction by ZEFSAII (Michael W. Deem and Ramdas Pophale) SiO2 
 PCOD8210929
Probable space group: P M M A
;
_chemical_formula_sum "Si O2"
_cell_formula_units_Z 56
_cell_length_a 15.086152
_cell_length_b 15.148097
_cell_length_c 13.427685
_cell_angle_alpha 90.000000
_cell_angle_beta 90.000000
_cell_angle_gamma 90.000000
_cell_volume 3068.581774
_symmetry_space_group_name_H-M "P M M A"
_symmetry_group_IT_number 51
_symmetry_cell_setting 'orthorhombic'
loop_
_space_group_symop_operation_xyz
x,y,z
1/2-x,-y,z
1/2+x,-y,-z
-x,y,-z
-x,-y,-z
1/2+x,y,-z
1/2-x,y,z
x,-y,z
loop_
_atom_site_type_symbol
_atom_site_label
_atom_site_fract_x
_atom_site_fract_y
_atom_site_fract_z
Si Si1 0.152103 0.737647 0.825996
Si Si2 0.148577 0.399521 0.262133
Si Si3 0.981184 0.902495 0.687094
Si Si4 0.351246 0.759337 0.399868
Si Si5 0.946432 0.900260 0.099596
Si Si6 0.493194 0.398236 0.885639
Si Si7 0.848425 0.817420 0.384130
O O1 0.250000 0.708909 0.860772
O O2 0.130016 0.827517 0.886642
O O3 0.085488 0.658405 0.841547
O O4 0.149284 0.751331 0.708014
O O5 0.250000 0.385674 0.226445
O O6 0.132883 0.500000 0.297900
O O7 0.125181 0.336877 0.355696
O O8 0.085835 0.375868 0.168795
O O9 0.910428 0.832521 0.651938
O O10 0.988379 0.892186 0.806046
O O11 0.076409 0.891162 0.632408
O O12 0.947089 0.000000 0.659212
O O13 0.250000 0.783729 0.375966
O O14 0.369676 0.759433 0.517875
O O15 0.906188 0.000000 0.094425
O O16 0.000000 0.877862 0.000000
O O17 0.467521 0.500000 0.871960
O O18 0.500000 0.371640 0.000000
O O19 0.750000 0.861659 0.392530
#
# Coordination Sequence:
#
# PCOD8210929 Si02
#       7
#     8   8   8   8   8   8   8
#     4  10  20  34  53  76 103 135 171 208 247 298
#     4   9  18  34  56  78  98 127 169 211 253 303
#     4  10  20  33  51  74 101 135 171 206 246 296
#     4  10  20  34  52  74 103 134 164 206 255 300
#     4   9  18  34  54  74 100 134 170 211 257 299
#     4  10  21  36  53  75 105 136 166 206 252 298
#     4   9  19  34  51  73 101 133 168 207 250 293
#
# _framework density 18.249471
#
# number of rings (size 3 to 8) (size 9 to 14) (size 15 to 20)
#    0.000    2.429    0.000    2.571    0.000    2.857 
#    0.000    8.571    0.000    8.571    0.000    0.000 
#    0.000    0.000    0.000    0.000    0.000    0.000 
#
# Total GULP energy -694225.132628 kJ/mol
# GULP energy per Si atom -12396.877368 kJ/mol
# Density = 1.820793 g / cm^3
# Si number density = 18.249471 Si / 1000 Ang^3
#
#
#
# Elastic Constant Matrix: (Units=GPa)
#
#
# Indices 1 2 3 4 5 6 
#
# 1 107.7569 64.6164 56.3660 0.0000 0.0000 0.0000
# 2 64.6164 98.5431 55.5601 0.0000 0.0000 0.0000
# 3 56.3660 55.5601 126.5590 0.0000 0.0000 0.0000
# 4 0.0000 0.0000 0.0000 17.6452 0.0000 0.0000
# 5 0.0000 0.0000 0.0000 0.0000 22.9545 0.0000
# 6 0.0000 0.0000 0.0000 0.0000 0.0000 23.7361
#
#
#
# Elastic Compliance Matrix: (Units=1/GPa)
#
#
# Indices 1 2 3 4 5 6 
#
# 1 0.016336 -0.008784 -0.003419 0.000000 0.000000 0.000000
# 2 -0.008784 0.018209 -0.004082 0.000000 0.000000 0.000000
# 3 -0.003419 -0.004082 0.011216 0.000000 0.000000 0.000000
# 4 0.000000 0.000000 0.000000 0.056673 0.000000 0.000000
# 5 0.000000 0.000000 0.000000 0.000000 0.043565 0.000000
# 6 0.000000 0.000000 0.000000 0.000000 0.000000 0.042130
#
#
# Mechanical properties :
#
#
# Convention : Reuss Voigt Hill
#
# Bulk Modulus (GPa) = 75.80849 76.21602 76.01225
# Shear Modulus (GPa) = 22.21279 23.28825 22.75052
#
# Velocity S-wave (km/s) = 3.49259 3.57614 3.53461
# Velocity P-wave (km/s) = 7.60884 7.67501 7.64200
#
# Compressibility (1/GPa) = 0.01319114
#
# Stress axis : x y z
#
# Youngs Moduli (GPa) = 61.21418 54.91811 89.15602
#
# Poissons Ratio (x) = 0.48240 0.30487
# Poissons Ratio (y) = 0.53770 0.36391
# Poissons Ratio (z) = 0.20932 0.22416
#
# Static dielectric constant tensor:
#      x y z
#    x 3.503940 0.000000 0.000000 
#    y 0.000000 3.372650 0.000000 
#    z 0.000000 0.000000 3.595440 
# 
# 
# High freq. dielectric constant tensor:
#      x y z
#    x 1.705780 0.000000 0.000000 
#    y 0.000000 1.703250 0.000000 
#    z 0.000000 0.000000 1.712180 
# 
# From -- ./inp_files/24285.got.cif
#   From: 2010.03.12/outbox.cif.g09.slc.cpg/sg51_13_cif.got.tgz:24285.got - 2010.04.16 13:43:02.
