data_PCOD8210343
_publ_section_title
;
Structure prediction by ZEFSAII (Michael W. Deem and Ramdas Pophale) SiO2 
 PCOD8210343
Probable space group: P M M A
;
_chemical_formula_sum "Si O2"
_cell_formula_units_Z 44
_cell_length_a 9.365133
_cell_length_b 7.714242
_cell_length_c 30.069174
_cell_angle_alpha 90.000000
_cell_angle_beta 90.000000
_cell_angle_gamma 90.000000
_cell_volume 2172.344539
_symmetry_space_group_name_H-M "P M M A"
_symmetry_group_IT_number 51
_symmetry_cell_setting 'orthorhombic'
loop_
_space_group_symop_operation_xyz
x,y,z
1/2-x,-y,z
1/2+x,-y,-z
-x,y,-z
-x,-y,-z
1/2+x,y,-z
1/2-x,y,z
x,-y,z
loop_
_atom_site_type_symbol
_atom_site_label
_atom_site_fract_x
_atom_site_fract_y
_atom_site_fract_z
Si Si1 0.411395 0.793331 0.542455
Si Si2 0.592203 0.198348 0.623788
Si Si3 0.417774 0.000000 0.045774
Si Si4 0.412964 0.704357 0.706058
Si Si5 0.417194 0.302131 0.111582
Si Si6 0.092042 0.705498 0.804587
O O1 0.500000 0.726748 0.500000
O O2 0.250000 0.718901 0.540743
O O3 0.490422 0.716499 0.586269
O O4 0.405526 0.000000 0.543523
O O5 0.750000 0.286849 0.624506
O O6 0.520011 0.207750 0.671891
O O7 0.612653 0.000000 0.610641
O O8 0.463543 0.174022 0.072043
O O9 0.250000 0.000000 0.036228
O O10 0.500000 0.000000 0.000000
O O11 0.250000 0.760456 0.695787
O O12 0.429233 0.500000 0.701908
O O13 0.456511 0.769519 0.755631
O O14 0.250000 0.293861 0.119584
O O15 0.465936 0.500000 0.100228
O O16 0.486376 0.229916 0.157000
O O17 0.250000 0.777693 0.815297
O O18 0.095849 0.500000 0.803600
#
# Coordination Sequence:
#
# PCOD8210343 Si02
#       6
#     8   8   4   8   8   8
#     4   9  16  27  45  67  91 122 160 204 253 303
#     4  10  20  32  46  69 100 130 164 206 249 299
#     4  10  22  38  54  78 110 140 176 222 263 312
#     4   9  18  33  52  73  99 132 168 206 251 304
#     4   9  18  34  55  77 104 139 175 214 264 315
#     4   8  15  30  52  76 100 128 167 210 248 295
#
# _framework density 20.254614
#
# number of rings (size 3 to 8) (size 9 to 14) (size 15 to 20)
#    0.000    2.909    0.000    2.182    0.000    5.455 
#    1.636    1.818    0.000    0.545    0.000    0.000 
#    0.000    0.000    0.000    0.000    0.000    0.000 
#
# Total GULP energy -545381.942522 kJ/mol
# GULP energy per Si atom -12395.044148 kJ/mol
# Density = 2.020851 g / cm^3
# Si number density = 20.254614 Si / 1000 Ang^3
#
#
#
# Elastic Constant Matrix: (Units=GPa)
#
#
# Indices 1 2 3 4 5 6 
#
# 1 130.8850 25.4670 95.7425 0.0000 0.0000 0.0000
# 2 25.4670 44.5874 33.9137 0.0000 0.0000 0.0000
# 3 95.7425 33.9137 186.4145 0.0000 0.0000 0.0000
# 4 0.0000 0.0000 0.0000 40.4858 0.0000 0.0000
# 5 0.0000 0.0000 0.0000 0.0000 45.1072 0.0000
# 6 0.0000 0.0000 0.0000 0.0000 0.0000 12.7808
#
#
#
# Elastic Compliance Matrix: (Units=1/GPa)
#
#
# Indices 1 2 3 4 5 6 
#
# 1 0.012496 -0.002618 -0.005942 0.000000 0.000000 0.000000
# 2 -0.002618 0.026578 -0.003491 0.000000 0.000000 0.000000
# 3 -0.005942 -0.003491 0.009051 0.000000 0.000000 0.000000
# 4 0.000000 0.000000 0.000000 0.024700 0.000000 0.000000
# 5 0.000000 0.000000 0.000000 0.000000 0.022169 0.000000
# 6 0.000000 0.000000 0.000000 0.000000 0.000000 0.078243
#
#
# Mechanical properties :
#
#
# Convention : Reuss Voigt Hill
#
# Bulk Modulus (GPa) = 41.62403 74.68149 58.15276
# Shear Modulus (GPa) = 24.34910 33.45900 28.90405
#
# Velocity S-wave (km/s) = 3.47097 4.06879 3.78171
# Velocity P-wave (km/s) = 6.05462 7.68276 6.91677
#
# Compressibility (1/GPa) = 0.02402459
#
# Stress axis : x y z
#
# Youngs Moduli (GPa) = 80.02527 37.62476 110.48410
#
# Poissons Ratio (x) = 0.09850 0.65646
# Poissons Ratio (y) = 0.20951 0.38566
# Poissons Ratio (z) = 0.47548 0.13133
#
# Static dielectric constant tensor:
#      x y z
#    x 3.970940 0.000000 0.000000 
#    y 0.000000 3.413420 0.000000 
#    z 0.000000 0.000000 3.848820 
# 
# 
# High freq. dielectric constant tensor:
#      x y z
#    x 1.790160 0.000000 0.000000 
#    y 0.000000 1.762260 0.000000 
#    z 0.000000 0.000000 1.793050 
# 
# From -- ./inp_files/36758.got.cif
#   From: 2010.03.12/outbox.cif.g09.slc.cpg/sg51_19_cif.got.tgz:36758.got - 2010.04.16 13:43:02.
