data_PCOD8210574
_publ_section_title
;
Structure prediction by ZEFSAII (Michael W. Deem and Ramdas Pophale) SiO2 
 PCOD8210574
Probable space group: P M M A
;
_chemical_formula_sum "Si O2"
_cell_formula_units_Z 56
_cell_length_a 13.957196
_cell_length_b 9.187223
_cell_length_c 22.659416
_cell_angle_alpha 90.000000
_cell_angle_beta 90.000000
_cell_angle_gamma 90.000000
_cell_volume 2905.568697
_symmetry_space_group_name_H-M "P M M A"
_symmetry_group_IT_number 51
_symmetry_cell_setting 'orthorhombic'
loop_
_space_group_symop_operation_xyz
x,y,z
1/2-x,-y,z
1/2+x,-y,-z
-x,y,-z
-x,-y,-z
1/2+x,y,-z
1/2-x,y,z
x,-y,z
loop_
_atom_site_type_symbol
_atom_site_label
_atom_site_fract_x
_atom_site_fract_y
_atom_site_fract_z
Si Si1 0.636609 0.164148 0.464080
Si Si2 0.360238 0.664741 0.966799
Si Si3 0.456225 0.332350 0.641893
Si Si4 0.858034 0.331399 0.895742
Si Si5 0.138956 0.331613 0.762286
Si Si6 0.142571 0.332587 0.421330
Si Si7 0.038821 0.827798 0.866605
O O1 0.750000 0.171053 0.463354
O O2 0.600609 0.240775 0.405660
O O3 0.599986 0.242890 0.523496
O O4 0.597942 0.000000 0.465227
O O5 0.250000 0.682872 0.948686
O O6 0.394282 0.500000 0.952552
O O7 0.423083 0.778089 0.930329
O O8 0.375139 0.698816 0.035303
O O9 0.427313 0.500000 0.632778
O O10 0.425262 0.281123 0.706820
O O11 0.570853 0.308689 0.633855
O O12 0.750000 0.286465 0.878161
O O13 0.875436 0.500000 0.880969
O O14 0.931438 0.234564 0.857735
O O15 0.250000 0.304167 0.747199
O O16 0.120375 0.500000 0.778250
O O17 0.109550 0.233569 0.817226
O O18 0.250000 0.281684 0.403007
O O19 0.143847 0.500000 0.441181
O O20 0.036579 0.000000 0.862827
#
# Coordination Sequence:
#
# PCOD8210574 Si02
#       7
#     8   8   8   8   8   8   8
#     4  10  20  32  49  77 111 143 173 209 259 319
#     4   9  18  34  57  83 110 142 181 223 265 313
#     4  10  20  35  56  79 102 134 179 227 269 306
#     4   9  19  37  60  83 107 140 182 223 263 313
#     4  10  22  40  59  77 101 137 181 226 268 315
#     4   9  18  33  53  78 108 138 169 210 260 314
#     4  12  24  35  52  80 113 146 178 218 270 323
#
# _framework density 19.273336
#
# number of rings (size 3 to 8) (size 9 to 14) (size 15 to 20)
#    0.000    2.143    0.000    4.286    0.000    9.143 
#    0.000    2.143    0.000    2.571    0.000    0.000 
#    0.000    0.000    0.000    0.000    0.000    0.000 
#
# Total GULP energy -694490.938654 kJ/mol
# GULP energy per Si atom -12401.623905 kJ/mol
# Density = 1.922947 g / cm^3
# Si number density = 19.273336 Si / 1000 Ang^3
#
#
#
# Elastic Constant Matrix: (Units=GPa)
#
#
# Indices 1 2 3 4 5 6 
#
# 1 77.6744 42.7207 37.0835 0.0000 0.0000 0.0000
# 2 42.7207 89.4389 31.8733 0.0000 0.0000 0.0000
# 3 37.0835 31.8733 48.5820 0.0000 0.0000 0.0000
# 4 0.0000 0.0000 0.0000 -0.9263 0.0000 0.0000
# 5 0.0000 0.0000 0.0000 0.0000 33.7315 0.0000
# 6 0.0000 0.0000 0.0000 0.0000 0.0000 20.9051
#
#
#
# Elastic Compliance Matrix: (Units=1/GPa)
#
#
# Indices 1 2 3 4 5 6 
#
# 1 0.022506 -0.006040 -0.013217 0.000000 0.000000 0.000000
# 2 -0.006040 0.016214 -0.006027 0.000000 0.000000 0.000000
# 3 -0.013217 -0.006027 0.034626 0.000000 0.000000 0.000000
# 4 0.000000 0.000000 0.000000 -1.079589 0.000000 0.000000
# 5 0.000000 0.000000 0.000000 0.000000 0.029646 0.000000
# 6 0.000000 0.000000 0.000000 0.000000 0.000000 0.047835
#
#
# Mechanical properties :
#
#
# Convention : Reuss Voigt Hill
#
# Bulk Modulus (GPa) = 43.90005 48.78335 46.34170
# Shear Modulus (GPa) = -5.74316 17.67657 5.96671
#
# Velocity S-wave (km/s) = -1.72810 3.03174 1.76141
# Velocity P-wave (km/s) = 4.34112 6.13364 5.31351
#
# Compressibility (1/GPa) = 0.02277902
#
# Stress axis : x y z
#
# Youngs Moduli (GPa) = 44.43213 61.67636 28.87985
#
# Poissons Ratio (x) = 0.37253 0.38169
# Poissons Ratio (y) = 0.26838 0.17405
# Poissons Ratio (z) = 0.58724 0.37171
#
# Static dielectric constant tensor:
#      x y z
#    x 3.808990 0.000000 0.000000 
#    y 0.000000 3.454160 0.000000 
#    z 0.000000 0.000000 3.320820 
# 
# 
# High freq. dielectric constant tensor:
#      x y z
#    x 1.768590 0.000000 0.000000 
#    y 0.000000 1.736620 0.000000 
#    z 0.000000 0.000000 1.726990 
# 
# From -- ./inp_files/33290.got.cif
#   From: 2010.03.12/outbox.cif.g09.slc.cpg/sg51_17_cif.got.tgz:33290.got - 2010.04.16 13:43:02.
