data_PCOD8210502
_publ_section_title
;
Structure prediction by ZEFSAII (Michael W. Deem and Ramdas Pophale) SiO2 
 PCOD8210502
Probable space group: P M M A
;
_chemical_formula_sum "Si O2"
_cell_formula_units_Z 48
_cell_length_a 9.524306
_cell_length_b 17.965863
_cell_length_c 14.315419
_cell_angle_alpha 90.000000
_cell_angle_beta 90.000000
_cell_angle_gamma 90.000000
_cell_volume 2449.545369
_symmetry_space_group_name_H-M "P M M A"
_symmetry_group_IT_number 51
_symmetry_cell_setting 'orthorhombic'
loop_
_space_group_symop_operation_xyz
x,y,z
1/2-x,-y,z
1/2+x,-y,-z
-x,y,-z
-x,-y,-z
1/2+x,y,-z
1/2-x,y,z
x,-y,z
loop_
_atom_site_type_symbol
_atom_site_label
_atom_site_fract_x
_atom_site_fract_y
_atom_site_fract_z
Si Si1 0.088457 0.789380 0.906387
Si Si2 0.589780 0.649159 0.218939
Si Si3 0.089838 0.584827 0.586981
Si Si4 0.902967 0.584974 0.922018
Si Si5 0.088137 0.914031 0.765190
Si Si6 0.410105 0.911520 0.412809
O O1 0.250000 0.784345 0.936208
O O2 0.053170 0.729104 0.825400
O O3 0.052826 0.868666 0.859286
O O4 0.000000 0.777829 0.000000
O O5 0.750000 0.625846 0.195995
O O6 0.563400 0.643834 0.329623
O O7 0.483068 0.589285 0.175752
O O8 0.250000 0.587094 0.554791
O O9 0.048667 0.500000 0.616470
O O10 0.000000 0.613183 0.500000
O O11 0.750000 0.624337 0.918478
O O12 0.880903 0.500000 0.950522
O O13 0.000000 0.625997 0.000000
O O14 0.250000 0.900738 0.734369
O O15 0.987609 0.886011 0.681915
O O16 0.060132 0.000000 0.788791
O O17 0.500000 0.879647 0.500000
O O18 0.250000 0.880394 0.415035
O O19 0.406941 0.000000 0.418477
#
# Coordination Sequence:
#
# PCOD8210502 Si02
#       6
#     8   8   8   8   8   8
#     4  10  22  38  55  76 103 136 175 220 271 326
#     4  10  20  35  54  75 103 138 173 211 258 312
#     4   9  18  33  54  79 106 137 172 210 252 298
#     4  10  20  32  48  73 103 134 170 211 252 297
#     4   9  18  34  54  75 102 137 177 223 275 328
#     4   9  16  27  47  76 106 134 165 204 253 310
#
# _framework density 19.595473999999999
#
# number of rings (size 3 to 8) (size 9 to 14) (size 15 to 20)
#    0.000    2.500    0.000    2.000    0.000    7.333 
#    0.000    2.500    0.000    2.000    0.000    0.000 
#    0.000    0.000    0.000    0.000    0.000    0.000 
#
# Total GULP energy -595005.906900 kJ/mol
# GULP energy per Si atom -12395.956394 kJ/mol
# Density = 1.955087 g / cm^3
# Si number density = 19.595474 Si / 1000 Ang^3
#
#
#
# Elastic Constant Matrix: (Units=GPa)
#
#
# Indices 1 2 3 4 5 6 
#
# 1 136.4340 37.2026 89.7197 0.0000 0.0000 0.0000
# 2 37.2026 58.2988 53.5288 0.0000 0.0000 0.0000
# 3 89.7197 53.5288 152.0257 0.0000 0.0000 0.0000
# 4 0.0000 0.0000 0.0000 27.2124 0.0000 0.0000
# 5 0.0000 0.0000 0.0000 0.0000 41.0554 0.0000
# 6 0.0000 0.0000 0.0000 0.0000 0.0000 14.7159
#
#
#
# Elastic Compliance Matrix: (Units=1/GPa)
#
#
# Indices 1 2 3 4 5 6 
#
# 1 0.012094 -0.001720 -0.006532 0.000000 0.000000 0.000000
# 2 -0.001720 0.025593 -0.007996 0.000000 0.000000 0.000000
# 3 -0.006532 -0.007996 0.013248 0.000000 0.000000 0.000000
# 4 0.000000 0.000000 0.000000 0.036748 0.000000 0.000000
# 5 0.000000 0.000000 0.000000 0.000000 0.024357 0.000000
# 6 0.000000 0.000000 0.000000 0.000000 0.000000 0.067954
#
#
# Mechanical properties :
#
#
# Convention : Reuss Voigt Hill
#
# Bulk Modulus (GPa) = 54.23416 78.62897 66.43156
# Shear Modulus (GPa) = 22.86913 27.68390 25.27652
#
# Velocity S-wave (km/s) = 3.41993 3.76276 3.59544
# Velocity P-wave (km/s) = 6.58267 7.68707 7.15621
#
# Compressibility (1/GPa) = 0.01843856
#
# Stress axis : x y z
#
# Youngs Moduli (GPa) = 82.68656 39.07388 75.48347
#
# Poissons Ratio (x) = 0.06722 0.49303
# Poissons Ratio (y) = 0.14225 0.60356
# Poissons Ratio (z) = 0.54007 0.31243
#
# Static dielectric constant tensor:
#      x y z
#    x 3.829750 0.000000 0.000000 
#    y 0.000000 3.304130 0.000000 
#    z 0.000000 0.000000 3.511500 
# 
# 
# High freq. dielectric constant tensor:
#      x y z
#    x 1.770120 0.000000 0.000000 
#    y 0.000000 1.731880 0.000000 
#    z 0.000000 0.000000 1.758950 
# 
# From -- ./inp_files/21105.got.cif
#   From: 2010.03.12/outbox.cif.g09.slc.cpg/sg51_11_cif.got.tgz:21105.got - 2010.04.16 13:43:02.
