data_PCOD8210110
_publ_section_title
;
Structure prediction by ZEFSAII (Michael W. Deem and Ramdas Pophale) SiO2 
 PCOD8210110
Probable space group: P M M A
;
_chemical_formula_sum "Si O2"
_cell_formula_units_Z 48
_cell_length_a 18.657573
_cell_length_b 15.516038
_cell_length_c 8.924142
_cell_angle_alpha 90.000000
_cell_angle_beta 90.000000
_cell_angle_gamma 90.000000
_cell_volume 2583.464250
_symmetry_space_group_name_H-M "P M M A"
_symmetry_group_IT_number 51
_symmetry_cell_setting 'orthorhombic'
loop_
_space_group_symop_operation_xyz
x,y,z
1/2-x,-y,z
1/2+x,-y,-z
-x,y,-z
-x,-y,-z
1/2+x,y,-z
1/2-x,y,z
x,-y,z
loop_
_atom_site_type_symbol
_atom_site_label
_atom_site_fract_x
_atom_site_fract_y
_atom_site_fract_z
Si Si1 0.331981 0.000000 0.550302
Si Si2 0.830890 0.817139 0.322533
Si Si3 0.039372 0.830729 0.157540
Si Si4 0.044625 0.698023 0.643183
Si Si5 0.331841 0.754082 0.010857
Si Si6 0.575123 0.598237 0.079621
Si Si7 0.544411 0.000000 0.653627
O O1 0.352728 0.915920 0.646918
O O2 0.250000 0.000000 0.505115
O O3 0.372490 0.000000 0.392139
O O4 0.750000 0.797171 0.378154
O O5 0.885652 0.753385 0.408896
O O6 0.837776 0.804000 0.145683
O O7 0.123357 0.809205 0.132027
O O8 0.027123 0.917591 0.247774
O O9 0.005328 0.754745 0.251904
O O10 0.000000 0.837694 0.000000
O O11 0.068905 0.615955 0.741694
O O12 0.000000 0.665799 0.500000
O O13 0.250000 0.747045 0.066298
O O14 0.364292 0.658308 0.994096
O O15 0.599209 0.500000 0.055722
O O16 0.500000 0.618080 0.000000
O O17 0.500000 0.000000 0.500000
#
# Coordination Sequence:
#
# PCOD8210110 Si02
#       7
#     4   8   8   8   8   8   4
#     4  10  20  36  51  73 112 149 183 225 282 343
#     4   9  18  33  54  78 108 149 195 236 279 337
#     4  12  21  39  56  82 113 150 195 245 286 336
#     4  11  20  35  58  83 118 149 190 233 285 347
#     4  10  20  36  59  86 112 146 193 239 288 339
#     4  10  19  37  62  87 117 148 186 234 284 343
#     4  12  27  36  55  84 114 152 195 242 294 343
#
# _framework density 18.579702999999999
#
# number of rings (size 3 to 8) (size 9 to 14) (size 15 to 20)
#    0.000    1.500    5.000    2.750    0.000    2.000 
#    0.000    1.667    0.000    0.000    0.000    0.000 
#    0.000    0.000    0.000    0.000    0.000    0.000 
#
# Total GULP energy -595201.465702 kJ/mol
# GULP energy per Si atom -12400.030535 kJ/mol
# Density = 1.853741 g / cm^3
# Si number density = 18.579703 Si / 1000 Ang^3
#
#
#
# Elastic Constant Matrix: (Units=GPa)
#
#
# Indices 1 2 3 4 5 6 
#
# 1 108.5682 18.6575 25.5514 0.0000 0.0000 0.0000
# 2 18.6575 65.7508 21.1757 0.0000 0.0000 0.0000
# 3 25.5514 21.1757 65.4102 0.0000 0.0000 0.0000
# 4 0.0000 0.0000 0.0000 17.7451 0.0000 0.0000
# 5 0.0000 0.0000 0.0000 0.0000 25.1036 0.0000
# 6 0.0000 0.0000 0.0000 0.0000 0.0000 21.2136
#
#
#
# Elastic Compliance Matrix: (Units=1/GPa)
#
#
# Indices 1 2 3 4 5 6 
#
# 1 0.010335 -0.001823 -0.003447 0.000000 0.000000 0.000000
# 2 -0.001823 0.017301 -0.004889 0.000000 0.000000 0.000000
# 3 -0.003447 -0.004889 0.018217 0.000000 0.000000 0.000000
# 4 0.000000 0.000000 0.000000 0.056354 0.000000 0.000000
# 5 0.000000 0.000000 0.000000 0.000000 0.039835 0.000000
# 6 0.000000 0.000000 0.000000 0.000000 0.000000 0.047140
#
#
# Mechanical properties :
#
#
# Convention : Reuss Voigt Hill
#
# Bulk Modulus (GPa) = 39.16046 41.16648 40.16347
# Shear Modulus (GPa) = 22.93464 24.43544 23.68504
#
# Velocity S-wave (km/s) = 3.51720 3.63046 3.57428
# Velocity P-wave (km/s) = 6.13327 6.30702 6.22075
#
# Compressibility (1/GPa) = 0.02553596
#
# Stress axis : x y z
#
# Youngs Moduli (GPa) = 96.75555 57.80146 54.89228
#
# Poissons Ratio (x) = 0.10534 0.18923
# Poissons Ratio (y) = 0.17634 0.26836
# Poissons Ratio (z) = 0.33355 0.28259
#
# Static dielectric constant tensor:
#      x y z
#    x 3.815180 0.000000 0.000000 
#    y 0.000000 3.314240 0.000000 
#    z 0.000000 0.000000 3.491900 
# 
# 
# High freq. dielectric constant tensor:
#      x y z
#    x 1.732450 0.000000 0.000000 
#    y 0.000000 1.714150 0.000000 
#    z 0.000000 0.000000 1.705970 
# 
# From -- ./inp_files/9695.got.cif
#   From: 2010.03.12/outbox.cif.g09.slc.cpg/sg51_5_cif.got.tgz:9695.got - 2010.04.16 13:43:02.
