data_PCOD8210010
_publ_section_title
;
Structure prediction by ZEFSAII (Michael W. Deem and Ramdas Pophale) SiO2 
 PCOD8210010
Probable space group: P M M A
;
_chemical_formula_sum "Si O2"
_cell_formula_units_Z 64
_cell_length_a 23.453811
_cell_length_b 13.767324
_cell_length_c 10.268992
_cell_angle_alpha 90.000000
_cell_angle_beta 90.000000
_cell_angle_gamma 90.000000
_cell_volume 3315.818649
_symmetry_space_group_name_H-M "P M M A"
_symmetry_group_IT_number 51
_symmetry_cell_setting 'orthorhombic'
loop_
_space_group_symop_operation_xyz
x,y,z
1/2-x,-y,z
1/2+x,-y,-z
-x,y,-z
-x,-y,-z
1/2+x,y,-z
1/2-x,y,z
x,-y,z
loop_
_atom_site_type_symbol
_atom_site_label
_atom_site_fract_x
_atom_site_fract_y
_atom_site_fract_z
Si Si1 0.477657 0.609925 0.863395
Si Si2 0.605304 0.885346 0.337638
Si Si3 0.816689 0.893046 0.843892
Si Si4 0.346390 0.607380 0.809280
Si Si5 0.630795 0.206289 0.603734
Si Si6 0.814083 0.808013 0.111691
Si Si7 0.816728 0.389308 0.485636
Si Si8 0.505388 0.756929 0.646165
O O1 0.499500 0.500000 0.848008
O O2 0.410021 0.616338 0.861098
O O3 0.504105 0.668378 0.744762
O O4 0.500000 0.653755 0.000000
O O5 0.637152 0.853067 0.469473
O O6 0.644697 0.853574 0.218630
O O7 0.543470 0.835579 0.323781
O O8 0.595933 0.000000 0.336942
O O9 0.750000 0.903018 0.859021
O O10 0.827918 0.837161 0.710961
O O11 0.845093 0.000000 0.839802
O O12 0.839698 0.835959 0.970726
O O13 0.321050 0.500000 0.841266
O O14 0.310439 0.690815 0.879871
O O15 0.345518 0.624642 0.654802
O O16 0.649589 0.318316 0.582945
O O17 0.567061 0.193818 0.659031
O O18 0.750000 0.848946 0.132147
O O19 0.750000 0.361444 0.477547
O O20 0.824355 0.500000 0.534999
O O21 0.500000 0.714733 0.500000
#
# Coordination Sequence:
#
# PCOD8210010 Si02
#       8
#     8   8   8   8   8   8   8   8
#     4  10  21  37  59  86 119 155 194 239 285 346
#     4  11  23  40  61  87 117 150 204 262 304 353
#     4  10  23  41  58  82 119 158 196 246 306 359
#     4  10  19  35  61  89 118 151 191 240 299 352
#     4  11  22  37  62  88 117 161 201 240 299 367
#     4  11  22  39  62  88 117 151 198 251 303 361
#     4  10  20  36  60  92 127 159 198 252 306 360
#     4  10  22  38  58  86 118 155 195 245 301 353
#
# _framework density 19.301417000000001
#
# number of rings (size 3 to 8) (size 9 to 14) (size 15 to 20)
#    0.000    1.625    2.500    2.250    1.750    5.500 
#    0.000    0.625    0.000    2.625    0.000    0.000 
#    0.000    0.000    0.000    0.000    0.000    0.000 
#
# Total GULP energy -793630.358166 kJ/mol
# GULP energy per Si atom -12400.474346 kJ/mol
# Density = 1.925749 g / cm^3
# Si number density = 19.301417 Si / 1000 Ang^3
#
#
#
# Elastic Constant Matrix: (Units=GPa)
#
#
# Indices 1 2 3 4 5 6 
#
# 1 82.0898 31.6022 45.3845 0.0000 0.0000 0.0000
# 2 31.6022 136.9883 75.6665 0.0000 0.0000 0.0000
# 3 45.3845 75.6665 127.2251 0.0000 0.0000 0.0000
# 4 0.0000 0.0000 0.0000 18.8934 0.0000 0.0000
# 5 0.0000 0.0000 0.0000 0.0000 13.0037 0.0000
# 6 0.0000 0.0000 0.0000 0.0000 0.0000 12.5120
#
#
#
# Elastic Compliance Matrix: (Units=1/GPa)
#
#
# Indices 1 2 3 4 5 6 
#
# 1 0.015228 -0.000763 -0.004978 0.000000 0.000000 0.000000
# 2 -0.000763 0.010909 -0.006216 0.000000 0.000000 0.000000
# 3 -0.004978 -0.006216 0.013333 0.000000 0.000000 0.000000
# 4 0.000000 0.000000 0.000000 0.052929 0.000000 0.000000
# 5 0.000000 0.000000 0.000000 0.000000 0.076901 0.000000
# 6 0.000000 0.000000 0.000000 0.000000 0.000000 0.079923
#
#
# Mechanical properties :
#
#
# Convention : Reuss Voigt Hill
#
# Bulk Modulus (GPa) = 64.28722 72.40105 68.34413
# Shear Modulus (GPa) = 17.96471 21.79182 19.87827
#
# Velocity S-wave (km/s) = 3.05412 3.36375 3.21267
# Velocity P-wave (km/s) = 6.76877 7.25800 7.01765
#
# Compressibility (1/GPa) = 0.01555519
#
# Stress axis : x y z
#
# Youngs Moduli (GPa) = 65.66895 91.66352 75.00204
#
# Poissons Ratio (x) = 0.06996 0.37338
# Poissons Ratio (y) = 0.05012 0.46622
# Poissons Ratio (z) = 0.32692 0.56979
#
# Static dielectric constant tensor:
#      x y z
#    x 3.530970 0.000000 0.000000 
#    y 0.000000 3.809840 0.000000 
#    z 0.000000 0.000000 3.511530 
# 
# 
# High freq. dielectric constant tensor:
#      x y z
#    x 1.750300 0.000000 0.000000 
#    y 0.000000 1.756580 0.000000 
#    z 0.000000 0.000000 1.747270 
# 
# From -- ./inp_files/11852.got.cif
#   From: 2010.03.12/outbox.cif.g09.slc.cpg/sg51_6_cif.got.tgz:11852.got - 2010.04.16 13:43:02.
