data_PCOD8210547
_publ_section_title
;
Structure prediction by ZEFSAII (Michael W. Deem and Ramdas Pophale) SiO2 
 PCOD8210547
Probable space group: P M M A
;
_chemical_formula_sum "Si O2"
_cell_formula_units_Z 48
_cell_length_a 8.983336
_cell_length_b 19.306872
_cell_length_c 15.599151
_cell_angle_alpha 90.000000
_cell_angle_beta 90.000000
_cell_angle_gamma 90.000000
_cell_volume 2705.518595
_symmetry_space_group_name_H-M "P M M A"
_symmetry_group_IT_number 51
_symmetry_cell_setting 'orthorhombic'
loop_
_space_group_symop_operation_xyz
x,y,z
1/2-x,-y,z
1/2+x,-y,-z
-x,y,-z
-x,-y,-z
1/2+x,y,-z
1/2-x,y,z
x,-y,z
loop_
_atom_site_type_symbol
_atom_site_label
_atom_site_fract_x
_atom_site_fract_y
_atom_site_fract_z
Si Si1 0.925288 0.578474 0.413229
Si Si2 0.575947 0.080283 0.413071
Si Si3 0.078151 0.679010 0.920903
Si Si4 0.077081 0.829798 0.270260
Si Si5 0.923213 0.682771 0.267392
Si Si6 0.922864 0.826873 0.920317
O O1 0.750000 0.582676 0.425202
O O2 0.977034 0.500000 0.393496
O O3 0.979556 0.626791 0.335815
O O4 0.000000 0.606204 0.500000
O O5 0.500000 0.107824 0.500000
O O6 0.750000 0.094116 0.421110
O O7 0.513542 0.120970 0.332383
O O8 0.537957 0.000000 0.398896
O O9 0.250000 0.685630 0.943753
O O10 0.053915 0.646651 0.826304
O O11 0.004270 0.753807 0.916786
O O12 0.000000 0.636794 0.000000
O O13 0.250000 0.830367 0.295610
O O14 0.054494 0.860557 0.173702
O O15 0.019567 0.751575 0.278647
O O16 0.750000 0.702390 0.280301
O O17 0.750000 0.817318 0.940881
O O18 0.000000 0.869360 0.000000
#
# Coordination Sequence:
#
# PCOD8210547 Si02
#       6
#     8   8   8   8   8   8
#     4   9  18  33  51  69  90 120 158 196 236 284
#     4  10  21  37  56  75  96 126 162 198 238 286
#     4   9  15  24  40  62  89 121 154 189 231 277
#     4  10  20  32  49  75 103 129 159 198 241 283
#     4   9  18  31  47  69  97 127 158 195 239 284
#     4   9  16  26  42  66  95 126 158 192 232 277
#
# _framework density 17.741515
#
# number of rings (size 3 to 8) (size 9 to 14) (size 15 to 20)
#    0.000    2.667    0.000    3.000    0.000    5.000 
#    0.000    1.667    0.000    1.000    0.000    0.000 
#    0.000    0.000    0.000    0.000    0.000    4.500 
#
# Total GULP energy -594796.386963 kJ/mol
# GULP energy per Si atom -12391.591395 kJ/mol
# Density = 1.770113 g / cm^3
# Si number density = 17.741515 Si / 1000 Ang^3
#
#
#
# Elastic Constant Matrix: (Units=GPa)
#
#
# Indices 1 2 3 4 5 6 
#
# 1 89.2321 30.5085 64.8982 0.0000 0.0000 0.0000
# 2 30.5085 45.6711 54.9455 0.0000 0.0000 0.0000
# 3 64.8982 54.9455 173.5844 0.0000 0.0000 0.0000
# 4 0.0000 0.0000 0.0000 -1.3780 0.0000 0.0000
# 5 0.0000 0.0000 0.0000 0.0000 36.4551 0.0000
# 6 0.0000 0.0000 0.0000 0.0000 0.0000 15.6361
#
#
#
# Elastic Compliance Matrix: (Units=1/GPa)
#
#
# Indices 1 2 3 4 5 6 
#
# 1 0.016272 -0.005734 -0.004268 0.000000 0.000000 0.000000
# 2 -0.005734 0.037383 -0.009689 0.000000 0.000000 0.000000
# 3 -0.004268 -0.009689 0.010424 0.000000 0.000000 0.000000
# 4 0.000000 0.000000 0.000000 -0.725715 0.000000 0.000000
# 5 0.000000 0.000000 0.000000 0.000000 0.027431 0.000000
# 6 0.000000 0.000000 0.000000 0.000000 0.000000 0.063954
#
#
# Mechanical properties :
#
#
# Convention : Reuss Voigt Hill
#
# Bulk Modulus (GPa) = 40.49474 67.68799 54.09137
# Shear Modulus (GPa) = -9.56689 20.68503 5.55907
#
# Velocity S-wave (km/s) = -2.32467 3.41825 1.77205
# Velocity P-wave (km/s) = 3.95840 7.33583 5.89421
#
# Compressibility (1/GPa) = 0.02469457
#
# Stress axis : x y z
#
# Youngs Moduli (GPa) = 61.45643 26.75016 95.93576
#
# Poissons Ratio (x) = 0.15340 0.40949
# Poissons Ratio (y) = 0.35242 0.92953
# Poissons Ratio (z) = 0.26232 0.25918
#
# Static dielectric constant tensor:
#      x y z
#    x 3.386970 0.000000 0.000000 
#    y 0.000000 2.865870 0.000000 
#    z 0.000000 0.000000 4.350140 
# 
# 
# High freq. dielectric constant tensor:
#      x y z
#    x 1.698720 0.000000 0.000000 
#    y 0.000000 1.628050 0.000000 
#    z 0.000000 0.000000 1.714030 
# 
# From -- ./inp_files/21386.got.cif
#   From: 2010.03.12/outbox.cif.g09.slc.cpg/sg51_11_cif.got.tgz:21386.got - 2010.04.16 13:43:02.
