data_PCOD8210131
_publ_section_title
;
Structure prediction by ZEFSAII (Michael W. Deem and Ramdas Pophale) SiO2 
 PCOD8210131
Probable space group: P M M A
;
_chemical_formula_sum "Si O2"
_cell_formula_units_Z 64
_cell_length_a 26.061386
_cell_length_b 9.237258
_cell_length_c 18.514419
_cell_angle_alpha 90.000000
_cell_angle_beta 90.000000
_cell_angle_gamma 90.000000
_cell_volume 4457.082476
_symmetry_space_group_name_H-M "P M M A"
_symmetry_group_IT_number 51
_symmetry_cell_setting 'orthorhombic'
loop_
_space_group_symop_operation_xyz
x,y,z
1/2-x,-y,z
1/2+x,-y,-z
-x,y,-z
-x,-y,-z
1/2+x,y,-z
1/2-x,y,z
x,-y,z
loop_
_atom_site_type_symbol
_atom_site_label
_atom_site_fract_x
_atom_site_fract_y
_atom_site_fract_z
Si Si1 0.991678 0.172906 0.326039
Si Si2 0.447804 0.663520 0.044545
Si Si3 0.191379 0.833119 0.820350
Si Si4 0.108373 0.826797 0.590066
Si Si5 0.190309 0.332678 0.675908
Si Si6 0.601629 0.832843 0.075558
Si Si7 0.000335 0.830632 0.836415
Si Si8 0.551869 0.158200 0.544612
O O1 0.036505 0.237567 0.379669
O O2 0.935518 0.221628 0.353067
O O3 0.000928 0.229717 0.245252
O O4 0.994157 0.000000 0.329199
O O5 0.430896 0.500000 0.061315
O O6 0.456032 0.747631 0.119627
O O7 0.500000 0.670163 0.000000
O O8 0.403496 0.739631 0.997402
O O9 0.250000 0.804528 0.843884
O O10 0.175413 0.736139 0.752629
O O11 0.155551 0.791182 0.887717
O O12 0.182434 0.000000 0.798015
O O13 0.160780 0.749131 0.612017
O O14 0.093400 0.767621 0.509153
O O15 0.115223 0.000000 0.589854
O O16 0.250000 0.310818 0.659615
O O17 0.174595 0.500000 0.677672
O O18 0.556429 0.797012 0.131890
O O19 0.599628 0.000000 0.052740
O O20 0.987862 0.000000 0.840016
O O21 0.500000 0.139398 0.500000
O O22 0.573845 0.000000 0.564013
#
# Coordination Sequence:
#
# PCOD8210131 Si02
#       8
#     8   8   8   8   8   8   8   8
#     4   8  13  22  38  60  81 100 125 156 191 230
#     4   9  17  27  37  51  73 100 129 159 188 218
#     4   9  17  29  44  60  77  98 127 162 193 223
#     4   9  15  25  42  59  75 100 133 162 188 223
#     4  10  20  30  38  52  77 106 133 162 194 224
#     4   9  16  26  40  57  76  99 127 155 186 224
#     4   9  15  23  37  55  76 102 129 155 183 221
#     4   7  11  20  36  58  79  97 121 155 189 222
#
# _framework density 14.359168
#
# number of rings (size 3 to 8) (size 9 to 14) (size 15 to 20)
#    0.000    3.250    0.000    3.000    0.000    4.750 
#    0.000    3.125    0.000    4.125    0.000    0.000 
#    0.000    1.000    0.000    7.250    0.000    2.125 
#
# Total GULP energy -793067.718550 kJ/mol
# GULP energy per Si atom -12391.683102 kJ/mol
# Density = 1.432649 g / cm^3
# Si number density = 14.359168 Si / 1000 Ang^3
#
#
#
# Elastic Constant Matrix: (Units=GPa)
#
#
# Indices 1 2 3 4 5 6 
#
# 1 60.0921 30.7256 44.1566 0.0000 0.0000 0.0000
# 2 30.7256 50.7011 37.0895 0.0000 0.0000 0.0000
# 3 44.1566 37.0895 105.2535 0.0000 0.0000 0.0000
# 4 0.0000 0.0000 0.0000 5.9116 0.0000 0.0000
# 5 0.0000 0.0000 0.0000 0.0000 26.4863 0.0000
# 6 0.0000 0.0000 0.0000 0.0000 0.0000 12.1896
#
#
#
# Elastic Compliance Matrix: (Units=1/GPa)
#
#
# Indices 1 2 3 4 5 6 
#
# 1 0.028204 -0.011367 -0.007827 0.000000 0.000000 0.000000
# 2 -0.011367 0.031154 -0.006210 0.000000 0.000000 0.000000
# 3 -0.007827 -0.006210 0.014973 0.000000 0.000000 0.000000
# 4 0.000000 0.000000 0.000000 0.169158 0.000000 0.000000
# 5 0.000000 0.000000 0.000000 0.000000 0.037755 0.000000
# 6 0.000000 0.000000 0.000000 0.000000 0.000000 0.082037
#
#
# Mechanical properties :
#
#
# Convention : Reuss Voigt Hill
#
# Bulk Modulus (GPa) = 42.50830 48.88780 45.69805
# Shear Modulus (GPa) = 11.85031 15.85584 13.85308
#
# Velocity S-wave (km/s) = 2.87588 3.32660 3.10942
# Velocity P-wave (km/s) = 6.37930 6.99109 6.69219
#
# Compressibility (1/GPa) = 0.02352482
#
# Stress axis : x y z
#
# Youngs Moduli (GPa) = 35.45538 32.09830 66.78805
#
# Poissons Ratio (x) = 0.36485 0.52276
# Poissons Ratio (y) = 0.40300 0.41473
# Poissons Ratio (z) = 0.27751 0.19932
#
# Static dielectric constant tensor:
#      x y z
#    x 2.650240 0.000000 0.000000 
#    y 0.000000 2.647700 0.000000 
#    z 0.000000 0.000000 2.981270 
# 
# 
# High freq. dielectric constant tensor:
#      x y z
#    x 1.516260 0.000000 0.000000 
#    y 0.000000 1.528340 0.000000 
#    z 0.000000 0.000000 1.542190 
# 
# From -- ./inp_files/30988.got.cif
#   From: 2010.03.12/outbox.cif.g09.slc.cpg/sg51_16_cif.got.tgz:30988.got - 2010.04.16 13:43:02.
