data_PCOD8210830
_publ_section_title
;
Structure prediction by ZEFSAII (Michael W. Deem and Ramdas Pophale) SiO2 
 PCOD8210830
Probable space group: P M M A
;
_chemical_formula_sum "Si O2"
_cell_formula_units_Z 48
_cell_length_a 9.323399
_cell_length_b 18.038232
_cell_length_c 14.765438
_cell_angle_alpha 90.000000
_cell_angle_beta 90.000000
_cell_angle_gamma 90.000000
_cell_volume 2483.216431
_symmetry_space_group_name_H-M "P M M A"
_symmetry_group_IT_number 51
_symmetry_cell_setting 'orthorhombic'
loop_
_space_group_symop_operation_xyz
x,y,z
1/2-x,-y,z
1/2+x,-y,-z
-x,y,-z
-x,-y,-z
1/2+x,y,-z
1/2-x,y,z
x,-y,z
loop_
_atom_site_type_symbol
_atom_site_label
_atom_site_fract_x
_atom_site_fract_y
_atom_site_fract_z
Si Si1 0.410505 0.083236 0.344073
Si Si2 0.586665 0.082200 0.163760
Si Si3 0.411325 0.681164 0.729791
Si Si4 0.590878 0.204439 0.424350
Si Si5 0.914969 0.587212 0.591003
Si Si6 0.582914 0.760733 0.087901
O O1 0.250000 0.116516 0.338545
O O2 0.477340 0.087309 0.245165
O O3 0.506562 0.127751 0.414557
O O4 0.407092 0.000000 0.380408
O O5 0.750000 0.091634 0.199907
O O6 0.549819 0.151231 0.098468
O O7 0.570248 0.000000 0.116799
O O8 0.250000 0.647266 0.736455
O O9 0.406082 0.755037 0.670697
O O10 0.516417 0.622601 0.681745
O O11 0.468057 0.709400 0.827373
O O12 0.500000 0.250863 0.500000
O O13 0.750000 0.189157 0.460999
O O14 0.750000 0.613549 0.580201
O O15 0.923832 0.500000 0.606037
O O16 0.000000 0.610315 0.500000
O O17 0.750000 0.747801 0.072388
O O18 0.500000 0.731374 0.000000
#
# Coordination Sequence:
#
# PCOD8210830 Si02
#       6
#     8   8   8   8   8   8
#     4  10  20  33  50  73 100 134 180 229 277 330
#     4   9  17  33  55  75 102 141 183 233 291 342
#     4  10  21  38  58  82 114 148 185 227 275 328
#     4  11  22  36  53  76 105 140 181 225 272 329
#     4  10  21  37  60  92 125 155 187 221 264 321
#     4  10  21  37  55  82 112 145 189 235 285 341
#
# _framework density 19.32977
#
# number of rings (size 3 to 8) (size 9 to 14) (size 15 to 20)
#    0.000    2.000    1.667    2.000    0.000    6.667 
#    0.000    0.000    0.000    0.500    0.000    0.000 
#    0.000    0.000    0.000    0.000    0.000    0.000 
#
# Total GULP energy -594930.048388 kJ/mol
# GULP energy per Si atom -12394.376008 kJ/mol
# Density = 1.928577 g / cm^3
# Si number density = 19.329770 Si / 1000 Ang^3
#
#
#
# Elastic Constant Matrix: (Units=GPa)
#
#
# Indices 1 2 3 4 5 6 
#
# 1 132.5754 45.2932 58.3487 0.0000 0.0000 0.0000
# 2 45.2932 64.6286 37.9254 0.0000 0.0000 0.0000
# 3 58.3487 37.9254 124.9713 0.0000 0.0000 0.0000
# 4 0.0000 0.0000 0.0000 18.7363 0.0000 0.0000
# 5 0.0000 0.0000 0.0000 0.0000 34.3898 0.0000
# 6 0.0000 0.0000 0.0000 0.0000 0.0000 24.3995
#
#
#
# Elastic Compliance Matrix: (Units=1/GPa)
#
#
# Indices 1 2 3 4 5 6 
#
# 1 0.010988 -0.005706 -0.003399 0.000000 0.000000 0.000000
# 2 -0.005706 0.021789 -0.003948 0.000000 0.000000 0.000000
# 3 -0.003399 -0.003948 0.010787 0.000000 0.000000 0.000000
# 4 0.000000 0.000000 0.000000 0.053372 0.000000 0.000000
# 5 0.000000 0.000000 0.000000 0.000000 0.029078 0.000000
# 6 0.000000 0.000000 0.000000 0.000000 0.000000 0.040984
#
#
# Mechanical properties :
#
#
# Convention : Reuss Voigt Hill
#
# Bulk Modulus (GPa) = 57.28098 67.25666 62.26882
# Shear Modulus (GPa) = 25.13514 27.54565 26.34039
#
# Velocity S-wave (km/s) = 3.60993 3.77906 3.69546
# Velocity P-wave (km/s) = 6.86100 7.34245 7.10580
#
# Compressibility (1/GPa) = 0.01745780
#
# Stress axis : x y z
#
# Youngs Moduli (GPa) = 91.00662 45.89467 92.70615
#
# Poissons Ratio (x) = 0.26189 0.31507
# Poissons Ratio (y) = 0.51932 0.36601
# Poissons Ratio (z) = 0.30930 0.18120
#
# Static dielectric constant tensor:
#      x y z
#    x 3.694830 0.000000 0.000000 
#    y 0.000000 3.458380 0.000000 
#    z 0.000000 0.000000 3.371320 
# 
# 
# High freq. dielectric constant tensor:
#      x y z
#    x 1.761220 0.000000 0.000000 
#    y 0.000000 1.737310 0.000000 
#    z 0.000000 0.000000 1.734850 
# 
# From -- ./inp_files/21062.got.cif
#   From: 2010.03.12/outbox.cif.g09.slc.cpg/sg51_11_cif.got.tgz:21062.got - 2010.04.16 13:43:02.
