data_PCOD8210780
_publ_section_title
;
Structure prediction by ZEFSAII (Michael W. Deem and Ramdas Pophale) SiO2 
 PCOD8210780
Probable space group: P M M A
;
_chemical_formula_sum "Si O2"
_cell_formula_units_Z 56
_cell_length_a 20.515389
_cell_length_b 9.095927
_cell_length_c 14.500996
_cell_angle_alpha 90.000000
_cell_angle_beta 90.000000
_cell_angle_gamma 90.000000
_cell_volume 2705.979831
_symmetry_space_group_name_H-M "P M M A"
_symmetry_group_IT_number 51
_symmetry_cell_setting 'orthorhombic'
loop_
_space_group_symop_operation_xyz
x,y,z
1/2-x,-y,z
1/2+x,-y,-z
-x,y,-z
-x,-y,-z
1/2+x,y,-z
1/2-x,y,z
x,-y,z
loop_
_atom_site_type_symbol
_atom_site_label
_atom_site_fract_x
_atom_site_fract_y
_atom_site_fract_z
Si Si1 0.860226 0.671986 0.643879
Si Si2 0.821572 0.673366 0.847954
Si Si3 0.983737 0.163810 0.604293
Si Si4 0.325068 0.671556 0.714718
Si Si5 0.037772 0.673135 0.093583
Si Si6 0.060772 0.834880 0.778350
Si Si7 0.823585 0.160312 0.464072
O O1 0.850765 0.500000 0.624849
O O2 0.828749 0.718349 0.741044
O O3 0.935849 0.714207 0.646016
O O4 0.827057 0.764005 0.563071
O O5 0.750000 0.735136 0.882557
O O6 0.819840 0.500000 0.857253
O O7 0.885770 0.727847 0.906001
O O8 0.000000 0.210715 0.500000
O O9 0.047240 0.164494 0.668510
O O10 0.952135 0.000000 0.605242
O O11 0.250000 0.707572 0.738132
O O12 0.338761 0.500000 0.717426
O O13 0.370762 0.748794 0.792192
O O14 0.348453 0.729880 0.614999
O O15 0.035286 0.500000 0.114430
O O16 0.999681 0.756894 0.173147
O O17 0.000000 0.712825 0.000000
O O18 0.068392 0.000000 0.817066
O O19 0.750000 0.126286 0.440587
O O20 0.860419 0.000000 0.462666
#
# Coordination Sequence:
#
# PCOD8210780 Si02
#       7
#     8   8   8   8   8   8   8
#     4  11  20  31  51  78 110 151 198 250 301 353
#     4   9  18  34  57  86 118 150 190 246 309 368
#     4  10  21  35  51  76 114 157 199 241 291 353
#     4  10  21  37  58  84 115 154 204 256 298 348
#     4  10  21  40  65  90 118 157 204 255 308 366
#     4  11  22  37  60  87 120 158 194 245 306 365
#     4  10  20  33  49  73 112 159 201 243 296 355
#
# _framework density 20.694906
#
# number of rings (size 3 to 8) (size 9 to 14) (size 15 to 20)
#    0.000    1.857    1.429    3.000    0.000    4.571 
#    0.000    0.714    0.000    3.857    0.000    0.000 
#    0.000    0.000    0.000    0.000    0.000    0.000 
#
# Total GULP energy -693851.895900 kJ/mol
# GULP energy per Si atom -12390.212427 kJ/mol
# Density = 2.064780 g / cm^3
# Si number density = 20.694906 Si / 1000 Ang^3
#
#
#
# Elastic Constant Matrix: (Units=GPa)
#
#
# Indices 1 2 3 4 5 6 
#
# 1 152.6941 43.0561 54.3077 0.0000 0.0000 0.0000
# 2 43.0561 76.1295 30.0801 0.0000 0.0000 0.0000
# 3 54.3077 30.0801 61.8654 0.0000 0.0000 0.0000
# 4 0.0000 0.0000 0.0000 16.9645 0.0000 0.0000
# 5 0.0000 0.0000 0.0000 0.0000 29.3020 0.0000
# 6 0.0000 0.0000 0.0000 0.0000 0.0000 20.1631
#
#
#
# Elastic Compliance Matrix: (Units=1/GPa)
#
#
# Indices 1 2 3 4 5 6 
#
# 1 0.009949 -0.002693 -0.007424 0.000000 0.000000 0.000000
# 2 -0.002693 0.016988 -0.005896 0.000000 0.000000 0.000000
# 3 -0.007424 -0.005896 0.025548 0.000000 0.000000 0.000000
# 4 0.000000 0.000000 0.000000 0.058947 0.000000 0.000000
# 5 0.000000 0.000000 0.000000 0.000000 0.034127 0.000000
# 6 0.000000 0.000000 0.000000 0.000000 0.000000 0.049595
#
#
# Mechanical properties :
#
#
# Convention : Reuss Voigt Hill
#
# Bulk Modulus (GPa) = 48.87845 60.61966 54.74906
# Shear Modulus (GPa) = 21.36751 24.16892 22.76822
#
# Velocity S-wave (km/s) = 3.21674 3.42112 3.32050
# Velocity P-wave (km/s) = 6.12098 6.70530 6.41979
#
# Compressibility (1/GPa) = 0.02045891
#
# Stress axis : x y z
#
# Youngs Moduli (GPa) = 100.51300 58.86417 39.14250
#
# Poissons Ratio (x) = 0.15855 0.29059
# Poissons Ratio (y) = 0.27073 0.23077
# Poissons Ratio (z) = 0.74620 0.34704
#
# Static dielectric constant tensor:
#      x y z
#    x 4.089330 0.000000 0.000000 
#    y 0.000000 3.754320 0.000000 
#    z 0.000000 0.000000 3.527990 
# 
# 
# High freq. dielectric constant tensor:
#      x y z
#    x 1.827050 0.000000 0.000000 
#    y 0.000000 1.797950 0.000000 
#    z 0.000000 0.000000 1.778350 
# 
# From -- ./inp_files/25627.got.cif
#   From: 2010.03.12/outbox.cif.g09.slc.cpg/sg51_13_cif.got.tgz:25627.got - 2010.04.16 13:43:02.
