data_PCOD8210480
_publ_section_title
;
Structure prediction by ZEFSAII (Michael W. Deem and Ramdas Pophale) SiO2 
 PCOD8210480
Probable space group: P M M A
;
_chemical_formula_sum "Si O2"
_cell_formula_units_Z 64
_cell_length_a 9.625759
_cell_length_b 15.951729
_cell_length_c 22.964031
_cell_angle_alpha 90.000000
_cell_angle_beta 90.000000
_cell_angle_gamma 90.000000
_cell_volume 3526.069527
_symmetry_space_group_name_H-M "P M M A"
_symmetry_group_IT_number 51
_symmetry_cell_setting 'orthorhombic'
loop_
_space_group_symop_operation_xyz
x,y,z
1/2-x,-y,z
1/2+x,-y,-z
-x,y,-z
-x,-y,-z
1/2+x,y,-z
1/2-x,y,z
x,-y,z
loop_
_atom_site_type_symbol
_atom_site_label
_atom_site_fract_x
_atom_site_fract_y
_atom_site_fract_z
Si Si1 0.088769 0.260194 0.747359
Si Si2 0.402935 0.159302 0.635484
Si Si3 0.906275 0.322967 0.443448
Si Si4 0.590029 0.094575 0.943371
Si Si5 0.087923 0.750573 0.138140
Si Si6 0.410926 0.595297 0.057179
Si Si7 0.414817 0.407821 0.668553
Si Si8 0.097739 0.904705 0.450682
O O1 0.250000 0.270906 0.764905
O O2 0.070115 0.183244 0.702428
O O3 0.026660 0.343398 0.716444
O O4 0.999375 0.242012 0.803613
O O5 0.250000 0.117307 0.629913
O O6 0.410398 0.238258 0.593157
O O7 0.523672 0.097781 0.612598
O O8 0.750000 0.344152 0.463729
O O9 0.966253 0.391803 0.397691
O O10 0.000000 0.319910 0.500000
O O11 0.750000 0.104819 0.961521
O O12 0.548525 0.165588 0.897193
O O13 0.562367 0.000000 0.918725
O O14 0.500000 0.111473 0.000000
O O15 0.250000 0.749103 0.153731
O O16 0.045742 0.664660 0.104882
O O17 0.250000 0.606637 0.040237
O O18 0.438696 0.500000 0.080451
O O19 0.500000 0.613109 0.000000
O O20 0.250000 0.395198 0.667259
O O21 0.461378 0.500000 0.688384
O O22 0.250000 0.859917 0.449284
O O23 0.000000 0.861233 0.500000
O O24 0.121773 0.000000 0.468600
#
# Coordination Sequence:
#
# PCOD8210480 Si02
#       8
#     8   8   8   8   8   8   8   8
#     4   9  19  34  51  71  93 122 165 206 235 275
#     4   9  18  33  49  65  90 123 157 196 239 280
#     4   9  17  28  44  67  91 116 149 189 235 286
#     4   9  18  33  53  77 103 130 161 197 238 285
#     4  10  20  33  50  73 102 134 163 198 247 291
#     4   9  18  32  49  72 103 135 166 201 243 292
#     4   8  15  30  49  66  89 122 156 193 237 280
#     4  10  20  32  48  72  97 120 150 189 235 289
#
# _framework density 18.150521999999999
#
# number of rings (size 3 to 8) (size 9 to 14) (size 15 to 20)
#    0.000    2.875    0.000    2.625    0.000    4.500 
#    0.000    2.500    0.000    3.000    0.000    0.000 
#    0.000    0.000    0.000    0.000    0.000    0.000 
#
# Total GULP energy -793125.623232 kJ/mol
# GULP energy per Si atom -12392.587863 kJ/mol
# Density = 1.810921 g / cm^3
# Si number density = 18.150522 Si / 1000 Ang^3
#
#
#
# Elastic Constant Matrix: (Units=GPa)
#
#
# Indices 1 2 3 4 5 6 
#
# 1 92.7863 34.7810 70.4357 0.0000 0.0000 0.0000
# 2 34.7810 75.7113 51.9276 0.0000 0.0000 0.0000
# 3 70.4357 51.9276 134.7765 0.0000 0.0000 0.0000
# 4 0.0000 0.0000 0.0000 20.8724 0.0000 0.0000
# 5 0.0000 0.0000 0.0000 0.0000 33.1371 0.0000
# 6 0.0000 0.0000 0.0000 0.0000 0.0000 17.3165
#
#
#
# Elastic Compliance Matrix: (Units=1/GPa)
#
#
# Indices 1 2 3 4 5 6 
#
# 1 0.018206 -0.002498 -0.008552 0.000000 0.000000 0.000000
# 2 -0.002498 0.018295 -0.005743 0.000000 0.000000 0.000000
# 3 -0.008552 -0.005743 0.014102 0.000000 0.000000 0.000000
# 4 0.000000 0.000000 0.000000 0.047910 0.000000 0.000000
# 5 0.000000 0.000000 0.000000 0.000000 0.030178 0.000000
# 6 0.000000 0.000000 0.000000 0.000000 0.000000 0.057748
#
#
# Mechanical properties :
#
#
# Convention : Reuss Voigt Hill
#
# Bulk Modulus (GPa) = 58.76900 68.61808 63.69354
# Shear Modulus (GPa) = 22.15356 24.00720 23.08038
#
# Velocity S-wave (km/s) = 3.49742 3.64080 3.56983
# Velocity P-wave (km/s) = 6.98271 7.45393 7.22216
#
# Compressibility (1/GPa) = 0.01701577
#
# Stress axis : x y z
#
# Youngs Moduli (GPa) = 54.92712 54.66070 70.91220
#
# Poissons Ratio (x) = 0.13654 0.60645
# Poissons Ratio (y) = 0.13721 0.40726
# Poissons Ratio (z) = 0.46975 0.31393
#
# Static dielectric constant tensor:
#      x y z
#    x 3.395600 0.000000 0.000000 
#    y 0.000000 3.511900 0.000000 
#    z 0.000000 0.000000 3.231450 
# 
# 
# High freq. dielectric constant tensor:
#      x y z
#    x 1.692360 0.000000 0.000000 
#    y 0.000000 1.701180 0.000000 
#    z 0.000000 0.000000 1.688650 
# 
# From -- ./inp_files/35122.got.cif
#   From: 2010.03.12/outbox.cif.g09.slc.cpg/sg51_18_cif.got.tgz:35122.got - 2010.04.16 13:43:02.
