data_PCOD8210729
_publ_section_title
;
Structure prediction by ZEFSAII (Michael W. Deem and Ramdas Pophale) SiO2 
 PCOD8210729
Probable space group: P M M A
;
_chemical_formula_sum "Si O2"
_cell_formula_units_Z 48
_cell_length_a 9.135613
_cell_length_b 9.224362
_cell_length_c 31.279160
_cell_angle_alpha 90.000000
_cell_angle_beta 90.000000
_cell_angle_gamma 90.000000
_cell_volume 2635.901113
_symmetry_space_group_name_H-M "P M M A"
_symmetry_group_IT_number 51
_symmetry_cell_setting 'orthorhombic'
loop_
_space_group_symop_operation_xyz
x,y,z
1/2-x,-y,z
1/2+x,-y,-z
-x,y,-z
-x,-y,-z
1/2+x,y,-z
1/2-x,y,z
x,-y,z
loop_
_atom_site_type_symbol
_atom_site_label
_atom_site_fract_x
_atom_site_fract_y
_atom_site_fract_z
Si Si1 0.084625 0.827584 0.124584
Si Si2 0.421356 0.831398 0.790589
Si Si3 0.411852 0.172678 0.460176
Si Si4 0.084238 0.827097 0.958285
Si Si5 0.424069 0.838712 0.367319
Si Si6 0.080344 0.670161 0.284758
O O1 0.250000 0.766356 0.124726
O O2 0.001721 0.773988 0.166926
O O3 0.999121 0.766154 0.083387
O O4 0.086101 0.000000 0.122812
O O5 0.250000 0.803035 0.796260
O O6 0.481390 0.741556 0.751126
O O7 0.455544 0.000000 0.782617
O O8 0.500000 0.239951 0.500000
O O9 0.250000 0.238870 0.463598
O O10 0.483280 0.213930 0.413929
O O11 0.406303 0.000000 0.463363
O O12 0.250000 0.767505 0.958576
O O13 0.085110 0.000000 0.957915
O O14 0.000000 0.768646 0.000000
O O15 0.250000 0.844050 0.370745
O O16 0.475351 0.729011 0.330511
O O17 0.483543 0.000000 0.356321
O O18 0.250000 0.711580 0.276957
O O19 0.055496 0.500000 0.284022
#
# Coordination Sequence:
#
# PCOD8210729 Si02
#       6
#     8   8   8   8   8   8
#     4   9  16  26  41  61  85 115 152 193 235 278
#     4  10  20  33  49  69  93 122 156 194 238 287
#     4   8  13  22  38  61  87 114 145 183 226 268
#     4   9  15  22  33  52  82 119 155 189 228 277
#     4   8  14  26  45  67  91 120 153 189 230 275
#     4  10  20  33  50  71  93 120 156 196 238 284
#
# _framework density 18.210090000000001
#
# number of rings (size 3 to 8) (size 9 to 14) (size 15 to 20)
#    0.000    3.000    0.000    3.000    0.000    6.000 
#    0.000    0.833    0.000    3.500    0.000    0.000 
#    0.000    0.667    0.000    2.500    0.000    5.500 
#
# Total GULP energy -594990.311749 kJ/mol
# GULP energy per Si atom -12395.631495 kJ/mol
# Density = 1.816864 g / cm^3
# Si number density = 18.210090 Si / 1000 Ang^3
#
#
#
# Elastic Constant Matrix: (Units=GPa)
#
#
# Indices 1 2 3 4 5 6 
#
# 1 110.8818 27.5838 79.1752 0.0000 0.0000 0.0000
# 2 27.5838 33.9849 38.6500 0.0000 0.0000 0.0000
# 3 79.1752 38.6500 189.3119 0.0000 0.0000 0.0000
# 4 0.0000 0.0000 0.0000 -1.1924 0.0000 0.0000
# 5 0.0000 0.0000 0.0000 0.0000 35.8159 0.0000
# 6 0.0000 0.0000 0.0000 0.0000 0.0000 12.1616
#
#
#
# Elastic Compliance Matrix: (Units=1/GPa)
#
#
# Indices 1 2 3 4 5 6 
#
# 1 0.013742 -0.006014 -0.004519 0.000000 0.000000 0.000000
# 2 -0.006014 0.040955 -0.005846 0.000000 0.000000 0.000000
# 3 -0.004519 -0.005846 0.008366 0.000000 0.000000 0.000000
# 4 0.000000 0.000000 0.000000 -0.838659 0.000000 0.000000
# 5 0.000000 0.000000 0.000000 0.000000 0.027921 0.000000
# 6 0.000000 0.000000 0.000000 0.000000 0.000000 0.082226
#
#
# Mechanical properties :
#
#
# Convention : Reuss Voigt Hill
#
# Bulk Modulus (GPa) = 32.99930 69.44407 51.22168
# Shear Modulus (GPa) = -8.03097 21.94167 6.95535
#
# Velocity S-wave (km/s) = -2.10232 3.47496 1.95648
# Velocity P-wave (km/s) = 3.50254 7.37009 5.77001
#
# Compressibility (1/GPa) = 0.03030367
#
# Stress axis : x y z
#
# Youngs Moduli (GPa) = 72.77132 24.41730 119.53177
#
# Poissons Ratio (x) = 0.14684 0.54021
# Poissons Ratio (y) = 0.43762 0.69881
# Poissons Ratio (z) = 0.32888 0.14275
#
# Static dielectric constant tensor:
#      x y z
#    x 3.364550 0.000000 0.000000 
#    y 0.000000 2.785210 0.000000 
#    z 0.000000 0.000000 3.743440 
# 
# 
# High freq. dielectric constant tensor:
#      x y z
#    x 1.693400 0.000000 0.000000 
#    y 0.000000 1.638540 0.000000 
#    z 0.000000 0.000000 1.728730 
# 
# From -- ./inp_files/37063.got.cif
#   From: 2010.03.12/outbox.cif.g09.slc.cpg/sg51_19_cif.got.tgz:37063.got - 2010.04.16 13:43:02.
