data_PCOD8210424
_publ_section_title
;
Structure prediction by ZEFSAII (Michael W. Deem and Ramdas Pophale) SiO2 
 PCOD8210424
Probable space group: P M M A
;
_chemical_formula_sum "Si O2"
_cell_formula_units_Z 48
_cell_length_a 18.095456
_cell_length_b 16.208119
_cell_length_c 9.118619
_cell_angle_alpha 90.000000
_cell_angle_beta 90.000000
_cell_angle_gamma 90.000000
_cell_volume 2674.429896
_symmetry_space_group_name_H-M "P M M A"
_symmetry_group_IT_number 51
_symmetry_cell_setting 'orthorhombic'
loop_
_space_group_symop_operation_xyz
x,y,z
1/2-x,-y,z
1/2+x,-y,-z
-x,y,-z
-x,-y,-z
1/2+x,y,-z
1/2-x,y,z
x,-y,z
loop_
_atom_site_type_symbol
_atom_site_label
_atom_site_fract_x
_atom_site_fract_y
_atom_site_fract_z
Si Si1 0.915707 0.228330 0.472846
Si Si2 0.893255 0.719399 0.789151
Si Si3 0.332379 0.592888 0.003731
Si Si4 0.165676 0.093609 0.717730
Si Si5 0.942003 0.680168 0.201570
Si Si6 0.920124 0.844592 0.024487
O O1 0.875642 0.258210 0.621354
O O2 0.874754 0.150653 0.401114
O O3 0.915201 0.309597 0.369264
O O4 0.000000 0.199619 0.500000
O O5 0.889752 0.808768 0.870618
O O6 0.969900 0.667510 0.808022
O O7 0.834840 0.656178 0.859190
O O8 0.250000 0.601655 0.935059
O O9 0.345499 0.500000 0.060769
O O10 0.394181 0.610421 0.879250
O O11 0.250000 0.123060 0.726840
O O12 0.158842 0.000000 0.661049
O O13 0.133939 0.095573 0.885218
O O14 0.928399 0.767081 0.128630
O O15 0.000000 0.888156 0.000000
#
# Coordination Sequence:
#
# PCOD8210424 Si02
#       6
#     8   8   8   8   8   8
#     4   9  18  34  54  75  99 128 166 207 247 298
#     4   9  17  31  52  75  95 121 161 206 247 287
#     4  10  20  32  47  71 101 130 162 200 243 293
#     4  10  21  35  50  72 103 136 168 203 247 300
#     4   8  16  31  51  71  93 125 163 198 236 289
#     4   8  15  30  51  73  95 124 165 206 243 290
#
# _framework density 17.947749999999999
#
# number of rings (size 3 to 8) (size 9 to 14) (size 15 to 20)
#    0.000    3.000    0.000    2.500    0.000    8.667 
#    0.000    1.667    0.000    7.000    0.000    0.000 
#    0.000    0.000    0.000    0.000    0.000    0.000 
#
# Total GULP energy -594683.585148 kJ/mol
# GULP energy per Si atom -12389.241357 kJ/mol
# Density = 1.790690 g / cm^3
# Si number density = 17.947750 Si / 1000 Ang^3
#
#
#
# Elastic Constant Matrix: (Units=GPa)
#
#
# Indices 1 2 3 4 5 6 
#
# 1 81.3834 35.0539 32.5121 0.0000 0.0000 0.0000
# 2 35.0539 65.9575 30.3000 0.0000 0.0000 0.0000
# 3 32.5121 30.3000 118.0811 0.0000 0.0000 0.0000
# 4 0.0000 0.0000 0.0000 13.0966 0.0000 0.0000
# 5 0.0000 0.0000 0.0000 0.0000 22.4495 0.0000
# 6 0.0000 0.0000 0.0000 0.0000 0.0000 45.9394
#
#
#
# Elastic Compliance Matrix: (Units=1/GPa)
#
#
# Indices 1 2 3 4 5 6 
#
# 1 0.016620 -0.007630 -0.002618 0.000000 0.000000 0.000000
# 2 -0.007630 0.020690 -0.003208 0.000000 0.000000 0.000000
# 3 -0.002618 -0.003208 0.010013 0.000000 0.000000 0.000000
# 4 0.000000 0.000000 0.000000 0.076356 0.000000 0.000000
# 5 0.000000 0.000000 0.000000 0.000000 0.044544 0.000000
# 6 0.000000 0.000000 0.000000 0.000000 0.000000 0.021768
#
#
# Mechanical properties :
#
#
# Convention : Reuss Voigt Hill
#
# Bulk Modulus (GPa) = 48.99593 51.23933 50.11763
# Shear Modulus (GPa) = 22.35064 27.46752 24.90908
#
# Velocity S-wave (km/s) = 3.53273 3.91630 3.72945
# Velocity P-wave (km/s) = 6.63315 7.00435 6.82128
#
# Compressibility (1/GPa) = 0.02040986
#
# Stress axis : x y z
#
# Youngs Moduli (GPa) = 60.16866 48.33195 99.87115
#
# Poissons Ratio (x) = 0.36878 0.26148
# Poissons Ratio (y) = 0.45909 0.32042
# Poissons Ratio (z) = 0.15753 0.15506
#
# Static dielectric constant tensor:
#      x y z
#    x 3.472360 0.000000 0.000000 
#    y 0.000000 3.077280 0.000000 
#    z 0.000000 0.000000 3.852120 
# 
# 
# High freq. dielectric constant tensor:
#      x y z
#    x 1.692160 0.000000 0.000000 
#    y 0.000000 1.664310 0.000000 
#    z 0.000000 0.000000 1.693160 
# 
# From -- ./inp_files/9807.got.cif
#   From: 2010.03.12/outbox.cif.g09.slc.cpg/sg51_5_cif.got.tgz:9807.got - 2010.04.16 13:43:02.
