data_PCOD8210591
_publ_section_title
;
Structure prediction by ZEFSAII (Michael W. Deem and Ramdas Pophale) SiO2 
 PCOD8210591
Probable space group: P M M A
;
_chemical_formula_sum "Si O2"
_cell_formula_units_Z 64
_cell_length_a 29.447404
_cell_length_b 9.011830
_cell_length_c 12.936244
_cell_angle_alpha 90.000000
_cell_angle_beta 90.000000
_cell_angle_gamma 90.000000
_cell_volume 3432.955736
_symmetry_space_group_name_H-M "P M M A"
_symmetry_group_IT_number 51
_symmetry_cell_setting 'orthorhombic'
loop_
_space_group_symop_operation_xyz
x,y,z
1/2-x,-y,z
1/2+x,-y,-z
-x,y,-z
-x,-y,-z
1/2+x,y,-z
1/2-x,y,z
x,-y,z
loop_
_atom_site_type_symbol
_atom_site_label
_atom_site_fract_x
_atom_site_fract_y
_atom_site_fract_z
Si Si1 0.037148 0.337277 0.913348
Si Si2 0.196720 0.829790 0.077115
Si Si3 0.522031 0.169058 0.279360
Si Si4 0.803380 0.170348 0.688727
Si Si5 0.138609 0.330018 0.905859
Si Si6 0.362079 0.323669 0.482630
Si Si7 0.461669 0.324990 0.423671
Si Si8 0.124216 0.824338 0.689827
O O1 0.035442 0.500000 0.857198
O O2 0.025603 0.198985 0.841588
O O3 0.088293 0.314179 0.954867
O O4 0.000000 0.333847 0.000000
O O5 0.250000 0.807273 0.062441
O O6 0.182794 0.782883 0.194225
O O7 0.182988 0.000000 0.058732
O O8 0.172393 0.730718 0.992017
O O9 0.479117 0.267317 0.313805
O O10 0.570893 0.215037 0.327505
O O11 0.510516 0.000000 0.302118
O O12 0.750000 0.190384 0.673645
O O13 0.827459 0.276152 0.606320
O O14 0.817491 0.000000 0.668512
O O15 0.151392 0.500000 0.883143
O O16 0.142852 0.242899 0.797044
O O17 0.360432 0.500000 0.496193
O O18 0.411798 0.264930 0.448781
O O19 0.349348 0.247970 0.592450
O O20 0.500000 0.258241 0.500000
O O21 0.461389 0.500000 0.426050
O O22 0.132513 0.000000 0.692669
#
# Coordination Sequence:
#
# PCOD8210591 Si02
#       8
#     8   8   8   8   8   8   8   8
#     4   9  19  35  52  71 103 146 182 214 262 324
#     4   9  19  38  62  84 109 143 180 220 273 334
#     4  10  20  32  50  75 103 138 181 228 268 307
#     4   9  20  40  62  83 111 147 182 221 277 337
#     4  10  20  34  56  83 110 141 181 228 273 320
#     4  11  22  35  56  84 112 146 189 233 277 326
#     4  10  20  34  51  73 107 147 182 218 265 321
#     4  10  20  35  54  77 109 148 185 222 271 328
#
# _framework density 18.642828000000002
#
# number of rings (size 3 to 8) (size 9 to 14) (size 15 to 20)
#    0.000    2.250    1.250    2.250    0.000    5.000 
#    0.000    5.625    0.000    3.750    0.000    0.000 
#    0.000    0.000    0.000    0.000    0.000    0.000 
#
# Total GULP energy -793311.794040 kJ/mol
# GULP energy per Si atom -12395.496782 kJ/mol
# Density = 1.860040 g / cm^3
# Si number density = 18.642828 Si / 1000 Ang^3
#
#
#
# Elastic Constant Matrix: (Units=GPa)
#
#
# Indices 1 2 3 4 5 6 
#
# 1 61.3357 35.9426 52.4121 0.0000 0.0000 0.0000
# 2 35.9426 73.9951 56.8793 0.0000 0.0000 0.0000
# 3 52.4121 56.8793 119.4040 0.0000 0.0000 0.0000
# 4 0.0000 0.0000 0.0000 35.6540 0.0000 0.0000
# 5 0.0000 0.0000 0.0000 0.0000 31.5311 0.0000
# 6 0.0000 0.0000 0.0000 0.0000 0.0000 26.5601
#
#
#
# Elastic Compliance Matrix: (Units=1/GPa)
#
#
# Indices 1 2 3 4 5 6 
#
# 1 0.027963 -0.006544 -0.009157 0.000000 0.000000 0.000000
# 2 -0.006544 0.022853 -0.008014 0.000000 0.000000 0.000000
# 3 -0.009157 -0.008014 0.016212 0.000000 0.000000 0.000000
# 4 0.000000 0.000000 0.000000 0.028047 0.000000 0.000000
# 5 0.000000 0.000000 0.000000 0.000000 0.031715 0.000000
# 6 0.000000 0.000000 0.000000 0.000000 0.000000 0.037650
#
#
# Mechanical properties :
#
#
# Convention : Reuss Voigt Hill
#
# Bulk Modulus (GPa) = 51.02433 60.57809 55.80121
# Shear Modulus (GPa) = 22.89333 26.04910 24.47121
#
# Velocity S-wave (km/s) = 3.50808 3.74207 3.62696
# Velocity P-wave (km/s) = 6.62100 7.15789 6.89467
#
# Compressibility (1/GPa) = 0.01959850
#
# Stress axis : x y z
#
# Youngs Moduli (GPa) = 35.76104 43.75726 61.68281
#
# Poissons Ratio (x) = 0.28635 0.56484
# Poissons Ratio (y) = 0.23402 0.49432
# Poissons Ratio (z) = 0.32747 0.35067
#
# Static dielectric constant tensor:
#      x y z
#    x 3.325190 0.000000 0.000000 
#    y 0.000000 3.486350 0.000000 
#    z 0.000000 0.000000 3.409800 
# 
# 
# High freq. dielectric constant tensor:
#      x y z
#    x 1.708710 0.000000 0.000000 
#    y 0.000000 1.727190 0.000000 
#    z 0.000000 0.000000 1.723240 
# 
# From -- ./inp_files/19562.got.cif
#   From: 2010.03.12/outbox.cif.g09.slc.cpg/sg51_10_cif.got.tgz:19562.got - 2010.04.16 13:43:02.
