data_PCOD8210936
_publ_section_title
;
Structure prediction by ZEFSAII (Michael W. Deem and Ramdas Pophale) SiO2 
 PCOD8210936
Probable space group: P M M A
;
_chemical_formula_sum "Si O2"
_cell_formula_units_Z 64
_cell_length_a 18.293416
_cell_length_b 9.421139
_cell_length_c 21.122463
_cell_angle_alpha 90.000000
_cell_angle_beta 90.000000
_cell_angle_gamma 90.000000
_cell_volume 3640.346976
_symmetry_space_group_name_H-M "P M M A"
_symmetry_group_IT_number 51
_symmetry_cell_setting 'orthorhombic'
loop_
_space_group_symop_operation_xyz
x,y,z
1/2-x,-y,z
1/2+x,-y,-z
-x,y,-z
-x,-y,-z
1/2+x,y,-z
1/2-x,y,z
x,-y,z
loop_
_atom_site_type_symbol
_atom_site_label
_atom_site_fract_x
_atom_site_fract_y
_atom_site_fract_z
Si Si1 0.834390 0.334403 0.253599
Si Si2 0.665332 0.663888 0.876657
Si Si3 0.333281 0.335055 0.379998
Si Si4 0.837200 0.159610 0.996120
Si Si5 0.540424 0.165283 0.308217
Si Si6 0.413904 0.664379 0.252002
Si Si7 0.459355 0.164334 0.437341
Si Si8 0.663308 0.342965 0.111218
O O1 0.750000 0.298201 0.265773
O O2 0.849598 0.500000 0.266160
O O3 0.880651 0.238238 0.301574
O O4 0.857688 0.293404 0.181877
O O5 0.750000 0.696035 0.864144
O O6 0.653064 0.500000 0.894155
O O7 0.634394 0.756712 0.934546
O O8 0.622792 0.708059 0.813719
O O9 0.250000 0.283952 0.388740
O O10 0.341633 0.500000 0.396156
O O11 0.356315 0.303908 0.307778
O O12 0.384123 0.249596 0.428643
O O13 0.750000 0.161355 0.997652
O O14 0.867788 0.000000 0.993858
O O15 0.868784 0.234235 0.059421
O O16 0.485246 0.239338 0.259303
O O17 0.514081 0.191951 0.379473
O O18 0.545772 0.000000 0.291699
O O19 0.437732 0.500000 0.252649
O O20 0.500000 0.219737 0.500000
O O21 0.438102 0.000000 0.443474
O O22 0.750000 0.351120 0.105729
O O23 0.630982 0.500000 0.097864
#
# Coordination Sequence:
#
# PCOD8210936 Si02
#       8
#     8   8   8   8   8   8   8   8
#     4   9  18  33  53  75  97 122 154 194 240 289
#     4   9  16  26  42  64  90 123 162 198 233 278
#     4   9  17  30  50  77 104 127 160 207 249 283
#     4   9  16  24  36  59  91 123 154 192 238 281
#     4  10  20  33  51  74  97 123 156 194 236 281
#     4   9  17  30  48  68  94 129 162 194 236 285
#     4   9  19  36  54  72  99 136 172 199 229 280
#     4   8  14  26  44  64  86 115 152 191 231 280
#
# _framework density 17.580741
#
# number of rings (size 3 to 8) (size 9 to 14) (size 15 to 20)
#    0.000    3.000    0.000    1.875    0.000    5.250 
#    0.000    1.875    0.000    6.750    0.000    5.250 
#    0.000    0.000    0.000    0.000    0.000    0.000 
#
# Total GULP energy -793568.109058 kJ/mol
# GULP energy per Si atom -12399.501704 kJ/mol
# Density = 1.754073 g / cm^3
# Si number density = 17.580741 Si / 1000 Ang^3
#
#
#
# Elastic Constant Matrix: (Units=GPa)
#
#
# Indices 1 2 3 4 5 6 
#
# 1 92.0469 56.4537 50.6798 0.0000 0.0000 0.0000
# 2 56.4537 91.4874 52.3085 0.0000 0.0000 0.0000
# 3 50.6798 52.3085 85.1531 0.0000 0.0000 0.0000
# 4 0.0000 0.0000 0.0000 27.7497 0.0000 0.0000
# 5 0.0000 0.0000 0.0000 0.0000 21.8090 0.0000
# 6 0.0000 0.0000 0.0000 0.0000 0.0000 24.2317
#
#
#
# Elastic Compliance Matrix: (Units=1/GPa)
#
#
# Indices 1 2 3 4 5 6 
#
# 1 0.019576 -0.008352 -0.006521 0.000000 0.000000 0.000000
# 2 -0.008352 0.020411 -0.007567 0.000000 0.000000 0.000000
# 3 -0.006521 -0.007567 0.020273 0.000000 0.000000 0.000000
# 4 0.000000 0.000000 0.000000 0.036036 0.000000 0.000000
# 5 0.000000 0.000000 0.000000 0.000000 0.045853 0.000000
# 6 0.000000 0.000000 0.000000 0.000000 0.000000 0.041268
#
#
# Mechanical properties :
#
#
# Convention : Reuss Voigt Hill
#
# Bulk Modulus (GPa) = 65.01787 65.28571 65.15179
# Shear Modulus (GPa) = 21.42020 22.04110 21.73065
#
# Velocity S-wave (km/s) = 3.49433 3.54461 3.51956
# Velocity P-wave (km/s) = 7.30364 7.34628 7.32499
#
# Compressibility (1/GPa) = 0.01538039
#
# Stress axis : x y z
#
# Youngs Moduli (GPa) = 51.08166 48.99389 49.32629
#
# Poissons Ratio (x) = 0.40918 0.32165
# Poissons Ratio (y) = 0.42661 0.37328
# Poissons Ratio (z) = 0.33310 0.37076
#
# Static dielectric constant tensor:
#      x y z
#    x 3.009460 0.000000 0.000000 
#    y 0.000000 3.325050 0.000000 
#    z 0.000000 0.000000 3.286100 
# 
# 
# High freq. dielectric constant tensor:
#      x y z
#    x 1.652430 0.000000 0.000000 
#    y 0.000000 1.678500 0.000000 
#    z 0.000000 0.000000 1.675020 
# 
# From -- ./inp_files/33798.got.cif
#   From: 2010.03.12/outbox.cif.g09.slc.cpg/sg51_17_cif.got.tgz:33798.got - 2010.04.16 13:43:02.
