data_PCOD8210262
_publ_section_title
;
Structure prediction by ZEFSAII (Michael W. Deem and Ramdas Pophale) SiO2 
 PCOD8210262
Probable space group: P M M A
;
_chemical_formula_sum "Si O2"
_cell_formula_units_Z 64
_cell_length_a 9.085619
_cell_length_b 15.316299
_cell_length_c 25.868553
_cell_angle_alpha 90.000000
_cell_angle_beta 90.000000
_cell_angle_gamma 90.000000
_cell_volume 3599.817578
_symmetry_space_group_name_H-M "P M M A"
_symmetry_group_IT_number 51
_symmetry_cell_setting 'orthorhombic'
loop_
_space_group_symop_operation_xyz
x,y,z
1/2-x,-y,z
1/2+x,-y,-z
-x,y,-z
-x,-y,-z
1/2+x,y,-z
1/2-x,y,z
x,-y,z
loop_
_atom_site_type_symbol
_atom_site_label
_atom_site_fract_x
_atom_site_fract_y
_atom_site_fract_z
Si Si1 0.917241 0.177365 0.350454
Si Si2 0.911876 0.377294 0.361252
Si Si3 0.083106 0.595130 0.260108
Si Si4 0.422298 0.897829 0.846074
Si Si5 0.577178 0.210226 0.757088
Si Si6 0.094681 0.403599 0.457058
Si Si7 0.583913 0.103659 0.949942
Si Si8 0.916733 0.897057 0.551218
O O1 0.750000 0.141124 0.341427
O O2 0.908952 0.274944 0.370365
O O3 0.008306 0.177245 0.296926
O O4 0.998529 0.124023 0.395404
O O5 0.750000 0.416865 0.367542
O O6 0.970066 0.407692 0.306472
O O7 0.016532 0.417799 0.403275
O O8 0.250000 0.601756 0.281128
O O9 0.064219 0.500000 0.230146
O O10 0.050224 0.685984 0.229693
O O11 0.250000 0.876499 0.848077
O O12 0.498234 0.843944 0.801168
O O13 0.494592 0.866500 0.899580
O O14 0.450920 0.000000 0.836239
O O15 0.750000 0.188507 0.756169
O O16 0.250000 0.353494 0.449523
O O17 0.126267 0.500000 0.479503
O O18 0.000000 0.350794 0.500000
O O19 0.750000 0.141405 0.947855
O O20 0.589243 0.000000 0.953498
O O21 0.500000 0.141996 0.000000
O O22 0.750000 0.858801 0.553088
O O23 0.000000 0.859661 0.500000
O O24 0.909465 0.000000 0.546628
#
# Coordination Sequence:
#
# PCOD8210262 Si02
#       8
#     8   8   8   8   8   8   8   8
#     4  10  21  36  52  70  93 120 149 185 232 285
#     4  10  20  32  47  68  90 112 141 176 217 270
#     4   9  18  33  52  72  94 122 156 196 245 297
#     4  10  20  33  49  71 103 143 181 216 255 296
#     4  10  20  34  52  74 101 132 168 210 252 300
#     4  10  20  32  45  61  82 108 136 166 203 251
#     4   9  16  27  45  70 101 138 180 221 257 295
#     4  10  21  37  56  75  92 113 146 189 237 290
#
# _framework density 17.778679
#
# number of rings (size 3 to 8) (size 9 to 14) (size 15 to 20)
#    0.000    2.250    0.000    3.000    0.000    8.500 
#    0.000    0.000    0.000    0.000    0.000    0.000 
#    0.000    0.500    0.000    1.375    0.000    2.000 
#
# Total GULP energy -792888.256357 kJ/mol
# GULP energy per Si atom -12388.879006 kJ/mol
# Density = 1.773821 g / cm^3
# Si number density = 17.778679 Si / 1000 Ang^3
#
#
#
# Elastic Constant Matrix: (Units=GPa)
#
#
# Indices 1 2 3 4 5 6 
#
# 1 167.0866 36.6613 72.0431 0.0000 0.0000 0.0000
# 2 36.6613 50.1383 37.6995 0.0000 0.0000 0.0000
# 3 72.0431 37.6995 118.5336 0.0000 0.0000 0.0000
# 4 0.0000 0.0000 0.0000 10.6948 0.0000 0.0000
# 5 0.0000 0.0000 0.0000 0.0000 34.9628 0.0000
# 6 0.0000 0.0000 0.0000 0.0000 0.0000 16.5210
#
#
#
# Elastic Compliance Matrix: (Units=1/GPa)
#
#
# Indices 1 2 3 4 5 6 
#
# 1 0.008450 -0.003045 -0.004167 0.000000 0.000000 0.000000
# 2 -0.003045 0.027311 -0.006835 0.000000 0.000000 0.000000
# 3 -0.004167 -0.006835 0.013143 0.000000 0.000000 0.000000
# 4 0.000000 0.000000 0.000000 0.093504 0.000000 0.000000
# 5 0.000000 0.000000 0.000000 0.000000 0.028602 0.000000
# 6 0.000000 0.000000 0.000000 0.000000 0.000000 0.060529
#
#
# Mechanical properties :
#
#
# Convention : Reuss Voigt Hill
#
# Bulk Modulus (GPa) = 48.05725 69.84071 58.94898
# Shear Modulus (GPa) = 18.75676 25.05936 21.90806
#
# Velocity S-wave (km/s) = 3.25162 3.75843 3.51417
# Velocity P-wave (km/s) = 6.41770 7.62909 7.04947
#
# Compressibility (1/GPa) = 0.02080851
#
# Stress axis : x y z
#
# Youngs Moduli (GPa) = 118.34516 36.61504 76.08501
#
# Poissons Ratio (x) = 0.11150 0.31706
# Poissons Ratio (y) = 0.36039 0.52008
# Poissons Ratio (z) = 0.49317 0.25028
#
# Static dielectric constant tensor:
#      x y z
#    x 3.834980 0.000000 0.000000 
#    y 0.000000 3.327870 0.000000 
#    z 0.000000 0.000000 3.111310 
# 
# 
# High freq. dielectric constant tensor:
#      x y z
#    x 1.715290 0.000000 0.000000 
#    y 0.000000 1.666610 0.000000 
#    z 0.000000 0.000000 1.658050 
# 
# From -- ./inp_files/34921.got.cif
#   From: 2010.03.12/outbox.cif.g09.slc.cpg/sg51_18_cif.got.tgz:34921.got - 2010.04.16 13:43:02.
