data_PCOD8210332
_publ_section_title
;
Structure prediction by ZEFSAII (Michael W. Deem and Ramdas Pophale) SiO2 
 PCOD8210332
Probable space group: P M M A
;
_chemical_formula_sum "Si O2"
_cell_formula_units_Z 48
_cell_length_a 19.962343
_cell_length_b 9.162628
_cell_length_c 14.214948
_cell_angle_alpha 90.000000
_cell_angle_beta 90.000000
_cell_angle_gamma 90.000000
_cell_volume 2600.020927
_symmetry_space_group_name_H-M "P M M A"
_symmetry_group_IT_number 51
_symmetry_cell_setting 'orthorhombic'
loop_
_space_group_symop_operation_xyz
x,y,z
1/2-x,-y,z
1/2+x,-y,-z
-x,y,-z
-x,-y,-z
1/2+x,y,-z
1/2-x,y,z
x,-y,z
loop_
_atom_site_type_symbol
_atom_site_label
_atom_site_fract_x
_atom_site_fract_y
_atom_site_fract_z
Si Si1 0.932949 0.327452 0.541039
Si Si2 0.378277 0.663200 0.646483
Si Si3 0.474335 0.664691 0.266428
Si Si4 0.328418 0.328893 0.988425
Si Si5 0.553562 0.827756 0.920269
Si Si6 0.326808 0.841190 0.808351
O O1 0.943661 0.500000 0.542720
O O2 0.874763 0.289970 0.464700
O O3 0.921928 0.281373 0.650829
O O4 0.000000 0.252312 0.500000
O O5 0.348936 0.500000 0.658471
O O6 0.453406 0.667898 0.685441
O O7 0.333673 0.775310 0.704655
O O8 0.457149 0.500000 0.231720
O O9 0.473808 0.776202 0.180346
O O10 0.250000 0.295329 0.008399
O O11 0.342441 0.500000 0.989799
O O12 0.354398 0.268539 0.887623
O O13 0.374474 0.249915 0.065566
O O14 0.565035 0.000000 0.919552
O O15 0.500000 0.781673 0.000000
O O16 0.250000 0.866165 0.829704
O O17 0.363267 0.000000 0.815439
#
# Coordination Sequence:
#
# PCOD8210332 Si02
#       6
#     8   8   8   8   8   8
#     4   7  12  25  45  69  94 120 152 191 236 283
#     4   9  16  28  49  73  96 124 158 197 240 284
#     4   9  17  30  49  72  98 127 160 200 243 285
#     4  10  21  37  56  75  95 126 170 212 249 295
#     4  11  23  35  49  74 107 137 165 202 249 299
#     4  10  20  32  46  67  97 129 157 191 239 291
#
# _framework density 18.461390000000002
#
# number of rings (size 3 to 8) (size 9 to 14) (size 15 to 20)
#    0.000    2.667    0.000    4.500    0.000    6.667 
#    0.000    0.833    0.000    4.000    0.000    2.333 
#    0.000    0.000    0.000    0.000    0.000    0.000 
#
# Total GULP energy -594636.968399 kJ/mol
# GULP energy per Si atom -12388.270175 kJ/mol
# Density = 1.841937 g / cm^3
# Si number density = 18.461390 Si / 1000 Ang^3
#
#
#
# Elastic Constant Matrix: (Units=GPa)
#
#
# Indices 1 2 3 4 5 6 
#
# 1 34.3140 26.5471 17.5829 0.0000 0.0000 0.0000
# 2 26.5471 91.0834 39.4162 0.0000 0.0000 0.0000
# 3 17.5829 39.4162 115.5763 0.0000 0.0000 0.0000
# 4 0.0000 0.0000 0.0000 10.9713 0.0000 0.0000
# 5 0.0000 0.0000 0.0000 0.0000 24.3772 0.0000
# 6 0.0000 0.0000 0.0000 0.0000 0.0000 19.5102
#
#
#
# Elastic Compliance Matrix: (Units=1/GPa)
#
#
# Indices 1 2 3 4 5 6 
#
# 1 0.038169 -0.010103 -0.002361 0.000000 0.000000 0.000000
# 2 -0.010103 0.015554 -0.003768 0.000000 0.000000 0.000000
# 3 -0.002361 -0.003768 0.010296 0.000000 0.000000 0.000000
# 4 0.000000 0.000000 0.000000 0.091147 0.000000 0.000000
# 5 0.000000 0.000000 0.000000 0.000000 0.041022 0.000000
# 6 0.000000 0.000000 0.000000 0.000000 0.000000 0.051255
#
#
# Mechanical properties :
#
#
# Convention : Reuss Voigt Hill
#
# Bulk Modulus (GPa) = 31.68993 45.34068 38.51530
# Shear Modulus (GPa) = 17.21617 21.46690 19.34154
#
# Velocity S-wave (km/s) = 3.05708 3.41368 3.24029
# Velocity P-wave (km/s) = 5.44645 6.33646 5.90824
#
# Compressibility (1/GPa) = 0.03155577
#
# Stress axis : x y z
#
# Youngs Moduli (GPa) = 26.19961 64.29260 97.12134
#
# Poissons Ratio (x) = 0.64953 0.22932
# Poissons Ratio (y) = 0.26469 0.36591
# Poissons Ratio (z) = 0.06186 0.24223
#
# Static dielectric constant tensor:
#      x y z
#    x 3.123780 0.000000 0.000000 
#    y 0.000000 3.384700 0.000000 
#    z 0.000000 0.000000 3.847000 
# 
# 
# High freq. dielectric constant tensor:
#      x y z
#    x 1.676620 0.000000 0.000000 
#    y 0.000000 1.702930 0.000000 
#    z 0.000000 0.000000 1.722470 
# 
# From -- ./inp_files/18554.got.cif
#   From: 2010.03.12/outbox.cif.g09.slc.cpg/sg51_10_cif.got.tgz:18554.got - 2010.04.16 13:43:02.
