data_PCOD8210815
_publ_section_title
;
Structure prediction by ZEFSAII (Michael W. Deem and Ramdas Pophale) SiO2 
 PCOD8210815
Probable space group: P M M A
;
_chemical_formula_sum "Si O2"
_cell_formula_units_Z 48
_cell_length_a 9.048216
_cell_length_b 9.511833
_cell_length_c 30.931831
_cell_angle_alpha 90.000000
_cell_angle_beta 90.000000
_cell_angle_gamma 90.000000
_cell_volume 2662.151733
_symmetry_space_group_name_H-M "P M M A"
_symmetry_group_IT_number 51
_symmetry_cell_setting 'orthorhombic'
loop_
_space_group_symop_operation_xyz
x,y,z
1/2-x,-y,z
1/2+x,-y,-z
-x,y,-z
-x,-y,-z
1/2+x,y,-z
1/2-x,y,z
x,-y,z
loop_
_atom_site_type_symbol
_atom_site_label
_atom_site_fract_x
_atom_site_fract_y
_atom_site_fract_z
Si Si1 0.916981 0.167701 0.957561
Si Si2 0.576910 0.838701 0.543197
Si Si3 0.922802 0.836090 0.786840
Si Si4 0.916644 0.832763 0.126819
Si Si5 0.421571 0.335994 0.712553
Si Si6 0.420263 0.662843 0.375153
O O1 0.750000 0.225263 0.957685
O O2 0.000094 0.227142 0.915311
O O3 0.917460 0.000000 0.957235
O O4 0.000000 0.224977 0.000000
O O5 0.500000 0.780495 0.500000
O O6 0.750000 0.819023 0.536795
O O7 0.520191 0.750057 0.584030
O O8 0.532638 0.000000 0.551456
O O9 0.750000 0.806180 0.790859
O O10 0.999111 0.780212 0.830537
O O11 0.987897 0.751622 0.747084
O O12 0.956192 0.000000 0.779453
O O13 0.750000 0.773579 0.127493
O O14 0.916230 0.000000 0.125102
O O15 0.250000 0.296393 0.715568
O O16 0.449286 0.500000 0.721409
O O17 0.480850 0.293253 0.665519
O O18 0.250000 0.699687 0.364604
O O19 0.439439 0.500000 0.386566
#
# Coordination Sequence:
#
# PCOD8210815 Si02
#       6
#     8   8   8   8   8   8
#     4   9  15  22  33  51  78 114 155 195 237 288
#     4   9  18  32  49  70  97 127 158 193 234 280
#     4  10  20  33  50  72  97 127 163 201 243 293
#     4   9  16  26  40  59  86 119 154 195 242 289
#     4  10  21  36  53  74 100 129 162 202 247 293
#     4   9  18  33  51  70  94 125 159 195 237 284
#
# _framework density 18.030526999999999
#
# number of rings (size 3 to 8) (size 9 to 14) (size 15 to 20)
#    0.000    2.667    0.000    2.000    0.000    7.667 
#    0.000    1.667    0.000    0.000    0.000    0.000 
#    0.000    0.667    0.000    2.500    0.000    5.500 
#
# Total GULP energy -595273.553616 kJ/mol
# GULP energy per Si atom -12401.532367 kJ/mol
# Density = 1.798949 g / cm^3
# Si number density = 18.030527 Si / 1000 Ang^3
#
#
#
# Elastic Constant Matrix: (Units=GPa)
#
#
# Indices 1 2 3 4 5 6 
#
# 1 123.1211 33.3566 81.0155 0.0000 0.0000 0.0000
# 2 33.3566 33.6384 51.5406 0.0000 0.0000 0.0000
# 3 81.0155 51.5406 172.0126 0.0000 0.0000 0.0000
# 4 0.0000 0.0000 0.0000 -4.7859 0.0000 0.0000
# 5 0.0000 0.0000 0.0000 0.0000 42.4627 0.0000
# 6 0.0000 0.0000 0.0000 0.0000 0.0000 16.6917
#
#
#
# Elastic Compliance Matrix: (Units=1/GPa)
#
#
# Indices 1 2 3 4 5 6 
#
# 1 0.012433 -0.006206 -0.003996 0.000000 0.000000 0.000000
# 2 -0.006206 0.058057 -0.014473 0.000000 0.000000 0.000000
# 3 -0.003996 -0.014473 0.012032 0.000000 0.000000 0.000000
# 4 0.000000 0.000000 0.000000 -0.208948 0.000000 0.000000
# 5 0.000000 0.000000 0.000000 0.000000 0.023550 0.000000
# 6 0.000000 0.000000 0.000000 0.000000 0.000000 0.059910
#
#
# Mechanical properties :
#
#
# Convention : Reuss Voigt Hill
#
# Bulk Modulus (GPa) = 30.14561 73.39974 51.77268
# Shear Modulus (GPa) = 286.66396 21.73100 154.19748
#
# Velocity S-wave (km/s) = 12.62273 3.47541 9.25775
# Velocity P-wave (km/s) = 15.13935 7.54332 11.96038
#
# Compressibility (1/GPa) = 0.03317233
#
# Stress axis : x y z
#
# Youngs Moduli (GPa) = 80.43100 17.22444 83.10936
#
# Poissons Ratio (x) = 0.10689 0.33213
# Poissons Ratio (y) = 0.49913 1.20284
# Poissons Ratio (z) = 0.32143 0.24929
#
# Static dielectric constant tensor:
#      x y z
#    x 3.490630 0.000000 0.000000 
#    y 0.000000 2.936590 0.000000 
#    z 0.000000 0.000000 3.524120 
# 
# 
# High freq. dielectric constant tensor:
#      x y z
#    x 1.709200 0.000000 0.000000 
#    y 0.000000 1.649120 0.000000 
#    z 0.000000 0.000000 1.713670 
# 
# From -- ./inp_files/34535.got.cif
#   From: 2010.03.12/outbox.cif.g09.slc.cpg/sg51_18_cif.got.tgz:34535.got - 2010.04.16 13:43:02.
