data_PCOD8210411
_publ_section_title
;
Structure prediction by ZEFSAII (Michael W. Deem and Ramdas Pophale) SiO2 
 PCOD8210411
Probable space group: P M M A
;
_chemical_formula_sum "Si O2"
_cell_formula_units_Z 56
_cell_length_a 15.180330
_cell_length_b 9.003978
_cell_length_c 22.044113
_cell_angle_alpha 90.000000
_cell_angle_beta 90.000000
_cell_angle_gamma 90.000000
_cell_volume 3013.063375
_symmetry_space_group_name_H-M "P M M A"
_symmetry_group_IT_number 51
_symmetry_cell_setting 'orthorhombic'
loop_
_space_group_symop_operation_xyz
x,y,z
1/2-x,-y,z
1/2+x,-y,-z
-x,y,-z
-x,-y,-z
1/2+x,y,-z
1/2-x,y,z
x,-y,z
loop_
_atom_site_type_symbol
_atom_site_label
_atom_site_fract_x
_atom_site_fract_y
_atom_site_fract_z
Si Si1 0.649735 0.172504 0.443346
Si Si2 0.851454 0.673965 0.567850
Si Si3 0.996362 0.824690 0.646615
Si Si4 0.848561 0.178075 0.127493
Si Si5 0.854137 0.838357 0.997302
Si Si6 0.848291 0.822073 0.867002
Si Si7 0.996818 0.823260 0.216668
O O1 0.750000 0.209205 0.423472
O O2 0.621290 0.264011 0.502279
O O3 0.585149 0.219650 0.389056
O O4 0.639066 0.000000 0.459643
O O5 0.750000 0.713128 0.582119
O O6 0.868779 0.500000 0.567672
O O7 0.910487 0.748832 0.618979
O O8 0.007353 0.763463 0.714834
O O9 0.980790 0.000000 0.645339
O O10 0.750000 0.233453 0.143275
O O11 0.913076 0.239140 0.179568
O O12 0.850469 0.000000 0.124164
O O13 0.880259 0.241863 0.061057
O O14 0.750000 0.858871 0.998054
O O15 0.878985 0.757432 0.933486
O O16 0.899912 0.000000 0.996921
O O17 0.750000 0.766043 0.850320
O O18 0.914256 0.763766 0.815327
O O19 0.849262 0.000000 0.871109
O O20 0.995021 0.000000 0.216606
#
# Coordination Sequence:
#
# PCOD8210411 Si02
#       7
#     8   8   8   8   8   8   8
#     4   9  18  33  52  73  97 124 153 187 229 274
#     4  10  21  36  54  75  95 117 150 191 233 275
#     4  10  20  32  47  70  99 128 157 188 225 273
#     4   8  13  21  32  47  71 104 143 186 225 261
#     4   7  10  17  29  44  63  94 138 183 224 261
#     4   8  13  21  31  44  67 100 140 184 222 258
#     4   9  17  25  34  53  79 111 149 179 211 261
#
# _framework density 18.585735
#
# number of rings (size 3 to 8) (size 9 to 14) (size 15 to 20)
#    0.000    3.286    0.000    2.571    0.000    4.857 
#    0.000    7.143    0.000    0.000    0.000    0.000 
#    0.000    0.000    0.000    2.571    0.000   13.429 
#
# Total GULP energy -693843.580184 kJ/mol
# GULP energy per Si atom -12390.063932 kJ/mol
# Density = 1.854343 g / cm^3
# Si number density = 18.585735 Si / 1000 Ang^3
#
#
#
# Elastic Constant Matrix: (Units=GPa)
#
#
# Indices 1 2 3 4 5 6 
#
# 1 115.2156 18.1786 89.3251 0.0000 0.0000 0.0000
# 2 18.1786 17.6471 23.3577 0.0000 0.0000 0.0000
# 3 89.3251 23.3577 182.3288 0.0000 0.0000 0.0000
# 4 0.0000 0.0000 0.0000 -1.3512 0.0000 0.0000
# 5 0.0000 0.0000 0.0000 0.0000 32.3567 0.0000
# 6 0.0000 0.0000 0.0000 0.0000 0.0000 11.9217
#
#
#
# Elastic Compliance Matrix: (Units=1/GPa)
#
#
# Indices 1 2 3 4 5 6 
#
# 1 0.014629 -0.006723 -0.006305 0.000000 0.000000 0.000000
# 2 -0.006723 0.071327 -0.005844 0.000000 0.000000 0.000000
# 3 -0.006305 -0.005844 0.009322 0.000000 0.000000 0.000000
# 4 0.000000 0.000000 0.000000 -0.740061 0.000000 0.000000
# 5 0.000000 0.000000 0.000000 0.000000 0.030906 0.000000
# 6 0.000000 0.000000 0.000000 0.000000 0.000000 0.083881
#
#
# Mechanical properties :
#
#
# Convention : Reuss Voigt Hill
#
# Bulk Modulus (GPa) = 17.38130 64.10160 40.74145
# Shear Modulus (GPa) = -10.56918 20.87408 5.15245
#
# Velocity S-wave (km/s) = -2.38727 3.35494 1.66682
# Velocity P-wave (km/s) = 1.33173 7.04074 5.06683
#
# Compressibility (1/GPa) = 0.05753309
#
# Stress axis : x y z
#
# Youngs Moduli (GPa) = 68.35848 14.01991 107.26901
#
# Poissons Ratio (x) = 0.09426 0.67638
# Poissons Ratio (y) = 0.45960 0.62685
# Poissons Ratio (z) = 0.43103 0.08193
#
# Static dielectric constant tensor:
#      x y z
#    x 3.536860 0.000000 0.000000 
#    y 0.000000 2.710870 0.000000 
#    z 0.000000 0.000000 3.758520 
# 
# 
# High freq. dielectric constant tensor:
#      x y z
#    x 1.726960 0.000000 0.000000 
#    y 0.000000 1.640120 0.000000 
#    z 0.000000 0.000000 1.730620 
# 
# From -- ./inp_files/33452.got.cif
#   From: 2010.03.12/outbox.cif.g09.slc.cpg/sg51_17_cif.got.tgz:33452.got - 2010.04.16 13:43:02.
