data_PCOD8210528
_publ_section_title
;
Structure prediction by ZEFSAII (Michael W. Deem and Ramdas Pophale) SiO2 
 PCOD8210528
Probable space group: P M M A
;
_chemical_formula_sum "Si O2"
_cell_formula_units_Z 64
_cell_length_a 9.242388
_cell_length_b 19.139681
_cell_length_c 19.711690
_cell_angle_alpha 90.000000
_cell_angle_beta 90.000000
_cell_angle_gamma 90.000000
_cell_volume 3486.926171
_symmetry_space_group_name_H-M "P M M A"
_symmetry_group_IT_number 51
_symmetry_cell_setting 'orthorhombic'
loop_
_space_group_symop_operation_xyz
x,y,z
1/2-x,-y,z
1/2+x,-y,-z
-x,y,-z
-x,-y,-z
1/2+x,y,-z
1/2-x,y,z
x,-y,z
loop_
_atom_site_type_symbol
_atom_site_label
_atom_site_fract_x
_atom_site_fract_y
_atom_site_fract_z
Si Si1 0.418615 0.579413 0.797640
Si Si2 0.410479 0.401481 0.062373
Si Si3 0.413002 0.193959 0.818943
Si Si4 0.579662 0.774250 0.432697
Si Si5 0.911643 0.921605 0.760700
Si Si6 0.908700 0.241220 0.939819
Si Si7 0.913018 0.300170 0.299353
Si Si8 0.914984 0.077575 0.375660
O O1 0.250000 0.598512 0.811980
O O2 0.433882 0.500000 0.770569
O O3 0.505567 0.587294 0.867257
O O4 0.483286 0.632653 0.739730
O O5 0.250000 0.435771 0.068162
O O6 0.387565 0.321560 0.043061
O O7 0.500000 0.436507 0.000000
O O8 0.250000 0.184454 0.845112
O O9 0.488738 0.119161 0.813703
O O10 0.501715 0.240173 0.871033
O O11 0.419298 0.231605 0.746876
O O12 0.500000 0.747874 0.500000
O O13 0.750000 0.762297 0.440361
O O14 0.517019 0.725886 0.370657
O O15 0.546897 0.857442 0.424415
O O16 0.750000 0.889548 0.758498
O O17 0.976311 0.917780 0.686189
O O18 0.907349 0.000000 0.788035
O O19 0.750000 0.205345 0.933136
O O20 0.000000 0.203974 0.000000
O O21 0.750000 0.322406 0.315181
O O22 0.750000 0.086159 0.348986
O O23 0.932793 0.000000 0.410565
#
# Coordination Sequence:
#
# PCOD8210528 Si02
#       8
#     8   8   8   8   8   8   8   8
#     4  10  20  35  56  79 104 138 178 221 268 316
#     4  10  20  33  51  76 110 147 179 214 255 308
#     4  11  19  32  56  78 101 138 177 223 268 312
#     4  10  20  35  52  75 104 138 173 215 263 312
#     4  10  20  32  48  75 109 139 173 219 263 309
#     4  10  20  33  50  77 108 140 177 219 265 315
#     4   9  18  34  54  77 104 132 171 217 263 312
#     4   9  17  31  50  72 102 140 177 209 252 312
#
# _framework density 18.354275999999999
#
# number of rings (size 3 to 8) (size 9 to 14) (size 15 to 20)
#    0.000    2.125    2.500    1.500    0.000    3.000 
#    0.000    0.625    0.000    0.750    0.000    0.000 
#    0.000    0.000    0.000    0.000    0.000    0.000 
#
# Total GULP energy -793037.163314 kJ/mol
# GULP energy per Si atom -12391.205677 kJ/mol
# Density = 1.831250 g / cm^3
# Si number density = 18.354276 Si / 1000 Ang^3
#
#
#
# Elastic Constant Matrix: (Units=GPa)
#
#
# Indices 1 2 3 4 5 6 
#
# 1 109.3934 33.3764 44.4938 0.0000 0.0000 0.0000
# 2 33.3764 79.9662 43.9717 0.0000 0.0000 0.0000
# 3 44.4938 43.9717 108.3690 0.0000 0.0000 0.0000
# 4 0.0000 0.0000 0.0000 -15.4861 0.0000 0.0000
# 5 0.0000 0.0000 0.0000 0.0000 28.3466 0.0000
# 6 0.0000 0.0000 0.0000 0.0000 0.0000 -4.3384
#
#
#
# Elastic Compliance Matrix: (Units=1/GPa)
#
#
# Indices 1 2 3 4 5 6 
#
# 1 0.011449 -0.002824 -0.003555 0.000000 0.000000 0.000000
# 2 -0.002824 0.016793 -0.005655 0.000000 0.000000 0.000000
# 3 -0.003555 -0.005655 0.012982 0.000000 0.000000 0.000000
# 4 0.000000 0.000000 0.000000 -0.064574 0.000000 0.000000
# 5 0.000000 0.000000 0.000000 0.000000 0.035278 0.000000
# 6 0.000000 0.000000 0.000000 0.000000 0.000000 -0.230497
#
#
# Mechanical properties :
#
#
# Convention : Reuss Voigt Hill
#
# Bulk Modulus (GPa) = 58.28455 60.15693 59.22074
# Shear Modulus (GPa) = -26.48521 13.43018 -6.52751
#
# Velocity S-wave (km/s) = -3.80280 2.70797 -1.88789
# Velocity P-wave (km/s) = 3.54154 6.52871 5.25198
#
# Compressibility (1/GPa) = 0.01715721
#
# Stress axis : x y z
#
# Youngs Moduli (GPa) = 87.34605 59.54780 77.03169
#
# Poissons Ratio (x) = 0.16815 0.27383
# Poissons Ratio (y) = 0.24664 0.43559
# Poissons Ratio (z) = 0.31050 0.33672
#
# Static dielectric constant tensor:
#      x y z
#    x 3.603210 0.000000 0.000000 
#    y 0.000000 3.501020 0.000000 
#    z 0.000000 0.000000 3.216780 
# 
# 
# High freq. dielectric constant tensor:
#      x y z
#    x 1.710440 0.000000 0.000000 
#    y 0.000000 1.700180 0.000000 
#    z 0.000000 0.000000 1.688440 
# 
# From -- ./inp_files/28366.got.cif
#   From: 2010.03.12/outbox.cif.g09.slc.cpg/sg51_15_cif.got.tgz:28366.got - 2010.04.16 13:43:02.
