data_PCOD8210176
_publ_section_title
;
Structure prediction by ZEFSAII (Michael W. Deem and Ramdas Pophale) SiO2 
 PCOD8210176
Probable space group: P M M A
;
_chemical_formula_sum "Si O2"
_cell_formula_units_Z 56
_cell_length_a 30.153600
_cell_length_b 9.770874
_cell_length_c 11.374104
_cell_angle_alpha 90.000000
_cell_angle_beta 90.000000
_cell_angle_gamma 90.000000
_cell_volume 3351.118438
_symmetry_space_group_name_H-M "P M M A"
_symmetry_group_IT_number 51
_symmetry_cell_setting 'orthorhombic'
loop_
_space_group_symop_operation_xyz
x,y,z
1/2-x,-y,z
1/2+x,-y,-z
-x,y,-z
-x,-y,-z
1/2+x,y,-z
1/2-x,y,z
x,-y,z
loop_
_atom_site_type_symbol
_atom_site_label
_atom_site_fract_x
_atom_site_fract_y
_atom_site_fract_z
Si Si1 0.144470 0.847506 0.256886
Si Si2 0.986125 0.657361 0.736963
Si Si3 0.439045 0.150744 0.426372
Si Si4 0.904415 0.342626 0.904267
Si Si5 0.700583 0.837122 0.531398
Si Si6 0.622647 0.838621 0.365121
Si Si7 0.082978 0.659386 0.825570
O O1 0.101152 0.853717 0.336284
O O2 0.136087 0.746866 0.147481
O O3 0.183988 0.788666 0.339416
O O4 0.155631 0.000000 0.209212
O O5 0.984617 0.500000 0.698355
O O6 0.033218 0.699156 0.789784
O O7 0.976567 0.744957 0.619090
O O8 0.950271 0.688803 0.837833
O O9 0.580325 0.195851 0.447484
O O10 0.460697 0.000000 0.434708
O O11 0.890785 0.500000 0.889388
O O12 0.910980 0.302396 0.038965
O O13 0.750000 0.779415 0.508385
O O14 0.667839 0.786901 0.428085
O O15 0.699582 0.000000 0.532318
O O16 0.617686 0.751294 0.246716
O O17 0.624781 0.000000 0.336492
O O18 0.092656 0.500000 0.801576
#
# Coordination Sequence:
#
# PCOD8210176 Si02
#       7
#     8   8   8   8   8   8   8
#     4   8  14  26  46  70  90 108 136 176 220 262
#     4   9  17  29  45  63  82 112 157 197 222 250
#     4   8  15  28  43  61  88 116 141 178 226 264
#     4   9  17  30  46  62  85 118 152 186 222 256
#     4   8  14  28  52  76  93 110 136 175 221 265
#     4   9  18  31  46  66  91 118 147 178 218 269
#     4  10  20  31  43  61  88 122 156 187 217 252
#
# _framework density 16.710839
#
# number of rings (size 3 to 8) (size 9 to 14) (size 15 to 20)
#    0.000    3.286    0.000    2.143    0.000    4.000 
#    0.000    5.000    0.000    6.857    0.000    6.000 
#    0.000    0.000    0.000    0.000    0.000    0.000 
#
# Total GULP energy -694164.451759 kJ/mol
# GULP energy per Si atom -12395.793781 kJ/mol
# Density = 1.667280 g / cm^3
# Si number density = 16.710839 Si / 1000 Ang^3
#
#
#
# Elastic Constant Matrix: (Units=GPa)
#
#
# Indices 1 2 3 4 5 6 
#
# 1 84.5541 32.4450 38.8957 0.0000 0.0000 0.0000
# 2 32.4450 53.0757 39.1798 0.0000 0.0000 0.0000
# 3 38.8957 39.1798 73.2683 0.0000 0.0000 0.0000
# 4 0.0000 0.0000 0.0000 28.1035 0.0000 0.0000
# 5 0.0000 0.0000 0.0000 0.0000 16.9453 0.0000
# 6 0.0000 0.0000 0.0000 0.0000 0.0000 11.2230
#
#
#
# Elastic Compliance Matrix: (Units=1/GPa)
#
#
# Indices 1 2 3 4 5 6 
#
# 1 0.016755 -0.006074 -0.005647 0.000000 0.000000 0.000000
# 2 -0.006074 0.033331 -0.014599 0.000000 0.000000 0.000000
# 3 -0.005647 -0.014599 0.024453 0.000000 0.000000 0.000000
# 4 0.000000 0.000000 0.000000 0.035583 0.000000 0.000000
# 5 0.000000 0.000000 0.000000 0.000000 0.059013 0.000000
# 6 0.000000 0.000000 0.000000 0.000000 0.000000 0.089103
#
#
# Mechanical properties :
#
#
# Convention : Reuss Voigt Hill
#
# Bulk Modulus (GPa) = 45.66340 47.99323 46.82831
# Shear Modulus (GPa) = 15.71457 17.94621 16.83039
#
# Velocity S-wave (km/s) = 3.06989 3.28064 3.17701
# Velocity P-wave (km/s) = 6.32065 6.56752 6.44526
#
# Compressibility (1/GPa) = 0.02189938
#
# Stress axis : x y z
#
# Youngs Moduli (GPa) = 59.68390 30.00238 40.89525
#
# Poissons Ratio (x) = 0.18223 0.23092
# Poissons Ratio (y) = 0.36252 0.59703
# Poissons Ratio (z) = 0.33701 0.43800
#
# Static dielectric constant tensor:
#      x y z
#    x 3.138110 0.000000 0.000000 
#    y 0.000000 3.127720 0.000000 
#    z 0.000000 0.000000 3.130670 
# 
# 
# High freq. dielectric constant tensor:
#      x y z
#    x 1.621690 0.000000 0.000000 
#    y 0.000000 1.628610 0.000000 
#    z 0.000000 0.000000 1.637260 
# 
# From -- ./inp_files/18792.got.cif
#   From: 2010.03.12/outbox.cif.g09.slc.cpg/sg51_10_cif.got.tgz:18792.got - 2010.04.16 13:43:02.
