data_PCOD8210187
_publ_section_title
;
Structure prediction by ZEFSAII (Michael W. Deem and Ramdas Pophale) SiO2 
 PCOD8210187
Probable space group: P M M A
;
_chemical_formula_sum "Si O2"
_cell_formula_units_Z 48
_cell_length_a 9.117134
_cell_length_b 13.670253
_cell_length_c 24.013669
_cell_angle_alpha 90.000000
_cell_angle_beta 90.000000
_cell_angle_gamma 90.000000
_cell_volume 2992.908298
_symmetry_space_group_name_H-M "P M M A"
_symmetry_group_IT_number 51
_symmetry_cell_setting 'orthorhombic'
loop_
_space_group_symop_operation_xyz
x,y,z
1/2-x,-y,z
1/2+x,-y,-z
-x,y,-z
-x,-y,-z
1/2+x,y,-z
1/2-x,y,z
x,-y,z
loop_
_atom_site_type_symbol
_atom_site_label
_atom_site_fract_x
_atom_site_fract_y
_atom_site_fract_z
Si Si1 0.078491 0.387522 0.054843
Si Si2 0.419776 0.612790 0.726590
Si Si3 0.922319 0.111699 0.555703
Si Si4 0.576297 0.701405 0.830001
Si Si5 0.076558 0.223405 0.334681
Si Si6 0.577360 0.893264 0.772564
O O1 0.250000 0.375265 0.045615
O O2 0.034207 0.500000 0.064731
O O3 0.024027 0.326536 0.108194
O O4 0.000000 0.345212 0.000000
O O5 0.250000 0.641938 0.731816
O O6 0.439701 0.500000 0.710565
O O7 0.497236 0.632152 0.785626
O O8 0.494224 0.674776 0.676963
O O9 0.750000 0.119351 0.546718
O O10 0.974100 0.180524 0.606187
O O11 0.000000 0.150207 0.500000
O O12 0.968731 0.000000 0.568829
O O13 0.750000 0.685305 0.822494
O O14 0.530716 0.814603 0.819571
O O15 0.250000 0.242424 0.332356
O O16 0.027705 0.145576 0.287767
O O17 0.750000 0.905565 0.772890
O O18 0.504635 0.000000 0.784073
#
# Coordination Sequence:
#
# PCOD8210187 Si02
#       6
#     8   8   8   8   8   8
#     4   9  17  28  42  61  84 110 142 179 217 257
#     4  10  20  31  44  65  91 116 142 177 222 265
#     4   9  17  29  46  69  95 121 149 181 218 260
#     4   9  17  29  46  66  87 114 146 178 213 256
#     4   9  17  29  46  66  88 117 150 180 211 253
#     4   8  13  23  42  66  87 108 139 177 211 246
#
# _framework density 16.037913
#
# number of rings (size 3 to 8) (size 9 to 14) (size 15 to 20)
#    0.000    3.000    0.000    2.500    0.000    5.333 
#    0.000    1.667    0.000   13.000    0.000    0.000 
#    0.000    0.000    0.000    0.000    0.000    0.000 
#
# Total GULP energy -595054.273077 kJ/mol
# GULP energy per Si atom -12396.964022 kJ/mol
# Density = 1.600141 g / cm^3
# Si number density = 16.037913 Si / 1000 Ang^3
#
#
#
# Elastic Constant Matrix: (Units=GPa)
#
#
# Indices 1 2 3 4 5 6 
#
# 1 40.3356 34.6513 41.4869 0.0000 0.0000 0.0000
# 2 34.6513 108.8788 72.6837 0.0000 0.0000 0.0000
# 3 41.4869 72.6837 153.4786 0.0000 0.0000 0.0000
# 4 0.0000 0.0000 0.0000 26.6963 0.0000 0.0000
# 5 0.0000 0.0000 0.0000 0.0000 26.7052 0.0000
# 6 0.0000 0.0000 0.0000 0.0000 0.0000 17.3263
#
#
#
# Elastic Compliance Matrix: (Units=1/GPa)
#
#
# Indices 1 2 3 4 5 6 
#
# 1 0.038318 -0.007721 -0.006701 0.000000 0.000000 0.000000
# 2 -0.007721 0.014986 -0.005010 0.000000 0.000000 0.000000
# 3 -0.006701 -0.005010 0.010700 0.000000 0.000000 0.000000
# 4 0.000000 0.000000 0.000000 0.037458 0.000000 0.000000
# 5 0.000000 0.000000 0.000000 0.000000 0.037446 0.000000
# 6 0.000000 0.000000 0.000000 0.000000 0.000000 0.057716
#
#
# Mechanical properties :
#
#
# Convention : Reuss Voigt Hill
#
# Bulk Modulus (GPa) = 39.77939 66.70409 53.24174
# Shear Modulus (GPa) = 20.50290 24.40362 22.45326
#
# Velocity S-wave (km/s) = 3.57935 3.90503 3.74573
# Velocity P-wave (km/s) = 6.47608 7.87490 7.20950
#
# Compressibility (1/GPa) = 0.02513865
#
# Stress axis : x y z
#
# Youngs Moduli (GPa) = 26.09773 66.72711 93.46210
#
# Poissons Ratio (x) = 0.51523 0.62629
# Poissons Ratio (y) = 0.20151 0.46825
# Poissons Ratio (z) = 0.17488 0.33430
#
# Static dielectric constant tensor:
#      x y z
#    x 2.875930 0.000000 0.000000 
#    y 0.000000 3.201250 0.000000 
#    z 0.000000 0.000000 3.082270 
# 
# 
# High freq. dielectric constant tensor:
#      x y z
#    x 1.599130 0.000000 0.000000 
#    y 0.000000 1.608530 0.000000 
#    z 0.000000 0.000000 1.608960 
# 
# From -- ./inp_files/34616.got.cif
#   From: 2010.03.12/outbox.cif.g09.slc.cpg/sg51_18_cif.got.tgz:34616.got - 2010.04.16 13:43:02.
