data_PCOD8210616
_publ_section_title
;
Structure prediction by ZEFSAII (Michael W. Deem and Ramdas Pophale) SiO2 
 PCOD8210616
Probable space group: P M M A
;
_chemical_formula_sum "Si O2"
_cell_formula_units_Z 56
_cell_length_a 15.460906
_cell_length_b 9.192474
_cell_length_c 21.162439
_cell_angle_alpha 90.000000
_cell_angle_beta 90.000000
_cell_angle_gamma 90.000000
_cell_volume 3007.689981
_symmetry_space_group_name_H-M "P M M A"
_symmetry_group_IT_number 51
_symmetry_cell_setting 'orthorhombic'
loop_
_space_group_symop_operation_xyz
x,y,z
1/2-x,-y,z
1/2+x,-y,-z
-x,y,-z
-x,-y,-z
1/2+x,y,-z
1/2-x,y,z
x,-y,z
loop_
_atom_site_type_symbol
_atom_site_label
_atom_site_fract_x
_atom_site_fract_y
_atom_site_fract_z
Si Si1 0.507821 0.829944 0.350740
Si Si2 0.592367 0.840359 0.532760
Si Si3 0.847403 0.330671 0.868358
Si Si4 0.096132 0.671762 0.996070
Si Si5 0.496837 0.171576 0.206270
Si Si6 0.652014 0.329295 0.139712
Si Si7 0.347544 0.664382 0.577969
O O1 0.425876 0.785911 0.395294
O O2 0.484207 0.788864 0.279544
O O3 0.594632 0.748388 0.371521
O O4 0.527565 0.000000 0.358868
O O5 0.500000 0.850620 0.500000
O O6 0.651011 0.730048 0.493103
O O7 0.636716 0.000000 0.533236
O O8 0.750000 0.302543 0.843772
O O9 0.873115 0.500000 0.861541
O O10 0.851026 0.281774 0.941748
O O11 0.914084 0.235624 0.828992
O O12 0.090092 0.500000 0.992383
O O13 0.142723 0.727224 0.932528
O O14 0.000000 0.739557 0.000000
O O15 0.586377 0.241600 0.183564
O O16 0.500946 0.000000 0.194447
O O17 0.750000 0.298033 0.162198
O O18 0.629967 0.500000 0.144861
O O19 0.250000 0.671556 0.603443
O O20 0.381406 0.500000 0.573393
#
# Coordination Sequence:
#
# PCOD8210616 Si02
#       7
#     8   8   8   8   8   8   8
#     4   9  20  37  54  72  98 139 183 215 248 302
#     4   8  15  31  53  73  94 125 168 207 241 290
#     4  10  20  36  59  83 106 137 182 231 277 329
#     4   9  15  29  56  83 106 134 176 229 277 325
#     4  11  23  38  55  77 111 149 185 227 273 322
#     4  10  20  35  56  81 109 142 182 228 277 329
#     4  10  20  32  50  81 113 134 160 206 262 313
#
# _framework density 18.618939999999998
#
# number of rings (size 3 to 8) (size 9 to 14) (size 15 to 20)
#    0.000    2.429    1.429    2.143    0.000    7.714 
#    0.000    5.000    0.000    6.000    0.000    0.000 
#    0.000    0.000    0.000    0.000    0.000    0.000 
#
# Total GULP energy -694193.029715 kJ/mol
# GULP energy per Si atom -12396.304102 kJ/mol
# Density = 1.857656 g / cm^3
# Si number density = 18.618940 Si / 1000 Ang^3
#
#
#
# Elastic Constant Matrix: (Units=GPa)
#
#
# Indices 1 2 3 4 5 6 
#
# 1 80.9692 32.3333 26.6314 0.0000 0.0000 0.0000
# 2 32.3333 67.2763 39.1300 0.0000 0.0000 0.0000
# 3 26.6314 39.1300 112.9177 0.0000 0.0000 0.0000
# 4 0.0000 0.0000 0.0000 23.6109 0.0000 0.0000
# 5 0.0000 0.0000 0.0000 0.0000 13.0673 0.0000
# 6 0.0000 0.0000 0.0000 0.0000 0.0000 56.5991
#
#
#
# Elastic Compliance Matrix: (Units=1/GPa)
#
#
# Indices 1 2 3 4 5 6 
#
# 1 0.015444 -0.006643 -0.001340 0.000000 0.000000 0.000000
# 2 -0.006643 0.021474 -0.005875 0.000000 0.000000 0.000000
# 3 -0.001340 -0.005875 0.011208 0.000000 0.000000 0.000000
# 4 0.000000 0.000000 0.000000 0.042353 0.000000 0.000000
# 5 0.000000 0.000000 0.000000 0.000000 0.076527 0.000000
# 6 0.000000 0.000000 0.000000 0.000000 0.000000 0.017668
#
#
# Mechanical properties :
#
#
# Convention : Reuss Voigt Hill
#
# Bulk Modulus (GPa) = 48.99657 50.81695 49.90676
# Shear Modulus (GPa) = 22.81102 29.52670 26.16886
#
# Velocity S-wave (km/s) = 3.50401 3.98658 3.75306
# Velocity P-wave (km/s) = 6.53784 6.96727 6.75597
#
# Compressibility (1/GPa) = 0.02040959
#
# Stress axis : x y z
#
# Youngs Moduli (GPa) = 64.75043 46.56903 89.22252
#
# Poissons Ratio (x) = 0.30935 0.11960
# Poissons Ratio (y) = 0.43012 0.52415
# Poissons Ratio (z) = 0.08680 0.27358
#
# Static dielectric constant tensor:
#      x y z
#    x 3.337230 0.000000 0.000000 
#    y 0.000000 3.279500 0.000000 
#    z 0.000000 0.000000 3.748260 
# 
# 
# High freq. dielectric constant tensor:
#      x y z
#    x 1.715540 0.000000 0.000000 
#    y 0.000000 1.702460 0.000000 
#    z 0.000000 0.000000 1.723020 
# 
# From -- ./inp_files/33391.got.cif
#   From: 2010.03.12/outbox.cif.g09.slc.cpg/sg51_17_cif.got.tgz:33391.got - 2010.04.16 13:43:02.
