data_PCOD8210717
_publ_section_title
;
Structure prediction by ZEFSAII (Michael W. Deem and Ramdas Pophale) SiO2 
 PCOD8210717
Probable space group: P M M A
;
_chemical_formula_sum "Si O2"
_cell_formula_units_Z 64
_cell_length_a 9.354775
_cell_length_b 14.709957
_cell_length_c 29.028775
_cell_angle_alpha 90.000000
_cell_angle_beta 90.000000
_cell_angle_gamma 90.000000
_cell_volume 3994.601482
_symmetry_space_group_name_H-M "P M M A"
_symmetry_group_IT_number 51
_symmetry_cell_setting 'orthorhombic'
loop_
_space_group_symop_operation_xyz
x,y,z
1/2-x,-y,z
1/2+x,-y,-z
-x,y,-z
-x,-y,-z
1/2+x,y,-z
1/2-x,y,z
x,-y,z
loop_
_atom_site_type_symbol
_atom_site_label
_atom_site_fract_x
_atom_site_fract_y
_atom_site_fract_z
Si Si1 0.910546 0.891567 0.043614
Si Si2 0.407510 0.893560 0.127699
Si Si3 0.580617 0.103940 0.768155
Si Si4 0.592256 0.857635 0.541104
Si Si5 0.414079 0.642681 0.455116
Si Si6 0.415379 0.396607 0.638615
Si Si7 0.403801 0.902176 0.622162
Si Si8 0.088634 0.236458 0.702692
O O1 0.750000 0.852616 0.040570
O O2 0.983012 0.852474 0.090273
O O3 0.907120 0.000000 0.044065
O O4 0.000000 0.855610 0.000000
O O5 0.250000 0.849460 0.120987
O O6 0.464304 0.876015 0.179222
O O7 0.393095 0.000000 0.118877
O O8 0.750000 0.109941 0.761711
O O9 0.510569 0.187110 0.740110
O O10 0.531162 0.000000 0.754555
O O11 0.500000 0.898322 0.500000
O O12 0.750000 0.895203 0.534504
O O13 0.586604 0.749968 0.542157
O O14 0.534497 0.897843 0.587971
O O15 0.500000 0.603816 0.500000
O O16 0.250000 0.605575 0.455556
O O17 0.491083 0.614914 0.407601
O O18 0.250000 0.372415 0.626595
O O19 0.430525 0.500000 0.655750
O O20 0.465957 0.333971 0.682335
O O21 0.250000 0.890479 0.596435
O O22 0.418732 0.824849 0.658473
O O23 0.410275 0.000000 0.647344
O O24 0.250000 0.244499 0.722564
#
# Coordination Sequence:
#
# PCOD8210717 Si02
#       8
#     8   8   8   8   8   8   8   8
#     4   9  15  21  31  49  74 107 147 190 233 272
#     4   8  14  25  38  53  77 109 146 188 228 264
#     4   9  18  31  47  67  91 120 153 189 229 270
#     4  10  20  33  50  69  89 114 141 168 202 244
#     4  10  20  34  54  76  96 117 140 168 205 251
#     4  10  21  37  56  75  94 117 144 175 214 260
#     4  10  20  33  49  68  89 114 143 174 209 249
#     4  10  20  34  51  69  91 115 143 180 220 261
#
# _framework density 16.021622000000001
#
# number of rings (size 3 to 8) (size 9 to 14) (size 15 to 20)
#    0.000    2.500    1.250    2.250    0.000    5.750 
#    0.000    1.250    0.000    0.000    0.000    0.000 
#    0.000    0.000    0.000    0.000    0.000    0.625 
#
# Total GULP energy -792919.184377 kJ/mol
# GULP energy per Si atom -12389.362256 kJ/mol
# Density = 1.598516 g / cm^3
# Si number density = 16.021622 Si / 1000 Ang^3
#
#
#
# Elastic Constant Matrix: (Units=GPa)
#
#
# Indices 1 2 3 4 5 6 
#
# 1 100.4276 35.3422 62.9376 0.0000 0.0000 0.0000
# 2 35.3422 53.1478 31.7732 0.0000 0.0000 0.0000
# 3 62.9376 31.7732 92.0300 0.0000 0.0000 0.0000
# 4 0.0000 0.0000 0.0000 4.6170 0.0000 0.0000
# 5 0.0000 0.0000 0.0000 0.0000 29.1479 0.0000
# 6 0.0000 0.0000 0.0000 0.0000 0.0000 12.5737
#
#
#
# Elastic Compliance Matrix: (Units=1/GPa)
#
#
# Indices 1 2 3 4 5 6 
#
# 1 0.018871 -0.006091 -0.010803 0.000000 0.000000 0.000000
# 2 -0.006091 0.025675 -0.004699 0.000000 0.000000 0.000000
# 3 -0.010803 -0.004699 0.019876 0.000000 0.000000 0.000000
# 4 0.000000 0.000000 0.000000 0.216593 0.000000 0.000000
# 5 0.000000 0.000000 0.000000 0.000000 0.034308 0.000000
# 6 0.000000 0.000000 0.000000 0.000000 0.000000 0.079531
#
#
# Mechanical properties :
#
#
# Convention : Reuss Voigt Hill
#
# Bulk Modulus (GPa) = 47.08696 56.19014 51.63855
# Shear Modulus (GPa) = 11.23301 16.97120 14.10211
#
# Velocity S-wave (km/s) = 2.65073 3.25817 2.97002
# Velocity P-wave (km/s) = 6.23073 7.02153 6.63791
#
# Compressibility (1/GPa) = 0.02123730
#
# Stress axis : x y z
#
# Youngs Moduli (GPa) = 52.99207 38.94881 50.31193
#
# Poissons Ratio (x) = 0.23722 0.54350
# Poissons Ratio (y) = 0.32275 0.23641
# Poissons Ratio (z) = 0.57245 0.18302
#
# Static dielectric constant tensor:
#      x y z
#    x 3.358760 0.000000 0.000000 
#    y 0.000000 2.703850 0.000000 
#    z 0.000000 0.000000 3.040020 
# 
# 
# High freq. dielectric constant tensor:
#      x y z
#    x 1.626070 0.000000 0.000000 
#    y 0.000000 1.576190 0.000000 
#    z 0.000000 0.000000 1.597740 
# 
# From -- ./inp_files/37619.got.cif
#   From: 2010.03.12/outbox.cif.g09.slc.cpg/sg51_19_cif.got.tgz:37619.got - 2010.04.16 13:43:02.
