data_PCOD8210728
_publ_section_title
;
Structure prediction by ZEFSAII (Michael W. Deem and Ramdas Pophale) SiO2 
 PCOD8210728
Probable space group: P M M A
;
_chemical_formula_sum "Si O2"
_cell_formula_units_Z 48
_cell_length_a 9.035353
_cell_length_b 8.837643
_cell_length_c 31.310986
_cell_angle_alpha 90.000000
_cell_angle_beta 90.000000
_cell_angle_gamma 90.000000
_cell_volume 2500.220563
_symmetry_space_group_name_H-M "P M M A"
_symmetry_group_IT_number 51
_symmetry_cell_setting 'orthorhombic'
loop_
_space_group_symop_operation_xyz
x,y,z
1/2-x,-y,z
1/2+x,-y,-z
-x,y,-z
-x,-y,-z
1/2+x,y,-z
1/2-x,y,z
x,-y,z
loop_
_atom_site_type_symbol
_atom_site_label
_atom_site_fract_x
_atom_site_fract_y
_atom_site_fract_z
Si Si1 0.083060 0.180096 0.709257
Si Si2 0.421891 0.822574 0.205633
Si Si3 0.582883 0.180428 0.458115
Si Si4 0.082647 0.319654 0.041928
Si Si5 0.082813 0.180521 0.374266
Si Si6 0.582415 0.320403 0.125989
O O1 0.250000 0.243390 0.710141
O O2 0.997749 0.237710 0.751143
O O3 0.000785 0.244220 0.667427
O O4 0.083071 0.000000 0.707872
O O5 0.250000 0.781944 0.208133
O O6 0.493416 0.736745 0.166421
O O7 0.448750 0.000000 0.199656
O O8 0.500000 0.242945 0.500000
O O9 0.750000 0.242565 0.458037
O O10 0.499643 0.242599 0.416263
O O11 0.582381 0.000000 0.458170
O O12 0.250000 0.256921 0.042606
O O13 0.083234 0.500000 0.041492
O O14 0.996630 0.258027 0.083389
O O15 0.000000 0.256864 0.000000
O O16 0.250000 0.242406 0.374177
O O17 0.082142 0.000000 0.374039
O O18 0.750000 0.258207 0.127218
O O19 0.581217 0.500000 0.126127
#
# Coordination Sequence:
#
# PCOD8210728 Si02
#       6
#     8   8   8   8   8   8
#     4   9  16  26  40  57  77 103 137 177 219 262
#     4  10  20  33  49  69  93 122 156 193 233 277
#     4   9  15  21  28  39  57  83 117 158 205 255
#     4   9  16  27  45  69  96 124 154 189 227 267
#     4   9  15  22  32  46  65  90 123 165 210 255
#     4  10  20  33  50  73  99 126 157 192 230 273
#
# _framework density 19.198305999999999
#
# number of rings (size 3 to 8) (size 9 to 14) (size 15 to 20)
#    0.000    2.667    0.000    3.000    0.000   10.000 
#    0.000    0.000    0.000    0.500    0.000    0.000 
#    0.000    0.000    0.000    0.000    0.000    0.833 
#
# Total GULP energy -595202.332317 kJ/mol
# GULP energy per Si atom -12400.048590 kJ/mol
# Density = 1.915461 g / cm^3
# Si number density = 19.198306 Si / 1000 Ang^3
#
#
#
# Elastic Constant Matrix: (Units=GPa)
#
#
# Indices 1 2 3 4 5 6 
#
# 1 173.7023 7.4565 88.2452 0.0000 0.0000 0.0000
# 2 7.4565 2.4983 6.9393 0.0000 0.0000 0.0000
# 3 88.2452 6.9393 193.5328 0.0000 0.0000 0.0000
# 4 0.0000 0.0000 0.0000 397.5373 0.0000 0.0000
# 5 0.0000 0.0000 0.0000 0.0000 49.2188 0.0000
# 6 0.0000 0.0000 0.0000 0.0000 0.0000 12.3472
#
#
#
# Elastic Compliance Matrix: (Units=1/GPa)
#
#
# Indices 1 2 3 4 5 6 
#
# 1 0.007982 -0.015232 -0.003094 0.000000 0.000000 0.000000
# 2 -0.015232 0.473603 -0.010036 0.000000 0.000000 0.000000
# 3 -0.003094 -0.010036 0.006938 0.000000 0.000000 0.000000
# 4 0.000000 0.000000 0.000000 0.002515 0.000000 0.000000
# 5 0.000000 0.000000 0.000000 0.000000 0.020317 0.000000
# 6 0.000000 0.000000 0.000000 0.000000 0.000000 0.080990
#
#
# Mechanical properties :
#
#
# Convention : Reuss Voigt Hill
#
# Bulk Modulus (GPa) = 2.31589 63.89059 33.10324
# Shear Modulus (GPa) = 6.30515 109.62683 57.96599
#
# Velocity S-wave (km/s) = 1.81421 7.56481 5.50080
# Velocity P-wave (km/s) = 2.36588 10.47155 7.59114
#
# Compressibility (1/GPa) = 0.43180006
#
# Stress axis : x y z
#
# Youngs Moduli (GPa) = 125.27469 2.11147 144.14325
#
# Poissons Ratio (x) = 0.03216 0.44593
# Poissons Ratio (y) = 1.90813 1.44666
# Poissons Ratio (z) = 0.38755 0.02119
#
# Static dielectric constant tensor:
#      x y z
#    x 3.854980 0.000000 0.000000 
#    y 0.000000 2.686170 0.000000 
#    z 0.000000 0.000000 3.755780 
# 
# 
# High freq. dielectric constant tensor:
#      x y z
#    x 1.769960 0.000000 0.000000 
#    y 0.000000 1.658130 0.000000 
#    z 0.000000 0.000000 1.768650 
# 
# From -- ./inp_files/36134.got.cif
#   From: 2010.03.12/outbox.cif.g09.slc.cpg/sg51_19_cif.got.tgz:36134.got - 2010.04.16 13:43:02.
