data_PCOD8210739
_publ_section_title
;
Structure prediction by ZEFSAII (Michael W. Deem and Ramdas Pophale) SiO2 
 PCOD8210739
Probable space group: P M M A
;
_chemical_formula_sum "Si O2"
_cell_formula_units_Z 48
_cell_length_a 9.351329
_cell_length_b 18.649863
_cell_length_c 14.848193
_cell_angle_alpha 90.000000
_cell_angle_beta 90.000000
_cell_angle_gamma 90.000000
_cell_volume 2589.539777
_symmetry_space_group_name_H-M "P M M A"
_symmetry_group_IT_number 51
_symmetry_cell_setting 'orthorhombic'
loop_
_space_group_symop_operation_xyz
x,y,z
1/2-x,-y,z
1/2+x,-y,-z
-x,y,-z
-x,-y,-z
1/2+x,y,-z
1/2-x,y,z
x,-y,z
loop_
_atom_site_type_symbol
_atom_site_label
_atom_site_fract_x
_atom_site_fract_y
_atom_site_fract_z
Si Si1 0.082620 0.582745 0.908276
Si Si2 0.910455 0.196992 0.076454
Si Si3 0.082062 0.231611 0.587967
Si Si4 0.087401 0.920386 0.663516
Si Si5 0.410086 0.694355 0.766523
Si Si6 0.410122 0.080725 0.157880
O O1 0.250000 0.602359 0.923455
O O2 0.061259 0.500000 0.883063
O O3 0.018648 0.628621 0.823390
O O4 0.000000 0.602036 0.000000
O O5 0.750000 0.183500 0.042266
O O6 0.911739 0.236188 0.171158
O O7 0.993421 0.122475 0.086691
O O8 0.000000 0.240874 0.000000
O O9 0.250000 0.245955 0.576905
O O10 0.053093 0.146052 0.597473
O O11 0.019694 0.279403 0.672199
O O12 0.000000 0.259347 0.500000
O O13 0.250000 0.911751 0.700261
O O14 0.977236 0.914391 0.743836
O O15 0.070578 0.000000 0.617255
O O16 0.250000 0.669654 0.744199
O O17 0.250000 0.113121 0.162818
O O18 0.405822 0.000000 0.122986
#
# Coordination Sequence:
#
# PCOD8210739 Si02
#       6
#     8   8   8   8   8   8
#     4   9  17  31  54  83 112 141 171 204 245 297
#     4  11  21  34  51  72  98 132 169 209 253 304
#     4  10  20  35  52  74 101 133 172 216 260 309
#     4   9  17  32  53  72  94 129 168 210 267 320
#     4   9  18  34  53  74 105 138 168 205 254 306
#     4  10  20  33  49  70  96 127 167 213 256 302
#
# _framework density 18.536111999999999
#
# number of rings (size 3 to 8) (size 9 to 14) (size 15 to 20)
#    0.000    2.333    1.667    1.500    0.000    2.333 
#    0.000    1.667    0.000    0.500    0.000    0.000 
#    0.000    0.000    0.000    0.000    0.000    0.000 
#
# Total GULP energy -594687.947065 kJ/mol
# GULP energy per Si atom -12389.332231 kJ/mol
# Density = 1.849392 g / cm^3
# Si number density = 18.536112 Si / 1000 Ang^3
#
#
#
# Elastic Constant Matrix: (Units=GPa)
#
#
# Indices 1 2 3 4 5 6 
#
# 1 84.5934 31.8674 42.4531 0.0000 0.0000 0.0000
# 2 31.8674 92.6398 53.9994 0.0000 0.0000 0.0000
# 3 42.4531 53.9994 126.3676 0.0000 0.0000 0.0000
# 4 0.0000 0.0000 0.0000 22.9723 0.0000 0.0000
# 5 0.0000 0.0000 0.0000 0.0000 29.4584 0.0000
# 6 0.0000 0.0000 0.0000 0.0000 0.0000 13.3392
#
#
#
# Elastic Compliance Matrix: (Units=1/GPa)
#
#
# Indices 1 2 3 4 5 6 
#
# 1 0.014788 -0.002918 -0.003721 0.000000 0.000000 0.000000
# 2 -0.002918 0.014951 -0.005409 0.000000 0.000000 0.000000
# 3 -0.003721 -0.005409 0.011475 0.000000 0.000000 0.000000
# 4 0.000000 0.000000 0.000000 0.043531 0.000000 0.000000
# 5 0.000000 0.000000 0.000000 0.000000 0.033946 0.000000
# 6 0.000000 0.000000 0.000000 0.000000 0.000000 0.074967
#
#
# Mechanical properties :
#
#
# Convention : Reuss Voigt Hill
#
# Bulk Modulus (GPa) = 58.41679 62.24896 60.33287
# Shear Modulus (GPa) = 22.37554 24.83939 23.60747
#
# Velocity S-wave (km/s) = 3.47815 3.66465 3.57262
# Velocity P-wave (km/s) = 6.90750 7.18064 7.04540
#
# Compressibility (1/GPa) = 0.01711837
#
# Stress axis : x y z
#
# Youngs Moduli (GPa) = 67.62284 66.88591 87.14830
#
# Poissons Ratio (x) = 0.19517 0.32429
# Poissons Ratio (y) = 0.19732 0.47134
# Poissons Ratio (z) = 0.25163 0.36175
#
# Static dielectric constant tensor:
#      x y z
#    x 3.376230 0.000000 0.000000 
#    y 0.000000 3.476150 0.000000 
#    z 0.000000 0.000000 3.334180 
# 
# 
# High freq. dielectric constant tensor:
#      x y z
#    x 1.705120 0.000000 0.000000 
#    y 0.000000 1.706830 0.000000 
#    z 0.000000 0.000000 1.705330 
# 
# From -- ./inp_files/21086.got.cif
#   From: 2010.03.12/outbox.cif.g09.slc.cpg/sg51_11_cif.got.tgz:21086.got - 2010.04.16 13:43:02.
