data_PCOD8210165
_publ_section_title
;
Structure prediction by ZEFSAII (Michael W. Deem and Ramdas Pophale) SiO2 
 PCOD8210165
Probable space group: P M M A
;
_chemical_formula_sum "Si O2"
_cell_formula_units_Z 64
_cell_length_a 9.094358
_cell_length_b 19.573656
_cell_length_c 19.189885
_cell_angle_alpha 90.000000
_cell_angle_beta 90.000000
_cell_angle_gamma 90.000000
_cell_volume 3415.988263
_symmetry_space_group_name_H-M "P M M A"
_symmetry_group_IT_number 51
_symmetry_cell_setting 'orthorhombic'
loop_
_space_group_symop_operation_xyz
x,y,z
1/2-x,-y,z
1/2+x,-y,-z
-x,y,-z
-x,-y,-z
1/2+x,y,-z
1/2-x,y,z
x,-y,z
loop_
_atom_site_type_symbol
_atom_site_label
_atom_site_fract_x
_atom_site_fract_y
_atom_site_fract_z
Si Si1 0.417677 0.157515 0.929663
Si Si2 0.585497 0.424245 0.678609
Si Si3 0.909492 0.361371 0.437226
Si Si4 0.425954 0.804199 0.285791
Si Si5 0.921832 0.276460 0.167611
Si Si6 0.583195 0.426615 0.181418
Si Si7 0.414563 0.796888 0.566650
Si Si8 0.919291 0.921756 0.205876
O O1 0.250000 0.167815 0.950633
O O2 0.478146 0.227615 0.894423
O O3 0.440079 0.095536 0.875715
O O4 0.500000 0.139363 0.000000
O O5 0.750000 0.395333 0.678828
O O6 0.578383 0.500000 0.645226
O O7 0.488587 0.371594 0.635943
O O8 0.530067 0.427654 0.756504
O O9 0.750000 0.396807 0.435035
O O10 0.892291 0.281903 0.450887
O O11 0.000000 0.396090 0.500000
O O12 0.250000 0.797716 0.288655
O O13 0.491358 0.741465 0.239304
O O14 0.490367 0.804913 0.363514
O O15 0.472235 0.875978 0.251664
O O16 0.750000 0.261651 0.182867
O O17 0.947927 0.355114 0.141209
O O18 0.750000 0.423791 0.210100
O O19 0.562145 0.500000 0.139604
O O20 0.500000 0.830421 0.500000
O O21 0.250000 0.829673 0.574815
O O22 0.750000 0.907386 0.227494
O O23 0.962896 0.000000 0.218226
#
# Coordination Sequence:
#
# PCOD8210165 Si02
#       8
#     8   8   8   8   8   8   8   8
#     4   9  18  32  51  77 108 141 175 209 247 294
#     4  10  20  31  42  59  85 115 147 189 244 304
#     4  10  20  32  46  62  82 112 151 196 244 296
#     4  11  21  32  51  79 107 136 172 213 256 305
#     4   9  18  33  51  72 101 136 173 214 260 310
#     4   9  17  30  49  70  90 118 161 211 258 302
#     4  10  20  34  51  72  98 128 165 210 259 307
#     4   9  19  37  58  79 107 143 177 208 247 295
#
# _framework density 18.735427000000001
#
# number of rings (size 3 to 8) (size 9 to 14) (size 15 to 20)
#    0.000    2.375    0.000    3.750    0.000    8.500 
#    0.000    0.000    0.000    0.750    0.000    0.000 
#    0.000    0.000    0.000    0.000    0.000    0.250 
#
# Total GULP energy -793044.885924 kJ/mol
# GULP energy per Si atom -12391.326343 kJ/mol
# Density = 1.869278 g / cm^3
# Si number density = 18.735427 Si / 1000 Ang^3
#
#
#
# Elastic Constant Matrix: (Units=GPa)
#
#
# Indices 1 2 3 4 5 6 
#
# 1 112.8378 12.0705 28.9301 0.0000 0.0000 0.0000
# 2 12.0705 83.4491 -1.7647 0.0000 0.0000 0.0000
# 3 28.9301 -1.7647 61.2880 0.0000 0.0000 0.0000
# 4 0.0000 0.0000 0.0000 15.9549 0.0000 0.0000
# 5 0.0000 0.0000 0.0000 0.0000 28.9597 0.0000
# 6 0.0000 0.0000 0.0000 0.0000 0.0000 16.7878
#
#
#
# Elastic Compliance Matrix: (Units=1/GPa)
#
#
# Indices 1 2 3 4 5 6 
#
# 1 0.010290 -0.001592 -0.004903 0.000000 0.000000 0.000000
# 2 -0.001592 0.012237 0.001104 0.000000 0.000000 0.000000
# 3 -0.004903 0.001104 0.018663 0.000000 0.000000 0.000000
# 4 0.000000 0.000000 0.000000 0.062677 0.000000 0.000000
# 5 0.000000 0.000000 0.000000 0.000000 0.034531 0.000000
# 6 0.000000 0.000000 0.000000 0.000000 0.000000 0.059567
#
#
# Mechanical properties :
#
#
# Convention : Reuss Voigt Hill
#
# Bulk Modulus (GPa) = 32.88723 37.33854 35.11288
# Shear Modulus (GPa) = 22.84342 26.89641 24.86991
#
# Velocity S-wave (km/s) = 3.49558 3.79303 3.64734
# Velocity P-wave (km/s) = 5.82097 6.25743 6.04314
#
# Compressibility (1/GPa) = 0.03040694
#
# Stress axis : x y z
#
# Youngs Moduli (GPa) = 97.18535 81.71950 53.58326
#
# Poissons Ratio (x) = 0.13010 0.26271
# Poissons Ratio (y) = 0.15472 -0.05915
# Poissons Ratio (z) = 0.47649 -0.09020
#
# Static dielectric constant tensor:
#      x y z
#    x 3.602130 0.000000 0.000000 
#    y 0.000000 3.557320 0.000000 
#    z 0.000000 0.000000 3.151280 
# 
# 
# High freq. dielectric constant tensor:
#      x y z
#    x 1.734020 0.000000 0.000000 
#    y 0.000000 1.715500 0.000000 
#    z 0.000000 0.000000 1.697150 
# 
# From -- ./inp_files/28450.got.cif
#   From: 2010.03.12/outbox.cif.g09.slc.cpg/sg51_15_cif.got.tgz:28450.got - 2010.04.16 13:43:02.
