data_PCOD8210013
_publ_section_title
;
Structure prediction by ZEFSAII (Michael W. Deem and Ramdas Pophale) SiO2 
 PCOD8210013
Probable space group: P M M A
;
_chemical_formula_sum "Si O2"
_cell_formula_units_Z 40
_cell_length_a 28.512838
_cell_length_b 8.911997
_cell_length_c 7.844371
_cell_angle_alpha 90.000000
_cell_angle_beta 90.000000
_cell_angle_gamma 90.000000
_cell_volume 1993.304300
_symmetry_space_group_name_H-M "P M M A"
_symmetry_group_IT_number 51
_symmetry_cell_setting 'orthorhombic'
loop_
_space_group_symop_operation_xyz
x,y,z
1/2-x,-y,z
1/2+x,-y,-z
-x,y,-z
-x,-y,-z
1/2+x,y,-z
1/2-x,y,z
x,-y,z
loop_
_atom_site_type_symbol
_atom_site_label
_atom_site_fract_x
_atom_site_fract_y
_atom_site_fract_z
Si Si1 0.947861 0.676697 0.947396
Si Si2 0.194834 0.673141 0.237536
Si Si3 0.548666 0.676871 0.565901
Si Si4 0.642226 0.822914 0.072745
Si Si5 0.353956 0.676238 0.583861
O O1 0.939633 0.500000 0.972208
O O2 0.939267 0.732998 0.755136
O O3 0.910884 0.762509 0.064915
O O4 0.000000 0.723057 0.000000
O O5 0.250000 0.697014 0.235262
O O6 0.180366 0.500000 0.210606
O O7 0.175509 0.729698 0.419574
O O8 0.172643 0.767572 0.085846
O O9 0.500000 0.750624 0.500000
O O10 0.541646 0.500000 0.575893
O O11 0.591400 0.719528 0.442706
O O12 0.664699 0.762401 0.249249
O O13 0.642566 0.000000 0.074804
O O14 0.347190 0.500000 0.613821
#
# Coordination Sequence:
#
# PCOD8210013 Si02
#       5
#     8   8   8   8   8
#     4  10  19  35  61  89 120 161 212 263 305 353
#     4  10  22  43  70  94 116 152 208 268 314 356
#     4   9  16  29  54  88 118 149 195 252 305 349
#     4  12  25  39  59  90 133 171 200 243 309 382
#     4  10  20  38  63  89 121 157 207 262 302 352
#
# _framework density 20.067184000000001
#
# number of rings (size 3 to 8) (size 9 to 14) (size 15 to 20)
#    0.000    1.800    2.000    3.000    0.000    5.600 
#    0.000    2.000    0.000    2.400    0.000    0.000 
#    0.000    0.000    0.000    0.000    0.000    0.000 
#
# Total GULP energy -496066.108974 kJ/mol
# GULP energy per Si atom -12401.652724 kJ/mol
# Density = 2.002151 g / cm^3
# Si number density = 20.067184 Si / 1000 Ang^3
#
#
#
# Elastic Constant Matrix: (Units=GPa)
#
#
# Indices 1 2 3 4 5 6 
#
# 1 89.3917 44.2648 49.5029 0.0000 0.0000 0.0000
# 2 44.2648 83.3171 64.2646 0.0000 0.0000 0.0000
# 3 49.5029 64.2646 165.2152 0.0000 0.0000 0.0000
# 4 0.0000 0.0000 0.0000 8.9640 0.0000 0.0000
# 5 0.0000 0.0000 0.0000 0.0000 27.7777 0.0000
# 6 0.0000 0.0000 0.0000 0.0000 0.0000 11.2507
#
#
#
# Elastic Compliance Matrix: (Units=1/GPa)
#
#
# Indices 1 2 3 4 5 6 
#
# 1 0.015666 -0.006718 -0.002081 0.000000 0.000000 0.000000
# 2 -0.006718 0.020028 -0.005777 0.000000 0.000000 0.000000
# 3 -0.002081 -0.005777 0.008923 0.000000 0.000000 0.000000
# 4 0.000000 0.000000 0.000000 0.111557 0.000000 0.000000
# 5 0.000000 0.000000 0.000000 0.000000 0.036000 0.000000
# 6 0.000000 0.000000 0.000000 0.000000 0.000000 0.088884
#
#
# Mechanical properties :
#
#
# Convention : Reuss Voigt Hill
#
# Bulk Modulus (GPa) = 64.66385 72.66541 68.66463
# Shear Modulus (GPa) = 15.85469 21.59127 18.72298
#
# Velocity S-wave (km/s) = 2.81389 3.28373 3.05784
# Velocity P-wave (km/s) = 6.54606 7.11806 6.83805
#
# Compressibility (1/GPa) = 0.01546459
#
# Stress axis : x y z
#
# Youngs Moduli (GPa) = 63.83440 49.93092 112.06474
#
# Poissons Ratio (x) = 0.33543 0.23318
# Poissons Ratio (y) = 0.42883 0.64744
# Poissons Ratio (z) = 0.13282 0.28847
#
# Static dielectric constant tensor:
#      x y z
#    x 3.708440 0.000000 0.000000 
#    y 0.000000 3.204070 0.000000 
#    z 0.000000 0.000000 3.875610 
# 
# 
# High freq. dielectric constant tensor:
#      x y z
#    x 1.786260 0.000000 0.000000 
#    y 0.000000 1.736100 0.000000 
#    z 0.000000 0.000000 1.802880 
# 
# From -- ./inp_files/12094.got.cif
#   From: 2010.03.12/outbox.cif.g09.slc.cpg/sg51_7_cif.got.tgz:12094.got - 2010.04.16 13:43:02.
