data_PCOD8210963
_publ_section_title
;
Structure prediction by ZEFSAII (Michael W. Deem and Ramdas Pophale) SiO2 
 PCOD8210963
Probable space group: P M M A
;
_chemical_formula_sum "Si O2"
_cell_formula_units_Z 40
_cell_length_a 9.569999
_cell_length_b 9.982647
_cell_length_c 24.153091
_cell_angle_alpha 90.000000
_cell_angle_beta 90.000000
_cell_angle_gamma 90.000000
_cell_volume 2307.439507
_symmetry_space_group_name_H-M "P M M A"
_symmetry_group_IT_number 51
_symmetry_cell_setting 'orthorhombic'
loop_
_space_group_symop_operation_xyz
x,y,z
1/2-x,-y,z
1/2+x,-y,-z
-x,y,-z
-x,-y,-z
1/2+x,y,-z
1/2-x,y,z
x,-y,z
loop_
_atom_site_type_symbol
_atom_site_label
_atom_site_fract_x
_atom_site_fract_y
_atom_site_fract_z
Si Si1 0.904599 0.341512 0.951676
Si Si2 0.084054 0.350623 0.170318
Si Si3 0.911967 0.247032 0.370332
Si Si4 0.086457 0.500000 0.556645
Si Si5 0.091222 0.000000 0.553530
Si Si6 0.084607 0.155967 0.267363
O O1 0.750000 0.278254 0.957400
O O2 0.894607 0.500000 0.959006
O O3 0.969861 0.309516 0.891016
O O4 0.000000 0.277826 0.000000
O O5 0.250000 0.357788 0.167966
O O6 0.027753 0.500000 0.186996
O O7 0.034756 0.235927 0.212761
O O8 0.750000 0.250447 0.351847
O O9 0.955294 0.375757 0.405298
O O10 0.007941 0.232117 0.316876
O O11 0.946650 0.126236 0.410248
O O12 0.250000 0.500000 0.540920
O O13 0.000000 0.500000 0.500000
O O14 0.000000 0.000000 0.500000
O O15 0.250000 0.000000 0.533632
O O16 0.250000 0.167760 0.276633
O O17 0.039077 0.000000 0.262699
#
# Coordination Sequence:
#
# PCOD8210963 Si02
#       6
#     8   8   8   4   4   8
#     4   8  13  23  41  64  91 122 155 194 239 285
#     4   8  15  28  46  69  97 128 160 198 246 290
#     4  10  21  37  53  73 102 133 159 193 246 295
#     4  10  22  38  56  78 104 130 159 196 241 294
#     4  10  20  34  54  74  96 126 159 194 235 282
#     4  10  20  33  51  75  98 126 169 210 240 283
#
# _framework density 17.335232000000001
#
# number of rings (size 3 to 8) (size 9 to 14) (size 15 to 20)
#    0.000    2.800    1.000    1.800    1.400    1.600 
#    0.000    1.000    0.000    1.800    0.000    0.000 
#    0.000    0.000    0.000    0.000    0.000    0.000 
#
# Total GULP energy -495792.667796 kJ/mol
# GULP energy per Si atom -12394.816695 kJ/mol
# Density = 1.729578 g / cm^3
# Si number density = 17.335232 Si / 1000 Ang^3
#
#
#
# Elastic Constant Matrix: (Units=GPa)
#
#
# Indices 1 2 3 4 5 6 
#
# 1 48.5498 30.7814 61.7658 0.0000 0.0000 0.0000
# 2 30.7814 116.5406 74.2044 0.0000 0.0000 0.0000
# 3 61.7658 74.2044 165.9402 0.0000 0.0000 0.0000
# 4 0.0000 0.0000 0.0000 33.6710 0.0000 0.0000
# 5 0.0000 0.0000 0.0000 0.0000 33.2508 0.0000
# 6 0.0000 0.0000 0.0000 0.0000 0.0000 19.5806
#
#
#
# Elastic Compliance Matrix: (Units=1/GPa)
#
#
# Indices 1 2 3 4 5 6 
#
# 1 0.039309 -0.001491 -0.013965 0.000000 0.000000 0.000000
# 2 -0.001491 0.012053 -0.004835 0.000000 0.000000 0.000000
# 3 -0.013965 -0.004835 0.013386 0.000000 0.000000 0.000000
# 4 0.000000 0.000000 0.000000 0.029699 0.000000 0.000000
# 5 0.000000 0.000000 0.000000 0.000000 0.030074 0.000000
# 6 0.000000 0.000000 0.000000 0.000000 0.000000 0.051071
#
#
# Mechanical properties :
#
#
# Convention : Reuss Voigt Hill
#
# Bulk Modulus (GPa) = 41.37855 73.83707 57.60781
# Shear Modulus (GPa) = 22.29864 28.25242 25.27553
#
# Velocity S-wave (km/s) = 3.59042 4.04142 3.82258
# Velocity P-wave (km/s) = 6.41168 8.02892 7.26544
#
# Compressibility (1/GPa) = 0.02416711
#
# Stress axis : x y z
#
# Youngs Moduli (GPa) = 25.43967 82.96722 74.70360
#
# Poissons Ratio (x) = 0.12368 1.04322
# Poissons Ratio (y) = 0.03792 0.36119
# Poissons Ratio (z) = 0.35526 0.40114
#
# Static dielectric constant tensor:
#      x y z
#    x 3.115320 0.000000 0.000000 
#    y 0.000000 3.285810 0.000000 
#    z 0.000000 0.000000 3.447610 
# 
# 
# High freq. dielectric constant tensor:
#      x y z
#    x 1.644760 0.000000 0.000000 
#    y 0.000000 1.657630 0.000000 
#    z 0.000000 0.000000 1.680070 
# 
# From -- ./inp_files/32874.got.cif
#   From: 2010.03.12/outbox.cif.g09.slc.cpg/sg51_17_cif.got.tgz:32874.got - 2010.04.16 13:43:02.
