data_PCOD8210571
_publ_section_title
;
Structure prediction by ZEFSAII (Michael W. Deem and Ramdas Pophale) SiO2 
 PCOD8210571
Probable space group: P M M A
;
_chemical_formula_sum "Si O2"
_cell_formula_units_Z 48
_cell_length_a 17.868497
_cell_length_b 9.243778
_cell_length_c 16.391772
_cell_angle_alpha 90.000000
_cell_angle_beta 90.000000
_cell_angle_gamma 90.000000
_cell_volume 2707.468641
_symmetry_space_group_name_H-M "P M M A"
_symmetry_group_IT_number 51
_symmetry_cell_setting 'orthorhombic'
loop_
_space_group_symop_operation_xyz
x,y,z
1/2-x,-y,z
1/2+x,-y,-z
-x,y,-z
-x,-y,-z
1/2+x,y,-z
1/2-x,y,z
x,-y,z
loop_
_atom_site_type_symbol
_atom_site_label
_atom_site_fract_x
_atom_site_fract_y
_atom_site_fract_z
Si Si1 0.163234 0.168269 0.846737
Si Si2 0.662580 0.334273 0.993772
Si Si3 0.964258 0.669528 0.584984
Si Si4 0.664080 0.831912 0.669305
Si Si5 0.448331 0.663959 0.744754
Si Si6 0.104838 0.333142 0.178911
O O1 0.250000 0.203383 0.832326
O O2 0.134049 0.240974 0.930026
O O3 0.118993 0.231398 0.769602
O O4 0.147160 0.000000 0.853509
O O5 0.750000 0.312202 0.978869
O O6 0.642429 0.500000 0.013028
O O7 0.621089 0.279262 0.912544
O O8 0.944143 0.500000 0.585906
O O9 0.887705 0.756118 0.601140
O O10 0.000000 0.719462 0.500000
O O11 0.024997 0.706301 0.654251
O O12 0.750000 0.810476 0.642679
O O13 0.651997 0.761860 0.757927
O O14 0.642615 0.000000 0.674695
O O15 0.418628 0.500000 0.746998
O O16 0.516784 0.685190 0.806971
O O17 0.129773 0.500000 0.190428
#
# Coordination Sequence:
#
# PCOD8210571 Si02
#       6
#     8   8   8   8   8   8
#     4  10  21  35  49  67  95 132 171 208 246 291
#     4   9  17  30  49  71  96 130 170 209 248 287
#     4   9  19  37  59  80 101 128 165 207 251 300
#     4  10  20  32  49  77 110 140 168 199 242 298
#     4   9  18  33  53  75  97 123 158 202 250 298
#     4   9  18  32  51  75 101 131 168 208 249 294
#
# _framework density 17.728739000000001
#
# number of rings (size 3 to 8) (size 9 to 14) (size 15 to 20)
#    0.000    2.667    0.000    2.500    0.000    7.333 
#    0.000    5.833    0.000    5.000    0.000    0.000 
#    0.000    0.000    0.000    0.000    0.000    0.000 
#
# Total GULP energy -595305.814209 kJ/mol
# GULP energy per Si atom -12402.204463 kJ/mol
# Density = 1.768839 g / cm^3
# Si number density = 17.728739 Si / 1000 Ang^3
#
#
#
# Elastic Constant Matrix: (Units=GPa)
#
#
# Indices 1 2 3 4 5 6 
#
# 1 80.8765 58.4923 68.1259 0.0000 0.0000 0.0000
# 2 58.4923 91.3572 58.5260 0.0000 0.0000 0.0000
# 3 68.1259 58.5260 126.7678 0.0000 0.0000 0.0000
# 4 0.0000 0.0000 0.0000 15.0868 0.0000 0.0000
# 5 0.0000 0.0000 0.0000 0.0000 25.0428 0.0000
# 6 0.0000 0.0000 0.0000 0.0000 0.0000 29.9204
#
#
#
# Elastic Compliance Matrix: (Units=1/GPa)
#
#
# Indices 1 2 3 4 5 6 
#
# 1 0.030395 -0.012774 -0.010437 0.000000 0.000000 0.000000
# 2 -0.012774 0.020912 -0.002790 0.000000 0.000000 0.000000
# 3 -0.010437 -0.002790 0.014785 0.000000 0.000000 0.000000
# 4 0.000000 0.000000 0.000000 0.066283 0.000000 0.000000
# 5 0.000000 0.000000 0.000000 0.000000 0.039932 0.000000
# 6 0.000000 0.000000 0.000000 0.000000 0.000000 0.033422
#
#
# Mechanical properties :
#
#
# Convention : Reuss Voigt Hill
#
# Bulk Modulus (GPa) = 70.96993 74.36554 72.66773
# Shear Modulus (GPa) = 19.05294 21.60048 20.32671
#
# Velocity S-wave (km/s) = 3.28181 3.49433 3.38973
# Velocity P-wave (km/s) = 7.38094 7.63661 7.50986
#
# Compressibility (1/GPa) = 0.01409047
#
# Stress axis : x y z
#
# Youngs Moduli (GPa) = 32.90058 47.81924 67.63601
#
# Poissons Ratio (x) = 0.61086 0.70589
# Poissons Ratio (y) = 0.42029 0.18868
# Poissons Ratio (z) = 0.34337 0.13340
#
# Static dielectric constant tensor:
#      x y z
#    x 3.168530 0.000000 0.000000 
#    y 0.000000 3.266780 0.000000 
#    z 0.000000 0.000000 3.273910 
# 
# 
# High freq. dielectric constant tensor:
#      x y z
#    x 1.678560 0.000000 0.000000 
#    y 0.000000 1.683650 0.000000 
#    z 0.000000 0.000000 1.678690 
# 
# From -- ./inp_files/24781.got.cif
#   From: 2010.03.12/outbox.cif.g09.slc.cpg/sg51_13_cif.got.tgz:24781.got - 2010.04.16 13:43:02.
