data_PCOD8210323
_publ_section_title
;
Structure prediction by ZEFSAII (Michael W. Deem and Ramdas Pophale) SiO2 
 PCOD8210323
Probable space group: P M M A
;
_chemical_formula_sum "Si O2"
_cell_formula_units_Z 48
_cell_length_a 13.790162
_cell_length_b 8.591906
_cell_length_c 23.660042
_cell_angle_alpha 90.000000
_cell_angle_beta 90.000000
_cell_angle_gamma 90.000000
_cell_volume 2803.331108
_symmetry_space_group_name_H-M "P M M A"
_symmetry_group_IT_number 51
_symmetry_cell_setting 'orthorhombic'
loop_
_space_group_symop_operation_xyz
x,y,z
1/2-x,-y,z
1/2+x,-y,-z
-x,y,-z
-x,-y,-z
1/2+x,y,-z
1/2-x,y,z
x,-y,z
loop_
_atom_site_type_symbol
_atom_site_label
_atom_site_fract_x
_atom_site_fract_y
_atom_site_fract_z
Si Si1 0.356413 0.815579 0.976087
Si Si2 0.138222 0.818956 0.314296
Si Si3 0.860407 0.319385 0.804080
Si Si4 0.541312 0.815933 0.911052
Si Si5 0.639586 0.817126 0.473906
Si Si6 0.540865 0.318631 0.580399
O O1 0.250000 0.746003 0.962498
O O2 0.431362 0.766022 0.927106
O O3 0.353917 0.000000 0.978583
O O4 0.390221 0.757906 0.037813
O O5 0.250000 0.771884 0.324428
O O6 0.107242 0.777578 0.250688
O O7 0.070665 0.720981 0.356006
O O8 0.120861 0.000000 0.325259
O O9 0.750000 0.277155 0.820952
O O10 0.871354 0.500000 0.789721
O O11 0.930880 0.274485 0.854829
O O12 0.551054 0.000000 0.901007
O O13 0.750000 0.765132 0.462880
O O14 0.571158 0.728515 0.429278
O O15 0.610133 0.775056 0.537807
O O16 0.626478 0.000000 0.465432
O O17 0.553665 0.500000 0.568435
#
# Coordination Sequence:
#
# PCOD8210323 Si02
#       6
#     8   8   8   8   8   8
#     4   8  14  25  43  68  95 121 152 190 229 271
#     4  10  20  34  52  72  95 125 160 196 234 282
#     4  10  20  32  46  67  95 123 151 189 238 285
#     4   9  16  27  46  69  91 120 156 191 228 273
#     4  10  20  34  52  73  99 132 168 202 234 276
#     4  11  21  32  50  75 103 131 158 196 244 289
#
# _framework density 17.122487
#
# number of rings (size 3 to 8) (size 9 to 14) (size 15 to 20)
#    0.000    2.333    0.000    6.000    0.000    6.000 
#    0.000    1.667    0.000    2.500    0.000    2.333 
#    0.000    0.000    0.000    0.000    0.000    0.000 
#
# Total GULP energy -595218.080065 kJ/mol
# GULP energy per Si atom -12400.376668 kJ/mol
# Density = 1.708352 g / cm^3
# Si number density = 17.122487 Si / 1000 Ang^3
#
#
#
# Elastic Constant Matrix: (Units=GPa)
#
#
# Indices 1 2 3 4 5 6 
#
# 1 123.4092 23.1363 56.9676 0.0000 0.0000 0.0000
# 2 23.1363 43.8807 16.3673 0.0000 0.0000 0.0000
# 3 56.9676 16.3673 100.7744 0.0000 0.0000 0.0000
# 4 0.0000 0.0000 0.0000 17.6326 0.0000 0.0000
# 5 0.0000 0.0000 0.0000 0.0000 27.5959 0.0000
# 6 0.0000 0.0000 0.0000 0.0000 0.0000 17.6775
#
#
#
# Elastic Compliance Matrix: (Units=1/GPa)
#
#
# Indices 1 2 3 4 5 6 
#
# 1 0.011557 -0.003892 -0.005901 0.000000 0.000000 0.000000
# 2 -0.003892 0.025570 -0.001953 0.000000 0.000000 0.000000
# 3 -0.005901 -0.001953 0.013576 0.000000 0.000000 0.000000
# 4 0.000000 0.000000 0.000000 0.056713 0.000000 0.000000
# 5 0.000000 0.000000 0.000000 0.000000 0.036237 0.000000
# 6 0.000000 0.000000 0.000000 0.000000 0.000000 0.056569
#
#
# Mechanical properties :
#
#
# Convention : Reuss Voigt Hill
#
# Bulk Modulus (GPa) = 36.74998 51.22296 43.98647
# Shear Modulus (GPa) = 21.47916 24.02074 22.74995
#
# Velocity S-wave (km/s) = 3.54565 3.74956 3.64903
# Velocity P-wave (km/s) = 6.18642 6.98041 6.59538
#
# Compressibility (1/GPa) = 0.02721090
#
# Stress axis : x y z
#
# Youngs Moduli (GPa) = 86.52938 39.10888 73.65931
#
# Poissons Ratio (x) = 0.15223 0.43465
# Poissons Ratio (y) = 0.33680 0.14382
# Poissons Ratio (z) = 0.51060 0.07636
#
# Static dielectric constant tensor:
#      x y z
#    x 3.458300 0.000000 0.000000 
#    y 0.000000 3.075760 0.000000 
#    z 0.000000 0.000000 3.048160 
# 
# 
# High freq. dielectric constant tensor:
#      x y z
#    x 1.653550 0.000000 0.000000 
#    y 0.000000 1.655870 0.000000 
#    z 0.000000 0.000000 1.649380 
# 
# From -- ./inp_files/35490.got.cif
#   From: 2010.03.12/outbox.cif.g09.slc.cpg/sg51_18_cif.got.tgz:35490.got - 2010.04.16 13:43:02.
