data_PCOD8210816
_publ_section_title
;
Structure prediction by ZEFSAII (Michael W. Deem and Ramdas Pophale) SiO2 
 PCOD8210816
Probable space group: P M M A
;
_chemical_formula_sum "Si O2"
_cell_formula_units_Z 40
_cell_length_a 9.095911
_cell_length_b 9.123647
_cell_length_c 25.870187
_cell_angle_alpha 90.000000
_cell_angle_beta 90.000000
_cell_angle_gamma 90.000000
_cell_volume 2146.912003
_symmetry_space_group_name_H-M "P M M A"
_symmetry_group_IT_number 51
_symmetry_cell_setting 'orthorhombic'
loop_
_space_group_symop_operation_xyz
x,y,z
1/2-x,-y,z
1/2+x,-y,-z
-x,y,-z
-x,-y,-z
1/2+x,y,-z
1/2-x,y,z
x,-y,z
loop_
_atom_site_type_symbol
_atom_site_label
_atom_site_fract_x
_atom_site_fract_y
_atom_site_fract_z
Si Si1 0.421820 0.667813 0.448766
Si Si2 0.416250 0.674835 0.949450
Si Si3 0.580962 0.827380 0.654339
Si Si4 0.922234 0.330253 0.253753
Si Si5 0.084100 0.674370 0.151000
O O1 0.500000 0.729239 0.500000
O O2 0.250000 0.684147 0.458022
O O3 0.467910 0.500000 0.438287
O O4 0.474149 0.762853 0.400076
O O5 0.250000 0.734961 0.949821
O O6 0.416215 0.500000 0.949037
O O7 0.499002 0.736722 0.898919
O O8 0.500000 0.734288 0.000000
O O9 0.750000 0.781765 0.664889
O O10 0.478490 0.763070 0.698466
O O11 0.561419 0.000000 0.652596
O O12 0.750000 0.305820 0.246280
O O13 0.960334 0.500000 0.263746
O O14 0.002068 0.270993 0.202388
O O15 0.250000 0.736004 0.151029
O O16 0.084424 0.500000 0.148976
#
# Coordination Sequence:
#
# PCOD8210816 Si02
#       5
#     8   8   8   8   8
#     4   9  18  33  53  76 102 132 166 203 242 287
#     4   9  15  22  33  52  82 119 157 197 243 296
#     4  10  21  36  53  74 101 133 168 205 247 296
#     4  10  20  33  50  72  97 127 165 208 252 299
#     4   9  16  26  41  61  86 119 159 201 246 296
#
# _framework density 18.631409000000001
#
# number of rings (size 3 to 8) (size 9 to 14) (size 15 to 20)
#    0.000    2.600    0.000    2.400    0.000    8.400 
#    0.000    2.000    0.000    0.000    0.000    0.000 
#    0.000    0.800    0.000    3.000    0.000    6.600 
#
# Total GULP energy -496065.986901 kJ/mol
# GULP energy per Si atom -12401.649673 kJ/mol
# Density = 1.858900 g / cm^3
# Si number density = 18.631409 Si / 1000 Ang^3
#
#
#
# Elastic Constant Matrix: (Units=GPa)
#
#
# Indices 1 2 3 4 5 6 
#
# 1 124.2326 29.7371 87.3597 0.0000 0.0000 0.0000
# 2 29.7371 36.7695 41.3758 0.0000 0.0000 0.0000
# 3 87.3597 41.3758 185.8136 0.0000 0.0000 0.0000
# 4 0.0000 0.0000 0.0000 -2.8660 0.0000 0.0000
# 5 0.0000 0.0000 0.0000 0.0000 43.9790 0.0000
# 6 0.0000 0.0000 0.0000 0.0000 0.0000 15.2712
#
#
#
# Elastic Compliance Matrix: (Units=1/GPa)
#
#
# Indices 1 2 3 4 5 6 
#
# 1 0.012607 -0.004705 -0.004879 0.000000 0.000000 0.000000
# 2 -0.004705 0.038045 -0.006260 0.000000 0.000000 0.000000
# 3 -0.004879 -0.006260 0.009070 0.000000 0.000000 0.000000
# 4 0.000000 0.000000 0.000000 -0.348919 0.000000 0.000000
# 5 0.000000 0.000000 0.000000 0.000000 0.022738 0.000000
# 6 0.000000 0.000000 0.000000 0.000000 0.000000 0.065483
#
#
# Mechanical properties :
#
#
# Convention : Reuss Voigt Hill
#
# Bulk Modulus (GPa) = 35.67129 73.75120 54.71125
# Shear Modulus (GPa) = -31.26094 23.83306 -3.71394
#
# Velocity S-wave (km/s) = -4.10062 3.58045 -1.41340
# Velocity P-wave (km/s) = 1.79798 7.53413 5.17351
#
# Compressibility (1/GPa) = 0.02803375
#
# Stress axis : x y z
#
# Youngs Moduli (GPa) = 79.32241 26.28435 110.25834
#
# Poissons Ratio (x) = 0.12367 0.53799
# Poissons Ratio (y) = 0.37322 0.69018
# Poissons Ratio (z) = 0.38704 0.16453
#
# Static dielectric constant tensor:
#      x y z
#    x 3.531150 0.000000 0.000000 
#    y 0.000000 2.919190 0.000000 
#    z 0.000000 0.000000 3.629870 
# 
# 
# High freq. dielectric constant tensor:
#      x y z
#    x 1.731080 0.000000 0.000000 
#    y 0.000000 1.666770 0.000000 
#    z 0.000000 0.000000 1.740900 
# 
# From -- ./inp_files/34285.got.cif
#   From: 2010.03.12/outbox.cif.g09.slc.cpg/sg51_18_cif.got.tgz:34285.got - 2010.04.16 13:43:02.
