data_PCOD8210163
_publ_section_title
;
Structure prediction by ZEFSAII (Michael W. Deem and Ramdas Pophale) SiO2 
 PCOD8210163
Probable space group: P M M A
;
_chemical_formula_sum "Si O2"
_cell_formula_units_Z 48
_cell_length_a 23.690427
_cell_length_b 9.034461
_cell_length_c 14.035252
_cell_angle_alpha 90.000000
_cell_angle_beta 90.000000
_cell_angle_gamma 90.000000
_cell_volume 3003.968337
_symmetry_space_group_name_H-M "P M M A"
_symmetry_group_IT_number 51
_symmetry_cell_setting 'orthorhombic'
loop_
_space_group_symop_operation_xyz
x,y,z
1/2-x,-y,z
1/2+x,-y,-z
-x,y,-z
-x,-y,-z
1/2+x,y,-z
1/2-x,y,z
x,-y,z
loop_
_atom_site_type_symbol
_atom_site_label
_atom_site_fract_x
_atom_site_fract_y
_atom_site_fract_z
Si Si1 0.813753 0.326024 0.160531
Si Si2 0.978314 0.324519 0.644051
Si Si3 0.524566 0.676291 0.854540
Si Si4 0.088982 0.324877 0.536060
Si Si5 0.584959 0.324504 0.036510
Si Si6 0.814791 0.173158 0.357274
O O1 0.750000 0.285589 0.130318
O O2 0.821043 0.500000 0.178950
O O3 0.854533 0.269338 0.075490
O O4 0.831675 0.245120 0.256915
O O5 0.979088 0.500000 0.646719
O O6 0.965182 0.257372 0.748824
O O7 0.929862 0.274344 0.570101
O O8 0.040149 0.272815 0.609261
O O9 0.524527 0.500000 0.849028
O O10 0.464259 0.733366 0.893368
O O11 0.573375 0.731687 0.928135
O O12 0.099022 0.500000 0.541690
O O13 0.146917 0.241983 0.559841
O O14 0.583019 0.500000 0.035700
O O15 0.750000 0.209340 0.382780
O O16 0.825812 0.000000 0.349932
#
# Coordination Sequence:
#
# PCOD8210163 Si02
#       6
#     8   8   8   8   8   8
#     4   9  16  26  41  60  80 102 130 165 202 240
#     4   8  14  24  40  63  88 111 135 167 205 243
#     4   8  12  19  33  56  85 109 128 156 195 236
#     4   9  16  27  44  64  84 108 139 171 203 241
#     4   8  13  20  34  58  83 106 131 158 192 235
#     4  10  20  31  42  59  83 109 136 168 208 249
#
# _framework density 15.978863
#
# number of rings (size 3 to 8) (size 9 to 14) (size 15 to 20)
#    0.000    3.333    0.000    3.500    0.000    3.667 
#    0.000    1.667    0.000    1.000    0.000   15.167 
#    0.000    2.667    0.000    0.000    0.000    0.000 
#
# Total GULP energy -594815.963039 kJ/mol
# GULP energy per Si atom -12391.999230 kJ/mol
# Density = 1.594249 g / cm^3
# Si number density = 15.978863 Si / 1000 Ang^3
#
#
#
# Elastic Constant Matrix: (Units=GPa)
#
#
# Indices 1 2 3 4 5 6 
#
# 1 106.0782 23.5136 75.3872 0.0000 0.0000 0.0000
# 2 23.5136 22.7073 20.6618 0.0000 0.0000 0.0000
# 3 75.3872 20.6618 154.7603 0.0000 0.0000 0.0000
# 4 0.0000 0.0000 0.0000 2.7963 0.0000 0.0000
# 5 0.0000 0.0000 0.0000 0.0000 29.0939 0.0000
# 6 0.0000 0.0000 0.0000 0.0000 0.0000 12.3818
#
#
#
# Elastic Compliance Matrix: (Units=1/GPa)
#
#
# Indices 1 2 3 4 5 6 
#
# 1 0.016587 -0.011182 -0.006587 0.000000 0.000000 0.000000
# 2 -0.011182 0.057667 -0.002252 0.000000 0.000000 0.000000
# 3 -0.006587 -0.002252 0.009971 0.000000 0.000000 0.000000
# 4 0.000000 0.000000 0.000000 0.357617 0.000000 0.000000
# 5 0.000000 0.000000 0.000000 0.000000 0.034371 0.000000
# 6 0.000000 0.000000 0.000000 0.000000 0.000000 0.080764
#
#
# Mechanical properties :
#
#
# Convention : Reuss Voigt Hill
#
# Bulk Modulus (GPa) = 22.63328 58.07457 40.35392
# Shear Modulus (GPa) = 8.17332 19.78660 13.97996
#
# Velocity S-wave (km/s) = 2.26411 3.52276 2.96109
# Velocity P-wave (km/s) = 4.58587 7.27805 6.08277
#
# Compressibility (1/GPa) = 0.04418273
#
# Stress axis : x y z
#
# Youngs Moduli (GPa) = 60.28861 17.34086 100.29202
#
# Poissons Ratio (x) = 0.19391 0.66061
# Poissons Ratio (y) = 0.67417 0.22585
# Poissons Ratio (z) = 0.39712 0.03905
#
# Static dielectric constant tensor:
#      x y z
#    x 3.106550 0.000000 0.000000 
#    y 0.000000 2.564850 0.000000 
#    z 0.000000 0.000000 3.431470 
# 
# 
# High freq. dielectric constant tensor:
#      x y z
#    x 1.605920 0.000000 0.000000 
#    y 0.000000 1.564530 0.000000 
#    z 0.000000 0.000000 1.612510 
# 
# From -- ./inp_files/25495.got.cif
#   From: 2010.03.12/outbox.cif.g09.slc.cpg/sg51_13_cif.got.tgz:25495.got - 2010.04.16 13:43:02.
