data_PCOD8210230
_publ_section_title
;
Structure prediction by ZEFSAII (Michael W. Deem and Ramdas Pophale) SiO2 
 PCOD8210230
Probable space group: P M M A
;
_chemical_formula_sum "Si O2"
_cell_formula_units_Z 48
_cell_length_a 13.776493
_cell_length_b 16.979090
_cell_length_c 10.960950
_cell_angle_alpha 90.000000
_cell_angle_beta 90.000000
_cell_angle_gamma 90.000000
_cell_volume 2563.901184
_symmetry_space_group_name_H-M "P M M A"
_symmetry_group_IT_number 51
_symmetry_cell_setting 'orthorhombic'
loop_
_space_group_symop_operation_xyz
x,y,z
1/2-x,-y,z
1/2+x,-y,-z
-x,y,-z
-x,-y,-z
1/2+x,y,-z
1/2-x,y,z
x,-y,z
loop_
_atom_site_type_symbol
_atom_site_label
_atom_site_fract_x
_atom_site_fract_y
_atom_site_fract_z
Si Si1 0.360097 0.817667 0.230064
Si Si2 0.020028 0.674835 0.137184
Si Si3 0.634871 0.228258 0.257509
Si Si4 0.478438 0.089488 0.860302
Si Si5 0.140407 0.266484 0.478893
Si Si6 0.136528 0.589163 0.328035
O O1 0.250000 0.829382 0.187066
O O2 0.408998 0.750395 0.146257
O O3 0.419546 0.898101 0.210459
O O4 0.367743 0.797358 0.372395
O O5 0.071513 0.602558 0.207390
O O6 0.914785 0.697599 0.191392
O O7 0.000000 0.647734 0.000000
O O8 0.750000 0.235738 0.247239
O O9 0.603881 0.145865 0.196225
O O10 0.591957 0.232914 0.397276
O O11 0.442912 0.000000 0.844244
O O12 0.500000 0.110859 0.000000
O O13 0.250000 0.282585 0.516882
O O14 0.098033 0.350606 0.432406
O O15 0.250000 0.607502 0.297244
O O16 0.123142 0.500000 0.374172
#
# Coordination Sequence:
#
# PCOD8210230 Si02
#       6
#     8   8   8   8   8   8
#     4   9  17  32  53  74  99 133 171 213 258 300
#     4  10  20  31  48  77 106 133 176 219 244 292
#     4  10  20  35  54  74 101 137 169 205 255 301
#     4  10  22  36  50  75 104 130 169 211 246 298
#     4   8  16  32  53  77 101 127 170 215 247 299
#     4   9  18  34  56  78 102 135 170 210 263 311
#
# _framework density 18.72147
#
# number of rings (size 3 to 8) (size 9 to 14) (size 15 to 20)
#    0.000    2.667    0.000    3.500    0.000   10.333 
#    0.000    5.000    0.000    4.500    0.000    0.000 
#    0.000    0.000    0.000    0.000    0.000    0.000 
#
# Total GULP energy -594868.335351 kJ/mol
# GULP energy per Si atom -12393.090320 kJ/mol
# Density = 1.867886 g / cm^3
# Si number density = 18.721470 Si / 1000 Ang^3
#
#
#
# Elastic Constant Matrix: (Units=GPa)
#
#
# Indices 1 2 3 4 5 6 
#
# 1 109.6800 26.7118 34.6723 0.0000 0.0000 0.0000
# 2 26.7118 84.2448 53.8987 0.0000 0.0000 0.0000
# 3 34.6723 53.8987 127.6534 0.0000 0.0000 0.0000
# 4 0.0000 0.0000 0.0000 19.2223 0.0000 0.0000
# 5 0.0000 0.0000 0.0000 0.0000 26.7460 0.0000
# 6 0.0000 0.0000 0.0000 0.0000 0.0000 18.0392
#
#
#
# Elastic Compliance Matrix: (Units=1/GPa)
#
#
# Indices 1 2 3 4 5 6 
#
# 1 0.010215 -0.002006 -0.001928 0.000000 0.000000 0.000000
# 2 -0.002006 0.016657 -0.006488 0.000000 0.000000 0.000000
# 3 -0.001928 -0.006488 0.011097 0.000000 0.000000 0.000000
# 4 0.000000 0.000000 0.000000 0.052023 0.000000 0.000000
# 5 0.000000 0.000000 0.000000 0.000000 0.037389 0.000000
# 6 0.000000 0.000000 0.000000 0.000000 0.000000 0.055435
#
#
# Mechanical properties :
#
#
# Convention : Reuss Voigt Hill
#
# Bulk Modulus (GPa) = 58.39121 61.34934 59.87028
# Shear Modulus (GPa) = 23.88136 26.55452 25.21794
#
# Velocity S-wave (km/s) = 3.57545 3.77025 3.67414
# Velocity P-wave (km/s) = 6.94998 7.19678 7.07446
#
# Compressibility (1/GPa) = 0.01712586
#
# Stress axis : x y z
#
# Youngs Moduli (GPa) = 97.89236 60.03369 90.11528
#
# Poissons Ratio (x) = 0.12041 0.17372
# Poissons Ratio (y) = 0.19634 0.58470
# Poissons Ratio (z) = 0.18871 0.38952
#
# Static dielectric constant tensor:
#      x y z
#    x 3.543980 0.000000 0.000000 
#    y 0.000000 3.242880 0.000000 
#    z 0.000000 0.000000 3.546480 
# 
# 
# High freq. dielectric constant tensor:
#      x y z
#    x 1.733840 0.000000 0.000000 
#    y 0.000000 1.699650 0.000000 
#    z 0.000000 0.000000 1.727500 
# 
# From -- ./inp_files/16709.got.cif
#   From: 2010.03.12/outbox.cif.g09.slc.cpg/sg51_9_cif.got.tgz:16709.got - 2010.04.16 13:43:02.
