data_PCOD8210249
_publ_section_title
;
Structure prediction by ZEFSAII (Michael W. Deem and Ramdas Pophale) SiO2 
 PCOD8210249
Probable space group: P M M A
;
_chemical_formula_sum "Si O2"
_cell_formula_units_Z 56
_cell_length_a 9.034889
_cell_length_b 13.155919
_cell_length_c 30.275307
_cell_angle_alpha 90.000000
_cell_angle_beta 90.000000
_cell_angle_gamma 90.000000
_cell_volume 3598.591650
_symmetry_space_group_name_H-M "P M M A"
_symmetry_group_IT_number 51
_symmetry_cell_setting 'orthorhombic'
loop_
_space_group_symop_operation_xyz
x,y,z
1/2-x,-y,z
1/2+x,-y,-z
-x,y,-z
-x,-y,-z
1/2+x,y,-z
1/2-x,y,z
x,-y,z
loop_
_atom_site_type_symbol
_atom_site_label
_atom_site_fract_x
_atom_site_fract_y
_atom_site_fract_z
Si Si1 0.575258 0.711211 0.112988
Si Si2 0.422870 0.884881 0.954453
Si Si3 0.917371 0.621284 0.630282
Si Si4 0.583859 0.379804 0.283722
Si Si5 0.417252 0.621150 0.543360
Si Si6 0.911663 0.384255 0.960115
Si Si7 0.925159 0.617856 0.805917
O O1 0.750000 0.701654 0.119045
O O2 0.528121 0.814564 0.087101
O O3 0.510943 0.619667 0.083657
O O4 0.498325 0.698078 0.160319
O O5 0.250000 0.872834 0.962668
O O6 0.466693 0.000000 0.941684
O O7 0.500000 0.851659 0.000000
O O8 0.750000 0.662983 0.631036
O O9 0.916935 0.500000 0.630827
O O10 0.004370 0.664819 0.672770
O O11 0.998132 0.662482 0.586471
O O12 0.750000 0.334685 0.279766
O O13 0.592672 0.500000 0.287906
O O14 0.486930 0.348932 0.241528
O O15 0.500000 0.663132 0.500000
O O16 0.250000 0.662968 0.543705
O O17 0.417193 0.500000 0.543196
O O18 0.750000 0.332071 0.953702
O O19 0.885103 0.500000 0.972948
O O20 0.000000 0.328900 0.000000
O O21 0.750000 0.631894 0.806507
O O22 0.967498 0.500000 0.816595
#
# Coordination Sequence:
#
# PCOD8210249 Si02
#       7
#     8   8   8   8   8   8   8
#     4  11  21  31  46  65  83 104 128 155 187 222
#     4   9  19  35  52  69  87 105 126 153 186 224
#     4   9  15  22  32  45  61  83 112 146 186 231
#     4   9  16  26  39  53  69  91 121 155 188 224
#     4   9  15  21  28  39  56  78 106 143 188 235
#     4  10  20  32  44  59  81 107 131 154 180 213
#     4  10  20  32  44  59  81 107 132 159 191 227
#
# _framework density 15.561643999999999
#
# number of rings (size 3 to 8) (size 9 to 14) (size 15 to 20)
#    0.000    2.429    0.000    3.429    0.000   10.857 
#    0.000    0.000    0.000    0.000    0.000    0.000 
#    0.000    0.000    0.000    0.000    0.000    0.000 
#
# Total GULP energy -694124.133873 kJ/mol
# GULP energy per Si atom -12395.073819 kJ/mol
# Density = 1.552623 g / cm^3
# Si number density = 15.561644 Si / 1000 Ang^3
#
#
#
# Elastic Constant Matrix: (Units=GPa)
#
#
# Indices 1 2 3 4 5 6 
#
# 1 123.6329 24.5699 71.5111 0.0000 0.0000 0.0000
# 2 24.5699 35.4124 26.8100 0.0000 0.0000 0.0000
# 3 71.5111 26.8100 149.5863 0.0000 0.0000 0.0000
# 4 0.0000 0.0000 0.0000 13.6290 0.0000 0.0000
# 5 0.0000 0.0000 0.0000 0.0000 35.7891 0.0000
# 6 0.0000 0.0000 0.0000 0.0000 0.0000 7.1179
#
#
#
# Elastic Compliance Matrix: (Units=1/GPa)
#
#
# Indices 1 2 3 4 5 6 
#
# 1 0.011774 -0.004521 -0.004818 0.000000 0.000000 0.000000
# 2 -0.004521 0.034408 -0.004006 0.000000 0.000000 0.000000
# 3 -0.004818 -0.004006 0.009706 0.000000 0.000000 0.000000
# 4 0.000000 0.000000 0.000000 0.073373 0.000000 0.000000
# 5 0.000000 0.000000 0.000000 0.000000 0.027941 0.000000
# 6 0.000000 0.000000 0.000000 0.000000 0.000000 0.140491
#
#
# Mechanical properties :
#
#
# Convention : Reuss Voigt Hill
#
# Bulk Modulus (GPa) = 34.24833 61.60152 47.92493
# Shear Modulus (GPa) = 14.96484 23.68991 19.32738
#
# Velocity S-wave (km/s) = 3.10441 3.90593 3.52801
# Velocity P-wave (km/s) = 5.90811 7.74682 6.88908
#
# Compressibility (1/GPa) = 0.02919850
#
# Stress axis : x y z
#
# Youngs Moduli (GPa) = 84.93324 29.06293 103.02431
#
# Poissons Ratio (x) = 0.13140 0.49640
# Poissons Ratio (y) = 0.38400 0.41267
# Poissons Ratio (z) = 0.40924 0.11641
#
# Static dielectric constant tensor:
#      x y z
#    x 3.272660 0.000000 0.000000 
#    y 0.000000 2.460460 0.000000 
#    z 0.000000 0.000000 3.104830 
# 
# 
# High freq. dielectric constant tensor:
#      x y z
#    x 1.620850 0.000000 0.000000 
#    y 0.000000 1.514620 0.000000 
#    z 0.000000 0.000000 1.601700 
# 
# From -- ./inp_files/37454.got.cif
#   From: 2010.03.12/outbox.cif.g09.slc.cpg/sg51_19_cif.got.tgz:37454.got - 2010.04.16 13:43:02.
