data_PCOD8210201
_publ_section_title
;
Structure prediction by ZEFSAII (Michael W. Deem and Ramdas Pophale) SiO2 
 PCOD8210201
Probable space group: P M M A
;
_chemical_formula_sum "Si O2"
_cell_formula_units_Z 64
_cell_length_a 9.157951
_cell_length_b 19.877775
_cell_length_c 19.799391
_cell_angle_alpha 90.000000
_cell_angle_beta 90.000000
_cell_angle_gamma 90.000000
_cell_volume 3604.274989
_symmetry_space_group_name_H-M "P M M A"
_symmetry_group_IT_number 51
_symmetry_cell_setting 'orthorhombic'
loop_
_space_group_symop_operation_xyz
x,y,z
1/2-x,-y,z
1/2+x,-y,-z
-x,y,-z
-x,-y,-z
1/2+x,y,-z
1/2-x,y,z
x,-y,z
loop_
_atom_site_type_symbol
_atom_site_label
_atom_site_fract_x
_atom_site_fract_y
_atom_site_fract_z
Si Si1 0.920828 0.076962 0.431414
Si Si2 0.920680 0.297541 0.435166
Si Si3 0.579749 0.187404 0.327189
Si Si4 0.415018 0.755793 0.209259
Si Si5 0.918807 0.424811 0.111100
Si Si6 0.585463 0.395836 0.759936
Si Si7 0.916590 0.574866 0.608505
Si Si8 0.923859 0.704958 0.934365
O O1 0.750000 0.088741 0.443694
O O2 0.976140 0.122383 0.368891
O O3 0.000000 0.099326 0.500000
O O4 0.957616 0.000000 0.413117
O O5 0.750000 0.297262 0.449198
O O6 0.960903 0.253898 0.369689
O O7 0.000000 0.264923 0.500000
O O8 0.973898 0.374099 0.427248
O O9 0.750000 0.181933 0.313674
O O10 0.506098 0.190501 0.253188
O O11 0.250000 0.781849 0.209090
O O12 0.431061 0.684266 0.245469
O O13 0.470028 0.748484 0.131510
O O14 0.750000 0.402230 0.107153
O O15 0.938995 0.500000 0.080738
O O16 0.968610 0.426678 0.188945
O O17 0.018198 0.371639 0.071007
O O18 0.750000 0.413501 0.784697
O O19 0.552095 0.427786 0.688048
O O20 0.750000 0.598228 0.595067
O O21 0.944259 0.500000 0.579543
O O22 0.750000 0.702552 0.942415
O O23 0.000000 0.738469 0.000000
#
# Coordination Sequence:
#
# PCOD8210201 Si02
#       8
#     8   8   8   8   8   8   8   8
#     4   9  18  33  52  77 111 147 180 211 245 290
#     4  11  23  36  50  69  93 122 160 205 252 302
#     4  10  20  33  52  78 103 132 169 207 247 289
#     4   9  18  32  52  75  98 125 160 201 245 294
#     4  10  20  31  45  67  93 122 157 198 247 304
#     4   9  17  31  49  68  90 118 154 198 251 304
#     4  10  20  34  51  67  86 116 155 202 257 310
#     4  10  21  36  52  71  95 127 163 201 252 306
#
# _framework density 17.756692999999999
#
# number of rings (size 3 to 8) (size 9 to 14) (size 15 to 20)
#    0.000    2.250    1.250    2.625    0.000    6.250 
#    0.000    0.000    0.000    0.000    0.000    0.000 
#    0.000    0.500    0.000    1.125    0.000    1.750 
#
# Total GULP energy -793476.257316 kJ/mol
# GULP energy per Si atom -12398.066521 kJ/mol
# Density = 1.771628 g / cm^3
# Si number density = 17.756693 Si / 1000 Ang^3
#
#
#
# Elastic Constant Matrix: (Units=GPa)
#
#
# Indices 1 2 3 4 5 6 
#
# 1 73.4576 30.0168 53.9651 0.0000 0.0000 0.0000
# 2 30.0168 68.7449 44.9832 0.0000 0.0000 0.0000
# 3 53.9651 44.9832 116.6820 0.0000 0.0000 0.0000
# 4 0.0000 0.0000 0.0000 20.7552 0.0000 0.0000
# 5 0.0000 0.0000 0.0000 0.0000 33.2887 0.0000
# 6 0.0000 0.0000 0.0000 0.0000 0.0000 18.2296
#
#
#
# Elastic Compliance Matrix: (Units=1/GPa)
#
#
# Indices 1 2 3 4 5 6 
#
# 1 0.021346 -0.003825 -0.008397 0.000000 0.000000 0.000000
# 2 -0.003825 0.020140 -0.005995 0.000000 0.000000 0.000000
# 3 -0.008397 -0.005995 0.014765 0.000000 0.000000 0.000000
# 4 0.000000 0.000000 0.000000 0.048181 0.000000 0.000000
# 5 0.000000 0.000000 0.000000 0.000000 0.030040 0.000000
# 6 0.000000 0.000000 0.000000 0.000000 0.000000 0.054856
#
#
# Mechanical properties :
#
#
# Convention : Reuss Voigt Hill
#
# Bulk Modulus (GPa) = 50.46750 57.42386 53.94568
# Shear Modulus (GPa) = 21.51757 23.11600 22.31679
#
# Velocity S-wave (km/s) = 3.48487 3.61199 3.54900
# Velocity P-wave (km/s) = 6.68400 7.05725 6.87316
#
# Compressibility (1/GPa) = 0.01981473
#
# Stress axis : x y z
#
# Youngs Moduli (GPa) = 46.84798 49.65317 67.72642
#
# Poissons Ratio (x) = 0.18995 0.56873
# Poissons Ratio (y) = 0.17922 0.40602
# Poissons Ratio (z) = 0.39341 0.29767
#
# Static dielectric constant tensor:
#      x y z
#    x 3.259540 0.000000 0.000000 
#    y 0.000000 3.042620 0.000000 
#    z 0.000000 0.000000 3.366990 
# 
# 
# High freq. dielectric constant tensor:
#      x y z
#    x 1.687620 0.000000 0.000000 
#    y 0.000000 1.646660 0.000000 
#    z 0.000000 0.000000 1.685440 
# 
# From -- ./inp_files/32645.got.cif
#   From: 2010.03.12/outbox.cif.g09.slc.cpg/sg51_17_cif.got.tgz:32645.got - 2010.04.16 13:43:02.
