data_PCOD8210004
_publ_section_title
;
Structure prediction by ZEFSAII (Michael W. Deem and Ramdas Pophale) SiO2 
 PCOD8210004
Probable space group: P M M A
;
_chemical_formula_sum "Si O2"
_cell_formula_units_Z 64
_cell_length_a 30.709175
_cell_length_b 9.015304
_cell_length_c 11.723736
_cell_angle_alpha 90.000000
_cell_angle_beta 90.000000
_cell_angle_gamma 90.000000
_cell_volume 3245.746186
_symmetry_space_group_name_H-M "P M M A"
_symmetry_group_IT_number 51
_symmetry_cell_setting 'orthorhombic'
loop_
_space_group_symop_operation_xyz
x,y,z
1/2-x,-y,z
1/2+x,-y,-z
-x,y,-z
-x,-y,-z
1/2+x,y,-z
1/2-x,y,z
x,-y,z
loop_
_atom_site_type_symbol
_atom_site_label
_atom_site_fract_x
_atom_site_fract_y
_atom_site_fract_z
Si Si1 0.799806 0.172830 0.261048
Si Si2 0.331440 0.825067 0.497825
Si Si3 0.044169 0.169975 0.742355
Si Si4 0.200792 0.175301 0.257166
Si Si5 0.042052 0.674921 0.266519
Si Si6 0.875951 0.673282 0.138095
Si Si7 0.125696 0.672446 0.125526
Si Si8 0.069375 0.830647 0.487433
O O1 0.750000 0.197857 0.225309
O O2 0.807021 0.234605 0.389582
O O3 0.829011 0.263734 0.172920
O O4 0.812994 0.000000 0.254528
O O5 0.310050 0.759077 0.382911
O O6 0.381411 0.775745 0.505254
O O7 0.326346 0.000000 0.494803
O O8 0.086782 0.247130 0.790690
O O9 0.043798 0.182103 0.605590
O O10 0.000752 0.250022 0.788623
O O11 0.044106 0.000000 0.782382
O O12 0.250000 0.219662 0.224897
O O13 0.168970 0.242952 0.163404
O O14 0.194241 0.000000 0.256350
O O15 0.036056 0.500000 0.258346
O O16 0.084129 0.730135 0.196535
O O17 0.046543 0.723841 0.397260
O O18 0.877566 0.500000 0.165216
O O19 0.883633 0.706888 0.005743
O O20 0.133585 0.500000 0.148106
O O21 0.068144 0.000000 0.441769
#
# Coordination Sequence:
#
# PCOD8210004 Si02
#       8
#     8   8   8   8   8   8   8   8
#     4  10  20  37  62  90 120 154 192 236 289 347
#     4   9  16  32  58  87 119 152 184 228 288 344
#     4  11  23  40  62  89 119 150 189 235 292 350
#     4  10  20  35  60  91 117 146 190 239 283 335
#     4  11  23  39  60  87 118 152 194 237 286 344
#     4  11  24  42  61  81 113 155 199 243 288 338
#     4  10  24  43  59  79 113 158 197 236 288 344
#     4  10  19  35  60  87 118 154 187 228 286 349
#
# _framework density 19.718116999999999
#
# number of rings (size 3 to 8) (size 9 to 14) (size 15 to 20)
#    0.000    1.750    2.500    1.875    0.000    7.000 
#    0.000    5.625    0.000    1.500    0.000    0.000 
#    0.000    0.000    0.000    0.000    0.000    0.000 
#
# Total GULP energy -793826.326242 kJ/mol
# GULP energy per Si atom -12403.536348 kJ/mol
# Density = 1.967324 g / cm^3
# Si number density = 19.718117 Si / 1000 Ang^3
#
#
#
# Elastic Constant Matrix: (Units=GPa)
#
#
# Indices 1 2 3 4 5 6 
#
# 1 125.8461 51.9034 32.7043 0.0000 0.0000 0.0000
# 2 51.9034 77.5919 38.9385 0.0000 0.0000 0.0000
# 3 32.7043 38.9385 71.9115 0.0000 0.0000 0.0000
# 4 0.0000 0.0000 0.0000 28.2240 0.0000 0.0000
# 5 0.0000 0.0000 0.0000 0.0000 11.3577 0.0000
# 6 0.0000 0.0000 0.0000 0.0000 0.0000 31.3204
#
#
#
# Elastic Compliance Matrix: (Units=1/GPa)
#
#
# Indices 1 2 3 4 5 6 
#
# 1 0.011077 -0.006703 -0.001408 0.000000 0.000000 0.000000
# 2 -0.006703 0.021753 -0.008730 0.000000 0.000000 0.000000
# 3 -0.001408 -0.008730 0.019274 0.000000 0.000000 0.000000
# 4 0.000000 0.000000 0.000000 0.035431 0.000000 0.000000
# 5 0.000000 0.000000 0.000000 0.000000 0.088046 0.000000
# 6 0.000000 0.000000 0.000000 0.000000 0.000000 0.031928
#
#
# Mechanical properties :
#
#
# Convention : Reuss Voigt Hill
#
# Bulk Modulus (GPa) = 54.28689 58.04911 56.16800
# Shear Modulus (GPa) = 20.21587 24.30065 22.25826
#
# Velocity S-wave (km/s) = 3.20542 3.51437 3.36344
# Velocity P-wave (km/s) = 6.42579 6.78020 6.60537
#
# Compressibility (1/GPa) = 0.01842065
#
# Stress axis : x y z
#
# Youngs Moduli (GPa) = 90.28024 45.97095 51.88434
#
# Poissons Ratio (x) = 0.30814 0.07306
# Poissons Ratio (y) = 0.60514 0.45297
# Poissons Ratio (z) = 0.12712 0.40134
#
# Static dielectric constant tensor:
#      x y z
#    x 3.725800 0.000000 0.000000 
#    y 0.000000 3.421000 0.000000 
#    z 0.000000 0.000000 3.571320 
# 
# 
# High freq. dielectric constant tensor:
#      x y z
#    x 1.785340 0.000000 0.000000 
#    y 0.000000 1.749720 0.000000 
#    z 0.000000 0.000000 1.763410 
# 
# From -- ./inp_files/19520.got.cif
#   From: 2010.03.12/outbox.cif.g09.slc.cpg/sg51_10_cif.got.tgz:19520.got - 2010.04.16 13:43:02.
