data_PCOD8210498
_publ_section_title
;
Structure prediction by ZEFSAII (Michael W. Deem and Ramdas Pophale) SiO2 
 PCOD8210498
Probable space group: P M M A
;
_chemical_formula_sum "Si O2"
_cell_formula_units_Z 64
_cell_length_a 22.789443
_cell_length_b 9.310458
_cell_length_c 17.959870
_cell_angle_alpha 90.000000
_cell_angle_beta 90.000000
_cell_angle_gamma 90.000000
_cell_volume 3810.727945
_symmetry_space_group_name_H-M "P M M A"
_symmetry_group_IT_number 51
_symmetry_cell_setting 'orthorhombic'
loop_
_space_group_symop_operation_xyz
x,y,z
1/2-x,-y,z
1/2+x,-y,-z
-x,y,-z
-x,-y,-z
1/2+x,y,-z
1/2-x,y,z
x,-y,z
loop_
_atom_site_type_symbol
_atom_site_label
_atom_site_fract_x
_atom_site_fract_y
_atom_site_fract_z
Si Si1 0.816912 0.663717 0.012248
Si Si2 0.387594 0.329081 0.132322
Si Si3 0.819695 0.661064 0.598327
Si Si4 0.319476 0.662266 0.565364
Si Si5 0.500899 0.832325 0.913367
Si Si6 0.317466 0.168081 0.705465
Si Si7 0.180514 0.165976 0.260194
Si Si8 0.627592 0.167688 0.141497
O O1 0.750000 0.683158 0.986953
O O2 0.831395 0.500000 0.032468
O O3 0.828679 0.757057 0.084622
O O4 0.856959 0.716753 0.944512
O O5 0.389775 0.500000 0.143233
O O6 0.452530 0.263417 0.131119
O O7 0.350825 0.259922 0.198251
O O8 0.750000 0.657368 0.596443
O O9 0.842738 0.500000 0.616929
O O10 0.842967 0.710067 0.516473
O O11 0.841454 0.774098 0.659982
O O12 0.250000 0.677035 0.565784
O O13 0.339188 0.500000 0.581275
O O14 0.345133 0.760078 0.631507
O O15 0.439183 0.792161 0.876245
O O16 0.516443 0.000000 0.903986
O O17 0.500000 0.788997 0.000000
O O18 0.250000 0.214845 0.719144
O O19 0.356156 0.219423 0.775559
O O20 0.322336 0.000000 0.693090
O O21 0.250000 0.184965 0.250754
O O22 0.161834 0.000000 0.253845
O O23 0.639181 0.000000 0.132380
#
# Coordination Sequence:
#
# PCOD8210498 Si02
#       8
#     8   8   8   8   8   8   8   8
#     4  10  21  34  48  69  96 125 157 194 238 289
#     4  11  22  35  52  71  96 128 164 204 247 293
#     4   8  14  26  44  66  95 130 163 193 230 279
#     4   8  14  25  42  65  94 129 163 192 228 277
#     4  10  20  36  55  72  92 121 163 212 254 292
#     4   9  17  28  43  67  98 128 158 193 235 285
#     4  10  20  32  48  73 103 132 163 199 240 288
#     4  10  20  34  51  70  94 126 162 202 247 291
#
# _framework density 16.794691
#
# number of rings (size 3 to 8) (size 9 to 14) (size 15 to 20)
#    0.000    2.500    1.250    2.250    0.000    4.250 
#    0.000    3.750    0.000    0.000    0.000    0.875 
#    0.000    7.000    0.000    0.000    0.000    0.000 
#
# Total GULP energy -793503.581523 kJ/mol
# GULP energy per Si atom -12398.493461 kJ/mol
# Density = 1.675647 g / cm^3
# Si number density = 16.794691 Si / 1000 Ang^3
#
#
#
# Elastic Constant Matrix: (Units=GPa)
#
#
# Indices 1 2 3 4 5 6 
#
# 1 48.7768 30.0474 32.7923 0.0000 0.0000 0.0000
# 2 30.0474 67.7392 57.5500 0.0000 0.0000 0.0000
# 3 32.7923 57.5500 127.5892 0.0000 0.0000 0.0000
# 4 0.0000 0.0000 0.0000 33.9660 0.0000 0.0000
# 5 0.0000 0.0000 0.0000 0.0000 5.8043 0.0000
# 6 0.0000 0.0000 0.0000 0.0000 0.0000 20.8402
#
#
#
# Elastic Compliance Matrix: (Units=1/GPa)
#
#
# Indices 1 2 3 4 5 6 
#
# 1 0.028754 -0.010499 -0.002654 0.000000 0.000000 0.000000
# 2 -0.010499 0.027768 -0.009827 0.000000 0.000000 0.000000
# 3 -0.002654 -0.009827 0.012952 0.000000 0.000000 0.000000
# 4 0.000000 0.000000 0.000000 0.029441 0.000000 0.000000
# 5 0.000000 0.000000 0.000000 0.000000 0.172285 0.000000
# 6 0.000000 0.000000 0.000000 0.000000 0.000000 0.047984
#
#
# Mechanical properties :
#
#
# Convention : Reuss Voigt Hill
#
# Bulk Modulus (GPa) = 42.52844 53.87609 48.20226
# Shear Modulus (GPa) = 13.40544 20.36982 16.88763
#
# Velocity S-wave (km/s) = 2.82830 3.48641 3.17446
# Velocity P-wave (km/s) = 6.00360 6.95382 6.49611
#
# Compressibility (1/GPa) = 0.02351368
#
# Stress axis : x y z
#
# Youngs Moduli (GPa) = 34.77794 36.01235 77.20703
#
# Poissons Ratio (x) = 0.37811 0.20493
# Poissons Ratio (y) = 0.36515 0.75868
# Poissons Ratio (z) = 0.09231 0.35388
#
# Static dielectric constant tensor:
#      x y z
#    x 2.881410 0.000000 0.000000 
#    y 0.000000 3.178680 0.000000 
#    z 0.000000 0.000000 3.528480 
# 
# 
# High freq. dielectric constant tensor:
#      x y z
#    x 1.607670 0.000000 0.000000 
#    y 0.000000 1.649400 0.000000 
#    z 0.000000 0.000000 1.656170 
# 
# From -- ./inp_files/30921.got.cif
#   From: 2010.03.12/outbox.cif.g09.slc.cpg/sg51_16_cif.got.tgz:30921.got - 2010.04.16 13:43:02.
