data_PCOD8210312
_publ_section_title
;
Structure prediction by ZEFSAII (Michael W. Deem and Ramdas Pophale) SiO2 
 PCOD8210312
Probable space group: P M M A
;
_chemical_formula_sum "Si O2"
_cell_formula_units_Z 64
_cell_length_a 13.896657
_cell_length_b 8.989635
_cell_length_c 31.623127
_cell_angle_alpha 90.000000
_cell_angle_beta 90.000000
_cell_angle_gamma 90.000000
_cell_volume 3950.546784
_symmetry_space_group_name_H-M "P M M A"
_symmetry_group_IT_number 51
_symmetry_cell_setting 'orthorhombic'
loop_
_space_group_symop_operation_xyz
x,y,z
1/2-x,-y,z
1/2+x,-y,-z
-x,y,-z
-x,-y,-z
1/2+x,y,-z
1/2-x,y,z
x,-y,z
loop_
_atom_site_type_symbol
_atom_site_label
_atom_site_fract_x
_atom_site_fract_y
_atom_site_fract_z
Si Si1 0.542465 0.671523 0.895123
Si Si2 0.860673 0.824701 0.817634
Si Si3 0.643914 0.177038 0.480419
Si Si4 0.136021 0.167861 0.027506
Si Si5 0.542685 0.176744 0.564327
Si Si6 0.361835 0.174444 0.350876
Si Si7 0.635689 0.667413 0.733014
Si Si8 0.858533 0.670493 0.056547
O O1 0.568207 0.500000 0.886342
O O2 0.572400 0.768563 0.855203
O O3 0.598644 0.724128 0.936364
O O4 0.428221 0.693903 0.903216
O O5 0.750000 0.777425 0.826316
O O6 0.900671 0.754504 0.774307
O O7 0.869883 0.000000 0.813850
O O8 0.750000 0.241466 0.469852
O O9 0.610486 0.236131 0.526418
O O10 0.567367 0.228875 0.444667
O O11 0.646459 0.000000 0.481703
O O12 0.250000 0.171136 0.029772
O O13 0.096986 0.000000 0.033723
O O14 0.102455 0.227820 0.981778
O O15 0.579511 0.239877 0.609069
O O16 0.549438 0.000000 0.565489
O O17 0.250000 0.211091 0.358265
O O18 0.403753 0.254225 0.309258
O O19 0.378190 0.000000 0.344823
O O20 0.750000 0.671607 0.731940
O O21 0.595878 0.500000 0.734881
O O22 0.750000 0.715049 0.070068
O O23 0.862351 0.500000 0.040981
#
# Coordination Sequence:
#
# PCOD8210312 Si02
#       8
#     8   8   8   8   8   8   8   8
#     4  11  21  31  47  69  90 116 148 178 211 252
#     4  10  20  33  48  67  92 118 141 168 207 256
#     4   8  12  18  28  45  74 109 141 174 210 244
#     4  10  20  32  46  66  92 120 148 179 215 252
#     4   8  13  19  29  49  76 106 139 172 207 247
#     4   9  15  23  37  57  81 108 136 167 205 247
#     4   9  17  29  44  62  85 111 137 167 205 250
#     4   9  19  35  50  64  86 116 149 183 216 250
#
# _framework density 16.200289000000001
#
# number of rings (size 3 to 8) (size 9 to 14) (size 15 to 20)
#    0.000    2.750    0.000    3.375    0.000    8.500 
#    0.000    0.000    0.000    0.000    0.000    2.625 
#    0.000    4.500    0.000    0.000    0.000    0.000 
#
# Total GULP energy -793407.689272 kJ/mol
# GULP energy per Si atom -12396.995145 kJ/mol
# Density = 1.616342 g / cm^3
# Si number density = 16.200289 Si / 1000 Ang^3
#
#
#
# Elastic Constant Matrix: (Units=GPa)
#
#
# Indices 1 2 3 4 5 6 
#
# 1 69.4759 25.7682 58.4624 0.0000 0.0000 0.0000
# 2 25.7682 53.5051 36.1637 0.0000 0.0000 0.0000
# 3 58.4624 36.1637 126.0419 0.0000 0.0000 0.0000
# 4 0.0000 0.0000 0.0000 5.9377 0.0000 0.0000
# 5 0.0000 0.0000 0.0000 0.0000 23.2064 0.0000
# 6 0.0000 0.0000 0.0000 0.0000 0.0000 12.5744
#
#
#
# Elastic Compliance Matrix: (Units=1/GPa)
#
#
# Indices 1 2 3 4 5 6 
#
# 1 0.024701 -0.005151 -0.009979 0.000000 0.000000 0.000000
# 2 -0.005151 0.024260 -0.004571 0.000000 0.000000 0.000000
# 3 -0.009979 -0.004571 0.013874 0.000000 0.000000 0.000000
# 4 0.000000 0.000000 0.000000 0.168414 0.000000 0.000000
# 5 0.000000 0.000000 0.000000 0.000000 0.043092 0.000000
# 6 0.000000 0.000000 0.000000 0.000000 0.000000 0.079526
#
#
# Mechanical properties :
#
#
# Convention : Reuss Voigt Hill
#
# Bulk Modulus (GPa) = 42.67664 54.42350 48.55007
# Shear Modulus (GPa) = 12.46624 16.91896 14.69260
#
# Velocity S-wave (km/s) = 2.77701 3.23516 3.01480
# Velocity P-wave (km/s) = 6.05662 6.90088 6.49249
#
# Compressibility (1/GPa) = 0.02343202
#
# Stress axis : x y z
#
# Youngs Moduli (GPa) = 40.48338 41.21928 72.07590
#
# Poissons Ratio (x) = 0.21233 0.71927
# Poissons Ratio (y) = 0.20854 0.32949
# Poissons Ratio (z) = 0.40400 0.18843
#
# Static dielectric constant tensor:
#      x y z
#    x 3.116470 0.000000 0.000000 
#    y 0.000000 2.961340 0.000000 
#    z 0.000000 0.000000 3.133280 
# 
# 
# High freq. dielectric constant tensor:
#      x y z
#    x 1.600940 0.000000 0.000000 
#    y 0.000000 1.607890 0.000000 
#    z 0.000000 0.000000 1.614560 
# 
# From -- ./inp_files/37842.got.cif
#   From: 2010.03.12/outbox.cif.g09.slc.cpg/sg51_19_cif.got.tgz:37842.got - 2010.04.16 13:43:02.
