data_PCOD8210749
_publ_section_title
;
Structure prediction by ZEFSAII (Michael W. Deem and Ramdas Pophale) SiO2 
 PCOD8210749
Probable space group: P M M A
;
_chemical_formula_sum "Si O2"
_cell_formula_units_Z 56
_cell_length_a 9.228538
_cell_length_b 14.305600
_cell_length_c 23.444867
_cell_angle_alpha 90.000000
_cell_angle_beta 90.000000
_cell_angle_gamma 90.000000
_cell_volume 3095.186024
_symmetry_space_group_name_H-M "P M M A"
_symmetry_group_IT_number 51
_symmetry_cell_setting 'orthorhombic'
loop_
_space_group_symop_operation_xyz
x,y,z
1/2-x,-y,z
1/2+x,-y,-z
-x,y,-z
-x,-y,-z
1/2+x,y,-z
1/2-x,y,z
x,-y,z
loop_
_atom_site_type_symbol
_atom_site_label
_atom_site_fract_x
_atom_site_fract_y
_atom_site_fract_z
Si Si1 0.081975 0.105782 0.945574
Si Si2 0.082502 0.392616 0.653210
Si Si3 0.081929 0.891870 0.360622
Si Si4 0.081501 0.393482 0.944659
Si Si5 0.418387 0.249350 0.850325
Si Si6 0.419501 0.241677 0.558730
Si Si7 0.419136 0.741094 0.266879
O O1 0.250000 0.114973 0.959775
O O2 0.043384 0.159163 0.887850
O O3 0.031546 0.000000 0.935460
O O4 0.000000 0.149388 0.000000
O O5 0.250000 0.385197 0.670873
O O6 0.036451 0.500000 0.642639
O O7 0.051524 0.334231 0.596008
O O8 0.989836 0.350267 0.704743
O O9 0.250000 0.881281 0.377795
O O10 0.047672 0.834634 0.303070
O O11 0.985140 0.850491 0.411537
O O12 0.040002 0.000000 0.350613
O O13 0.250000 0.380115 0.957366
O O14 0.036752 0.500000 0.933880
O O15 0.037553 0.339583 0.887372
O O16 0.000000 0.352941 0.000000
O O17 0.250000 0.252103 0.832531
O O18 0.515865 0.243670 0.794984
O O19 0.500000 0.260074 0.500000
O O20 0.250000 0.224350 0.548287
O O21 0.250000 0.721744 0.261703
#
# Coordination Sequence:
#
# PCOD8210749 Si02
#       7
#     8   8   8   8   8   8   8
#     4   9  18  32  49  70  96 126 162 205 253 305
#     4   9  19  37  58  77 102 139 176 208 249 301
#     4   9  19  37  57  75 101 138 175 213 258 302
#     4   9  18  32  49  69  93 122 157 197 242 293
#     4  10  20  33  49  70  98 131 164 200 248 305
#     4  10  20  34  54  82 112 139 171 210 250 296
#     4  10  21  35  52  77 104 130 169 218 259 298
#
# _framework density 18.092613
#
# number of rings (size 3 to 8) (size 9 to 14) (size 15 to 20)
#    0.000    2.571    0.000    1.286    0.000    4.571 
#    0.000    1.429    0.000    0.000    0.000    0.000 
#    0.000    0.000    0.000    0.000    0.000    0.000 
#
# Total GULP energy -694478.081212 kJ/mol
# GULP energy per Si atom -12401.394307 kJ/mol
# Density = 1.805143 g / cm^3
# Si number density = 18.092613 Si / 1000 Ang^3
#
#
#
# Elastic Constant Matrix: (Units=GPa)
#
#
# Indices 1 2 3 4 5 6 
#
# 1 82.9390 50.6186 72.8254 0.0000 0.0000 0.0000
# 2 50.6186 127.6885 58.9138 0.0000 0.0000 0.0000
# 3 72.8254 58.9138 140.5064 0.0000 0.0000 0.0000
# 4 0.0000 0.0000 0.0000 16.8573 0.0000 0.0000
# 5 0.0000 0.0000 0.0000 0.0000 40.0721 0.0000
# 6 0.0000 0.0000 0.0000 0.0000 0.0000 25.5177
#
#
#
# Elastic Compliance Matrix: (Units=1/GPa)
#
#
# Indices 1 2 3 4 5 6 
#
# 1 0.024227 -0.004724 -0.010576 0.000000 0.000000 0.000000
# 2 -0.004724 0.010631 -0.002009 0.000000 0.000000 0.000000
# 3 -0.010576 -0.002009 0.013441 0.000000 0.000000 0.000000
# 4 0.000000 0.000000 0.000000 0.059321 0.000000 0.000000
# 5 0.000000 0.000000 0.000000 0.000000 0.024955 0.000000
# 6 0.000000 0.000000 0.000000 0.000000 0.000000 0.039188
#
#
# Mechanical properties :
#
#
# Convention : Reuss Voigt Hill
#
# Bulk Modulus (GPa) = 73.09708 79.53883 76.31796
# Shear Modulus (GPa) = 23.70311 27.74118 25.72214
#
# Velocity S-wave (km/s) = 3.62346 3.91997 3.77463
# Velocity P-wave (km/s) = 7.61546 8.03403 7.82755
#
# Compressibility (1/GPa) = 0.01368044
#
# Stress axis : x y z
#
# Youngs Moduli (GPa) = 41.27669 94.06151 74.39897
#
# Poissons Ratio (x) = 0.44439 0.78684
# Poissons Ratio (y) = 0.19501 0.14947
# Poissons Ratio (z) = 0.43654 0.18897
#
# Static dielectric constant tensor:
#      x y z
#    x 3.349370 0.000000 0.000000 
#    y 0.000000 3.576460 0.000000 
#    z 0.000000 0.000000 3.271240 
# 
# 
# High freq. dielectric constant tensor:
#      x y z
#    x 1.700990 0.000000 0.000000 
#    y 0.000000 1.707700 0.000000 
#    z 0.000000 0.000000 1.697960 
# 
# From -- ./inp_files/31930.got.cif
#   From: 2010.03.12/outbox.cif.g09.slc.cpg/sg51_16_cif.got.tgz:31930.got - 2010.04.16 13:43:02.
