data_PCOD8210136
_publ_section_title
;
Structure prediction by ZEFSAII (Michael W. Deem and Ramdas Pophale) SiO2 
 PCOD8210136
Probable space group: P M M A
;
_chemical_formula_sum "Si O2"
_cell_formula_units_Z 64
_cell_length_a 14.359839
_cell_length_b 14.319990
_cell_length_c 18.690197
_cell_angle_alpha 90.000000
_cell_angle_beta 90.000000
_cell_angle_gamma 90.000000
_cell_volume 3843.316624
_symmetry_space_group_name_H-M "P M M A"
_symmetry_group_IT_number 51
_symmetry_cell_setting 'orthorhombic'
loop_
_space_group_symop_operation_xyz
x,y,z
1/2-x,-y,z
1/2+x,-y,-z
-x,y,-z
-x,-y,-z
1/2+x,y,-z
1/2-x,y,z
x,-y,z
loop_
_atom_site_type_symbol
_atom_site_label
_atom_site_fract_x
_atom_site_fract_y
_atom_site_fract_z
Si Si1 0.358460 0.106172 0.949734
Si Si2 0.531719 0.110256 0.183683
Si Si3 0.960318 0.213378 0.326851
Si Si4 0.640382 0.394146 0.355520
Si Si5 0.351816 0.110630 0.106115
Si Si6 0.359845 0.600255 0.482876
Si Si7 0.858605 0.783450 0.595329
Si Si8 0.858284 0.893538 0.452493
O O1 0.250000 0.113775 0.934091
O O2 0.411241 0.154134 0.883210
O O3 0.393744 0.000000 0.950246
O O4 0.382011 0.151151 0.027651
O O5 0.566838 0.157004 0.256157
O O6 0.424096 0.136975 0.168119
O O7 0.547052 0.000000 0.192434
O O8 0.923206 0.318985 0.313337
O O9 0.910952 0.170709 0.396274
O O10 0.072222 0.200912 0.337878
O O11 0.750000 0.368657 0.348846
O O12 0.623710 0.500000 0.326672
O O13 0.603291 0.386672 0.436847
O O14 0.250000 0.150047 0.128015
O O15 0.345351 0.000000 0.096181
O O16 0.250000 0.601936 0.488291
O O17 0.394499 0.500000 0.452093
O O18 0.393265 0.682784 0.432436
O O19 0.750000 0.785398 0.619826
O O20 0.876857 0.859222 0.533348
O O21 0.750000 0.884767 0.434373
O O22 0.893292 0.000000 0.446926
#
# Coordination Sequence:
#
# PCOD8210136 Si02
#       8
#     8   8   8   8   8   8   8   8
#     4   8  14  26  45  67  89 116 150 185 223 266
#     4  10  20  30  41  64  98 128 153 185 222 262
#     4  12  22  31  47  69  92 122 156 188 229 283
#     4   9  18  33  52  72  92 113 143 189 244 295
#     4   8  14  27  47  66  87 121 159 189 220 260
#     4   8  14  28  50  70  85 102 134 188 245 286
#     4  10  21  35  47  63  88 118 156 200 236 270
#     4  10  21  36  50  62  82 117 160 202 237 268
#
# _framework density 16.652284000000002
#
# number of rings (size 3 to 8) (size 9 to 14) (size 15 to 20)
#    0.000    2.625    1.250    3.000    0.000    5.000 
#    0.000    2.500    0.000    0.000    0.000    0.000 
#    0.000    2.000    0.000    2.750    0.000    0.875 
#
# Total GULP energy -793042.316745 kJ/mol
# GULP energy per Si atom -12391.286199 kJ/mol
# Density = 1.661438 g / cm^3
# Si number density = 16.652284 Si / 1000 Ang^3
#
#
#
# Elastic Constant Matrix: (Units=GPa)
#
#
# Indices 1 2 3 4 5 6 
#
# 1 48.1032 18.9333 17.3309 0.0000 0.0000 0.0000
# 2 18.9333 71.4417 15.8411 0.0000 0.0000 0.0000
# 3 17.3309 15.8411 42.2432 0.0000 0.0000 0.0000
# 4 0.0000 0.0000 0.0000 3.4870 0.0000 0.0000
# 5 0.0000 0.0000 0.0000 0.0000 16.8163 0.0000
# 6 0.0000 0.0000 0.0000 0.0000 0.0000 14.0246
#
#
#
# Elastic Compliance Matrix: (Units=1/GPa)
#
#
# Indices 1 2 3 4 5 6 
#
# 1 0.025885 -0.004914 -0.008777 0.000000 0.000000 0.000000
# 2 -0.004914 0.016200 -0.004059 0.000000 0.000000 0.000000
# 3 -0.008777 -0.004059 0.028795 0.000000 0.000000 0.000000
# 4 0.000000 0.000000 0.000000 0.286776 0.000000 0.000000
# 5 0.000000 0.000000 0.000000 0.000000 0.059466 0.000000
# 6 0.000000 0.000000 0.000000 0.000000 0.000000 0.071303
#
#
# Mechanical properties :
#
#
# Convention : Reuss Voigt Hill
#
# Bulk Modulus (GPa) = 28.26405 29.55542 28.90973
# Shear Modulus (GPa) = 9.33327 14.17779 11.75553
#
# Velocity S-wave (km/s) = 2.37001 2.92104 2.65984
# Velocity P-wave (km/s) = 4.94967 5.40035 5.17991
#
# Compressibility (1/GPa) = 0.03538064
#
# Stress axis : x y z
#
# Youngs Moduli (GPa) = 38.63249 61.72966 34.72770
#
# Poissons Ratio (x) = 0.30333 0.30481
# Poissons Ratio (y) = 0.18983 0.14096
# Poissons Ratio (z) = 0.33908 0.25055
#
# Static dielectric constant tensor:
#      x y z
#    x 3.262360 0.000000 0.000000 
#    y 0.000000 1.961260 0.000000 
#    z 0.000000 0.000000 2.906800 
# 
# 
# High freq. dielectric constant tensor:
#      x y z
#    x 1.656380 0.000000 0.000000 
#    y 0.000000 1.604740 0.000000 
#    z 0.000000 0.000000 1.608420 
# 
# From -- ./inp_files/29960.got.cif
#   From: 2010.03.12/outbox.cif.g09.slc.cpg/sg51_15_cif.got.tgz:29960.got - 2010.04.16 13:43:02.
