data_PCOD8210135
_publ_section_title
;
Structure prediction by ZEFSAII (Michael W. Deem and Ramdas Pophale) SiO2 
 PCOD8210135
Probable space group: P M M A
;
_chemical_formula_sum "Si O2"
_cell_formula_units_Z 64
_cell_length_a 30.164162
_cell_length_b 9.269294
_cell_length_c 15.061104
_cell_angle_alpha 90.000000
_cell_angle_beta 90.000000
_cell_angle_gamma 90.000000
_cell_volume 4211.091996
_symmetry_space_group_name_H-M "P M M A"
_symmetry_group_IT_number 51
_symmetry_cell_setting 'orthorhombic'
loop_
_space_group_symop_operation_xyz
x,y,z
1/2-x,-y,z
1/2+x,-y,-z
-x,y,-z
-x,-y,-z
1/2+x,y,-z
1/2-x,y,z
x,-y,z
loop_
_atom_site_type_symbol
_atom_site_label
_atom_site_fract_x
_atom_site_fract_y
_atom_site_fract_z
Si Si1 0.052106 0.338378 0.098448
Si Si2 0.050581 0.834580 0.266211
Si Si3 0.616424 0.332550 0.392913
Si Si4 0.446785 0.662566 0.903114
Si Si5 0.446047 0.833093 0.734184
Si Si6 0.607977 0.337722 0.602571
Si Si7 0.201171 0.832100 0.593604
Si Si8 0.797269 0.336764 0.583887
O O1 0.069069 0.500000 0.117502
O O2 0.070247 0.236793 0.176625
O O3 0.999454 0.334774 0.098177
O O4 0.069575 0.287107 0.001282
O O5 0.073504 0.769326 0.352918
O O6 0.998394 0.810052 0.275525
O O7 0.063447 0.000000 0.261086
O O8 0.616722 0.500000 0.366900
O O9 0.575638 0.254419 0.345696
O O10 0.609805 0.308047 0.497553
O O11 0.662534 0.260394 0.358649
O O12 0.429998 0.500000 0.883363
O O13 0.428361 0.770742 0.828305
O O14 0.432682 0.000000 0.729045
O O15 0.591821 0.500000 0.622334
O O16 0.658133 0.311494 0.641990
O O17 0.250000 0.807621 0.638123
O O18 0.204099 0.781538 0.492415
O O19 0.188079 0.000000 0.596423
O O20 0.750000 0.325105 0.637404
O O21 0.801509 0.500000 0.542810
#
# Coordination Sequence:
#
# PCOD8210135 Si02
#       8
#     8   8   8   8   8   8   8   8
#     4   8  14  26  44  62  80 103 133 170 209 249
#     4  10  20  30  41  59  84 114 144 175 210 247
#     4  10  20  32  45  60  80 111 148 181 210 243
#     4   8  14  26  44  63  80 102 133 169 210 251
#     4  10  20  31  42  59  84 113 143 176 212 247
#     4   9  18  30  43  59  80 110 145 178 210 243
#     4   9  16  26  42  63  84 105 130 165 211 256
#     4   8  14  26  43  61  80 103 134 171 210 251
#
# _framework density 15.197959000000001
#
# number of rings (size 3 to 8) (size 9 to 14) (size 15 to 20)
#    0.000    3.000    0.000    3.000    0.000    5.750 
#    0.000    5.000    0.000    0.000    0.000    0.000 
#    0.000    1.000    0.000    8.250    0.000    4.875 
#
# Total GULP energy -792915.763556 kJ/mol
# GULP energy per Si atom -12389.308806 kJ/mol
# Density = 1.516337 g / cm^3
# Si number density = 15.197959 Si / 1000 Ang^3
#
#
#
# Elastic Constant Matrix: (Units=GPa)
#
#
# Indices 1 2 3 4 5 6 
#
# 1 50.3504 47.1140 33.8880 0.0000 0.0000 0.0000
# 2 47.1140 109.8417 48.9288 0.0000 0.0000 0.0000
# 3 33.8880 48.9288 65.1791 0.0000 0.0000 0.0000
# 4 0.0000 0.0000 0.0000 21.1019 0.0000 0.0000
# 5 0.0000 0.0000 0.0000 0.0000 1.2168 0.0000
# 6 0.0000 0.0000 0.0000 0.0000 0.0000 22.2307
#
#
#
# Elastic Compliance Matrix: (Units=1/GPa)
#
#
# Indices 1 2 3 4 5 6 
#
# 1 0.038015 -0.011270 -0.011305 0.000000 0.000000 0.000000
# 2 -0.011270 0.017019 -0.006916 0.000000 0.000000 0.000000
# 3 -0.011305 -0.006916 0.026412 0.000000 0.000000 0.000000
# 4 0.000000 0.000000 0.000000 0.047389 0.000000 0.000000
# 5 0.000000 0.000000 0.000000 0.000000 0.821847 0.000000
# 6 0.000000 0.000000 0.000000 0.000000 0.000000 0.044983
#
#
# Mechanical properties :
#
#
# Convention : Reuss Voigt Hill
#
# Bulk Modulus (GPa) = 44.51595 53.91474 49.21535
# Shear Modulus (GPa) = 4.70751 15.27259 9.99005
#
# Velocity S-wave (km/s) = 1.76187 3.17347 2.56662
# Velocity P-wave (km/s) = 5.78733 6.99856 6.42157
#
# Compressibility (1/GPa) = 0.02246386
#
# Stress axis : x y z
#
# Youngs Moduli (GPa) = 26.30557 58.75855 37.86198
#
# Poissons Ratio (x) = 0.66220 0.42801
# Poissons Ratio (y) = 0.29646 0.26186
# Poissons Ratio (z) = 0.29737 0.40639
#
# Static dielectric constant tensor:
#      x y z
#    x 2.971920 0.000000 0.000000 
#    y 0.000000 3.048190 0.000000 
#    z 0.000000 0.000000 2.829830 
# 
# 
# High freq. dielectric constant tensor:
#      x y z
#    x 1.559800 0.000000 0.000000 
#    y 0.000000 1.594260 0.000000 
#    z 0.000000 0.000000 1.547710 
# 
# From -- ./inp_files/26571.got.cif
#   From: 2010.03.12/outbox.cif.g09.slc.cpg/sg51_14_cif.got.tgz:26571.got - 2010.04.16 13:43:02.
