data_PCOD8210287
_publ_section_title
;
Structure prediction by ZEFSAII (Michael W. Deem and Ramdas Pophale) SiO2 
 PCOD8210287
Probable space group: P M M A
;
_chemical_formula_sum "Si O2"
_cell_formula_units_Z 48
_cell_length_a 9.033592
_cell_length_b 13.907015
_cell_length_c 23.902261
_cell_angle_alpha 90.000000
_cell_angle_beta 90.000000
_cell_angle_gamma 90.000000
_cell_volume 3002.848207
_symmetry_space_group_name_H-M "P M M A"
_symmetry_group_IT_number 51
_symmetry_cell_setting 'orthorhombic'
loop_
_space_group_symop_operation_xyz
x,y,z
1/2-x,-y,z
1/2+x,-y,-z
-x,y,-z
-x,-y,-z
1/2+x,y,-z
1/2-x,y,z
x,-y,z
loop_
_atom_site_type_symbol
_atom_site_label
_atom_site_fract_x
_atom_site_fract_y
_atom_site_fract_z
Si Si1 0.925371 0.605901 0.222607
Si Si2 0.423991 0.389139 0.556294
Si Si3 0.075837 0.791860 0.840513
Si Si4 0.423723 0.110275 0.057419
Si Si5 0.074438 0.894187 0.727458
Si Si6 0.573536 0.290948 0.332343
O O1 0.750000 0.601891 0.227123
O O2 0.990191 0.500000 0.208378
O O3 0.968525 0.681815 0.174328
O O4 0.987229 0.640338 0.282885
O O5 0.500000 0.350521 0.500000
O O6 0.250000 0.375363 0.549556
O O7 0.465463 0.500000 0.567279
O O8 0.488034 0.327004 0.608080
O O9 0.250000 0.802244 0.852754
O O10 0.026676 0.859526 0.789048
O O11 0.984052 0.821216 0.894402
O O12 0.250000 0.125308 0.050919
O O13 0.464004 0.000000 0.071810
O O14 0.500000 0.142214 0.000000
O O15 0.250000 0.898469 0.725446
O O16 0.018957 0.818290 0.680430
O O17 0.006235 0.000000 0.715547
O O18 0.750000 0.295611 0.332837
#
# Coordination Sequence:
#
# PCOD8210287 Si02
#       6
#     8   8   8   8   8   8
#     4   8  13  22  39  64  89 110 135 168 204 242
#     4   9  16  25  38  56  77 101 130 165 203 241
#     4   9  16  26  43  66  89 111 134 165 205 245
#     4  10  20  32  46  64  86 112 140 170 204 242
#     4   8  13  21  36  60  85 105 129 164 202 238
#     4   8  13  21  35  56  80 106 135 166 200 238
#
# _framework density 15.984824
#
# number of rings (size 3 to 8) (size 9 to 14) (size 15 to 20)
#    0.000    3.333    0.000    3.500    0.000    3.667 
#    0.000    0.000    0.000    5.500    0.000    0.000 
#    0.000    0.000    0.000    0.000    0.000    0.000 
#
# Total GULP energy -594868.331550 kJ/mol
# GULP energy per Si atom -12393.090241 kJ/mol
# Density = 1.594844 g / cm^3
# Si number density = 15.984824 Si / 1000 Ang^3
#
#
#
# Elastic Constant Matrix: (Units=GPa)
#
#
# Indices 1 2 3 4 5 6 
#
# 1 25.6932 22.1045 32.9961 0.0000 0.0000 0.0000
# 2 22.1045 139.1048 79.3553 0.0000 0.0000 0.0000
# 3 32.9961 79.3553 140.6355 0.0000 0.0000 0.0000
# 4 0.0000 0.0000 0.0000 26.7844 0.0000 0.0000
# 5 0.0000 0.0000 0.0000 0.0000 22.7479 0.0000
# 6 0.0000 0.0000 0.0000 0.0000 0.0000 10.9265
#
#
#
# Elastic Compliance Matrix: (Units=1/GPa)
#
#
# Indices 1 2 3 4 5 6 
#
# 1 0.056108 -0.002074 -0.011994 0.000000 0.000000 0.000000
# 2 -0.002074 0.010678 -0.005539 0.000000 0.000000 0.000000
# 3 -0.011994 -0.005539 0.013050 0.000000 0.000000 0.000000
# 4 0.000000 0.000000 0.000000 0.037335 0.000000 0.000000
# 5 0.000000 0.000000 0.000000 0.000000 0.043960 0.000000
# 6 0.000000 0.000000 0.000000 0.000000 0.000000 0.091521
#
#
# Mechanical properties :
#
#
# Convention : Reuss Voigt Hill
#
# Bulk Modulus (GPa) = 24.61647 63.81614 44.21630
# Shear Modulus (GPa) = 16.37167 23.49027 19.93097
#
# Velocity S-wave (km/s) = 3.20379 3.83761 3.53493
# Velocity P-wave (km/s) = 5.39620 7.72308 6.66202
#
# Compressibility (1/GPa) = 0.04062321
#
# Stress axis : x y z
#
# Youngs Moduli (GPa) = 17.82277 93.65069 76.62877
#
# Poissons Ratio (x) = 0.19419 0.91910
# Poissons Ratio (y) = 0.03696 0.42442
# Poissons Ratio (z) = 0.21377 0.51870
#
# Static dielectric constant tensor:
#      x y z
#    x 2.553240 0.000000 0.000000 
#    y 0.000000 3.480590 0.000000 
#    z 0.000000 0.000000 3.048350 
# 
# 
# High freq. dielectric constant tensor:
#      x y z
#    x 1.566490 0.000000 0.000000 
#    y 0.000000 1.612150 0.000000 
#    z 0.000000 0.000000 1.607650 
# 
# From -- ./inp_files/31589.got.cif
#   From: 2010.03.12/outbox.cif.g09.slc.cpg/sg51_16_cif.got.tgz:31589.got - 2010.04.16 13:43:02.
