data_PCOD8210357
_publ_section_title
;
Structure prediction by ZEFSAII (Michael W. Deem and Ramdas Pophale) SiO2 
 PCOD8210357
Probable space group: P M M A
;
_chemical_formula_sum "Si O2"
_cell_formula_units_Z 56
_cell_length_a 9.344954
_cell_length_b 29.193718
_cell_length_c 13.681449
_cell_angle_alpha 90.000000
_cell_angle_beta 90.000000
_cell_angle_gamma 90.000000
_cell_volume 3732.490168
_symmetry_space_group_name_H-M "P M M A"
_symmetry_group_IT_number 51
_symmetry_cell_setting 'orthorhombic'
loop_
_space_group_symop_operation_xyz
x,y,z
1/2-x,-y,z
1/2+x,-y,-z
-x,y,-z
-x,-y,-z
1/2+x,y,-z
1/2-x,y,z
x,-y,z
loop_
_atom_site_type_symbol
_atom_site_label
_atom_site_fract_x
_atom_site_fract_y
_atom_site_fract_z
Si Si1 0.916606 0.216875 0.098355
Si Si2 0.586422 0.875884 0.209155
Si Si3 0.915581 0.052972 0.902105
Si Si4 0.080239 0.263659 0.709725
Si Si5 0.583966 0.176494 0.404280
Si Si6 0.581823 0.352623 0.398246
Si Si7 0.584983 0.451593 0.400811
O O1 0.750000 0.224342 0.077621
O O2 0.946667 0.165610 0.135311
O O3 0.974389 0.252394 0.180960
O O4 0.000000 0.227486 0.000000
O O5 0.750000 0.892096 0.196538
O O6 0.480604 0.917711 0.186385
O O7 0.557531 0.860923 0.320219
O O8 0.750000 0.065537 0.917706
O O9 0.935833 0.000000 0.874811
O O10 0.000000 0.065933 0.000000
O O11 0.250000 0.259229 0.712226
O O12 0.024238 0.225744 0.632681
O O13 0.027129 0.313989 0.677163
O O14 0.500000 0.160655 0.500000
O O15 0.750000 0.179900 0.431130
O O16 0.500000 0.347086 0.500000
O O17 0.750000 0.346095 0.419107
O O18 0.549148 0.402882 0.348379
O O19 0.500000 0.452835 0.500000
O O20 0.750000 0.450748 0.430000
O O21 0.551536 0.500000 0.342292
#
# Coordination Sequence:
#
# PCOD8210357 Si02
#       7
#     8   8   8   8   8   8   8
#     4   9  17  29  43  59  80 104 130 160 194 233
#     4   9  18  31  46  64  86 111 136 163 196 234
#     4  10  20  32  47  68  91 112 134 163 199 238
#     4   8  15  27  40  55  78 106 132 159 195 236
#     4   9  17  29  44  62  84 109 137 168 199 231
#     4   9  15  23  36  52  73 103 132 158 191 228
#     4   8  13  20  30  46  68  94 125 158 189 223
#
# _framework density 15.003389
#
# number of rings (size 3 to 8) (size 9 to 14) (size 15 to 20)
#    0.000    3.143    0.000    3.000    0.000    3.143 
#    0.000    2.857    0.000    0.429    0.000    0.000 
#    0.000    0.571    0.000    0.429    0.000    1.143 
#
# Total GULP energy -693811.770327 kJ/mol
# GULP energy per Si atom -12389.495899 kJ/mol
# Density = 1.496924 g / cm^3
# Si number density = 15.003389 Si / 1000 Ang^3
#
#
#
# Elastic Constant Matrix: (Units=GPa)
#
#
# Indices 1 2 3 4 5 6 
#
# 1 52.3030 45.1446 40.1421 0.0000 0.0000 0.0000
# 2 45.1446 110.5632 52.4046 0.0000 0.0000 0.0000
# 3 40.1421 52.4046 93.1587 0.0000 0.0000 0.0000
# 4 0.0000 0.0000 0.0000 16.9322 0.0000 0.0000
# 5 0.0000 0.0000 0.0000 0.0000 24.3172 0.0000
# 6 0.0000 0.0000 0.0000 0.0000 0.0000 15.7974
#
#
#
# Elastic Compliance Matrix: (Units=1/GPa)
#
#
# Indices 1 2 3 4 5 6 
#
# 1 0.034810 -0.009687 -0.009551 0.000000 0.000000 0.000000
# 2 -0.009687 0.015028 -0.004280 0.000000 0.000000 0.000000
# 3 -0.009551 -0.004280 0.017257 0.000000 0.000000 0.000000
# 4 0.000000 0.000000 0.000000 0.059059 0.000000 0.000000
# 5 0.000000 0.000000 0.000000 0.000000 0.041123 0.000000
# 6 0.000000 0.000000 0.000000 0.000000 0.000000 0.063302
#
#
# Mechanical properties :
#
#
# Convention : Reuss Voigt Hill
#
# Bulk Modulus (GPa) = 49.84690 59.04527 54.44609
# Shear Modulus (GPa) = 17.58691 19.29825 18.44258
#
# Velocity S-wave (km/s) = 3.42745 3.59034 3.50984
# Velocity P-wave (km/s) = 6.99708 7.52512 7.26590
#
# Compressibility (1/GPa) = 0.02006143
#
# Stress axis : x y z
#
# Youngs Moduli (GPa) = 28.72697 66.54040 57.94621
#
# Poissons Ratio (x) = 0.64456 0.55343
# Poissons Ratio (y) = 0.27827 0.24801
# Poissons Ratio (z) = 0.27436 0.28479
#
# Static dielectric constant tensor:
#      x y z
#    x 2.774070 0.000000 0.000000 
#    y 0.000000 3.293380 0.000000 
#    z 0.000000 0.000000 2.212770 
# 
# 
# High freq. dielectric constant tensor:
#      x y z
#    x 1.567300 0.000000 0.000000 
#    y 0.000000 1.579430 0.000000 
#    z 0.000000 0.000000 1.540060 
# 
# From -- ./inp_files/22520.got.cif
#   From: 2010.03.12/outbox.cif.g09.slc.cpg/sg51_12_cif.got.tgz:22520.got - 2010.04.16 13:43:02.
