data_PCOD8210340
_publ_section_title
;
Structure prediction by ZEFSAII (Michael W. Deem and Ramdas Pophale) SiO2 
 PCOD8210340
Probable space group: P M M A
;
_chemical_formula_sum "Si O2"
_cell_formula_units_Z 48
_cell_length_a 9.114827
_cell_length_b 9.240944
_cell_length_c 31.329174
_cell_angle_alpha 90.000000
_cell_angle_beta 90.000000
_cell_angle_gamma 90.000000
_cell_volume 2638.843978
_symmetry_space_group_name_H-M "P M M A"
_symmetry_group_IT_number 51
_symmetry_cell_setting 'orthorhombic'
loop_
_space_group_symop_operation_xyz
x,y,z
1/2-x,-y,z
1/2+x,-y,-z
-x,y,-z
-x,-y,-z
1/2+x,y,-z
1/2-x,y,z
x,-y,z
loop_
_atom_site_type_symbol
_atom_site_label
_atom_site_fract_x
_atom_site_fract_y
_atom_site_fract_z
Si Si1 0.582788 0.172792 0.699358
Si Si2 0.576847 0.842567 0.791590
Si Si3 0.578692 0.667386 0.374424
Si Si4 0.584445 0.327689 0.541209
Si Si5 0.583084 0.172781 0.883678
Si Si6 0.921421 0.666520 0.042714
O O1 0.750000 0.218545 0.688464
O O2 0.535855 0.234886 0.746604
O O3 0.472272 0.241804 0.666032
O O4 0.568164 0.000000 0.698730
O O5 0.750000 0.864989 0.791854
O O6 0.534756 0.765091 0.836518
O O7 0.500590 0.000000 0.791444
O O8 0.750000 0.690967 0.381906
O O9 0.540471 0.500000 0.366333
O O10 0.496070 0.727211 0.416208
O O11 0.500000 0.264876 0.500000
O O12 0.750000 0.267546 0.541051
O O13 0.583119 0.500000 0.539645
O O14 0.750000 0.219598 0.894329
O O15 0.473622 0.239535 0.917625
O O16 0.569585 0.000000 0.884020
O O17 0.750000 0.689593 0.036323
O O18 0.962330 0.500000 0.051446
O O19 0.000000 0.723043 0.000000
#
# Coordination Sequence:
#
# PCOD8210340 Si02
#       6
#     8   8   8   8   8   8
#     4   9  17  31  52  74  95 124 163 202 239 283
#     4   7  12  26  48  72  96 122 155 195 236 280
#     4  10  20  32  46  68  99 131 162 198 239 282
#     4   9  16  27  45  68  93 122 157 197 240 286
#     4   9  17  31  53  78 100 123 155 197 242 285
#     4  10  21  36  52  70  95 129 165 198 235 282
#
# _framework density 18.189782999999998
#
# number of rings (size 3 to 8) (size 9 to 14) (size 15 to 20)
#    0.000    3.000    0.000    3.500    0.000    5.000 
#    0.000    1.667    0.000    8.500    0.000    0.000 
#    0.000    0.000    0.000    0.000    0.000    0.000 
#
# Total GULP energy -594795.146463 kJ/mol
# GULP energy per Si atom -12391.565551 kJ/mol
# Density = 1.814838 g / cm^3
# Si number density = 18.189783 Si / 1000 Ang^3
#
#
#
# Elastic Constant Matrix: (Units=GPa)
#
#
# Indices 1 2 3 4 5 6 
#
# 1 88.6414 22.5887 64.7856 0.0000 0.0000 0.0000
# 2 22.5887 24.9050 34.4797 0.0000 0.0000 0.0000
# 3 64.7856 34.4797 178.5751 0.0000 0.0000 0.0000
# 4 0.0000 0.0000 0.0000 20.9737 0.0000 0.0000
# 5 0.0000 0.0000 0.0000 0.0000 33.5961 0.0000
# 6 0.0000 0.0000 0.0000 0.0000 0.0000 22.7977
#
#
#
# Elastic Compliance Matrix: (Units=1/GPa)
#
#
# Indices 1 2 3 4 5 6 
#
# 1 0.016787 -0.009273 -0.004300 0.000000 0.000000 0.000000
# 2 -0.009273 0.059924 -0.008206 0.000000 0.000000 0.000000
# 3 -0.004300 -0.008206 0.008744 0.000000 0.000000 0.000000
# 4 0.000000 0.000000 0.000000 0.047679 0.000000 0.000000
# 5 0.000000 0.000000 0.000000 0.000000 0.029765 0.000000
# 6 0.000000 0.000000 0.000000 0.000000 0.000000 0.043864
#
#
# Mechanical properties :
#
#
# Convention : Reuss Voigt Hill
#
# Bulk Modulus (GPa) = 23.86767 59.53663 41.70215
# Shear Modulus (GPa) = 18.91882 26.82466 22.87174
#
# Velocity S-wave (km/s) = 3.22853 3.84436 3.54982
# Velocity P-wave (km/s) = 5.20075 7.24620 6.30695
#
# Compressibility (1/GPa) = 0.04189767
#
# Stress axis : x y z
#
# Youngs Moduli (GPa) = 59.56982 16.68780 114.36064
#
# Poissons Ratio (x) = 0.15474 0.49172
# Poissons Ratio (y) = 0.55239 0.93846
# Poissons Ratio (z) = 0.25614 0.13694
#
# Static dielectric constant tensor:
#      x y z
#    x 3.209840 0.000000 0.000000 
#    y 0.000000 2.888940 0.000000 
#    z 0.000000 0.000000 3.783200 
# 
# 
# High freq. dielectric constant tensor:
#      x y z
#    x 1.691590 0.000000 0.000000 
#    y 0.000000 1.653560 0.000000 
#    z 0.000000 0.000000 1.729900 
# 
# From -- ./inp_files/36925.got.cif
#   From: 2010.03.12/outbox.cif.g09.slc.cpg/sg51_19_cif.got.tgz:36925.got - 2010.04.16 13:43:02.
