data_PCOD8210706
_publ_section_title
;
Structure prediction by ZEFSAII (Michael W. Deem and Ramdas Pophale) SiO2 
 PCOD8210706
Probable space group: P M M A
;
_chemical_formula_sum "Si O2"
_cell_formula_units_Z 48
_cell_length_a 30.801809
_cell_length_b 9.241617
_cell_length_c 9.558844
_cell_angle_alpha 90.000000
_cell_angle_beta 90.000000
_cell_angle_gamma 90.000000
_cell_volume 2721.006402
_symmetry_space_group_name_H-M "P M M A"
_symmetry_group_IT_number 51
_symmetry_cell_setting 'orthorhombic'
loop_
_space_group_symop_operation_xyz
x,y,z
1/2-x,-y,z
1/2+x,-y,-z
-x,y,-z
-x,-y,-z
1/2+x,y,-z
1/2-x,y,z
x,-y,z
loop_
_atom_site_type_symbol
_atom_site_label
_atom_site_fract_x
_atom_site_fract_y
_atom_site_fract_z
Si Si1 0.063593 0.834083 0.776720
Si Si2 0.362097 0.831036 0.558566
Si Si3 0.298362 0.828249 0.795248
Si Si4 0.012115 0.329590 0.345701
Si Si5 0.630788 0.830452 0.986983
Si Si6 0.110419 0.328606 0.292374
O O1 0.094614 0.798058 0.646403
O O2 0.020308 0.738760 0.767870
O O3 0.049290 0.000000 0.772734
O O4 0.087972 0.798801 0.921273
O O5 0.320712 0.780207 0.650013
O O6 0.361746 0.736082 0.419279
O O7 0.359205 0.000000 0.519679
O O8 0.250000 0.761432 0.804898
O O9 0.297060 0.000000 0.797430
O O10 0.326861 0.777368 0.927443
O O11 0.006586 0.500000 0.337350
O O12 0.060523 0.280023 0.308048
O O13 0.000000 0.271837 0.500000
O O14 0.629707 0.735205 0.849054
O O15 0.633697 0.000000 0.949468
O O16 0.115490 0.500000 0.292573
#
# Coordination Sequence:
#
# PCOD8210706 Si02
#       6
#     8   8   8   8   8   8
#     4   9  18  32  51  74  98 130 170 211 253 294
#     4   9  17  31  53  78 101 126 162 207 251 295
#     4   8  15  32  59  84 101 123 162 208 251 301
#     4  10  20  33  48  69  99 136 178 216 246 287
#     4   9  19  35  53  76 105 133 165 208 256 303
#     4  11  22  34  49  72 103 139 173 206 249 297
#
# _framework density 17.640530999999999
#
# number of rings (size 3 to 8) (size 9 to 14) (size 15 to 20)
#    0.000    2.667    1.667    2.500    0.000    3.000 
#    0.000    6.667    0.000    7.000    0.000    0.000 
#    0.000    0.000    0.000    0.000    0.000    0.000 
#
# Total GULP energy -595190.096940 kJ/mol
# GULP energy per Si atom -12399.793686 kJ/mol
# Density = 1.760038 g / cm^3
# Si number density = 17.640531 Si / 1000 Ang^3
#
#
#
# Elastic Constant Matrix: (Units=GPa)
#
#
# Indices 1 2 3 4 5 6 
#
# 1 126.0985 38.1710 63.4631 0.0000 0.0000 0.0000
# 2 38.1710 46.5117 49.2858 0.0000 0.0000 0.0000
# 3 63.4631 49.2858 138.5042 0.0000 0.0000 0.0000
# 4 0.0000 0.0000 0.0000 16.4720 0.0000 0.0000
# 5 0.0000 0.0000 0.0000 0.0000 20.0348 0.0000
# 6 0.0000 0.0000 0.0000 0.0000 0.0000 12.5899
#
#
#
# Elastic Compliance Matrix: (Units=1/GPa)
#
#
# Indices 1 2 3 4 5 6 
#
# 1 0.011282 -0.006070 -0.003010 0.000000 0.000000 0.000000
# 2 -0.006070 0.037780 -0.010662 0.000000 0.000000 0.000000
# 3 -0.003010 -0.010662 0.012393 0.000000 0.000000 0.000000
# 4 0.000000 0.000000 0.000000 0.060709 0.000000 0.000000
# 5 0.000000 0.000000 0.000000 0.000000 0.049913 0.000000
# 6 0.000000 0.000000 0.000000 0.000000 0.000000 0.079429
#
#
# Mechanical properties :
#
#
# Convention : Reuss Voigt Hill
#
# Bulk Modulus (GPa) = 45.51399 68.10600 56.81000
# Shear Modulus (GPa) = 16.76082 20.49897 18.62990
#
# Velocity S-wave (km/s) = 3.08576 3.41257 3.25327
# Velocity P-wave (km/s) = 6.20908 7.36335 6.81072
#
# Compressibility (1/GPa) = 0.02197127
#
# Stress axis : x y z
#
# Youngs Moduli (GPa) = 88.63302 26.46915 80.68954
#
# Poissons Ratio (x) = 0.16067 0.24285
# Poissons Ratio (y) = 0.53801 0.86034
# Poissons Ratio (z) = 0.26676 0.28222
#
# Static dielectric constant tensor:
#      x y z
#    x 3.450470 0.000000 0.000000 
#    y 0.000000 2.986400 0.000000 
#    z 0.000000 0.000000 3.210950 
# 
# 
# High freq. dielectric constant tensor:
#      x y z
#    x 1.674010 0.000000 0.000000 
#    y 0.000000 1.660350 0.000000 
#    z 0.000000 0.000000 1.681870 
# 
# From -- ./inp_files/12819.got.cif
#   From: 2010.03.12/outbox.cif.g09.slc.cpg/sg51_7_cif.got.tgz:12819.got - 2010.04.16 13:43:02.
