data_PCOD8210993
_publ_section_title
;
Structure prediction by ZEFSAII (Michael W. Deem and Ramdas Pophale) SiO2 
 PCOD8210993
Probable space group: P M M A
;
_chemical_formula_sum "Si O2"
_cell_formula_units_Z 40
_cell_length_a 18.192876
_cell_length_b 9.141717
_cell_length_c 12.902190
_cell_angle_alpha 90.000000
_cell_angle_beta 90.000000
_cell_angle_gamma 90.000000
_cell_volume 2145.816425
_symmetry_space_group_name_H-M "P M M A"
_symmetry_group_IT_number 51
_symmetry_cell_setting 'orthorhombic'
loop_
_space_group_symop_operation_xyz
x,y,z
1/2-x,-y,z
1/2+x,-y,-z
-x,y,-z
-x,-y,-z
1/2+x,y,-z
1/2-x,y,z
x,-y,z
loop_
_atom_site_type_symbol
_atom_site_label
_atom_site_fract_x
_atom_site_fract_y
_atom_site_fract_z
Si Si1 0.086492 0.667699 0.502164
Si Si2 0.164697 0.828965 0.685397
Si Si3 0.834738 0.669678 0.707592
Si Si4 0.662418 0.834946 0.910487
Si Si5 0.837515 0.334918 0.109946
O O1 0.108661 0.500000 0.526542
O O2 0.119668 0.772988 0.587855
O O3 0.118334 0.716683 0.391641
O O4 0.000000 0.688699 0.500000
O O5 0.250000 0.792882 0.666532
O O6 0.134730 0.748141 0.787708
O O7 0.151313 0.000000 0.700697
O O8 0.750000 0.707518 0.684465
O O9 0.844703 0.500000 0.734692
O O10 0.865641 0.760088 0.805037
O O11 0.750000 0.831743 0.913443
O O12 0.632420 0.000000 0.914959
O O13 0.630560 0.747046 0.008959
O O14 0.750000 0.333952 0.106090
O O15 0.868119 0.500000 0.111664
#
# Coordination Sequence:
#
# PCOD8210993 Si02
#       5
#     8   8   8   8   8
#     4  10  21  36  53  73  99 133 172 212 254 300
#     4  10  20  33  51  76 104 133 167 207 250 297
#     4   9  17  30  49  72  98 129 165 203 243 291
#     4   9  16  26  43  70 102 130 158 197 244 292
#     4   9  16  27  46  72 101 131 162 198 243 294
#
# _framework density 18.640923000000001
#
# number of rings (size 3 to 8) (size 9 to 14) (size 15 to 20)
#    0.000    2.600    0.000    2.400    0.000    8.000 
#    0.000    2.000    0.000    1.200    0.000    8.400 
#    0.000    0.000    0.000    0.000    0.000    0.000 
#
# Total GULP energy -496077.739030 kJ/mol
# GULP energy per Si atom -12401.943476 kJ/mol
# Density = 1.859850 g / cm^3
# Si number density = 18.640923 Si / 1000 Ang^3
#
#
#
# Elastic Constant Matrix: (Units=GPa)
#
#
# Indices 1 2 3 4 5 6 
#
# 1 35.5067 31.7058 40.8522 0.0000 0.0000 0.0000
# 2 31.7058 129.7291 94.3008 0.0000 0.0000 0.0000
# 3 40.8522 94.3008 176.7113 0.0000 0.0000 0.0000
# 4 0.0000 0.0000 0.0000 30.2656 0.0000 0.0000
# 5 0.0000 0.0000 0.0000 0.0000 -3.2754 0.0000
# 6 0.0000 0.0000 0.0000 0.0000 0.0000 15.0017
#
#
#
# Elastic Compliance Matrix: (Units=1/GPa)
#
#
# Indices 1 2 3 4 5 6 
#
# 1 0.040279 -0.005025 -0.006630 0.000000 0.000000 0.000000
# 2 -0.005025 0.013220 -0.005893 0.000000 0.000000 0.000000
# 3 -0.006630 -0.005893 0.010337 0.000000 0.000000 0.000000
# 4 0.000000 0.000000 0.000000 0.033041 0.000000 0.000000
# 5 0.000000 0.000000 0.000000 0.000000 -0.305310 0.000000
# 6 0.000000 0.000000 0.000000 0.000000 0.000000 0.066659
#
#
# Mechanical properties :
#
#
# Convention : Reuss Voigt Hill
#
# Bulk Modulus (GPa) = 34.79537 75.07386 54.93462
# Shear Modulus (GPa) = -51.49457 20.07095 -15.71181
#
# Velocity S-wave (km/s) = -5.26160 3.28489 -2.90637
# Velocity P-wave (km/s) = 4.26684 7.39922 4.27449
#
# Compressibility (1/GPa) = 0.02873945
#
# Stress axis : x y z
#
# Youngs Moduli (GPa) = 24.82682 75.64148 96.74261
#
# Poissons Ratio (x) = 0.38006 0.64144
# Poissons Ratio (y) = 0.12474 0.57014
# Poissons Ratio (z) = 0.16461 0.44578
#
# Static dielectric constant tensor:
#      x y z
#    x 2.901930 0.000000 0.000000 
#    y 0.000000 3.532830 0.000000 
#    z 0.000000 0.000000 3.594120 
# 
# 
# High freq. dielectric constant tensor:
#      x y z
#    x 1.668520 0.000000 0.000000 
#    y 0.000000 1.731330 0.000000 
#    z 0.000000 0.000000 1.740690 
# 
# From -- ./inp_files/17072.got.cif
#   From: 2010.03.12/outbox.cif.g09.slc.cpg/sg51_9_cif.got.tgz:17072.got - 2010.04.16 13:43:02.
