data_PCOD8210300
_publ_section_title
;
Structure prediction by ZEFSAII (Michael W. Deem and Ramdas Pophale) SiO2 
 PCOD8210300
Probable space group: P M M A
;
_chemical_formula_sum "Si O2"
_cell_formula_units_Z 40
_cell_length_a 20.856372
_cell_length_b 9.369570
_cell_length_c 11.803961
_cell_angle_alpha 90.000000
_cell_angle_beta 90.000000
_cell_angle_gamma 90.000000
_cell_volume 2306.673841
_symmetry_space_group_name_H-M "P M M A"
_symmetry_group_IT_number 51
_symmetry_cell_setting 'orthorhombic'
loop_
_space_group_symop_operation_xyz
x,y,z
1/2-x,-y,z
1/2+x,-y,-z
-x,y,-z
-x,-y,-z
1/2+x,y,-z
1/2-x,y,z
x,-y,z
loop_
_atom_site_type_symbol
_atom_site_label
_atom_site_fract_x
_atom_site_fract_y
_atom_site_fract_z
Si Si1 0.676550 0.166411 0.565688
Si Si2 0.674779 0.341344 0.784240
Si Si3 0.033843 0.831597 0.828526
Si Si4 0.443242 0.168820 0.579964
Si Si5 0.596976 0.168183 0.945908
O O1 0.750000 0.204177 0.530152
O O2 0.652506 0.252831 0.674689
O O3 0.627714 0.208608 0.465281
O O4 0.670551 0.000000 0.596359
O O5 0.750000 0.353912 0.784310
O O6 0.644130 0.500000 0.780943
O O7 0.656182 0.258013 0.898574
O O8 0.050144 0.763571 0.705999
O O9 0.962906 0.788052 0.866937
O O10 0.037958 0.000000 0.821246
O O11 0.084440 0.782119 0.924638
O O12 0.500000 0.231015 0.500000
O O13 0.451637 0.000000 0.587021
O O14 0.611394 0.000000 0.939136
#
# Coordination Sequence:
#
# PCOD8210300 Si02
#       5
#     8   8   8   8   8
#     4   9  17  29  46  67  89 115 150 189 226 269
#     4  10  20  32  46  65  90 119 151 189 230 268
#     4   8  15  27  45  71  97 118 144 182 227 269
#     4   9  15  24  43  70  95 118 146 182 224 267
#     4   9  16  29  49  69  91 119 150 184 221 266
#
# _framework density 17.340986999999998
#
# number of rings (size 3 to 8) (size 9 to 14) (size 15 to 20)
#    0.000    3.000    0.000    3.000    0.000    4.400 
#    0.000    3.000    0.000   10.200    0.000    2.800 
#    0.000    0.000    0.000    0.000    0.000    0.000 
#
# Total GULP energy -495759.845161 kJ/mol
# GULP energy per Si atom -12393.996129 kJ/mol
# Density = 1.730152 g / cm^3
# Si number density = 17.340987 Si / 1000 Ang^3
#
#
#
# Elastic Constant Matrix: (Units=GPa)
#
#
# Indices 1 2 3 4 5 6 
#
# 1 54.3730 18.5052 50.9552 0.0000 0.0000 0.0000
# 2 18.5052 47.0523 32.1431 0.0000 0.0000 0.0000
# 3 50.9552 32.1431 156.0993 0.0000 0.0000 0.0000
# 4 0.0000 0.0000 0.0000 3.7785 0.0000 0.0000
# 5 0.0000 0.0000 0.0000 0.0000 32.1407 0.0000
# 6 0.0000 0.0000 0.0000 0.0000 0.0000 12.5850
#
#
#
# Elastic Compliance Matrix: (Units=1/GPa)
#
#
# Indices 1 2 3 4 5 6 
#
# 1 0.027661 -0.005482 -0.007901 0.000000 0.000000 0.000000
# 2 -0.005482 0.025818 -0.003527 0.000000 0.000000 0.000000
# 3 -0.007901 -0.003527 0.009711 0.000000 0.000000 0.000000
# 4 0.000000 0.000000 0.000000 0.264659 0.000000 0.000000
# 5 0.000000 0.000000 0.000000 0.000000 0.031113 0.000000
# 6 0.000000 0.000000 0.000000 0.000000 0.000000 0.079460
#
#
# Mechanical properties :
#
#
# Convention : Reuss Voigt Hill
#
# Bulk Modulus (GPa) = 34.04572 51.19240 42.61906
# Shear Modulus (GPa) = 10.37276 20.09555 15.23416
#
# Velocity S-wave (km/s) = 2.44839 3.40788 2.96718
# Velocity P-wave (km/s) = 5.26009 6.71342 6.03069
#
# Compressibility (1/GPa) = 0.02937227
#
# Stress axis : x y z
#
# Youngs Moduli (GPa) = 36.15187 38.73228 102.97162
#
# Poissons Ratio (x) = 0.21232 0.81354
# Poissons Ratio (y) = 0.19817 0.36318
# Poissons Ratio (z) = 0.28562 0.13661
#
# Static dielectric constant tensor:
#      x y z
#    x 3.168300 0.000000 0.000000 
#    y 0.000000 3.023150 0.000000 
#    z 0.000000 0.000000 3.635840 
# 
# 
# High freq. dielectric constant tensor:
#      x y z
#    x 1.662230 0.000000 0.000000 
#    y 0.000000 1.625090 0.000000 
#    z 0.000000 0.000000 1.672650 
# 
# From -- ./inp_files/17889.got.cif
#   From: 2010.03.12/outbox.cif.g09.slc.cpg/sg51_9_cif.got.tgz:17889.got - 2010.04.16 13:43:02.
