data_PCOD8210410
_publ_section_title
;
Structure prediction by ZEFSAII (Michael W. Deem and Ramdas Pophale) SiO2 
 PCOD8210410
Probable space group: P M M A
;
_chemical_formula_sum "Si O2"
_cell_formula_units_Z 64
_cell_length_a 8.961090
_cell_length_b 15.773494
_cell_length_c 23.342390
_cell_angle_alpha 90.000000
_cell_angle_beta 90.000000
_cell_angle_gamma 90.000000
_cell_volume 3299.393124
_symmetry_space_group_name_H-M "P M M A"
_symmetry_group_IT_number 51
_symmetry_cell_setting 'orthorhombic'
loop_
_space_group_symop_operation_xyz
x,y,z
1/2-x,-y,z
1/2+x,-y,-z
-x,y,-z
-x,-y,-z
1/2+x,y,-z
1/2-x,y,z
x,-y,z
loop_
_atom_site_type_symbol
_atom_site_label
_atom_site_fract_x
_atom_site_fract_y
_atom_site_fract_z
Si Si1 0.072122 0.754019 0.058243
Si Si2 0.915738 0.401979 0.720586
Si Si3 0.574789 0.595583 0.392744
Si Si4 0.416859 0.687238 0.174525
Si Si5 0.572709 0.773406 0.441038
Si Si6 0.582004 0.906428 0.111539
Si Si7 0.574748 0.097231 0.647102
Si Si8 0.582160 0.871034 0.776648
O O1 0.250000 0.751429 0.053998
O O2 0.007964 0.698143 0.111856
O O3 0.022790 0.850109 0.070695
O O4 0.000000 0.718762 0.000000
O O5 0.750000 0.359017 0.716576
O O6 0.895305 0.500000 0.715629
O O7 0.992848 0.380274 0.782273
O O8 0.017860 0.371795 0.668698
O O9 0.750000 0.587984 0.388990
O O10 0.512188 0.500000 0.410059
O O11 0.527136 0.673178 0.434042
O O12 0.250000 0.656812 0.161054
O O13 0.419677 0.771823 0.211732
O O14 0.500000 0.804880 0.500000
O O15 0.750000 0.782728 0.443732
O O16 0.513589 0.835043 0.391296
O O17 0.750000 0.868962 0.111809
O O18 0.523852 0.914288 0.176642
O O19 0.580836 0.000000 0.084594
O O20 0.750000 0.116322 0.640894
O O21 0.522744 0.109758 0.712887
O O22 0.538693 0.000000 0.628459
O O23 0.750000 0.907437 0.783396
#
# Coordination Sequence:
#
# PCOD8210410 Si02
#       8
#     8   8   8   8   8   8   8   8
#     4  10  20  34  50  66  89 125 168 211 251 294
#     4   9  16  28  51  81 107 132 164 200 242 299
#     4   9  19  36  56  81 113 142 168 206 261 320
#     4   8  15  28  47  72 100 128 159 200 247 292
#     4  11  24  40  58  79 105 141 182 224 268 314
#     4  10  20  32  47  70  99 127 157 198 247 299
#     4  10  21  37  58  82 108 141 180 223 270 317
#     4   9  17  31  52  75 100 131 166 204 249 302
#
# _framework density 19.397507000000001
#
# number of rings (size 3 to 8) (size 9 to 14) (size 15 to 20)
#    0.000    2.500    0.000    3.000    0.000    5.000 
#    0.000    4.375    0.000    0.375    0.000    0.000 
#    0.000    0.000    0.000    0.000    0.000    0.500 
#
# Total GULP energy -792851.552049 kJ/mol
# GULP energy per Si atom -12388.305501 kJ/mol
# Density = 1.935336 g / cm^3
# Si number density = 19.397507 Si / 1000 Ang^3
#
#
#
# Elastic Constant Matrix: (Units=GPa)
#
#
# Indices 1 2 3 4 5 6 
#
# 1 45.7671 23.4291 21.5425 0.0000 0.0000 0.0000
# 2 23.4291 38.3981 29.8790 0.0000 0.0000 0.0000
# 3 21.5425 29.8790 98.9795 0.0000 0.0000 0.0000
# 4 0.0000 0.0000 0.0000 14.5840 0.0000 0.0000
# 5 0.0000 0.0000 0.0000 0.0000 32.4800 0.0000
# 6 0.0000 0.0000 0.0000 0.0000 0.0000 20.4271
#
#
#
# Elastic Compliance Matrix: (Units=1/GPa)
#
#
# Indices 1 2 3 4 5 6 
#
# 1 0.031922 -0.018391 -0.001396 0.000000 0.000000 0.000000
# 2 -0.018391 0.044634 -0.009471 0.000000 0.000000 0.000000
# 3 -0.001396 -0.009471 0.013266 0.000000 0.000000 0.000000
# 4 0.000000 0.000000 0.000000 0.068568 0.000000 0.000000
# 5 0.000000 0.000000 0.000000 0.000000 0.030788 0.000000
# 6 0.000000 0.000000 0.000000 0.000000 0.000000 0.048955
#
#
# Mechanical properties :
#
#
# Convention : Reuss Voigt Hill
#
# Bulk Modulus (GPa) = 31.94307 36.98289 34.46298
# Shear Modulus (GPa) = 16.28217 20.71783 18.50000
#
# Velocity S-wave (km/s) = 2.90037 3.27167 3.09160
# Velocity P-wave (km/s) = 5.26494 5.77746 5.52714
#
# Compressibility (1/GPa) = 0.03130570
#
# Stress axis : x y z
#
# Youngs Moduli (GPa) = 31.32676 22.40427 75.38111
#
# Poissons Ratio (x) = 0.41204 0.10522
# Poissons Ratio (y) = 0.57614 0.71393
# Poissons Ratio (z) = 0.04373 0.21219
#
# Static dielectric constant tensor:
#      x y z
#    x 3.979260 0.000000 0.000000 
#    y 0.000000 3.614720 0.000000 
#    z 0.000000 0.000000 3.673250 
# 
# 
# High freq. dielectric constant tensor:
#      x y z
#    x 1.734940 0.000000 0.000000 
#    y 0.000000 1.745130 0.000000 
#    z 0.000000 0.000000 1.756180 
# 
# From -- ./inp_files/32348.got.cif
#   From: 2010.03.12/outbox.cif.g09.slc.cpg/sg51_17_cif.got.tgz:32348.got - 2010.04.16 13:43:02.
