data_PCOD8210427
_publ_section_title
;
Structure prediction by ZEFSAII (Michael W. Deem and Ramdas Pophale) SiO2 
 PCOD8210427
Probable space group: P M M A
;
_chemical_formula_sum "Si O2"
_cell_formula_units_Z 64
_cell_length_a 18.710899
_cell_length_b 9.186812
_cell_length_c 21.292409
_cell_angle_alpha 90.000000
_cell_angle_beta 90.000000
_cell_angle_gamma 90.000000
_cell_volume 3660.026951
_symmetry_space_group_name_H-M "P M M A"
_symmetry_group_IT_number 51
_symmetry_cell_setting 'orthorhombic'
loop_
_space_group_symop_operation_xyz
x,y,z
1/2-x,-y,z
1/2+x,-y,-z
-x,y,-z
-x,-y,-z
1/2+x,y,-z
1/2-x,y,z
x,-y,z
loop_
_atom_site_type_symbol
_atom_site_label
_atom_site_fract_x
_atom_site_fract_y
_atom_site_fract_z
Si Si1 0.061529 0.668421 0.806853
Si Si2 0.332452 0.168108 0.039529
Si Si3 0.402284 0.330007 0.148951
Si Si4 0.476775 0.840274 0.692300
Si Si5 0.167128 0.833965 0.895272
Si Si6 0.038113 0.172094 0.435906
Si Si7 0.170667 0.667622 0.386218
Si Si8 0.637667 0.162169 0.735181
O O1 0.075117 0.500000 0.798152
O O2 0.069284 0.735429 0.736747
O O3 0.122465 0.729844 0.851107
O O4 0.985339 0.702005 0.838204
O O5 0.250000 0.202941 0.054344
O O6 0.383621 0.270755 0.080194
O O7 0.349368 0.000000 0.054426
O O8 0.349752 0.203891 0.967362
O O9 0.384962 0.500000 0.153347
O O10 0.352315 0.245914 0.198996
O O11 0.485212 0.780196 0.621009
O O12 0.554880 0.852018 0.720898
O O13 0.440443 0.000000 0.691585
O O14 0.250000 0.808167 0.880756
O O15 0.145630 0.000000 0.881062
O O16 0.113947 0.254171 0.431861
O O17 0.000000 0.217805 0.500000
O O18 0.053672 0.000000 0.431832
O O19 0.250000 0.677655 0.416671
O O20 0.147452 0.500000 0.376671
O O21 0.175423 0.745179 0.318832
O O22 0.671680 0.000000 0.739631
#
# Coordination Sequence:
#
# PCOD8210427 Si02
#       8
#     8   8   8   8   8   8   8   8
#     4  10  20  32  49  74 101 127 157 198 244 291
#     4   9  19  35  51  67  90 123 164 206 247 296
#     4  10  20  32  47  71 102 132 162 198 244 296
#     4   8  15  29  49  72  97 123 153 192 235 280
#     4   9  19  36  55  72  91 120 161 207 254 303
#     4   9  18  33  54  79 104 133 171 209 245 289
#     4  10  20  32  47  71 103 136 170 207 247 293
#     4   9  17  30  48  68  92 126 165 201 238 281
#
# _framework density 17.486208999999999
#
# number of rings (size 3 to 8) (size 9 to 14) (size 15 to 20)
#    0.000    2.750    0.000    3.000    0.000    7.750 
#    0.000    3.750    0.000    0.750    0.000    1.750 
#    0.000    0.000    0.000    0.000    0.000    0.000 
#
# Total GULP energy -793449.259643 kJ/mol
# GULP energy per Si atom -12397.644682 kJ/mol
# Density = 1.744641 g / cm^3
# Si number density = 17.486209 Si / 1000 Ang^3
#
#
#
# Elastic Constant Matrix: (Units=GPa)
#
#
# Indices 1 2 3 4 5 6 
#
# 1 59.4551 48.3740 53.0384 0.0000 0.0000 0.0000
# 2 48.3740 103.0113 62.8855 0.0000 0.0000 0.0000
# 3 53.0384 62.8855 125.0483 0.0000 0.0000 0.0000
# 4 0.0000 0.0000 0.0000 16.8540 0.0000 0.0000
# 5 0.0000 0.0000 0.0000 0.0000 15.7397 0.0000
# 6 0.0000 0.0000 0.0000 0.0000 0.0000 26.3718
#
#
#
# Elastic Compliance Matrix: (Units=1/GPa)
#
#
# Indices 1 2 3 4 5 6 
#
# 1 0.032936 -0.010012 -0.008934 0.000000 0.000000 0.000000
# 2 -0.010012 0.017052 -0.004329 0.000000 0.000000 0.000000
# 3 -0.008934 -0.004329 0.013963 0.000000 0.000000 0.000000
# 4 0.000000 0.000000 0.000000 0.059333 0.000000 0.000000
# 5 0.000000 0.000000 0.000000 0.000000 0.063534 0.000000
# 6 0.000000 0.000000 0.000000 0.000000 0.000000 0.037919
#
#
# Mechanical properties :
#
#
# Convention : Reuss Voigt Hill
#
# Bulk Modulus (GPa) = 57.47043 68.45672 62.96358
# Shear Modulus (GPa) = 18.04481 20.00755 19.02618
#
# Velocity S-wave (km/s) = 3.21588 3.38626 3.30217
# Velocity P-wave (km/s) = 6.83569 7.38397 7.11511
#
# Compressibility (1/GPa) = 0.01740025
#
# Stress axis : x y z
#
# Youngs Moduli (GPa) = 30.36197 58.64427 71.61704
#
# Poissons Ratio (x) = 0.58717 0.63986
# Poissons Ratio (y) = 0.30400 0.31000
# Poissons Ratio (z) = 0.27127 0.25384
#
# Static dielectric constant tensor:
#      x y z
#    x 2.976460 0.000000 0.000000 
#    y 0.000000 3.348330 0.000000 
#    z 0.000000 0.000000 3.304860 
# 
# 
# High freq. dielectric constant tensor:
#      x y z
#    x 1.649280 0.000000 0.000000 
#    y 0.000000 1.682750 0.000000 
#    z 0.000000 0.000000 1.668740 
# 
# From -- ./inp_files/33817.got.cif
#   From: 2010.03.12/outbox.cif.g09.slc.cpg/sg51_17_cif.got.tgz:33817.got - 2010.04.16 13:43:02.
