data_PCOD8210950
_publ_section_title
;
Structure prediction by ZEFSAII (Michael W. Deem and Ramdas Pophale) SiO2 
 PCOD8210950
Probable space group: P M M A
;
_chemical_formula_sum "Si O2"
_cell_formula_units_Z 48
_cell_length_a 9.333731
_cell_length_b 9.323339
_cell_length_c 30.998450
_cell_angle_alpha 90.000000
_cell_angle_beta 90.000000
_cell_angle_gamma 90.000000
_cell_volume 2697.532802
_symmetry_space_group_name_H-M "P M M A"
_symmetry_group_IT_number 51
_symmetry_cell_setting 'orthorhombic'
loop_
_space_group_symop_operation_xyz
x,y,z
1/2-x,-y,z
1/2+x,-y,-z
-x,y,-z
-x,-y,-z
1/2+x,y,-z
1/2-x,y,z
x,-y,z
loop_
_atom_site_type_symbol
_atom_site_label
_atom_site_fract_x
_atom_site_fract_y
_atom_site_fract_z
Si Si1 0.417915 0.667330 0.200687
Si Si2 0.916342 0.831718 0.127033
Si Si3 0.409505 0.329551 0.716908
Si Si4 0.579462 0.340520 0.377112
Si Si5 0.916496 0.664209 0.042119
Si Si6 0.583500 0.833013 0.458435
O O1 0.250000 0.696898 0.201314
O O2 0.453036 0.500000 0.192989
O O3 0.488579 0.759731 0.163443
O O4 0.482156 0.722140 0.246110
O O5 0.750000 0.798400 0.136515
O O6 0.963658 0.764168 0.081599
O O7 0.947601 0.000000 0.125634
O O8 0.250000 0.268391 0.726839
O O9 0.401626 0.500000 0.714956
O O10 0.466062 0.276742 0.669856
O O11 0.750000 0.345555 0.378089
O O12 0.516279 0.500000 0.383823
O O13 0.520461 0.241814 0.415604
O O14 0.750000 0.680819 0.031894
O O15 0.956373 0.500000 0.053564
O O16 0.000000 0.717652 0.000000
O O17 0.500000 0.772771 0.500000
O O18 0.750000 0.797979 0.465079
O O19 0.554391 0.000000 0.452425
#
# Coordination Sequence:
#
# PCOD8210950 Si02
#       6
#     8   8   8   8   8   8
#     4  10  20  33  51  75 101 130 164 201 243 292
#     4  10  21  36  53  74 101 134 171 207 243 286
#     4   8  14  27  48  70  91 119 155 194 236 281
#     4   8  14  26  45  67  89 115 150 190 229 271
#     4   9  18  33  53  76 101 129 163 203 243 285
#     4   9  17  29  44  62  86 116 149 185 225 271
#
# _framework density 17.794036999999999
#
# number of rings (size 3 to 8) (size 9 to 14) (size 15 to 20)
#    0.000    3.000    0.000    2.000    0.000    3.333 
#    0.000    3.333    0.000    4.000    0.000    0.000 
#    0.000    0.000    0.000    0.000    0.000    0.000 
#
# Total GULP energy -595075.801738 kJ/mol
# GULP energy per Si atom -12397.412536 kJ/mol
# Density = 1.775354 g / cm^3
# Si number density = 17.794037 Si / 1000 Ang^3
#
#
#
# Elastic Constant Matrix: (Units=GPa)
#
#
# Indices 1 2 3 4 5 6 
#
# 1 64.7417 41.7635 76.5221 0.0000 0.0000 0.0000
# 2 41.7635 66.0031 74.1755 0.0000 0.0000 0.0000
# 3 76.5221 74.1755 198.3849 0.0000 0.0000 0.0000
# 4 0.0000 0.0000 0.0000 -1.0988 0.0000 0.0000
# 5 0.0000 0.0000 0.0000 0.0000 31.9876 0.0000
# 6 0.0000 0.0000 0.0000 0.0000 0.0000 17.8072
#
#
#
# Elastic Compliance Matrix: (Units=1/GPa)
#
#
# Indices 1 2 3 4 5 6 
#
# 1 0.032568 -0.011193 -0.008377 0.000000 0.000000 0.000000
# 2 -0.011193 0.029977 -0.006891 0.000000 0.000000 0.000000
# 3 -0.008377 -0.006891 0.010849 0.000000 0.000000 0.000000
# 4 0.000000 0.000000 0.000000 -0.910081 0.000000 0.000000
# 5 0.000000 0.000000 0.000000 0.000000 0.031262 0.000000
# 6 0.000000 0.000000 0.000000 0.000000 0.000000 0.056157
#
#
# Mechanical properties :
#
#
# Convention : Reuss Voigt Hill
#
# Bulk Modulus (GPa) = 48.84840 79.33907 64.09373
# Shear Modulus (GPa) = -7.25141 18.85044 5.79951
#
# Velocity S-wave (km/s) = -2.02090 3.25832 1.80730
# Velocity P-wave (km/s) = 4.69748 7.67071 6.36027
#
# Compressibility (1/GPa) = 0.02047150
#
# Stress axis : x y z
#
# Youngs Moduli (GPa) = 30.70515 33.35846 92.17761
#
# Poissons Ratio (x) = 0.37337 0.77220
# Poissons Ratio (y) = 0.34367 0.63521
# Poissons Ratio (z) = 0.25723 0.22988
#
# Static dielectric constant tensor:
#      x y z
#    x 3.532400 0.000000 0.000000 
#    y 0.000000 3.151210 0.000000 
#    z 0.000000 0.000000 3.695160 
# 
# 
# High freq. dielectric constant tensor:
#      x y z
#    x 1.665070 0.000000 0.000000 
#    y 0.000000 1.664420 0.000000 
#    z 0.000000 0.000000 1.705440 
# 
# From -- ./inp_files/36974.got.cif
#   From: 2010.03.12/outbox.cif.g09.slc.cpg/sg51_19_cif.got.tgz:36974.got - 2010.04.16 13:43:02.
