data_PCOD8210020
_publ_section_title
;
Structure prediction by ZEFSAII (Michael W. Deem and Ramdas Pophale) SiO2 
 PCOD8210020
Probable space group: P M M A
;
_chemical_formula_sum "Si O2"
_cell_formula_units_Z 32
_cell_length_a 13.902951
_cell_length_b 7.665092
_cell_length_c 14.083105
_cell_angle_alpha 90.000000
_cell_angle_beta 90.000000
_cell_angle_gamma 90.000000
_cell_volume 1500.799862
_symmetry_space_group_name_H-M "P M M A"
_symmetry_group_IT_number 51
_symmetry_cell_setting 'orthorhombic'
loop_
_space_group_symop_operation_xyz
x,y,z
1/2-x,-y,z
1/2+x,-y,-z
-x,y,-z
-x,-y,-z
1/2+x,y,-z
1/2-x,y,z
x,-y,z
loop_
_atom_site_type_symbol
_atom_site_label
_atom_site_fract_x
_atom_site_fract_y
_atom_site_fract_z
Si Si1 0.360056 0.704695 0.255245
Si Si2 0.363732 0.500000 0.699849
Si Si3 0.979197 0.196511 0.393204
Si Si4 0.364116 0.805368 0.047487
Si Si5 0.864961 0.500000 0.085048
O O1 0.250000 0.766887 0.266290
O O2 0.370284 0.500000 0.270881
O O3 0.421582 0.800980 0.334982
O O4 0.401486 0.754849 0.151919
O O5 0.250000 0.500000 0.695292
O O6 0.400499 0.674585 0.650050
O O7 0.403357 0.500000 0.807652
O O8 0.000000 0.257436 0.500000
O O9 0.937244 0.000000 0.391213
O O10 0.250000 0.790994 0.048691
O O11 0.398506 0.000000 0.020003
O O12 0.405406 0.671810 0.968902
O O13 0.750000 0.500000 0.083909
#
# Coordination Sequence:
#
# PCOD8210020 Si02
#       5
#     8   4   8   8   4
#     4  10  19  35  64  96 125 158 200 254 317 378
#     4  11  25  44  66  90 125 168 213 256 298 357
#     4  11  25  45  66  91 125 161 205 260 316 371
#     4   9  16  29  53  86 123 159 197 245 303 363
#     4   9  18  34  55  84 119 160 204 246 292 353
#
# _framework density 21.321964999999999
#
# number of rings (size 3 to 8) (size 9 to 14) (size 15 to 20)
#    0.000    2.000    2.500    1.125    0.000    4.000 
#    0.000    7.500    0.000    3.000    0.000    0.000 
#    0.000    0.000    0.000    0.000    0.000    0.000 
#
# Total GULP energy -396883.522190 kJ/mol
# GULP energy per Si atom -12402.610068 kJ/mol
# Density = 2.127343 g / cm^3
# Si number density = 21.321965 Si / 1000 Ang^3
#
#
#
# Elastic Constant Matrix: (Units=GPa)
#
#
# Indices 1 2 3 4 5 6 
#
# 1 65.5874 25.3998 48.6988 0.0000 0.0000 0.0000
# 2 25.3998 143.7723 77.3327 0.0000 0.0000 0.0000
# 3 48.6988 77.3327 194.8326 0.0000 0.0000 0.0000
# 4 0.0000 0.0000 0.0000 26.1255 0.0000 0.0000
# 5 0.0000 0.0000 0.0000 0.0000 33.6179 0.0000
# 6 0.0000 0.0000 0.0000 0.0000 0.0000 2.5861
#
#
#
# Elastic Compliance Matrix: (Units=1/GPa)
#
#
# Indices 1 2 3 4 5 6 
#
# 1 0.018836 -0.001011 -0.004307 0.000000 0.000000 0.000000
# 2 -0.001011 0.008898 -0.003279 0.000000 0.000000 0.000000
# 3 -0.004307 -0.003279 0.007511 0.000000 0.000000 0.000000
# 4 0.000000 0.000000 0.000000 0.038277 0.000000 0.000000
# 5 0.000000 0.000000 0.000000 0.000000 0.029746 0.000000
# 6 0.000000 0.000000 0.000000 0.000000 0.000000 0.386687
#
#
# Mechanical properties :
#
#
# Convention : Reuss Voigt Hill
#
# Bulk Modulus (GPa) = 55.39942 78.56165 66.98053
# Shear Modulus (GPa) = 9.74345 29.31664 19.53004
#
# Velocity S-wave (km/s) = 2.14000 3.71206 3.02976
# Velocity P-wave (km/s) = 5.66964 7.43625 6.61221
#
# Compressibility (1/GPa) = 0.01805073
#
# Stress axis : x y z
#
# Youngs Moduli (GPa) = 53.08920 112.38764 133.14548
#
# Poissons Ratio (x) = 0.11364 0.57343
# Poissons Ratio (y) = 0.05368 0.43658
# Poissons Ratio (z) = 0.22864 0.36851
#
# Static dielectric constant tensor:
#      x y z
#    x 3.571500 0.000000 0.000000 
#    y 0.000000 3.969950 0.000000 
#    z 0.000000 0.000000 3.973000 
# 
# 
# High freq. dielectric constant tensor:
#      x y z
#    x 1.824070 0.000000 0.000000 
#    y 0.000000 1.849090 0.000000 
#    z 0.000000 0.000000 1.839630 
# 
# From -- ./inp_files/15949.got.cif
#   From: 2010.03.12/outbox.cif.g09.slc.cpg/sg51_8_cif.got.tgz:15949.got - 2010.04.16 13:43:02.
