data_PCOD8210895
_publ_section_title
;
Structure prediction by ZEFSAII (Michael W. Deem and Ramdas Pophale) SiO2 
 PCOD8210895
Probable space group: P M M A
;
_chemical_formula_sum "Si O2"
_cell_formula_units_Z 56
_cell_length_a 9.151176
_cell_length_b 19.167917
_cell_length_c 18.273025
_cell_angle_alpha 90.000000
_cell_angle_beta 90.000000
_cell_angle_gamma 90.000000
_cell_volume 3205.252714
_symmetry_space_group_name_H-M "P M M A"
_symmetry_group_IT_number 51
_symmetry_cell_setting 'orthorhombic'
loop_
_space_group_symop_operation_xyz
x,y,z
1/2-x,-y,z
1/2+x,-y,-z
-x,y,-z
-x,-y,-z
1/2+x,y,-z
1/2-x,y,z
x,-y,z
loop_
_atom_site_type_symbol
_atom_site_label
_atom_site_fract_x
_atom_site_fract_y
_atom_site_fract_z
Si Si1 0.421686 0.920313 0.775842
Si Si2 0.579375 0.796116 0.712424
Si Si3 0.578975 0.277853 0.157469
Si Si4 0.081102 0.579551 0.645013
Si Si5 0.918687 0.146039 0.072453
Si Si6 0.577570 0.425568 0.188789
Si Si7 0.920949 0.704701 0.573020
O O1 0.250000 0.906793 0.766619
O O2 0.506505 0.872734 0.717269
O O3 0.469973 0.899806 0.858304
O O4 0.464492 0.000000 0.760822
O O5 0.750000 0.803277 0.728486
O O6 0.510195 0.745364 0.772098
O O7 0.547420 0.763764 0.633356
O O8 0.750000 0.272624 0.177904
O O9 0.545099 0.227713 0.088759
O O10 0.532459 0.358286 0.139574
O O11 0.250000 0.602286 0.638488
O O12 0.060201 0.500000 0.618096
O O13 0.024499 0.586886 0.728345
O O14 0.983703 0.629465 0.595238
O O15 0.750000 0.134020 0.056773
O O16 0.000000 0.120778 0.000000
O O17 0.750000 0.433029 0.190151
O O18 0.512377 0.500000 0.158918
O O19 0.750000 0.695550 0.558539
O O20 0.000000 0.731334 0.500000
#
# Coordination Sequence:
#
# PCOD8210895 Si02
#       7
#     8   8   8   8   8   8   8
#     4   9  19  36  57  79 101 128 161 193 231 285
#     4  10  20  33  50  75 101 124 158 202 245 287
#     4   9  16  29  50  70  93 128 167 205 245 290
#     4   9  17  30  49  71  95 126 165 208 254 301
#     4   9  18  30  46  72 103 135 165 194 230 277
#     4   8  13  23  44  71  92 116 159 210 252 290
#     4  11  23  35  49  70  98 133 169 205 247 294
#
# _framework density 17.471321
#
# number of rings (size 3 to 8) (size 9 to 14) (size 15 to 20)
#    0.000    2.714    1.429    2.571    0.000    5.143 
#    0.000    0.000    0.000    1.286    0.000    0.000 
#    0.000    0.000    0.000    0.000    0.000    0.286 
#
# Total GULP energy -694069.206771 kJ/mol
# GULP energy per Si atom -12394.092978 kJ/mol
# Density = 1.743156 g / cm^3
# Si number density = 17.471321 Si / 1000 Ang^3
#
#
#
# Elastic Constant Matrix: (Units=GPa)
#
#
# Indices 1 2 3 4 5 6 
#
# 1 65.1458 38.5524 35.4034 0.0000 0.0000 0.0000
# 2 38.5524 124.7056 26.1896 0.0000 0.0000 0.0000
# 3 35.4034 26.1896 52.2259 0.0000 0.0000 0.0000
# 4 0.0000 0.0000 0.0000 15.7001 0.0000 0.0000
# 5 0.0000 0.0000 0.0000 0.0000 23.7754 0.0000
# 6 0.0000 0.0000 0.0000 0.0000 0.0000 16.7338
#
#
#
# Elastic Compliance Matrix: (Units=1/GPa)
#
#
# Indices 1 2 3 4 5 6 
#
# 1 0.026832 -0.005002 -0.015681 0.000000 0.000000 0.000000
# 2 -0.005002 0.009895 -0.001571 0.000000 0.000000 0.000000
# 3 -0.015681 -0.001571 0.030565 0.000000 0.000000 0.000000
# 4 0.000000 0.000000 0.000000 0.063694 0.000000 0.000000
# 5 0.000000 0.000000 0.000000 0.000000 0.042060 0.000000
# 6 0.000000 0.000000 0.000000 0.000000 0.000000 0.059759
#
#
# Mechanical properties :
#
#
# Convention : Reuss Voigt Hill
#
# Bulk Modulus (GPa) = 43.88965 49.15201 46.52083
# Shear Modulus (GPa) = 17.54947 20.70399 19.12673
#
# Velocity S-wave (km/s) = 3.17278 3.44616 3.31229
# Velocity P-wave (km/s) = 6.21269 6.63541 6.42753
#
# Compressibility (1/GPa) = 0.02278441
#
# Stress axis : x y z
#
# Youngs Moduli (GPa) = 37.26909 101.05890 32.71673
#
# Poissons Ratio (x) = 0.50548 0.51302
# Poissons Ratio (y) = 0.18642 0.05141
# Poissons Ratio (z) = 0.58441 0.15881
#
# Static dielectric constant tensor:
#      x y z
#    x 3.091130 0.000000 0.000000 
#    y 0.000000 3.652640 0.000000 
#    z 0.000000 0.000000 3.005850 
# 
# 
# High freq. dielectric constant tensor:
#      x y z
#    x 1.660610 0.000000 0.000000 
#    y 0.000000 1.683420 0.000000 
#    z 0.000000 0.000000 1.642150 
# 
# From -- ./inp_files/28167.got.cif
#   From: 2010.03.12/outbox.cif.g09.slc.cpg/sg51_15_cif.got.tgz:28167.got - 2010.04.16 13:43:02.
