data_PCOD8210509
_publ_section_title
;
Structure prediction by ZEFSAII (Michael W. Deem and Ramdas Pophale) SiO2 
 PCOD8210509
Probable space group: P M M A
;
_chemical_formula_sum "Si O2"
_cell_formula_units_Z 64
_cell_length_a 21.999386
_cell_length_b 8.683133
_cell_length_c 17.667170
_cell_angle_alpha 90.000000
_cell_angle_beta 90.000000
_cell_angle_gamma 90.000000
_cell_volume 3374.846319
_symmetry_space_group_name_H-M "P M M A"
_symmetry_group_IT_number 51
_symmetry_cell_setting 'orthorhombic'
loop_
_space_group_symop_operation_xyz
x,y,z
1/2-x,-y,z
1/2+x,-y,-z
-x,y,-z
-x,-y,-z
1/2+x,y,-z
1/2-x,y,z
x,-y,z
loop_
_atom_site_type_symbol
_atom_site_label
_atom_site_fract_x
_atom_site_fract_y
_atom_site_fract_z
Si Si1 0.181583 0.323912 0.110195
Si Si2 0.454989 0.320311 0.570004
Si Si3 0.317237 0.827892 0.371178
Si Si4 0.015696 0.177662 0.732089
Si Si5 0.078754 0.177997 0.033138
Si Si6 0.393534 0.327002 0.256320
Si Si7 0.817168 0.675940 0.473620
Si Si8 0.530732 0.681172 0.114574
O O1 0.250000 0.268516 0.109821
O O2 0.173998 0.500000 0.083360
O O3 0.148365 0.210043 0.052284
O O4 0.157588 0.300385 0.194408
O O5 0.500000 0.261901 0.500000
O O6 0.466827 0.500000 0.578086
O O7 0.474250 0.242968 0.648464
O O8 0.381962 0.284718 0.566420
O O9 0.250000 0.813112 0.335812
O O10 0.361491 0.700610 0.336431
O O11 0.314266 0.796734 0.459514
O O12 0.342848 0.000000 0.357620
O O13 0.945628 0.201305 0.754043
O O14 0.050869 0.264186 0.800989
O O15 0.033999 0.000000 0.733430
O O16 0.039253 0.279179 0.092847
O O17 0.060920 0.000000 0.041955
O O18 0.070885 0.229304 0.946679
O O19 0.421198 0.500000 0.254052
O O20 0.750000 0.694905 0.429853
O O21 0.821215 0.500000 0.502374
O O22 0.541251 0.500000 0.107944
#
# Coordination Sequence:
#
# PCOD8210509 Si02
#       8
#     8   8   8   8   8   8   8   8
#     4  10  21  36  54  78 111 154 197 231 271 334
#     4  10  21  37  57  83 115 153 195 240 292 352
#     4  10  20  32  48  73 106 143 184 231 281 333
#     4  12  24  37  56  84 115 145 184 238 295 347
#     4  11  21  35  57  85 115 145 184 233 284 331
#     4  11  21  34  52  74 106 149 191 230 274 333
#     4   9  18  34  56  79 105 142 190 237 284 345
#     4  11  21  37  60  83 110 146 186 231 281 337
#
# _framework density 18.963826999999998
#
# number of rings (size 3 to 8) (size 9 to 14) (size 15 to 20)
#    0.000    1.500    1.250    6.000    0.000    3.750 
#    0.000    0.000    0.000    0.750    0.000    1.750 
#    0.000    0.000    0.000    0.000    0.000    0.000 
#
# Total GULP energy -792904.664831 kJ/mol
# GULP energy per Si atom -12389.135388 kJ/mol
# Density = 1.892066 g / cm^3
# Si number density = 18.963827 Si / 1000 Ang^3
#
#
#
# Elastic Constant Matrix: (Units=GPa)
#
#
# Indices 1 2 3 4 5 6 
#
# 1 98.1698 25.7045 29.8428 0.0000 0.0000 0.0000
# 2 25.7045 66.3352 26.4994 0.0000 0.0000 0.0000
# 3 29.8428 26.4994 100.8477 0.0000 0.0000 0.0000
# 4 0.0000 0.0000 0.0000 24.2462 0.0000 0.0000
# 5 0.0000 0.0000 0.0000 0.0000 25.0170 0.0000
# 6 0.0000 0.0000 0.0000 0.0000 0.0000 18.9498
#
#
#
# Elastic Compliance Matrix: (Units=1/GPa)
#
#
# Indices 1 2 3 4 5 6 
#
# 1 0.011910 -0.003583 -0.002583 0.000000 0.000000 0.000000
# 2 -0.003583 0.017921 -0.003649 0.000000 0.000000 0.000000
# 3 -0.002583 -0.003649 0.011639 0.000000 0.000000 0.000000
# 4 0.000000 0.000000 0.000000 0.041244 0.000000 0.000000
# 5 0.000000 0.000000 0.000000 0.000000 0.039973 0.000000
# 6 0.000000 0.000000 0.000000 0.000000 0.000000 0.052771
#
#
# Mechanical properties :
#
#
# Convention : Reuss Voigt Hill
#
# Bulk Modulus (GPa) = 45.78673 47.71624 46.75149
# Shear Modulus (GPa) = 24.70762 25.86300 25.28531
#
# Velocity S-wave (km/s) = 3.61346 3.69698 3.65546
# Velocity P-wave (km/s) = 6.45028 6.59090 6.52097
#
# Compressibility (1/GPa) = 0.02184039
#
# Stress axis : x y z
#
# Youngs Moduli (GPa) = 83.96449 55.80048 85.91806
#
# Poissons Ratio (x) = 0.19995 0.22191
# Poissons Ratio (y) = 0.30086 0.31349
# Poissons Ratio (z) = 0.21686 0.20360
#
# Static dielectric constant tensor:
#      x y z
#    x 3.701770 0.000000 0.000000 
#    y 0.000000 3.429220 0.000000 
#    z 0.000000 0.000000 3.426330 
# 
# 
# High freq. dielectric constant tensor:
#      x y z
#    x 1.725780 0.000000 0.000000 
#    y 0.000000 1.740890 0.000000 
#    z 0.000000 0.000000 1.722250 
# 
# From -- ./inp_files/26195.got.cif
#   From: 2010.03.12/outbox.cif.g09.slc.cpg/sg51_14_cif.got.tgz:26195.got - 2010.04.16 13:43:02.
