data_PCOD8210562
_publ_section_title
;
Structure prediction by ZEFSAII (Michael W. Deem and Ramdas Pophale) SiO2 
 PCOD8210562
Probable space group: P M M A
;
_chemical_formula_sum "Si O2"
_cell_formula_units_Z 48
_cell_length_a 9.540996
_cell_length_b 17.668071
_cell_length_c 14.285297
_cell_angle_alpha 90.000000
_cell_angle_beta 90.000000
_cell_angle_gamma 90.000000
_cell_volume 2408.086725
_symmetry_space_group_name_H-M "P M M A"
_symmetry_group_IT_number 51
_symmetry_cell_setting 'orthorhombic'
loop_
_space_group_symop_operation_xyz
x,y,z
1/2-x,-y,z
1/2+x,-y,-z
-x,y,-z
-x,-y,-z
1/2+x,y,-z
1/2-x,y,z
x,-y,z
loop_
_atom_site_type_symbol
_atom_site_label
_atom_site_fract_x
_atom_site_fract_y
_atom_site_fract_z
Si Si1 0.591469 0.348160 0.781052
Si Si2 0.594685 0.910084 0.417273
Si Si3 0.097357 0.586696 0.921828
Si Si4 0.087824 0.911080 0.792410
Si Si5 0.909509 0.413828 0.586706
Si Si6 0.084658 0.204012 0.093609
O O1 0.750000 0.374530 0.804964
O O2 0.480872 0.407199 0.823469
O O3 0.565767 0.353505 0.670129
O O4 0.561878 0.266011 0.824627
O O5 0.500000 0.874635 0.500000
O O6 0.750000 0.877309 0.432503
O O7 0.541204 0.887945 0.313349
O O8 0.597718 0.000000 0.425364
O O9 0.250000 0.627080 0.920111
O O10 0.119730 0.500000 0.948340
O O11 0.000000 0.627274 0.000000
O O12 0.250000 0.887236 0.809408
O O13 0.984237 0.872279 0.866360
O O14 0.070760 0.000000 0.807561
O O15 0.750000 0.412062 0.553531
O O16 0.950855 0.500000 0.616728
O O17 0.000000 0.384943 0.500000
O O18 0.250000 0.192043 0.072014
O O19 0.000000 0.227402 0.000000
#
# Coordination Sequence:
#
# PCOD8210562 Si02
#       6
#     8   8   8   8   8   8
#     4  10  21  37  56  78 107 144 183 223 270 323
#     4   8  14  26  47  76 107 136 166 204 253 310
#     4  10  20  32  49  76 107 139 177 219 262 311
#     4   9  19  37  59  82 109 142 183 231 283 340
#     4   9  18  34  57  84 114 148 186 228 270 313
#     4  11  24  40  58  80 107 141 183 230 283 343
#
# _framework density 19.932836000000002
#
# number of rings (size 3 to 8) (size 9 to 14) (size 15 to 20)
#    0.000    2.500    0.000    3.000    0.000    6.333 
#    0.000    4.167    0.000    4.000    0.000    0.000 
#    0.000    0.000    0.000    0.000    0.000    0.000 
#
# Total GULP energy -594922.527183 kJ/mol
# GULP energy per Si atom -12394.219316 kJ/mol
# Density = 1.988747 g / cm^3
# Si number density = 19.932836 Si / 1000 Ang^3
#
#
#
# Elastic Constant Matrix: (Units=GPa)
#
#
# Indices 1 2 3 4 5 6 
#
# 1 139.8500 38.5263 83.6706 0.0000 0.0000 0.0000
# 2 38.5263 50.1900 43.6827 0.0000 0.0000 0.0000
# 3 83.6706 43.6827 134.4311 0.0000 0.0000 0.0000
# 4 0.0000 0.0000 0.0000 29.4076 0.0000 0.0000
# 5 0.0000 0.0000 0.0000 0.0000 42.3636 0.0000
# 6 0.0000 0.0000 0.0000 0.0000 0.0000 16.2111
#
#
#
# Elastic Compliance Matrix: (Units=1/GPa)
#
#
# Indices 1 2 3 4 5 6 
#
# 1 0.011876 -0.003741 -0.006176 0.000000 0.000000 0.000000
# 2 -0.003741 0.028960 -0.007082 0.000000 0.000000 0.000000
# 3 -0.006176 -0.007082 0.013584 0.000000 0.000000 0.000000
# 4 0.000000 0.000000 0.000000 0.034005 0.000000 0.000000
# 5 0.000000 0.000000 0.000000 0.000000 0.023605 0.000000
# 6 0.000000 0.000000 0.000000 0.000000 0.000000 0.061686
#
#
# Mechanical properties :
#
#
# Convention : Reuss Voigt Hill
#
# Bulk Modulus (GPa) = 48.96718 72.91447 60.94083
# Shear Modulus (GPa) = 23.30768 28.16921 25.73844
#
# Velocity S-wave (km/s) = 3.42323 3.76334 3.59731
# Velocity P-wave (km/s) = 6.34382 7.45273 6.92052
#
# Compressibility (1/GPa) = 0.02042184
#
# Stress axis : x y z
#
# Youngs Moduli (GPa) = 84.20161 34.53095 73.61521
#
# Poissons Ratio (x) = 0.12917 0.45467
# Poissons Ratio (y) = 0.31498 0.52134
# Poissons Ratio (z) = 0.52005 0.24455
#
# Static dielectric constant tensor:
#      x y z
#    x 3.919880 0.000000 0.000000 
#    y 0.000000 3.211800 0.000000 
#    z 0.000000 0.000000 3.688710 
# 
# 
# High freq. dielectric constant tensor:
#      x y z
#    x 1.784250 0.000000 0.000000 
#    y 0.000000 1.742600 0.000000 
#    z 0.000000 0.000000 1.778620 
# 
# From -- ./inp_files/21106.got.cif
#   From: 2010.03.12/outbox.cif.g09.slc.cpg/sg51_11_cif.got.tgz:21106.got - 2010.04.16 13:43:02.
