data_PCOD8210146
_publ_section_title
;
Structure prediction by ZEFSAII (Michael W. Deem and Ramdas Pophale) SiO2 
 PCOD8210146
Probable space group: P M M A
;
_chemical_formula_sum "Si O2"
_cell_formula_units_Z 40
_cell_length_a 15.926936
_cell_length_b 9.387819
_cell_length_c 14.566159
_cell_angle_alpha 90.000000
_cell_angle_beta 90.000000
_cell_angle_gamma 90.000000
_cell_volume 2177.920330
_symmetry_space_group_name_H-M "P M M A"
_symmetry_group_IT_number 51
_symmetry_cell_setting 'orthorhombic'
loop_
_space_group_symop_operation_xyz
x,y,z
1/2-x,-y,z
1/2+x,-y,-z
-x,y,-z
-x,-y,-z
1/2+x,y,-z
1/2-x,y,z
x,-y,z
loop_
_atom_site_type_symbol
_atom_site_label
_atom_site_fract_x
_atom_site_fract_y
_atom_site_fract_z
Si Si1 0.908727 0.834734 0.038983
Si Si2 0.250000 0.832575 0.085106
Si Si3 0.584491 0.669122 0.392521
Si Si4 0.396706 0.330920 0.406724
Si Si5 0.845650 0.334374 0.203621
Si Si6 0.250000 0.670363 0.276066
O O1 0.903916 0.749241 0.133453
O O2 0.899787 0.000000 0.062465
O O3 0.833997 0.788538 0.970324
O O4 0.000000 0.797410 0.000000
O O5 0.250000 0.743208 0.177773
O O6 0.250000 0.000000 0.107775
O O7 0.584509 0.500000 0.395922
O O8 0.622892 0.724842 0.489314
O O9 0.489084 0.723282 0.378791
O O10 0.638901 0.724139 0.306708
O O11 0.391892 0.500000 0.406522
O O12 0.330327 0.272827 0.333057
O O13 0.750000 0.305683 0.176857
O O14 0.869250 0.500000 0.197465
O O15 0.250000 0.500000 0.263331
#
# Coordination Sequence:
#
# PCOD8210146 Si02
#       6
#     8   4   8   8   8   4
#     4  10  22  40  59  75  97 137 180 214 260 317
#     4  10  22  40  55  72 102 136 169 212 261 314
#     4   8  15  28  46  70 106 139 164 199 250 301
#     4   8  15  28  45  71 104 137 167 201 244 297
#     4  10  20  32  52  82 108 133 168 214 263 304
#     4  10  20  30  51  80 102 128 171 212 245 292
#
# _framework density 18.366146000000001
#
# number of rings (size 3 to 8) (size 9 to 14) (size 15 to 20)
#    0.000    2.800    1.000    1.200    4.200    1.200 
#    0.000    0.000    0.000    1.200    0.000    2.800 
#    0.000    0.000    0.000    0.000    0.000    0.000 
#
# Total GULP energy -495805.409211 kJ/mol
# GULP energy per Si atom -12395.135230 kJ/mol
# Density = 1.832434 g / cm^3
# Si number density = 18.366146 Si / 1000 Ang^3
#
#
#
# Elastic Constant Matrix: (Units=GPa)
#
#
# Indices 1 2 3 4 5 6 
#
# 1 97.8294 24.1128 55.8842 0.0000 0.0000 0.0000
# 2 24.1128 24.9428 39.3234 0.0000 0.0000 0.0000
# 3 55.8842 39.3234 140.9052 0.0000 0.0000 0.0000
# 4 0.0000 0.0000 0.0000 -2.7404 0.0000 0.0000
# 5 0.0000 0.0000 0.0000 0.0000 33.2056 0.0000
# 6 0.0000 0.0000 0.0000 0.0000 0.0000 13.3670
#
#
#
# Elastic Compliance Matrix: (Units=1/GPa)
#
#
# Indices 1 2 3 4 5 6 
#
# 1 0.014190 -0.008652 -0.003213 0.000000 0.000000 0.000000
# 2 -0.008652 0.076864 -0.018020 0.000000 0.000000 0.000000
# 3 -0.003213 -0.018020 0.013400 0.000000 0.000000 0.000000
# 4 0.000000 0.000000 0.000000 -0.364907 0.000000 0.000000
# 5 0.000000 0.000000 0.000000 0.000000 0.030115 0.000000
# 6 0.000000 0.000000 0.000000 0.000000 0.000000 0.074811
#
#
# Mechanical properties :
#
#
# Convention : Reuss Voigt Hill
#
# Bulk Modulus (GPa) = 22.37889 55.81314 39.09601
# Shear Modulus (GPa) = -61.83466 18.39023 -21.72222
#
# Velocity S-wave (km/s) = -5.80869 3.16778 -3.44282
# Velocity P-wave (km/s) = 5.72507 6.62079 2.35143
#
# Compressibility (1/GPa) = 0.04468498
#
# Stress axis : x y z
#
# Youngs Moduli (GPa) = 70.47245 13.00993 74.62518
#
# Poissons Ratio (x) = 0.11256 0.23980
# Poissons Ratio (y) = 0.60971 1.34473
# Poissons Ratio (z) = 0.22645 0.23444
#
# Static dielectric constant tensor:
#      x y z
#    x 3.611670 0.000000 0.000000 
#    y 0.000000 2.869210 0.000000 
#    z 0.000000 0.000000 3.612420 
# 
# 
# High freq. dielectric constant tensor:
#      x y z
#    x 1.721070 0.000000 0.000000 
#    y 0.000000 1.654940 0.000000 
#    z 0.000000 0.000000 1.726240 
# 
# From -- ./inp_files/23782.got.cif
#   From: 2010.03.12/outbox.cif.g09.slc.cpg/sg51_12_cif.got.tgz:23782.got - 2010.04.16 13:43:02.
