data_PCOD8210147
_publ_section_title
;
Structure prediction by ZEFSAII (Michael W. Deem and Ramdas Pophale) SiO2 
 PCOD8210147
Probable space group: P M M A
;
_chemical_formula_sum "Si O2"
_cell_formula_units_Z 64
_cell_length_a 9.165585
_cell_length_b 15.388694
_cell_length_c 30.162263
_cell_angle_alpha 90.000000
_cell_angle_beta 90.000000
_cell_angle_gamma 90.000000
_cell_volume 4254.278096
_symmetry_space_group_name_H-M "P M M A"
_symmetry_group_IT_number 51
_symmetry_cell_setting 'orthorhombic'
loop_
_space_group_symop_operation_xyz
x,y,z
1/2-x,-y,z
1/2+x,-y,-z
-x,y,-z
-x,-y,-z
1/2+x,y,-z
1/2-x,y,z
x,-y,z
loop_
_atom_site_type_symbol
_atom_site_label
_atom_site_fract_x
_atom_site_fract_y
_atom_site_fract_z
Si Si1 0.415282 0.103620 0.043147
Si Si2 0.580518 0.238449 0.385589
Si Si3 0.584770 0.407328 0.290225
Si Si4 0.580375 0.405059 0.619909
Si Si5 0.085142 0.103348 0.871177
Si Si6 0.920082 0.898998 0.783604
Si Si7 0.421378 0.098700 0.544326
Si Si8 0.083378 0.779970 0.717738
O O1 0.250000 0.139348 0.042653
O O2 0.497947 0.140108 0.086451
O O3 0.414229 0.000000 0.043508
O O4 0.500000 0.138590 0.000000
O O5 0.750000 0.253811 0.392504
O O6 0.502733 0.325839 0.403995
O O7 0.525495 0.157111 0.414495
O O8 0.543375 0.219820 0.334283
O O9 0.750000 0.400414 0.309896
O O10 0.569103 0.500000 0.263372
O O11 0.470042 0.409385 0.329481
O O12 0.558695 0.318405 0.262372
O O13 0.750000 0.383582 0.618857
O O14 0.548628 0.500000 0.597632
O O15 0.250000 0.139883 0.871758
O O16 0.005027 0.135433 0.826819
O O17 0.086009 0.000000 0.872998
O O18 0.750000 0.882157 0.791256
O O19 0.974991 0.846166 0.741260
O O20 0.952788 0.000000 0.774833
O O21 0.500000 0.131840 0.500000
O O22 0.250000 0.106709 0.536440
O O23 0.467227 0.000000 0.555466
O O24 0.250000 0.810690 0.725411
#
# Coordination Sequence:
#
# PCOD8210147 Si02
#       8
#     8   8   8   8   8   8   8   8
#     4   9  15  22  33  50  71  93 121 162 209 251
#     4   9  18  31  47  66  86 109 135 163 197 237
#     4   8  14  26  43  61  82 107 133 162 198 241
#     4   9  16  25  40  64  90 112 133 159 192 229
#     4   9  16  26  39  52  67  93 131 171 209 248
#     4  10  20  31  40  52  75 108 142 174 207 242
#     4   9  18  33  51  69  87 107 133 165 202 244
#     4   9  17  28  43  63  83 105 135 167 198 234
#
# _framework density 15.04368
#
# number of rings (size 3 to 8) (size 9 to 14) (size 15 to 20)
#    0.000    3.000    0.000    2.250    0.000    7.500 
#    0.000    1.250    0.000    1.875    0.000    0.000 
#    0.000    0.000    0.000    0.000    0.000    0.625 
#
# Total GULP energy -793051.679223 kJ/mol
# GULP energy per Si atom -12391.432488 kJ/mol
# Density = 1.500944 g / cm^3
# Si number density = 15.043680 Si / 1000 Ang^3
#
#
#
# Elastic Constant Matrix: (Units=GPa)
#
#
# Indices 1 2 3 4 5 6 
#
# 1 83.3383 43.2924 44.0252 0.0000 0.0000 0.0000
# 2 43.2924 78.4270 46.1779 0.0000 0.0000 0.0000
# 3 44.0252 46.1779 74.5394 0.0000 0.0000 0.0000
# 4 0.0000 0.0000 0.0000 1.2429 0.0000 0.0000
# 5 0.0000 0.0000 0.0000 0.0000 24.7604 0.0000
# 6 0.0000 0.0000 0.0000 0.0000 0.0000 19.8881
#
#
#
# Elastic Compliance Matrix: (Units=1/GPa)
#
#
# Indices 1 2 3 4 5 6 
#
# 1 0.019162 -0.006161 -0.007501 0.000000 0.000000 0.000000
# 2 -0.006161 0.022054 -0.010023 0.000000 0.000000 0.000000
# 3 -0.007501 -0.010023 0.024056 0.000000 0.000000 0.000000
# 4 0.000000 0.000000 0.000000 0.804571 0.000000 0.000000
# 5 0.000000 0.000000 0.000000 0.000000 0.040387 0.000000
# 6 0.000000 0.000000 0.000000 0.000000 0.000000 0.050281
#
#
# Mechanical properties :
#
#
# Convention : Reuss Voigt Hill
#
# Bulk Modulus (GPa) = 55.86463 55.92175 55.89319
# Shear Modulus (GPa) = 4.93170 16.03223 10.48196
#
# Velocity S-wave (km/s) = 1.81256 3.26807 2.64250
# Velocity P-wave (km/s) = 6.44950 7.17593 6.82239
#
# Compressibility (1/GPa) = 0.01790041
#
# Stress axis : x y z
#
# Youngs Moduli (GPa) = 52.18536 45.34413 41.57037
#
# Poissons Ratio (x) = 0.27938 0.31182
# Poissons Ratio (y) = 0.32153 0.41668
# Poissons Ratio (z) = 0.39144 0.45450
#
# Static dielectric constant tensor:
#      x y z
#    x 2.982420 0.000000 0.000000 
#    y 0.000000 2.993660 0.000000 
#    z 0.000000 0.000000 2.730660 
# 
# 
# High freq. dielectric constant tensor:
#      x y z
#    x 1.587590 0.000000 0.000000 
#    y 0.000000 1.550880 0.000000 
#    z 0.000000 0.000000 1.542320 
# 
# From -- ./inp_files/37592.got.cif
#   From: 2010.03.12/outbox.cif.g09.slc.cpg/sg51_19_cif.got.tgz:37592.got - 2010.04.16 13:43:02.
