data_PCOD8210495
_publ_section_title
;
Structure prediction by ZEFSAII (Michael W. Deem and Ramdas Pophale) SiO2 
 PCOD8210495
Probable space group: P M M A
;
_chemical_formula_sum "Si O2"
_cell_formula_units_Z 44
_cell_length_a 9.193370
_cell_length_b 8.019530
_cell_length_c 30.108738
_cell_angle_alpha 90.000000
_cell_angle_beta 90.000000
_cell_angle_gamma 90.000000
_cell_volume 2219.812068
_symmetry_space_group_name_H-M "P M M A"
_symmetry_group_IT_number 51
_symmetry_cell_setting 'orthorhombic'
loop_
_space_group_symop_operation_xyz
x,y,z
1/2-x,-y,z
1/2+x,-y,-z
-x,y,-z
-x,-y,-z
1/2+x,y,-z
1/2-x,y,z
x,-y,z
loop_
_atom_site_type_symbol
_atom_site_label
_atom_site_fract_x
_atom_site_fract_y
_atom_site_fract_z
Si Si1 0.084691 0.307265 0.708198
Si Si2 0.089522 0.192696 0.373863
Si Si3 0.086251 0.198983 0.542955
Si Si4 0.923478 0.000000 0.046940
Si Si5 0.422777 0.684932 0.895631
Si Si6 0.077081 0.187702 0.802638
O O1 0.250000 0.239874 0.704625
O O2 0.077146 0.500000 0.696436
O O3 0.022755 0.276862 0.757724
O O4 0.986173 0.209492 0.673634
O O5 0.250000 0.276725 0.372980
O O6 0.992263 0.272671 0.413084
O O7 0.107971 0.000000 0.384803
O O8 0.250000 0.270025 0.541626
O O9 0.000000 0.264743 0.500000
O O10 0.089614 0.000000 0.543752
O O11 0.978279 0.166967 0.072342
O O12 0.750000 0.000000 0.041502
O O13 0.000000 0.000000 0.000000
O O14 0.250000 0.690641 0.894818
O O15 0.475936 0.500000 0.911503
O O16 0.483549 0.715767 0.845825
O O17 0.250000 0.189114 0.804273
O O18 0.016846 0.000000 0.803523
#
# Coordination Sequence:
#
# PCOD8210495 Si02
#       6
#     8   8   8   4   8   8
#     4  10  20  32  48  73 102 131 164 205 255 308
#     4  10  20  33  49  70  98 133 172 210 251 303
#     4   9  16  27  46  72 100 128 162 208 260 311
#     4  10  20  34  52  76 106 140 180 224 271 318
#     4   9  16  28  48  75 106 138 175 220 268 319
#     4   9  15  26  47  75 104 131 164 209 259 309
#
# _framework density 19.821497999999998
#
# number of rings (size 3 to 8) (size 9 to 14) (size 15 to 20)
#    0.000    2.545    0.909    2.182    0.000    6.909 
#    0.000    0.000    0.000    1.636    0.000    0.000 
#    0.000    0.000    0.000    0.000    0.000    0.000 
#
# Total GULP energy -545428.839652 kJ/mol
# GULP energy per Si atom -12396.109992 kJ/mol
# Density = 1.977638 g / cm^3
# Si number density = 19.821498 Si / 1000 Ang^3
#
#
#
# Elastic Constant Matrix: (Units=GPa)
#
#
# Indices 1 2 3 4 5 6 
#
# 1 89.0811 20.8578 60.5733 0.0000 0.0000 0.0000
# 2 20.8578 83.1099 40.0775 0.0000 0.0000 0.0000
# 3 60.5733 40.0775 173.4766 0.0000 0.0000 0.0000
# 4 0.0000 0.0000 0.0000 4.5167 0.0000 0.0000
# 5 0.0000 0.0000 0.0000 0.0000 25.3744 0.0000
# 6 0.0000 0.0000 0.0000 0.0000 0.0000 7.8981
#
#
#
# Elastic Compliance Matrix: (Units=1/GPa)
#
#
# Indices 1 2 3 4 5 6 
#
# 1 0.014860 -0.001381 -0.004870 0.000000 0.000000 0.000000
# 2 -0.001381 0.013669 -0.002676 0.000000 0.000000 0.000000
# 3 -0.004870 -0.002676 0.008083 0.000000 0.000000 0.000000
# 4 0.000000 0.000000 0.000000 0.221399 0.000000 0.000000
# 5 0.000000 0.000000 0.000000 0.000000 0.039410 0.000000
# 6 0.000000 0.000000 0.000000 0.000000 0.000000 0.126613
#
#
# Mechanical properties :
#
#
# Convention : Reuss Voigt Hill
#
# Bulk Modulus (GPa) = 53.30655 65.40943 59.35799
# Shear Modulus (GPa) = 11.15721 22.50176 16.82949
#
# Velocity S-wave (km/s) = 2.37509 3.37296 2.91701
# Velocity P-wave (km/s) = 5.87138 6.94550 6.43091
#
# Compressibility (1/GPa) = 0.01875942
#
# Stress axis : x y z
#
# Youngs Moduli (GPa) = 67.29255 73.15740 123.71622
#
# Poissons Ratio (x) = 0.10104 0.60247
# Poissons Ratio (y) = 0.09294 0.33102
# Poissons Ratio (z) = 0.32770 0.19574
#
# Static dielectric constant tensor:
#      x y z
#    x 3.326660 0.000000 0.000000 
#    y 0.000000 3.538250 0.000000 
#    z 0.000000 0.000000 3.708370 
# 
# 
# High freq. dielectric constant tensor:
#      x y z
#    x 1.726360 0.000000 0.000000 
#    y 0.000000 1.759560 0.000000 
#    z 0.000000 0.000000 1.782220 
# 
# From -- ./inp_files/36779.got.cif
#   From: 2010.03.12/outbox.cif.g09.slc.cpg/sg51_19_cif.got.tgz:36779.got - 2010.04.16 13:43:02.
