data_PCOD8210161
_publ_section_title
;
Structure prediction by ZEFSAII (Michael W. Deem and Ramdas Pophale) SiO2 
 PCOD8210161
Probable space group: P M M A
;
_chemical_formula_sum "Si O2"
_cell_formula_units_Z 64
_cell_length_a 9.220659
_cell_length_b 15.308243
_cell_length_c 29.929407
_cell_angle_alpha 90.000000
_cell_angle_beta 90.000000
_cell_angle_gamma 90.000000
_cell_volume 4224.598308
_symmetry_space_group_name_H-M "P M M A"
_symmetry_group_IT_number 51
_symmetry_cell_setting 'orthorhombic'
loop_
_space_group_symop_operation_xyz
x,y,z
1/2-x,-y,z
1/2+x,-y,-z
-x,y,-z
-x,-y,-z
1/2+x,y,-z
1/2-x,y,z
x,-y,z
loop_
_atom_site_type_symbol
_atom_site_label
_atom_site_fract_x
_atom_site_fract_y
_atom_site_fract_z
Si Si1 0.079640 0.898945 0.639827
Si Si2 0.081344 0.101634 0.869517
Si Si3 0.414003 0.406840 0.204382
Si Si4 0.082646 0.763304 0.300686
Si Si5 0.086650 0.779972 0.195062
Si Si6 0.909871 0.896281 0.459105
Si Si7 0.918619 0.596079 0.294100
Si Si8 0.913942 0.896057 0.957269
O O1 0.250000 0.879951 0.644745
O O2 0.026285 0.872658 0.589769
O O3 0.990440 0.844970 0.675613
O O4 0.046361 0.000000 0.649279
O O5 0.250000 0.119808 0.877610
O O6 0.027134 0.153934 0.826401
O O7 0.994657 0.135944 0.912681
O O8 0.051241 0.000000 0.860609
O O9 0.250000 0.398947 0.224942
O O10 0.426759 0.500000 0.177446
O O11 0.438946 0.318843 0.175125
O O12 0.531925 0.409194 0.243028
O O13 0.250000 0.760049 0.313894
O O14 0.058935 0.775925 0.247917
O O15 0.008698 0.673213 0.318155
O O16 0.250000 0.812411 0.184506
O O17 0.750000 0.856297 0.463376
O O18 0.000000 0.854860 0.500000
O O19 0.903000 0.000000 0.463578
O O20 0.750000 0.620875 0.295746
O O21 0.945520 0.500000 0.316398
O O22 0.750000 0.859403 0.957516
O O23 0.913057 0.000000 0.959247
O O24 0.000000 0.858365 0.000000
#
# Coordination Sequence:
#
# PCOD8210161 Si02
#       8
#     8   8   8   8   8   8   8   8
#     4   9  18  31  44  59  83 114 145 177 212 248
#     4  10  20  31  42  58  81 111 146 178 207 241
#     4   8  14  26  43  61  81 104 131 167 212 257
#     4  10  20  31  43  60  83 113 147 180 212 248
#     4   9  18  30  42  58  81 110 142 174 208 244
#     4   8  14  25  41  60  80 103 132 168 211 253
#     4   9  16  26  42  62  81 103 133 170 213 257
#     4   9  16  27  44  63  82 104 131 167 210 251
#
# _framework density 15.149369
#
# number of rings (size 3 to 8) (size 9 to 14) (size 15 to 20)
#    0.000    3.000    0.000    3.000    0.000    6.750 
#    0.000    3.750    0.000    0.000    0.000    0.000 
#    0.000    1.000    0.000    3.000    0.000    4.250 
#
# Total GULP energy -792969.845180 kJ/mol
# GULP energy per Si atom -12390.153831 kJ/mol
# Density = 1.511489 g / cm^3
# Si number density = 15.149369 Si / 1000 Ang^3
#
#
#
# Elastic Constant Matrix: (Units=GPa)
#
#
# Indices 1 2 3 4 5 6 
#
# 1 95.2635 52.6640 40.3809 0.0000 0.0000 0.0000
# 2 52.6640 77.3097 38.4173 0.0000 0.0000 0.0000
# 3 40.3809 38.4173 57.4660 0.0000 0.0000 0.0000
# 4 0.0000 0.0000 0.0000 0.5436 0.0000 0.0000
# 5 0.0000 0.0000 0.0000 0.0000 26.1148 0.0000
# 6 0.0000 0.0000 0.0000 0.0000 0.0000 21.9428
#
#
#
# Elastic Compliance Matrix: (Units=1/GPa)
#
#
# Indices 1 2 3 4 5 6 
#
# 1 0.018475 -0.009186 -0.006842 0.000000 0.000000 0.000000
# 2 -0.009186 0.023937 -0.009548 0.000000 0.000000 0.000000
# 3 -0.006842 -0.009548 0.028592 0.000000 0.000000 0.000000
# 4 0.000000 0.000000 0.000000 1.839700 0.000000 0.000000
# 5 0.000000 0.000000 0.000000 0.000000 0.038292 0.000000
# 6 0.000000 0.000000 0.000000 0.000000 0.000000 0.045573
#
#
# Mechanical properties :
#
#
# Convention : Reuss Voigt Hill
#
# Bulk Modulus (GPa) = 50.36707 54.77376 52.57042
# Shear Modulus (GPa) = 2.43625 16.29204 9.36414
#
# Velocity S-wave (km/s) = 1.26950 3.28293 2.48890
# Velocity P-wave (km/s) = 5.95550 7.11368 6.56020
#
# Compressibility (1/GPa) = 0.01985424
#
# Stress axis : x y z
#
# Youngs Moduli (GPa) = 54.12597 41.77651 34.97497
#
# Poissons Ratio (x) = 0.38375 0.23928
# Poissons Ratio (y) = 0.49719 0.33393
# Poissons Ratio (z) = 0.37031 0.39886
#
# Static dielectric constant tensor:
#      x y z
#    x 3.059370 0.000000 0.000000 
#    y 0.000000 2.972070 0.000000 
#    z 0.000000 0.000000 2.707450 
# 
# 
# High freq. dielectric constant tensor:
#      x y z
#    x 1.593210 0.000000 0.000000 
#    y 0.000000 1.559880 0.000000 
#    z 0.000000 0.000000 1.543160 
# 
# From -- ./inp_files/37622.got.cif
#   From: 2010.03.12/outbox.cif.g09.slc.cpg/sg51_19_cif.got.tgz:37622.got - 2010.04.16 13:43:02.
