data_PCOD8210672
_publ_section_title
;
Structure prediction by ZEFSAII (Michael W. Deem and Ramdas Pophale) SiO2 
 PCOD8210672
Probable space group: P M M A
;
_chemical_formula_sum "Si O2"
_cell_formula_units_Z 64
_cell_length_a 9.593878
_cell_length_b 16.203488
_cell_length_c 22.855815
_cell_angle_alpha 90.000000
_cell_angle_beta 90.000000
_cell_angle_gamma 90.000000
_cell_volume 3553.034426
_symmetry_space_group_name_H-M "P M M A"
_symmetry_group_IT_number 51
_symmetry_cell_setting 'orthorhombic'
loop_
_space_group_symop_operation_xyz
x,y,z
1/2-x,-y,z
1/2+x,-y,-z
-x,y,-z
-x,-y,-z
1/2+x,y,-z
1/2-x,y,z
x,-y,z
loop_
_atom_site_type_symbol
_atom_site_label
_atom_site_fract_x
_atom_site_fract_y
_atom_site_fract_z
Si Si1 0.906329 0.091624 0.897949
Si Si2 0.086232 0.763225 0.442579
Si Si3 0.085966 0.233865 0.945675
Si Si4 0.410380 0.143975 0.229033
Si Si5 0.584992 0.908667 0.644704
Si Si6 0.593374 0.407826 0.273748
Si Si7 0.088378 0.404901 0.379755
Si Si8 0.094007 0.717999 0.820260
O O1 0.750000 0.127323 0.909904
O O2 0.932880 0.086960 0.827997
O O3 0.023089 0.143855 0.931467
O O4 0.918682 0.000000 0.923173
O O5 0.250000 0.774927 0.454598
O O6 0.033632 0.830995 0.394595
O O7 0.055443 0.666702 0.426975
O O8 0.000000 0.784628 0.500000
O O9 0.250000 0.227046 0.960548
O O10 0.055290 0.290265 0.888795
O O11 0.000000 0.272419 0.000000
O O12 0.250000 0.167829 0.237856
O O13 0.467888 0.101853 0.288218
O O14 0.492340 0.227466 0.218089
O O15 0.750000 0.909342 0.644010
O O16 0.531392 0.000000 0.622987
O O17 0.750000 0.398494 0.298395
O O18 0.546984 0.500000 0.263135
O O19 0.491354 0.371428 0.322670
O O20 0.580850 0.370539 0.209192
O O21 0.250000 0.405340 0.364296
O O22 0.042867 0.500000 0.398669
O O23 0.250000 0.755063 0.815569
#
# Coordination Sequence:
#
# PCOD8210672 Si02
#       8
#     8   8   8   8   8   8   8   8
#     4   9  17  29  46  69  94 117 145 186 234 282
#     4  10  21  35  50  69  94 127 165 201 237 277
#     4  10  20  33  47  63  86 120 160 196 229 267
#     4   9  16  28  49  73  93 117 152 190 231 282
#     4   9  17  30  49  71  94 122 158 200 242 282
#     4   9  17  30  50  76 102 125 149 179 222 280
#     4   9  18  33  52  75 102 127 152 188 235 285
#     4   9  18  31  47  69  97 125 151 186 233 278
#
# _framework density 18.012771000000001
#
# number of rings (size 3 to 8) (size 9 to 14) (size 15 to 20)
#    0.000    2.750    0.000    1.500    0.000    5.000 
#    0.000    0.625    0.000    2.250    0.000    0.000 
#    0.000    0.000    0.000    0.000    0.000    0.375 
#
# Total GULP energy -792899.194235 kJ/mol
# GULP energy per Si atom -12389.049910 kJ/mol
# Density = 1.797177 g / cm^3
# Si number density = 18.012771 Si / 1000 Ang^3
#
#
#
# Elastic Constant Matrix: (Units=GPa)
#
#
# Indices 1 2 3 4 5 6 
#
# 1 54.6623 23.1499 36.8441 0.0000 0.0000 0.0000
# 2 23.1499 63.2381 37.9249 0.0000 0.0000 0.0000
# 3 36.8441 37.9249 98.4742 0.0000 0.0000 0.0000
# 4 0.0000 0.0000 0.0000 14.2207 0.0000 0.0000
# 5 0.0000 0.0000 0.0000 0.0000 29.3427 0.0000
# 6 0.0000 0.0000 0.0000 0.0000 0.0000 14.1067
#
#
#
# Elastic Compliance Matrix: (Units=1/GPa)
#
#
# Indices 1 2 3 4 5 6 
#
# 1 0.025493 -0.004697 -0.007729 0.000000 0.000000 0.000000
# 2 -0.004697 0.021428 -0.006495 0.000000 0.000000 0.000000
# 3 -0.007729 -0.006495 0.015548 0.000000 0.000000 0.000000
# 4 0.000000 0.000000 0.000000 0.070320 0.000000 0.000000
# 5 0.000000 0.000000 0.000000 0.000000 0.034080 0.000000
# 6 0.000000 0.000000 0.000000 0.000000 0.000000 0.070888
#
#
# Mechanical properties :
#
#
# Convention : Reuss Voigt Hill
#
# Bulk Modulus (GPa) = 40.60654 45.80140 43.20397
# Shear Modulus (GPa) = 17.61744 19.43105 18.52425
#
# Velocity S-wave (km/s) = 3.13078 3.28798 3.21034
# Velocity P-wave (km/s) = 5.97170 6.31639 6.14646
#
# Compressibility (1/GPa) = 0.02462657
#
# Stress axis : x y z
#
# Youngs Moduli (GPa) = 39.22613 46.66813 64.31582
#
# Poissons Ratio (x) = 0.21920 0.49712
# Poissons Ratio (y) = 0.18425 0.41773
# Poissons Ratio (z) = 0.30319 0.30311
#
# Static dielectric constant tensor:
#      x y z
#    x 3.270070 0.000000 0.000000 
#    y 0.000000 3.403040 0.000000 
#    z 0.000000 0.000000 3.399620 
# 
# 
# High freq. dielectric constant tensor:
#      x y z
#    x 1.685160 0.000000 0.000000 
#    y 0.000000 1.683660 0.000000 
#    z 0.000000 0.000000 1.694700 
# 
# From -- ./inp_files/32423.got.cif
#   From: 2010.03.12/outbox.cif.g09.slc.cpg/sg51_17_cif.got.tgz:32423.got - 2010.04.16 13:43:02.
