data_PCOD8210657
_publ_section_title
;
Structure prediction by ZEFSAII (Michael W. Deem and Ramdas Pophale) SiO2 
 PCOD8210657
Probable space group: P M M A
;
_chemical_formula_sum "Si O2"
_cell_formula_units_Z 48
_cell_length_a 25.983195
_cell_length_b 9.458770
_cell_length_c 11.715254
_cell_angle_alpha 90.000000
_cell_angle_beta 90.000000
_cell_angle_gamma 90.000000
_cell_volume 2879.247026
_symmetry_space_group_name_H-M "P M M A"
_symmetry_group_IT_number 51
_symmetry_cell_setting 'orthorhombic'
loop_
_space_group_symop_operation_xyz
x,y,z
1/2-x,-y,z
1/2+x,-y,-z
-x,y,-z
-x,-y,-z
1/2+x,y,-z
1/2-x,y,z
x,-y,z
loop_
_atom_site_type_symbol
_atom_site_label
_atom_site_fract_x
_atom_site_fract_y
_atom_site_fract_z
Si Si1 0.382329 0.161491 0.524512
Si Si2 0.066525 0.664925 0.702863
Si Si3 0.111559 0.161273 0.149418
Si Si4 0.529523 0.843361 0.654895
Si Si5 0.942963 0.664655 0.032594
Si Si6 0.807905 0.168631 0.670338
O O1 0.386333 0.256923 0.638288
O O2 0.436157 0.172945 0.457591
O O3 0.336513 0.221982 0.444384
O O4 0.370950 0.000000 0.559973
O O5 0.069497 0.500000 0.676213
O O6 0.069937 0.697253 0.836628
O O7 0.012995 0.722712 0.654014
O O8 0.063493 0.174303 0.233024
O O9 0.162164 0.219454 0.215786
O O10 0.119815 0.000000 0.109713
O O11 0.100895 0.255821 0.039002
O O12 0.503834 0.000000 0.655350
O O13 0.939275 0.500000 0.003242
O O14 0.000000 0.720848 0.000000
O O15 0.750000 0.228660 0.672691
O O16 0.809687 0.000000 0.668712
#
# Coordination Sequence:
#
# PCOD8210657 Si02
#       6
#     8   8   8   8   8   8
#     4   9  18  31  47  69  95 122 152 189 236 285
#     4  11  21  30  43  64  93 130 165 192 225 269
#     4   9  17  29  49  75  95 119 159 199 234 275
#     4   9  17  29  44  65  95 125 153 189 230 275
#     4  10  20  33  45  62  95 135 167 194 230 277
#     4   8  15  31  55  78  97 117 147 195 250 292
#
# _framework density 16.671023999999999
#
# number of rings (size 3 to 8) (size 9 to 14) (size 15 to 20)
#    0.000    2.667    1.667    3.000    0.000    4.333 
#    0.000    2.500    0.000    3.000    0.000    7.000 
#    0.000    0.000    0.000    0.000    0.000    0.000 
#
# Total GULP energy -595083.473911 kJ/mol
# GULP energy per Si atom -12397.572373 kJ/mol
# Density = 1.663308 g / cm^3
# Si number density = 16.671024 Si / 1000 Ang^3
#
#
#
# Elastic Constant Matrix: (Units=GPa)
#
#
# Indices 1 2 3 4 5 6 
#
# 1 97.7678 38.6923 54.9252 0.0000 0.0000 0.0000
# 2 38.6923 64.1312 54.9502 0.0000 0.0000 0.0000
# 3 54.9252 54.9502 105.7255 0.0000 0.0000 0.0000
# 4 0.0000 0.0000 0.0000 27.3702 0.0000 0.0000
# 5 0.0000 0.0000 0.0000 0.0000 10.1568 0.0000
# 6 0.0000 0.0000 0.0000 0.0000 0.0000 7.0209
#
#
#
# Elastic Compliance Matrix: (Units=1/GPa)
#
#
# Indices 1 2 3 4 5 6 
#
# 1 0.015074 -0.004299 -0.005596 0.000000 0.000000 0.000000
# 2 -0.004299 0.029339 -0.013015 0.000000 0.000000 0.000000
# 3 -0.005596 -0.013015 0.019130 0.000000 0.000000 0.000000
# 4 0.000000 0.000000 0.000000 0.036536 0.000000 0.000000
# 5 0.000000 0.000000 0.000000 0.000000 0.098456 0.000000
# 6 0.000000 0.000000 0.000000 0.000000 0.000000 0.142432
#
#
# Mechanical properties :
#
#
# Convention : Reuss Voigt Hill
#
# Bulk Modulus (GPa) = 56.42923 62.75109 59.59016
# Shear Modulus (GPa) = 12.73248 16.84670 14.78959
#
# Velocity S-wave (km/s) = 2.76660 3.18234 2.98173
# Velocity P-wave (km/s) = 6.64286 7.15721 6.90482
#
# Compressibility (1/GPa) = 0.01772131
#
# Stress axis : x y z
#
# Youngs Moduli (GPa) = 66.34025 34.08450 52.27267
#
# Poissons Ratio (x) = 0.14654 0.29254
# Poissons Ratio (y) = 0.28521 0.68034
# Poissons Ratio (z) = 0.37127 0.44362
#
# Static dielectric constant tensor:
#      x y z
#    x 3.061170 0.000000 0.000000 
#    y 0.000000 2.969410 0.000000 
#    z 0.000000 0.000000 3.190080 
# 
# 
# High freq. dielectric constant tensor:
#      x y z
#    x 1.611330 0.000000 0.000000 
#    y 0.000000 1.624210 0.000000 
#    z 0.000000 0.000000 1.645750 
# 
# From -- ./inp_files/18619.got.cif
#   From: 2010.03.12/outbox.cif.g09.slc.cpg/sg51_10_cif.got.tgz:18619.got - 2010.04.16 13:43:02.
