data_PCOD8210555
_publ_section_title
;
Structure prediction by ZEFSAII (Michael W. Deem and Ramdas Pophale) SiO2 
 PCOD8210555
Probable space group: P M M A
;
_chemical_formula_sum "Si O2"
_cell_formula_units_Z 48
_cell_length_a 22.924059
_cell_length_b 9.637307
_cell_length_c 12.652850
_cell_angle_alpha 90.000000
_cell_angle_beta 90.000000
_cell_angle_gamma 90.000000
_cell_volume 2795.345997
_symmetry_space_group_name_H-M "P M M A"
_symmetry_group_IT_number 51
_symmetry_cell_setting 'orthorhombic'
loop_
_space_group_symop_operation_xyz
x,y,z
1/2-x,-y,z
1/2+x,-y,-z
-x,y,-z
-x,-y,-z
1/2+x,y,-z
1/2-x,y,z
x,-y,z
loop_
_atom_site_type_symbol
_atom_site_label
_atom_site_fract_x
_atom_site_fract_y
_atom_site_fract_z
Si Si1 0.008714 0.658976 0.880339
Si Si2 0.880018 0.658587 0.813780
Si Si3 0.182883 0.160855 0.597370
Si Si4 0.183285 0.160539 0.013871
Si Si5 0.182584 0.339505 0.398354
Si Si6 0.386320 0.839583 0.805339
O O1 0.030370 0.500000 0.884011
O O2 0.949557 0.674299 0.813839
O O3 0.056072 0.749744 0.820253
O O4 0.000000 0.713910 0.000000
O O5 0.861168 0.500000 0.835309
O O6 0.855846 0.708701 0.701105
O O7 0.853927 0.751425 0.905250
O O8 0.250000 0.193914 0.625092
O O9 0.161527 0.249862 0.497710
O O10 0.143756 0.205173 0.696341
O O11 0.174676 0.000000 0.569142
O O12 0.250000 0.208817 0.018552
O O13 0.160233 0.189952 0.896801
O O14 0.176624 0.000000 0.044504
O O15 0.250000 0.309837 0.370948
O O16 0.172074 0.500000 0.425875
O O17 0.404955 0.000000 0.803903
#
# Coordination Sequence:
#
# PCOD8210555 Si02
#       6
#     8   8   8   8   8   8
#     4  10  20  35  53  74 102 138 177 214 252 301
#     4  10  20  35  53  74 103 137 172 211 257 303
#     4   9  18  34  55  77 103 135 169 209 258 307
#     4  10  20  32  49  76 106 132 163 207 256 308
#     4   9  18  33  53  76 101 131 168 209 254 305
#     4  10  20  34  53  76 103 135 171 209 255 306
#
# _framework density 17.171399000000001
#
# number of rings (size 3 to 8) (size 9 to 14) (size 15 to 20)
#    0.000    2.333    1.667    1.000    0.000    5.333 
#    0.000    2.500    0.000    8.000    0.000    0.000 
#    0.000    0.000    0.000    0.000    0.000    0.000 
#
# Total GULP energy -595369.064494 kJ/mol
# GULP energy per Si atom -12403.522177 kJ/mol
# Density = 1.713232 g / cm^3
# Si number density = 17.171399 Si / 1000 Ang^3
#
#
#
# Elastic Constant Matrix: (Units=GPa)
#
#
# Indices 1 2 3 4 5 6 
#
# 1 56.1957 22.4151 23.7776 0.0000 0.0000 0.0000
# 2 22.4151 46.1253 36.8512 0.0000 0.0000 0.0000
# 3 23.7776 36.8512 103.8039 0.0000 0.0000 0.0000
# 4 0.0000 0.0000 0.0000 31.4008 0.0000 0.0000
# 5 0.0000 0.0000 0.0000 0.0000 16.0296 0.0000
# 6 0.0000 0.0000 0.0000 0.0000 0.0000 27.9704
#
#
#
# Elastic Compliance Matrix: (Units=1/GPa)
#
#
# Indices 1 2 3 4 5 6 
#
# 1 0.022302 -0.009431 -0.001760 0.000000 0.000000 0.000000
# 2 -0.009431 0.034252 -0.009999 0.000000 0.000000 0.000000
# 3 -0.001760 -0.009999 0.013587 0.000000 0.000000 0.000000
# 4 0.000000 0.000000 0.000000 0.031846 0.000000 0.000000
# 5 0.000000 0.000000 0.000000 0.000000 0.062385 0.000000
# 6 0.000000 0.000000 0.000000 0.000000 0.000000 0.035752
#
#
# Mechanical properties :
#
#
# Convention : Reuss Voigt Hill
#
# Bulk Modulus (GPa) = 36.02513 41.35696 38.69105
# Shear Modulus (GPa) = 19.86031 23.28558 21.57295
#
# Velocity S-wave (km/s) = 3.40456 3.68648 3.54832
# Velocity P-wave (km/s) = 6.03987 6.50056 6.27444
#
# Compressibility (1/GPa) = 0.02775840
#
# Stress axis : x y z
#
# Youngs Moduli (GPa) = 44.83963 29.19521 73.60179
#
# Poissons Ratio (x) = 0.27535 0.12956
# Poissons Ratio (y) = 0.42290 0.73597
# Poissons Ratio (z) = 0.07893 0.29193
#
# Static dielectric constant tensor:
#      x y z
#    x 3.203900 0.000000 0.000000 
#    y 0.000000 3.212140 0.000000 
#    z 0.000000 0.000000 3.252760 
# 
# 
# High freq. dielectric constant tensor:
#      x y z
#    x 1.660600 0.000000 0.000000 
#    y 0.000000 1.661490 0.000000 
#    z 0.000000 0.000000 1.663390 
# 
# From -- ./inp_files/18538.got.cif
#   From: 2010.03.12/outbox.cif.g09.slc.cpg/sg51_10_cif.got.tgz:18538.got - 2010.04.16 13:43:02.
