data_PCOD8210613
_publ_section_title
;
Structure prediction by ZEFSAII (Michael W. Deem and Ramdas Pophale) SiO2 
 PCOD8210613
Probable space group: P M M A
;
_chemical_formula_sum "Si O2"
_cell_formula_units_Z 64
_cell_length_a 27.492701
_cell_length_b 9.359170
_cell_length_c 13.019884
_cell_angle_alpha 90.000000
_cell_angle_beta 90.000000
_cell_angle_gamma 90.000000
_cell_volume 3350.131541
_symmetry_space_group_name_H-M "P M M A"
_symmetry_group_IT_number 51
_symmetry_cell_setting 'orthorhombic'
loop_
_space_group_symop_operation_xyz
x,y,z
1/2-x,-y,z
1/2+x,-y,-z
-x,y,-z
-x,-y,-z
1/2+x,y,-z
1/2-x,y,z
x,-y,z
loop_
_atom_site_type_symbol
_atom_site_label
_atom_site_fract_x
_atom_site_fract_y
_atom_site_fract_z
Si Si1 0.806152 0.331041 0.515295
Si Si2 0.552409 0.665934 0.211930
Si Si3 0.141084 0.164378 0.307539
Si Si4 0.804057 0.170076 0.891794
Si Si5 0.652279 0.333892 0.299494
Si Si6 0.057428 0.342799 0.012482
Si Si7 0.692409 0.841493 0.113747
Si Si8 0.544090 0.164335 0.795377
O O1 0.750000 0.284947 0.528513
O O2 0.812372 0.500000 0.525432
O O3 0.839712 0.257874 0.599509
O O4 0.825694 0.275567 0.405626
O O5 0.536626 0.500000 0.210200
O O6 0.594193 0.695973 0.296139
O O7 0.575837 0.708219 0.100506
O O8 0.505053 0.757582 0.239997
O O9 0.163494 0.225999 0.201942
O O10 0.082649 0.178159 0.297692
O O11 0.156533 0.000000 0.325584
O O12 0.750000 0.232796 0.875079
O O13 0.802607 0.000000 0.893262
O O14 0.826378 0.219446 0.002566
O O15 0.663529 0.500000 0.288119
O O16 0.679036 0.260929 0.205637
O O17 0.078676 0.500000 0.040850
O O18 0.068989 0.230347 0.102204
O O19 0.000000 0.354093 0.000000
O O20 0.750000 0.851473 0.103314
O O21 0.671000 0.000000 0.135321
O O22 0.532168 0.000000 0.819660
#
# Coordination Sequence:
#
# PCOD8210613 Si02
#       8
#     8   8   8   8   8   8   8   8
#     4  10  22  40  60  82 107 136 177 231 281 324
#     4   9  19  35  53  75 107 148 187 219 264 325
#     4  10  21  36  56  81 108 143 185 223 270 329
#     4   8  15  30  51  75 106 140 171 211 265 323
#     4  10  21  37  57  80 107 142 184 227 274 324
#     4   8  15  29  48  71 104 145 182 216 257 312
#     4   9  18  32  52  80 111 141 174 215 269 332
#     4  10  20  32  50  80 112 142 181 226 270 315
#
# _framework density 19.103726000000002
#
# number of rings (size 3 to 8) (size 9 to 14) (size 15 to 20)
#    0.000    2.750    0.000    2.625    1.750    5.750 
#    0.000    1.250    0.000    4.500    0.000    0.000 
#    0.000    0.000    0.000    0.000    0.000    0.000 
#
# Total GULP energy -793315.522330 kJ/mol
# GULP energy per Si atom -12395.555036 kJ/mol
# Density = 1.906025 g / cm^3
# Si number density = 19.103726 Si / 1000 Ang^3
#
#
#
# Elastic Constant Matrix: (Units=GPa)
#
#
# Indices 1 2 3 4 5 6 
#
# 1 55.3021 28.4519 39.7965 0.0000 0.0000 0.0000
# 2 28.4519 59.3261 41.4128 0.0000 0.0000 0.0000
# 3 39.7965 41.4128 121.4232 0.0000 0.0000 0.0000
# 4 0.0000 0.0000 0.0000 28.1707 0.0000 0.0000
# 5 0.0000 0.0000 0.0000 0.0000 32.7159 0.0000
# 6 0.0000 0.0000 0.0000 0.0000 0.0000 23.2482
#
#
#
# Elastic Compliance Matrix: (Units=1/GPa)
#
#
# Indices 1 2 3 4 5 6 
#
# 1 0.026766 -0.008810 -0.005768 0.000000 0.000000 0.000000
# 2 -0.008810 0.025023 -0.005647 0.000000 0.000000 0.000000
# 3 -0.005768 -0.005647 0.012052 0.000000 0.000000 0.000000
# 4 0.000000 0.000000 0.000000 0.035498 0.000000 0.000000
# 5 0.000000 0.000000 0.000000 0.000000 0.030566 0.000000
# 6 0.000000 0.000000 0.000000 0.000000 0.000000 0.043014
#
#
# Mechanical properties :
#
#
# Convention : Reuss Voigt Hill
#
# Bulk Modulus (GPa) = 42.75112 50.59708 46.67410
# Shear Modulus (GPa) = 22.60751 25.25297 23.93024
#
# Velocity S-wave (km/s) = 3.44380 3.63972 3.54312
# Velocity P-wave (km/s) = 6.18385 6.64879 6.42053
#
# Compressibility (1/GPa) = 0.02339120
#
# Stress axis : x y z
#
# Youngs Moduli (GPa) = 37.36119 39.96312 82.97439
#
# Poissons Ratio (x) = 0.35209 0.47856
# Poissons Ratio (y) = 0.32916 0.46854
# Poissons Ratio (z) = 0.21549 0.22566
#
# Static dielectric constant tensor:
#      x y z
#    x 3.481200 0.000000 0.000000 
#    y 0.000000 3.335050 0.000000 
#    z 0.000000 0.000000 3.673830 
# 
# 
# High freq. dielectric constant tensor:
#      x y z
#    x 1.744260 0.000000 0.000000 
#    y 0.000000 1.725260 0.000000 
#    z 0.000000 0.000000 1.731530 
# 
# From -- ./inp_files/19623.got.cif
#   From: 2010.03.12/outbox.cif.g09.slc.cpg/sg51_10_cif.got.tgz:19623.got - 2010.04.16 13:43:02.
