data_PCOD8210669
_publ_section_title
;
Structure prediction by ZEFSAII (Michael W. Deem and Ramdas Pophale) SiO2 
 PCOD8210669
Probable space group: P M M A
;
_chemical_formula_sum "Si O2"
_cell_formula_units_Z 56
_cell_length_a 8.829295
_cell_length_b 13.458609
_cell_length_c 30.189197
_cell_angle_alpha 90.000000
_cell_angle_beta 90.000000
_cell_angle_gamma 90.000000
_cell_volume 3587.383160
_symmetry_space_group_name_H-M "P M M A"
_symmetry_group_IT_number 51
_symmetry_cell_setting 'orthorhombic'
loop_
_space_group_symop_operation_xyz
x,y,z
1/2-x,-y,z
1/2+x,-y,-z
-x,y,-z
-x,-y,-z
1/2+x,y,-z
1/2-x,y,z
x,-y,z
loop_
_atom_site_type_symbol
_atom_site_label
_atom_site_fract_x
_atom_site_fract_y
_atom_site_fract_z
Si Si1 0.929171 0.112885 0.047248
Si Si2 0.920418 0.618446 0.544106
Si Si3 0.428501 0.725903 0.111260
Si Si4 0.420457 0.618611 0.632489
Si Si5 0.083477 0.385739 0.958547
Si Si6 0.571420 0.614743 0.189464
Si Si7 0.918598 0.617062 0.719697
O O1 0.750000 0.125667 0.044007
O O2 0.992752 0.179935 0.087540
O O3 0.974917 0.000000 0.058649
O O4 0.000000 0.144403 0.000000
O O5 0.750000 0.658638 0.544934
O O6 0.924191 0.500000 0.543901
O O7 0.000000 0.660412 0.500000
O O8 0.004666 0.659742 0.587544
O O9 0.250000 0.742827 0.112714
O O10 0.475990 0.628517 0.083499
O O11 0.489073 0.698833 0.159940
O O12 0.250000 0.658866 0.634781
O O13 0.422966 0.500000 0.632869
O O14 0.510445 0.662087 0.674787
O O15 0.250000 0.336077 0.951793
O O16 0.107427 0.500000 0.968187
O O17 0.000000 0.333855 0.000000
O O18 0.750000 0.624955 0.182863
O O19 0.521298 0.500000 0.178863
O O20 0.526750 0.643756 0.239323
O O21 0.750000 0.661356 0.727063
O O22 0.907514 0.500000 0.714149
#
# Coordination Sequence:
#
# PCOD8210669 Si02
#       7
#     8   8   8   8   8   8   8
#     4  10  21  38  58  76  93 112 135 164 197 235
#     4   9  15  21  28  39  56  78 106 144 191 240
#     4  12  23  33  48  68  90 113 136 164 198 237
#     4   9  15  22  32  45  61  84 115 150 190 236
#     4  10  20  33  47  63  85 112 140 167 193 226
#     4  10  20  33  47  63  85 112 141 172 204 240
#     4   9  16  26  39  54  72  95 125 160 197 237
#
# _framework density 15.610264000000001
#
# number of rings (size 3 to 8) (size 9 to 14) (size 15 to 20)
#    0.000    2.143    0.000    4.714    0.000    9.429 
#    0.000    0.000    0.000    0.000    0.000    0.000 
#    0.000    0.000    0.000    0.000    0.000    0.000 
#
# Total GULP energy -694043.463438 kJ/mol
# GULP energy per Si atom -12393.633276 kJ/mol
# Density = 1.557473 g / cm^3
# Si number density = 15.610264 Si / 1000 Ang^3
#
#
#
# Elastic Constant Matrix: (Units=GPa)
#
#
# Indices 1 2 3 4 5 6 
#
# 1 116.3126 20.3901 50.6783 0.0000 0.0000 0.0000
# 2 20.3901 45.0479 26.4702 0.0000 0.0000 0.0000
# 3 50.6783 26.4702 123.4441 0.0000 0.0000 0.0000
# 4 0.0000 0.0000 0.0000 5.5932 0.0000 0.0000
# 5 0.0000 0.0000 0.0000 0.0000 34.0469 0.0000
# 6 0.0000 0.0000 0.0000 0.0000 0.0000 11.7932
#
#
#
# Elastic Compliance Matrix: (Units=1/GPa)
#
#
# Indices 1 2 3 4 5 6 
#
# 1 0.010729 -0.002595 -0.003848 0.000000 0.000000 0.000000
# 2 -0.002595 0.026027 -0.004516 0.000000 0.000000 0.000000
# 3 -0.003848 -0.004516 0.010649 0.000000 0.000000 0.000000
# 4 0.000000 0.000000 0.000000 0.178787 0.000000 0.000000
# 5 0.000000 0.000000 0.000000 0.000000 0.029371 0.000000
# 6 0.000000 0.000000 0.000000 0.000000 0.000000 0.084795
#
#
# Mechanical properties :
#
#
# Convention : Reuss Voigt Hill
#
# Bulk Modulus (GPa) = 39.23581 53.32021 46.27801
# Shear Modulus (GPa) = 13.48540 22.77106 18.12823
#
# Velocity S-wave (km/s) = 2.94237 3.82347 3.41149
# Velocity P-wave (km/s) = 6.06074 7.32961 6.72517
#
# Compressibility (1/GPa) = 0.02548692
#
# Stress axis : x y z
#
# Youngs Moduli (GPa) = 93.20390 38.42227 93.90610
#
# Poissons Ratio (x) = 0.09971 0.36137
# Poissons Ratio (y) = 0.24188 0.42403
# Poissons Ratio (z) = 0.35867 0.17350
#
# Static dielectric constant tensor:
#      x y z
#    x 3.323350 0.000000 0.000000 
#    y 0.000000 2.491310 0.000000 
#    z 0.000000 0.000000 3.122980 
# 
# 
# High freq. dielectric constant tensor:
#      x y z
#    x 1.623360 0.000000 0.000000 
#    y 0.000000 1.521060 0.000000 
#    z 0.000000 0.000000 1.603610 
# 
# From -- ./inp_files/37440.got.cif
#   From: 2010.03.12/outbox.cif.g09.slc.cpg/sg51_19_cif.got.tgz:37440.got - 2010.04.16 13:43:02.
