data_PCOD8210704
_publ_section_title
;
Structure prediction by ZEFSAII (Michael W. Deem and Ramdas Pophale) SiO2 
 PCOD8210704
Probable space group: P M M A
;
_chemical_formula_sum "Si O2"
_cell_formula_units_Z 64
_cell_length_a 17.589998
_cell_length_b 9.379464
_cell_length_c 22.707268
_cell_angle_alpha 90.000000
_cell_angle_beta 90.000000
_cell_angle_gamma 90.000000
_cell_volume 3746.353002
_symmetry_space_group_name_H-M "P M M A"
_symmetry_group_IT_number 51
_symmetry_cell_setting 'orthorhombic'
loop_
_space_group_symop_operation_xyz
x,y,z
1/2-x,-y,z
1/2+x,-y,-z
-x,y,-z
-x,-y,-z
1/2+x,y,-z
1/2-x,y,z
x,-y,z
loop_
_atom_site_type_symbol
_atom_site_label
_atom_site_fract_x
_atom_site_fract_y
_atom_site_fract_z
Si Si1 0.962902 0.163953 0.739122
Si Si2 0.574281 0.339264 0.039449
Si Si3 0.451829 0.832465 0.622770
Si Si4 0.083041 0.663682 0.434382
Si Si5 0.982624 0.165121 0.872726
Si Si6 0.165583 0.663893 0.315642
Si Si7 0.337174 0.834147 0.051943
Si Si8 0.162569 0.334478 0.555850
O O1 0.991767 0.200819 0.804026
O O2 0.886835 0.251112 0.728810
O O3 0.026405 0.203860 0.690395
O O4 0.940172 0.000000 0.733393
O O5 0.601209 0.500000 0.054607
O O6 0.550284 0.255903 0.098284
O O7 0.500000 0.342280 0.000000
O O8 0.642241 0.257382 0.006035
O O9 0.511688 0.765110 0.577079
O O10 0.371107 0.759292 0.609300
O O11 0.447303 0.000000 0.611576
O O12 0.054263 0.500000 0.435594
O O13 0.144835 0.687436 0.383659
O O14 0.121286 0.707558 0.495352
O O15 0.897298 0.204437 0.895963
O O16 0.998618 0.000000 0.886292
O O17 0.250000 0.722397 0.306539
O O18 0.158718 0.500000 0.298006
O O19 0.250000 0.798238 0.071479
O O20 0.344286 0.000000 0.035165
O O21 0.250000 0.293967 0.549019
O O22 0.151492 0.500000 0.570920
#
# Coordination Sequence:
#
# PCOD8210704 Si02
#       8
#     8   8   8   8   8   8   8   8
#     4   9  19  33  48  67  92 125 162 196 231 271
#     4   9  17  29  46  69  96 124 152 184 225 268
#     4  10  20  33  48  69  97 125 154 191 236 284
#     4   9  17  31  50  69  91 121 156 192 232 282
#     4   9  17  31  50  69  91 123 163 199 226 262
#     4   9  17  29  45  66  93 124 156 191 232 278
#     4   9  17  29  47  72  99 125 153 186 225 269
#     4  10  20  33  50  71  92 117 153 196 241 288
#
# _framework density 17.083280999999999
#
# number of rings (size 3 to 8) (size 9 to 14) (size 15 to 20)
#    0.000    2.750    0.000    1.500    0.000    7.250 
#    0.000    1.250    0.000    3.000    0.000    1.750 
#    0.000    0.000    0.000    0.000    0.000    0.000 
#
# Total GULP energy -793495.064419 kJ/mol
# GULP energy per Si atom -12398.360382 kJ/mol
# Density = 1.704440 g / cm^3
# Si number density = 17.083281 Si / 1000 Ang^3
#
#
#
# Elastic Constant Matrix: (Units=GPa)
#
#
# Indices 1 2 3 4 5 6 
#
# 1 67.9481 39.0022 48.5360 0.0000 0.0000 0.0000
# 2 39.0022 69.9775 50.0878 0.0000 0.0000 0.0000
# 3 48.5360 50.0878 97.3163 0.0000 0.0000 0.0000
# 4 0.0000 0.0000 0.0000 24.1899 0.0000 0.0000
# 5 0.0000 0.0000 0.0000 0.0000 15.0923 0.0000
# 6 0.0000 0.0000 0.0000 0.0000 0.0000 20.0534
#
#
#
# Elastic Compliance Matrix: (Units=1/GPa)
#
#
# Indices 1 2 3 4 5 6 
#
# 1 0.025450 -0.008074 -0.008538 0.000000 0.000000 0.000000
# 2 -0.008074 0.025187 -0.008937 0.000000 0.000000 0.000000
# 3 -0.008538 -0.008937 0.019134 0.000000 0.000000 0.000000
# 4 0.000000 0.000000 0.000000 0.041340 0.000000 0.000000
# 5 0.000000 0.000000 0.000000 0.000000 0.066259 0.000000
# 6 0.000000 0.000000 0.000000 0.000000 0.000000 0.049867
#
#
# Mechanical properties :
#
#
# Convention : Reuss Voigt Hill
#
# Bulk Modulus (GPa) = 53.54956 56.72157 55.13557
# Shear Modulus (GPa) = 17.57120 18.37482 17.97301
#
# Velocity S-wave (km/s) = 3.21060 3.28320 3.24710
# Velocity P-wave (km/s) = 6.71998 6.90272 6.81196
#
# Compressibility (1/GPa) = 0.01867429
#
# Stress axis : x y z
#
# Youngs Moduli (GPa) = 39.29294 39.70330 52.26431
#
# Poissons Ratio (x) = 0.32055 0.44621
# Poissons Ratio (y) = 0.31724 0.46707
# Poissons Ratio (z) = 0.33547 0.35482
#
# Static dielectric constant tensor:
#      x y z
#    x 3.189160 0.000000 0.000000 
#    y 0.000000 3.255950 0.000000 
#    z 0.000000 0.000000 3.161200 
# 
# 
# High freq. dielectric constant tensor:
#      x y z
#    x 1.644920 0.000000 0.000000 
#    y 0.000000 1.659990 0.000000 
#    z 0.000000 0.000000 1.647350 
# 
# From -- ./inp_files/35895.got.cif
#   From: 2010.03.12/outbox.cif.g09.slc.cpg/sg51_18_cif.got.tgz:35895.got - 2010.04.16 13:43:02.
