data_PCOD8210072
_publ_section_title
;
Structure prediction by ZEFSAII (Michael W. Deem and Ramdas Pophale) SiO2 
 PCOD8210072
Probable space group: P M M A
;
_chemical_formula_sum "Si O2"
_cell_formula_units_Z 48
_cell_length_a 10.058149
_cell_length_b 28.533932
_cell_length_c 8.838834
_cell_angle_alpha 90.000000
_cell_angle_beta 90.000000
_cell_angle_gamma 90.000000
_cell_volume 2536.732450
_symmetry_space_group_name_H-M "P M M A"
_symmetry_group_IT_number 51
_symmetry_cell_setting 'orthorhombic'
loop_
_space_group_symop_operation_xyz
x,y,z
1/2-x,-y,z
1/2+x,-y,-z
-x,y,-z
-x,-y,-z
1/2+x,y,-z
1/2-x,y,z
x,-y,z
loop_
_atom_site_type_symbol
_atom_site_label
_atom_site_fract_x
_atom_site_fract_y
_atom_site_fract_z
Si Si1 0.996385 0.638765 0.179075
Si Si2 0.095194 0.050691 0.642711
Si Si3 0.250000 0.304523 0.826721
Si Si4 0.250000 0.803403 0.182679
Si Si5 0.750000 0.694373 0.813687
Si Si6 0.594897 0.446778 0.357560
Si Si7 0.250000 0.199380 0.821820
Si Si8 0.494578 0.852032 0.681670
O O1 0.877060 0.669985 0.241812
O O2 0.971726 0.585672 0.230517
O O3 0.125225 0.664612 0.247916
O O4 0.000000 0.637836 0.000000
O O5 0.250000 0.060770 0.596832
O O6 0.000000 0.046546 0.500000
O O7 0.037015 0.094536 0.738153
O O8 0.087689 0.000000 0.729296
O O9 0.250000 0.252398 0.768046
O O10 0.250000 0.305792 0.006835
O O11 0.250000 0.749017 0.239645
O O12 0.373056 0.832069 0.246476
O O13 0.250000 0.806325 0.002053
O O14 0.500000 0.439655 0.500000
O O15 0.750000 0.433960 0.392444
O O16 0.586695 0.500000 0.298090
O O17 0.379264 0.179095 0.746857
O O18 0.500000 0.849991 0.500000
#
# Coordination Sequence:
#
# PCOD8210072 Si02
#       8
#     8   8   4   4   4   8   4   8
#     4  10  19  36  61  85 109 142 190 241 281 317
#     4   9  18  33  56  84 113 149 193 240 293 351
#     4   9  18  35  58  81 110 150 193 231 278 335
#     4  11  23  39  60  83 118 160 203 229 282 363
#     4   9  20  35  56  85 112 148 191 235 272 337
#     4  10  22  40  59  82 115 152 185 224 282 347
#     4  11  21  39  62  83 114 160 199 231 288 365
#     4  11  22  37  58  88 118 150 188 251 298 331
#
# _framework density 18.921980999999999
#
# number of rings (size 3 to 8) (size 9 to 14) (size 15 to 20)
#    0.000    2.000    1.667    2.000    4.667    3.000 
#    0.000    5.000    0.000    3.000    0.000    0.000 
#    0.000    0.000    0.000    0.000    0.000    0.000 
#
# Total GULP energy -594691.075060 kJ/mol
# GULP energy per Si atom -12389.397397 kJ/mol
# Density = 1.887891 g / cm^3
# Si number density = 18.921981 Si / 1000 Ang^3
#
#
#
# Elastic Constant Matrix: (Units=GPa)
#
#
# Indices 1 2 3 4 5 6 
#
# 1 181.2384 91.4336 33.6822 0.0000 0.0000 0.0000
# 2 91.4336 182.3427 41.1369 0.0000 0.0000 0.0000
# 3 33.6822 41.1369 48.4488 0.0000 0.0000 0.0000
# 4 0.0000 0.0000 0.0000 23.8388 0.0000 0.0000
# 5 0.0000 0.0000 0.0000 0.0000 13.0303 0.0000
# 6 0.0000 0.0000 0.0000 0.0000 0.0000 43.1444
#
#
#
# Elastic Compliance Matrix: (Units=1/GPa)
#
#
# Indices 1 2 3 4 5 6 
#
# 1 0.007631 -0.003253 -0.002543 0.000000 0.000000 0.000000
# 2 -0.003253 0.008170 -0.004676 0.000000 0.000000 0.000000
# 3 -0.002543 -0.004676 0.026379 0.000000 0.000000 0.000000
# 4 0.000000 0.000000 0.000000 0.041948 0.000000 0.000000
# 5 0.000000 0.000000 0.000000 0.000000 0.076744 0.000000
# 6 0.000000 0.000000 0.000000 0.000000 0.000000 0.023178
#
#
# Mechanical properties :
#
#
# Convention : Reuss Voigt Hill
#
# Bulk Modulus (GPa) = 47.08966 82.72616 64.90791
# Shear Modulus (GPa) = 23.57676 32.38784 27.98230
#
# Velocity S-wave (km/s) = 3.53370 4.14170 3.84972
# Velocity P-wave (km/s) = 6.44900 8.16616 7.35784
#
# Compressibility (1/GPa) = 0.02123608
#
# Stress axis : x y z
#
# Youngs Moduli (GPa) = 131.03905 122.39736 37.90949
#
# Poissons Ratio (x) = 0.39814 0.09642
# Poissons Ratio (y) = 0.42625 0.17725
# Poissons Ratio (z) = 0.33330 0.57229
#
# Static dielectric constant tensor:
#      x y z
#    x 3.732640 0.000000 0.000000 
#    y 0.000000 4.077770 0.000000 
#    z 0.000000 0.000000 3.071520 
# 
# 
# High freq. dielectric constant tensor:
#      x y z
#    x 1.760730 0.000000 0.000000 
#    y 0.000000 1.761210 0.000000 
#    z 0.000000 0.000000 1.687570 
# 
# From -- ./inp_files/6325.got.cif
#   From: 2010.03.12/outbox.cif.g09.slc.cpg/sg51_4_cif.got.tgz:6325.got - 2010.04.16 13:43:02.
