data_PCOD8210705
_publ_section_title
;
Structure prediction by ZEFSAII (Michael W. Deem and Ramdas Pophale) SiO2 
 PCOD8210705
Probable space group: P M M A
;
_chemical_formula_sum "Si O2"
_cell_formula_units_Z 64
_cell_length_a 17.516996
_cell_length_b 9.368970
_cell_length_c 22.421603
_cell_angle_alpha 90.000000
_cell_angle_beta 90.000000
_cell_angle_gamma 90.000000
_cell_volume 3679.748507
_symmetry_space_group_name_H-M "P M M A"
_symmetry_group_IT_number 51
_symmetry_cell_setting 'orthorhombic'
loop_
_space_group_symop_operation_xyz
x,y,z
1/2-x,-y,z
1/2+x,-y,-z
-x,y,-z
-x,-y,-z
1/2+x,y,-z
1/2-x,y,z
x,-y,z
loop_
_atom_site_type_symbol
_atom_site_label
_atom_site_fract_x
_atom_site_fract_y
_atom_site_fract_z
Si Si1 0.162901 0.665871 0.452282
Si Si2 0.960517 0.332354 0.884124
Si Si3 0.973630 0.664406 0.241646
Si Si4 0.901008 0.164818 0.074024
Si Si5 0.072012 0.160916 0.542858
Si Si6 0.664324 0.833845 0.200806
Si Si7 0.661887 0.161682 0.946933
Si Si8 0.976601 0.665017 0.629406
O O1 0.250000 0.701249 0.433270
O O2 0.153859 0.500000 0.468989
O O3 0.141647 0.757273 0.510813
O O4 0.106363 0.706815 0.397560
O O5 0.961047 0.500000 0.895151
O O6 0.879168 0.268496 0.901637
O O7 0.975800 0.291676 0.815267
O O8 0.023387 0.260798 0.926718
O O9 0.949961 0.500000 0.238212
O O10 0.894642 0.751318 0.243136
O O11 0.024341 0.697027 0.300050
O O12 0.849689 0.202216 0.131343
O O13 0.926386 0.000000 0.074806
O O14 0.852763 0.203344 0.015641
O O15 0.000000 0.159220 0.500000
O O16 0.046155 0.243772 0.602132
O O17 0.098072 0.000000 0.558909
O O18 0.750000 0.785029 0.217036
O O19 0.652955 0.000000 0.213184
O O20 0.750000 0.179023 0.932991
O O21 0.634145 0.000000 0.935074
O O22 0.994300 0.500000 0.615688
#
# Coordination Sequence:
#
# PCOD8210705 Si02
#       8
#     8   8   8   8   8   8   8   8
#     4   9  17  30  50  75  99 124 158 199 238 274
#     4  10  20  33  48  69  97 126 157 195 240 290
#     4   9  19  34  50  69  95 129 165 197 233 278
#     4   9  17  31  51  71  91 119 155 195 241 293
#     4   9  17  29  47  72  99 124 149 182 229 279
#     4   9  17  30  49  72  95 119 152 197 245 289
#     4  10  20  33  49  69  93 122 158 199 242 290
#     4   9  17  32  52  71  94 127 166 201 230 270
#
# _framework density 17.392493999999999
#
# number of rings (size 3 to 8) (size 9 to 14) (size 15 to 20)
#    0.000    2.750    0.000    1.500    0.000    6.750 
#    0.000    1.250    0.000    5.250    0.000    0.000 
#    0.000    0.000    0.000    0.000    0.000    0.000 
#
# Total GULP energy -793600.091213 kJ/mol
# GULP energy per Si atom -12400.001425 kJ/mol
# Density = 1.735291 g / cm^3
# Si number density = 17.392494 Si / 1000 Ang^3
#
#
#
# Elastic Constant Matrix: (Units=GPa)
#
#
# Indices 1 2 3 4 5 6 
#
# 1 103.0274 46.8361 45.6061 0.0000 0.0000 0.0000
# 2 46.8361 72.0199 39.6944 0.0000 0.0000 0.0000
# 3 45.6061 39.6944 75.3615 0.0000 0.0000 0.0000
# 4 0.0000 0.0000 0.0000 23.4605 0.0000 0.0000
# 5 0.0000 0.0000 0.0000 0.0000 20.8445 0.0000
# 6 0.0000 0.0000 0.0000 0.0000 0.0000 23.8439
#
#
#
# Elastic Compliance Matrix: (Units=1/GPa)
#
#
# Indices 1 2 3 4 5 6 
#
# 1 0.015327 -0.006841 -0.005672 0.000000 0.000000 0.000000
# 2 -0.006841 0.022619 -0.007773 0.000000 0.000000 0.000000
# 3 -0.005672 -0.007773 0.020796 0.000000 0.000000 0.000000
# 4 0.000000 0.000000 0.000000 0.042625 0.000000 0.000000
# 5 0.000000 0.000000 0.000000 0.000000 0.047974 0.000000
# 6 0.000000 0.000000 0.000000 0.000000 0.000000 0.041939
#
#
# Mechanical properties :
#
#
# Convention : Reuss Voigt Hill
#
# Bulk Modulus (GPa) = 55.04082 57.18690 56.11386
# Shear Modulus (GPa) = 21.01638 21.51459 21.26549
#
# Velocity S-wave (km/s) = 3.47992 3.52092 3.50048
# Velocity P-wave (km/s) = 6.91820 7.03426 6.97647
#
# Compressibility (1/GPa) = 0.01816834
#
# Stress axis : x y z
#
# Youngs Moduli (GPa) = 65.24472 44.21149 48.08571
#
# Poissons Ratio (x) = 0.30247 0.27273
# Poissons Ratio (y) = 0.44636 0.37379
# Poissons Ratio (z) = 0.37006 0.34368
#
# Static dielectric constant tensor:
#      x y z
#    x 3.210290 0.000000 0.000000 
#    y 0.000000 3.301780 0.000000 
#    z 0.000000 0.000000 3.170720 
# 
# 
# High freq. dielectric constant tensor:
#      x y z
#    x 1.661510 0.000000 0.000000 
#    y 0.000000 1.671730 0.000000 
#    z 0.000000 0.000000 1.658480 
# 
# From -- ./inp_files/33877.got.cif
#   From: 2010.03.12/outbox.cif.g09.slc.cpg/sg51_17_cif.got.tgz:33877.got - 2010.04.16 13:43:02.
