data_PCOD8210228
_publ_section_title
;
Structure prediction by ZEFSAII (Michael W. Deem and Ramdas Pophale) SiO2 
 PCOD8210228
Probable space group: P M M A
;
_chemical_formula_sum "Si O2"
_cell_formula_units_Z 48
_cell_length_a 14.890342
_cell_length_b 15.491871
_cell_length_c 10.526877
_cell_angle_alpha 90.000000
_cell_angle_beta 90.000000
_cell_angle_gamma 90.000000
_cell_volume 2428.332169
_symmetry_space_group_name_H-M "P M M A"
_symmetry_group_IT_number 51
_symmetry_cell_setting 'orthorhombic'
loop_
_space_group_symop_operation_xyz
x,y,z
1/2-x,-y,z
1/2+x,-y,-z
-x,y,-z
-x,-y,-z
1/2+x,y,-z
1/2-x,y,z
x,-y,z
loop_
_atom_site_type_symbol
_atom_site_label
_atom_site_fract_x
_atom_site_fract_y
_atom_site_fract_z
Si Si1 0.098316 0.000000 0.559470
Si Si2 0.141404 0.811227 0.233027
Si Si3 0.939377 0.595661 0.124033
Si Si4 0.152583 0.000000 0.289500
Si Si5 0.000678 0.695502 0.359354
Si Si6 0.351367 0.238977 0.962528
Si Si7 0.355306 0.829060 0.702644
O O1 0.114818 0.919498 0.648578
O O2 0.000000 0.000000 0.500000
O O3 0.165981 0.000000 0.441631
O O4 0.250000 0.803671 0.252632
O O5 0.090943 0.752699 0.337394
O O6 0.105808 0.910323 0.247139
O O7 0.100122 0.779211 0.096977
O O8 0.898453 0.500000 0.146155
O O9 0.862314 0.664838 0.093893
O O10 0.994610 0.622186 0.250686
O O11 0.000000 0.594784 0.000000
O O12 0.250000 0.000000 0.224504
O O13 0.000000 0.652615 0.500000
O O14 0.912063 0.754376 0.363200
O O15 0.250000 0.225074 0.001579
O O16 0.378940 0.170879 0.853582
O O17 0.250000 0.810554 0.680017
#
# Coordination Sequence:
#
# PCOD8210228 Si02
#       7
#     4   8   8   4   8   8   8
#     4  12  22  35  50  76 112 154 201 238 278 336
#     4  10  20  36  56  82 116 153 195 243 289 342
#     4  10  20  37  60  83 111 145 186 235 293 354
#     4  10  20  31  48  71 104 147 186 227 278 324
#     4  11  22  36  58  85 115 152 192 236 290 352
#     4   9  19  36  58  84 110 145 192 239 296 352
#     4  10  21  35  55  80 112 151 196 245 289 340
#
# _framework density 19.766655
#
# number of rings (size 3 to 8) (size 9 to 14) (size 15 to 20)
#    0.000    1.833    1.667    3.250    0.000    3.333 
#    0.000    2.500    0.000    4.500    0.000    2.333 
#    0.000    0.000    0.000    0.000    0.000    0.000 
#
# Total GULP energy -594731.524840 kJ/mol
# GULP energy per Si atom -12390.240101 kJ/mol
# Density = 1.972166 g / cm^3
# Si number density = 19.766655 Si / 1000 Ang^3
#
#
#
# Elastic Constant Matrix: (Units=GPa)
#
#
# Indices 1 2 3 4 5 6 
#
# 1 54.4540 11.2589 26.3595 0.0000 0.0000 0.0000
# 2 11.2589 125.2235 63.2624 0.0000 0.0000 0.0000
# 3 26.3595 63.2624 153.3870 0.0000 0.0000 0.0000
# 4 0.0000 0.0000 0.0000 10.0425 0.0000 0.0000
# 5 0.0000 0.0000 0.0000 0.0000 26.2514 0.0000
# 6 0.0000 0.0000 0.0000 0.0000 0.0000 15.8175
#
#
#
# Elastic Compliance Matrix: (Units=1/GPa)
#
#
# Indices 1 2 3 4 5 6 
#
# 1 0.020031 -0.000078 -0.003410 0.000000 0.000000 0.000000
# 2 -0.000078 0.010088 -0.004147 0.000000 0.000000 0.000000
# 3 -0.003410 -0.004147 0.008816 0.000000 0.000000 0.000000
# 4 0.000000 0.000000 0.000000 0.099577 0.000000 0.000000
# 5 0.000000 0.000000 0.000000 0.000000 0.038093 0.000000
# 6 0.000000 0.000000 0.000000 0.000000 0.000000 0.063221
#
#
# Mechanical properties :
#
#
# Convention : Reuss Voigt Hill
#
# Bulk Modulus (GPa) = 42.25852 59.42513 50.84183
# Shear Modulus (GPa) = 19.01246 25.90117 22.45682
#
# Velocity S-wave (km/s) = 3.10473 3.62380 3.37426
# Velocity P-wave (km/s) = 5.85470 6.90201 6.39982
#
# Compressibility (1/GPa) = 0.02366387
#
# Stress axis : x y z
#
# Youngs Moduli (GPa) = 49.92261 99.12881 113.43130
#
# Poissons Ratio (x) = 0.00776 0.38681
# Poissons Ratio (y) = 0.00391 0.47042
# Poissons Ratio (z) = 0.17024 0.41110
#
# Static dielectric constant tensor:
#      x y z
#    x 3.538790 0.000000 0.000000 
#    y 0.000000 3.725950 0.000000 
#    z 0.000000 0.000000 3.897150 
# 
# 
# High freq. dielectric constant tensor:
#      x y z
#    x 1.762470 0.000000 0.000000 
#    y 0.000000 1.753600 0.000000 
#    z 0.000000 0.000000 1.786560 
# 
# From -- ./inp_files/16511.got.cif
#   From: 2010.03.12/outbox.cif.g09.slc.cpg/sg51_9_cif.got.tgz:16511.got - 2010.04.16 13:43:02.
