data_PCOD8210521
_publ_section_title
;
Structure prediction by ZEFSAII (Michael W. Deem and Ramdas Pophale) SiO2 
 PCOD8210521
Probable space group: P M M A
;
_chemical_formula_sum "Si O2"
_cell_formula_units_Z 48
_cell_length_a 9.019992
_cell_length_b 9.295987
_cell_length_c 31.439411
_cell_angle_alpha 90.000000
_cell_angle_beta 90.000000
_cell_angle_gamma 90.000000
_cell_volume 2636.186073
_symmetry_space_group_name_H-M "P M M A"
_symmetry_group_IT_number 51
_symmetry_cell_setting 'orthorhombic'
loop_
_space_group_symop_operation_xyz
x,y,z
1/2-x,-y,z
1/2+x,-y,-z
-x,y,-z
-x,-y,-z
1/2+x,y,-z
1/2-x,y,z
x,-y,z
loop_
_atom_site_type_symbol
_atom_site_label
_atom_site_fract_x
_atom_site_fract_y
_atom_site_fract_z
Si Si1 0.925747 0.159408 0.208325
Si Si2 0.573939 0.163414 0.299740
Si Si3 0.076683 0.668114 0.618897
Si Si4 0.923829 0.165191 0.543869
Si Si5 0.923548 0.664648 0.957114
Si Si6 0.419363 0.828285 0.883331
O O1 0.750000 0.149037 0.206857
O O2 0.976009 0.231117 0.253452
O O3 0.973592 0.232185 0.163398
O O4 0.993476 0.000000 0.209537
O O5 0.750000 0.162083 0.301610
O O6 0.512660 0.262354 0.337634
O O7 0.514521 0.000000 0.305318
O O8 0.250000 0.702396 0.612634
O O9 0.045444 0.500000 0.621244
O O10 0.986800 0.733317 0.580125
O O11 0.750000 0.190804 0.539086
O O12 0.000000 0.210896 0.500000
O O13 0.961228 0.000000 0.555203
O O14 0.750000 0.682281 0.963306
O O15 0.969664 0.500000 0.948307
O O16 0.973862 0.760742 0.917918
O O17 0.000000 0.721997 0.000000
O O18 0.250000 0.781608 0.892621
O O19 0.433412 0.000000 0.884223
#
# Coordination Sequence:
#
# PCOD8210521 Si02
#       6
#     8   8   8   8   8   8
#     4   7  11  22  42  69  98 126 158 197 239 281
#     4   8  13  24  45  70  96 129 167 204 239 276
#     4  10  20  32  48  74 107 138 166 199 242 290
#     4  10  21  37  57  78  98 124 162 206 249 294
#     4  10  21  36  52  69  92 125 164 203 243 290
#     4   9  17  30  50  76 103 128 157 197 244 292
#
# _framework density 18.208124000000002
#
# number of rings (size 3 to 8) (size 9 to 14) (size 15 to 20)
#    0.000    3.000    0.000    3.500    0.000    4.000 
#    0.000    0.833    0.000    4.000    0.000    2.333 
#    0.000    0.000    0.000    0.000    0.000    0.000 
#
# Total GULP energy -594715.745673 kJ/mol
# GULP energy per Si atom -12389.911368 kJ/mol
# Density = 1.816668 g / cm^3
# Si number density = 18.208124 Si / 1000 Ang^3
#
#
#
# Elastic Constant Matrix: (Units=GPa)
#
#
# Indices 1 2 3 4 5 6 
#
# 1 50.1198 28.6571 49.7599 0.0000 0.0000 0.0000
# 2 28.6571 59.1452 63.8330 0.0000 0.0000 0.0000
# 3 49.7599 63.8330 189.8779 0.0000 0.0000 0.0000
# 4 0.0000 0.0000 0.0000 -3.7646 0.0000 0.0000
# 5 0.0000 0.0000 0.0000 0.0000 23.0917 0.0000
# 6 0.0000 0.0000 0.0000 0.0000 0.0000 21.6514
#
#
#
# Elastic Compliance Matrix: (Units=1/GPa)
#
#
# Indices 1 2 3 4 5 6 
#
# 1 0.030027 -0.009504 -0.004674 0.000000 0.000000 0.000000
# 2 -0.009504 0.029544 -0.007441 0.000000 0.000000 0.000000
# 3 -0.004674 -0.007441 0.008993 0.000000 0.000000 0.000000
# 4 0.000000 0.000000 0.000000 -0.265634 0.000000 0.000000
# 5 0.000000 0.000000 0.000000 0.000000 0.043306 0.000000
# 6 0.000000 0.000000 0.000000 0.000000 0.000000 0.046186
#
#
# Mechanical properties :
#
#
# Convention : Reuss Voigt Hill
#
# Bulk Modulus (GPa) = 39.48733 64.84920 52.16827
# Shear Modulus (GPa) = -89.44662 18.65523 -35.39569
#
# Velocity S-wave (km/s) = -7.01650 3.20434 -4.41381
# Velocity P-wave (km/s) = 6.62630 7.02732 1.65459
#
# Compressibility (1/GPa) = 0.02532458
#
# Stress axis : x y z
#
# Youngs Moduli (GPa) = 33.30378 33.84832 111.19882
#
# Poissons Ratio (x) = 0.32171 0.51971
# Poissons Ratio (y) = 0.31653 0.82745
# Poissons Ratio (z) = 0.15565 0.25187
#
# Static dielectric constant tensor:
#      x y z
#    x 2.995480 0.000000 0.000000 
#    y 0.000000 3.157470 0.000000 
#    z 0.000000 0.000000 3.917920 
# 
# 
# High freq. dielectric constant tensor:
#      x y z
#    x 1.667740 0.000000 0.000000 
#    y 0.000000 1.676020 0.000000 
#    z 0.000000 0.000000 1.733420 
# 
# From -- ./inp_files/36118.got.cif
#   From: 2010.03.12/outbox.cif.g09.slc.cpg/sg51_19_cif.got.tgz:36118.got - 2010.04.16 13:43:02.
