data_PCOD8210942
_publ_section_title
;
Structure prediction by ZEFSAII (Michael W. Deem and Ramdas Pophale) SiO2 
 PCOD8210942
Probable space group: P M M A
;
_chemical_formula_sum "Si O2"
_cell_formula_units_Z 56
_cell_length_a 17.928783
_cell_length_b 9.510626
_cell_length_c 18.941330
_cell_angle_alpha 90.000000
_cell_angle_beta 90.000000
_cell_angle_gamma 90.000000
_cell_volume 3229.760992
_symmetry_space_group_name_H-M "P M M A"
_symmetry_group_IT_number 51
_symmetry_cell_setting 'orthorhombic'
loop_
_space_group_symop_operation_xyz
x,y,z
1/2-x,-y,z
1/2+x,-y,-z
-x,y,-z
-x,-y,-z
1/2+x,y,-z
1/2-x,y,z
x,-y,z
loop_
_atom_site_type_symbol
_atom_site_label
_atom_site_fract_x
_atom_site_fract_y
_atom_site_fract_z
Si Si1 0.162480 0.837631 0.789890
Si Si2 0.018053 0.836543 0.420420
Si Si3 0.896150 0.662350 0.775309
Si Si4 0.838621 0.155843 0.052547
Si Si5 0.549873 0.335682 0.297352
Si Si6 0.167312 0.160662 0.346536
Si Si7 0.163231 0.662740 0.076041
O O1 0.250000 0.815389 0.779692
O O2 0.137058 0.794620 0.869216
O O3 0.122868 0.734701 0.735157
O O4 0.140901 0.000000 0.775226
O O5 0.105489 0.803768 0.405840
O O6 0.000000 0.793444 0.500000
O O7 0.966983 0.739870 0.371242
O O8 0.999214 0.000000 0.406149
O O9 0.873643 0.500000 0.767380
O O10 0.842922 0.746703 0.722953
O O11 0.881753 0.713954 0.855055
O O12 0.982241 0.688967 0.756988
O O13 0.750000 0.154519 0.050143
O O14 0.869726 0.000000 0.037512
O O15 0.870385 0.257971 0.992125
O O16 0.564343 0.500000 0.311347
O O17 0.250000 0.189333 0.378207
O O18 0.158812 0.000000 0.322186
O O19 0.250000 0.697535 0.088064
O O20 0.150196 0.500000 0.061069
#
# Coordination Sequence:
#
# PCOD8210942 Si02
#       7
#     8   8   8   8   8   8   8
#     4   9  18  34  54  72  92 122 160 201 244 290
#     4   9  18  34  54  73  98 133 165 193 235 290
#     4   9  18  31  45  65  96 131 161 190 233 287
#     4   8  15  28  45  65  89 118 155 199 243 283
#     4  10  20  33  51  74  98 124 156 196 240 287
#     4   9  17  29  47  72  97 122 159 203 237 270
#     4   9  16  26  42  64  90 122 160 198 234 277
#
# _framework density 17.338743999999998
#
# number of rings (size 3 to 8) (size 9 to 14) (size 15 to 20)
#    0.000    3.000    0.000    1.714    0.000    3.143 
#    0.000    4.286    0.000    6.857    0.000    0.000 
#    0.000    0.000    0.000    0.000    0.000    0.000 
#
# Total GULP energy -694285.219400 kJ/mol
# GULP energy per Si atom -12397.950346 kJ/mol
# Density = 1.729928 g / cm^3
# Si number density = 17.338744 Si / 1000 Ang^3
#
#
#
# Elastic Constant Matrix: (Units=GPa)
#
#
# Indices 1 2 3 4 5 6 
#
# 1 63.7434 44.1966 59.2578 0.0000 0.0000 0.0000
# 2 44.1966 83.7170 75.3089 0.0000 0.0000 0.0000
# 3 59.2578 75.3089 144.8564 0.0000 0.0000 0.0000
# 4 0.0000 0.0000 0.0000 25.0473 0.0000 0.0000
# 5 0.0000 0.0000 0.0000 0.0000 22.9406 0.0000
# 6 0.0000 0.0000 0.0000 0.0000 0.0000 19.4708
#
#
#
# Elastic Compliance Matrix: (Units=1/GPa)
#
#
# Indices 1 2 3 4 5 6 
#
# 1 0.028185 -0.008468 -0.007128 0.000000 0.000000 0.000000
# 2 -0.008468 0.024983 -0.009524 0.000000 0.000000 0.000000
# 3 -0.007128 -0.009524 0.014771 0.000000 0.000000 0.000000
# 4 0.000000 0.000000 0.000000 0.039924 0.000000 0.000000
# 5 0.000000 0.000000 0.000000 0.000000 0.043591 0.000000
# 6 0.000000 0.000000 0.000000 0.000000 0.000000 0.051359
#
#
# Mechanical properties :
#
#
# Convention : Reuss Voigt Hill
#
# Bulk Modulus (GPa) = 56.49951 72.20482 64.35216
# Shear Modulus (GPa) = 19.30848 21.06197 20.18523
#
# Velocity S-wave (km/s) = 3.34069 3.48909 3.41569
# Velocity P-wave (km/s) = 6.89469 7.61352 7.26300
#
# Compressibility (1/GPa) = 0.01769927
#
# Stress axis : x y z
#
# Youngs Moduli (GPa) = 35.47953 40.02668 67.70146
#
# Poissons Ratio (x) = 0.33895 0.48255
# Poissons Ratio (y) = 0.30044 0.64481
# Poissons Ratio (z) = 0.25288 0.38123
#
# Static dielectric constant tensor:
#      x y z
#    x 3.067080 0.000000 0.000000 
#    y 0.000000 3.288930 0.000000 
#    z 0.000000 0.000000 3.223260 
# 
# 
# High freq. dielectric constant tensor:
#      x y z
#    x 1.651280 0.000000 0.000000 
#    y 0.000000 1.670150 0.000000 
#    z 0.000000 0.000000 1.662330 
# 
# From -- ./inp_files/30483.got.cif
#   From: 2010.03.12/outbox.cif.g09.slc.cpg/sg51_16_cif.got.tgz:30483.got - 2010.04.16 13:43:02.
