data_PCOD8210361
_publ_section_title
;
Structure prediction by ZEFSAII (Michael W. Deem and Ramdas Pophale) SiO2 
 PCOD8210361
Probable space group: P M M A
;
_chemical_formula_sum "Si O2"
_cell_formula_units_Z 44
_cell_length_a 9.405822
_cell_length_b 10.438443
_cell_length_c 24.591359
_cell_angle_alpha 90.000000
_cell_angle_beta 90.000000
_cell_angle_gamma 90.000000
_cell_volume 2414.432174
_symmetry_space_group_name_H-M "P M M A"
_symmetry_group_IT_number 51
_symmetry_cell_setting 'orthorhombic'
loop_
_space_group_symop_operation_xyz
x,y,z
1/2-x,-y,z
1/2+x,-y,-z
-x,y,-z
-x,-y,-z
1/2+x,y,-z
1/2-x,y,z
x,-y,z
loop_
_atom_site_type_symbol
_atom_site_label
_atom_site_fract_x
_atom_site_fract_y
_atom_site_fract_z
Si Si1 0.412054 0.347324 0.051969
Si Si2 0.411927 0.647877 0.257840
Si Si3 0.096756 0.644864 0.545284
Si Si4 0.084194 0.000000 0.442640
Si Si5 0.410854 0.652140 0.845623
Si Si6 0.587788 0.751341 0.627323
O O1 0.250000 0.294373 0.050531
O O2 0.408299 0.500000 0.052590
O O3 0.494223 0.293647 0.104912
O O4 0.500000 0.297242 0.000000
O O5 0.250000 0.658594 0.236654
O O6 0.443125 0.500000 0.274849
O O7 0.517012 0.695425 0.210679
O O8 0.436739 0.746099 0.307894
O O9 0.250000 0.714858 0.548509
O O10 0.121531 0.500000 0.526637
O O11 0.000000 0.717489 0.500000
O O12 0.016726 0.644642 0.602737
O O13 0.044188 0.882570 0.402604
O O14 0.000000 0.000000 0.500000
O O15 0.250000 0.000000 0.457290
O O16 0.250000 0.706845 0.848826
O O17 0.407505 0.500000 0.849173
O O18 0.750000 0.714452 0.614133
#
# Coordination Sequence:
#
# PCOD8210361 Si02
#       6
#     8   8   8   4   8   8
#     4   9  15  22  33  50  75 110 152 192 225 258
#     4   9  17  29  45  64  86 114 146 180 221 268
#     4  10  20  32  47  68  92 115 140 173 214 260
#     4  10  22  38  54  72  92 116 147 184 225 270
#     4   9  16  25  37  55  81 112 146 184 223 262
#     4  10  20  34  51  69  90 116 147 182 221 268
#
# _framework density 18.223745999999998
#
# number of rings (size 3 to 8) (size 9 to 14) (size 15 to 20)
#    0.000    2.545    0.000    2.727    0.000    9.091 
#    0.000    1.818    0.000    0.000    0.000    0.000 
#    0.000    0.000    0.000    0.818    0.000    8.545 
#
# Total GULP energy -545255.713361 kJ/mol
# GULP energy per Si atom -12392.175304 kJ/mol
# Density = 1.818227 g / cm^3
# Si number density = 18.223746 Si / 1000 Ang^3
#
#
#
# Elastic Constant Matrix: (Units=GPa)
#
#
# Indices 1 2 3 4 5 6 
#
# 1 165.1002 19.1293 97.0166 0.0000 0.0000 0.0000
# 2 19.1293 28.6566 29.1716 0.0000 0.0000 0.0000
# 3 97.0166 29.1716 153.3846 0.0000 0.0000 0.0000
# 4 0.0000 0.0000 0.0000 12.0685 0.0000 0.0000
# 5 0.0000 0.0000 0.0000 0.0000 38.9507 0.0000
# 6 0.0000 0.0000 0.0000 0.0000 0.0000 9.2443
#
#
#
# Elastic Compliance Matrix: (Units=1/GPa)
#
#
# Indices 1 2 3 4 5 6 
#
# 1 0.009642 -0.000283 -0.006045 0.000000 0.000000 0.000000
# 2 -0.000283 0.043282 -0.008053 0.000000 0.000000 0.000000
# 3 -0.006045 -0.008053 0.011874 0.000000 0.000000 0.000000
# 4 0.000000 0.000000 0.000000 0.082860 0.000000 0.000000
# 5 0.000000 0.000000 0.000000 0.000000 0.025673 0.000000
# 6 0.000000 0.000000 0.000000 0.000000 0.000000 0.108174
#
#
# Mechanical properties :
#
#
# Convention : Reuss Voigt Hill
#
# Bulk Modulus (GPa) = 27.74868 70.86403 49.30636
# Shear Modulus (GPa) = 15.51448 25.50765 20.51107
#
# Velocity S-wave (km/s) = 2.92093 3.74531 3.35851
# Velocity P-wave (km/s) = 5.16096 7.59428 6.49263
#
# Compressibility (1/GPa) = 0.03603775
#
# Stress axis : x y z
#
# Youngs Moduli (GPa) = 103.71686 23.10416 84.21549
#
# Poissons Ratio (x) = 0.00654 0.50905
# Poissons Ratio (y) = 0.02934 0.67816
# Poissons Ratio (z) = 0.62692 0.18605
#
# Static dielectric constant tensor:
#      x y z
#    x 3.736190 0.000000 0.000000 
#    y 0.000000 2.792660 0.000000 
#    z 0.000000 0.000000 3.430210 
# 
# 
# High freq. dielectric constant tensor:
#      x y z
#    x 1.723480 0.000000 0.000000 
#    y 0.000000 1.630720 0.000000 
#    z 0.000000 0.000000 1.711150 
# 
# From -- ./inp_files/34500.got.cif
#   From: 2010.03.12/outbox.cif.g09.slc.cpg/sg51_18_cif.got.tgz:34500.got - 2010.04.16 13:43:02.
