data_PCOD8210953
_publ_section_title
;
Structure prediction by ZEFSAII (Michael W. Deem and Ramdas Pophale) SiO2 
 PCOD8210953
Probable space group: P M M A
;
_chemical_formula_sum "Si O2"
_cell_formula_units_Z 56
_cell_length_a 19.363399
_cell_length_b 9.228641
_cell_length_c 17.319827
_cell_angle_alpha 90.000000
_cell_angle_beta 90.000000
_cell_angle_gamma 90.000000
_cell_volume 3095.015984
_symmetry_space_group_name_H-M "P M M A"
_symmetry_group_IT_number 51
_symmetry_cell_setting 'orthorhombic'
loop_
_space_group_symop_operation_xyz
x,y,z
1/2-x,-y,z
1/2+x,-y,-z
-x,y,-z
-x,-y,-z
1/2+x,y,-z
1/2-x,y,z
x,-y,z
loop_
_atom_site_type_symbol
_atom_site_label
_atom_site_fract_x
_atom_site_fract_y
_atom_site_fract_z
Si Si1 0.673759 0.171935 0.075892
Si Si2 0.436907 0.169136 0.802972
Si Si3 0.574045 0.330981 0.794549
Si Si4 0.925099 0.169290 0.375203
Si Si5 0.668349 0.162807 0.904446
Si Si6 0.170378 0.668920 0.512529
Si Si7 0.937008 0.667607 0.617994
O O1 0.750000 0.238181 0.090941
O O2 0.622558 0.231775 0.141343
O O3 0.678721 0.000000 0.080842
O O4 0.646662 0.214970 0.990527
O O5 0.505877 0.253061 0.825743
O O6 0.415143 0.200738 0.715250
O O7 0.450162 0.000000 0.817011
O O8 0.566080 0.500000 0.809231
O O9 0.638955 0.272266 0.841495
O O10 0.586283 0.294922 0.704685
O O11 0.859078 0.239451 0.416292
O O12 0.995907 0.240383 0.406374
O O13 0.928076 0.000000 0.393859
O O14 0.750000 0.165641 0.897356
O O15 0.640709 0.000000 0.888787
O O16 0.250000 0.712059 0.498420
O O17 0.163206 0.500000 0.532588
O O18 0.127386 0.709107 0.435879
O O19 0.957830 0.500000 0.609341
#
# Coordination Sequence:
#
# PCOD8210953 Si02
#       7
#     8   8   8   8   8   8   8
#     4   8  15  30  52  74  95 127 171 208 238 284
#     4   9  18  33  53  75 100 131 166 203 242 290
#     4  10  20  33  51  75 102 130 163 206 250 292
#     4  10  20  33  52  78 104 129 160 203 254 299
#     4   9  18  33  52  73  98 129 166 206 247 293
#     4  10  21  36  53  73  98 130 168 205 241 289
#     4   9  19  36  55  72  95 133 174 204 236 289
#
# _framework density 18.093606000000001
#
# number of rings (size 3 to 8) (size 9 to 14) (size 15 to 20)
#    0.000    2.714    0.000    2.143    0.000    5.714 
#    0.000    6.429    0.000    1.286    0.000    0.000 
#    0.000    0.000    0.000    0.000    0.000    0.000 
#
# Total GULP energy -694455.963322 kJ/mol
# GULP energy per Si atom -12400.999345 kJ/mol
# Density = 1.805242 g / cm^3
# Si number density = 18.093606 Si / 1000 Ang^3
#
#
#
# Elastic Constant Matrix: (Units=GPa)
#
#
# Indices 1 2 3 4 5 6 
#
# 1 103.2601 44.1903 59.8678 0.0000 0.0000 0.0000
# 2 44.1903 59.3521 40.1551 0.0000 0.0000 0.0000
# 3 59.8678 40.1551 88.7844 0.0000 0.0000 0.0000
# 4 0.0000 0.0000 0.0000 23.9190 0.0000 0.0000
# 5 0.0000 0.0000 0.0000 0.0000 35.0984 0.0000
# 6 0.0000 0.0000 0.0000 0.0000 0.0000 27.3902
#
#
#
# Elastic Compliance Matrix: (Units=1/GPa)
#
#
# Indices 1 2 3 4 5 6 
#
# 1 0.017927 -0.007448 -0.008720 0.000000 0.000000 0.000000
# 2 -0.007448 0.027372 -0.007357 0.000000 0.000000 0.000000
# 3 -0.008720 -0.007357 0.020471 0.000000 0.000000 0.000000
# 4 0.000000 0.000000 0.000000 0.041808 0.000000 0.000000
# 5 0.000000 0.000000 0.000000 0.000000 0.028491 0.000000
# 6 0.000000 0.000000 0.000000 0.000000 0.000000 0.036509
#
#
# Mechanical properties :
#
#
# Convention : Reuss Voigt Hill
#
# Bulk Modulus (GPa) = 53.42145 59.98033 56.70089
# Shear Modulus (GPa) = 22.13679 24.42708 23.28194
#
# Velocity S-wave (km/s) = 3.50159 3.67827 3.59102
# Velocity P-wave (km/s) = 6.77771 7.15972 6.97133
#
# Compressibility (1/GPa) = 0.01871907
#
# Stress axis : x y z
#
# Youngs Moduli (GPa) = 55.78084 36.53407 48.85061
#
# Poissons Ratio (x) = 0.27211 0.42597
# Poissons Ratio (y) = 0.41547 0.35940
# Poissons Ratio (z) = 0.48640 0.26879
#
# Static dielectric constant tensor:
#      x y z
#    x 3.405880 0.000000 0.000000 
#    y 0.000000 3.210040 0.000000 
#    z 0.000000 0.000000 3.483310 
# 
# 
# High freq. dielectric constant tensor:
#      x y z
#    x 1.698410 0.000000 0.000000 
#    y 0.000000 1.684220 0.000000 
#    z 0.000000 0.000000 1.707130 
# 
# From -- ./inp_files/25710.got.cif
#   From: 2010.03.12/outbox.cif.g09.slc.cpg/sg51_13_cif.got.tgz:25710.got - 2010.04.16 13:43:02.
