data_PCOD8210051
_publ_section_title
;
Structure prediction by ZEFSAII (Michael W. Deem and Ramdas Pophale) SiO2 
 PCOD8210051
Probable space group: P M M A
;
_chemical_formula_sum "Si O2"
_cell_formula_units_Z 48
_cell_length_a 18.630832
_cell_length_b 7.624103
_cell_length_c 16.767805
_cell_angle_alpha 90.000000
_cell_angle_beta 90.000000
_cell_angle_gamma 90.000000
_cell_volume 2381.755733
_symmetry_space_group_name_H-M "P M M A"
_symmetry_group_IT_number 51
_symmetry_cell_setting 'orthorhombic'
loop_
_space_group_symop_operation_xyz
x,y,z
1/2-x,-y,z
1/2+x,-y,-z
-x,y,-z
-x,-y,-z
1/2+x,y,-z
1/2-x,y,z
x,-y,z
loop_
_atom_site_type_symbol
_atom_site_label
_atom_site_fract_x
_atom_site_fract_y
_atom_site_fract_z
Si Si1 0.927024 0.294738 0.041057
Si Si2 0.578188 0.801395 0.746808
Si Si3 0.669302 0.705548 0.895570
Si Si4 0.834593 0.500000 0.477411
Si Si5 0.833904 0.204085 0.597049
Si Si6 0.835355 0.500000 0.298600
Si Si7 0.421425 0.800328 0.781910
O O1 0.931892 0.500000 0.060440
O O2 0.914151 0.192975 0.122751
O O3 0.861421 0.248898 0.982506
O O4 0.000000 0.228510 0.000000
O O5 0.622277 0.795658 0.828184
O O6 0.623161 0.719888 0.673647
O O7 0.499277 0.717335 0.758125
O O8 0.564426 0.000000 0.723819
O O9 0.750000 0.778760 0.891243
O O10 0.666262 0.500000 0.879544
O O11 0.750000 0.500000 0.470698
O O12 0.859454 0.322758 0.522707
O O13 0.866922 0.500000 0.388591
O O14 0.750000 0.231370 0.615800
O O15 0.850153 0.000000 0.577725
O O16 0.750000 0.500000 0.296461
O O17 0.861059 0.323586 0.255226
O O18 0.410845 0.000000 0.750816
#
# Coordination Sequence:
#
# PCOD8210051 Si02
#       7
#     8   8   8   4   8   4   8
#     4  10  19  36  59  83 118 169 211 252 299 354
#     4  10  21  36  56  87 126 161 196 243 298 365
#     4  10  21  33  53  86 121 161 207 254 299 348
#     4   9  20  39  63  89 113 154 203 244 302 366
#     4   9  18  34  58  89 125 161 197 241 294 357
#     4  11  26  47  68  89 118 151 200 264 312 360
#     4  11  24  41  65  92 120 160 206 250 307 371
#
# _framework density 20.153200999999999
#
# number of rings (size 3 to 8) (size 9 to 14) (size 15 to 20)
#    0.000    2.000    2.500    0.500    2.333    3.667 
#    0.000    3.333    0.000    3.000    0.000    0.000 
#    0.000    0.000    0.000    0.000    0.000    0.000 
#
# Total GULP energy -595167.384316 kJ/mol
# GULP energy per Si atom -12399.320507 kJ/mol
# Density = 2.010733 g / cm^3
# Si number density = 20.153201 Si / 1000 Ang^3
#
#
#
# Elastic Constant Matrix: (Units=GPa)
#
#
# Indices 1 2 3 4 5 6 
#
# 1 107.3234 33.4853 43.7830 0.0000 0.0000 0.0000
# 2 33.4853 84.9263 46.2459 0.0000 0.0000 0.0000
# 3 43.7830 46.2459 136.1469 0.0000 0.0000 0.0000
# 4 0.0000 0.0000 0.0000 10.5334 0.0000 0.0000
# 5 0.0000 0.0000 0.0000 0.0000 27.6817 0.0000
# 6 0.0000 0.0000 0.0000 0.0000 0.0000 17.2146
#
#
#
# Elastic Compliance Matrix: (Units=1/GPa)
#
#
# Indices 1 2 3 4 5 6 
#
# 1 0.011333 -0.003048 -0.002609 0.000000 0.000000 0.000000
# 2 -0.003048 0.015267 -0.004206 0.000000 0.000000 0.000000
# 3 -0.002609 -0.004206 0.009613 0.000000 0.000000 0.000000
# 4 0.000000 0.000000 0.000000 0.094936 0.000000 0.000000
# 5 0.000000 0.000000 0.000000 0.000000 0.036125 0.000000
# 6 0.000000 0.000000 0.000000 0.000000 0.000000 0.058090
#
#
# Mechanical properties :
#
#
# Convention : Reuss Voigt Hill
#
# Bulk Modulus (GPa) = 60.65304 63.93610 62.29457
# Shear Modulus (GPa) = 19.95336 24.74478 22.34907
#
# Velocity S-wave (km/s) = 3.14997 3.50785 3.33372
# Velocity P-wave (km/s) = 6.58719 6.94266 6.76726
#
# Compressibility (1/GPa) = 0.01648722
#
# Stress axis : x y z
#
# Youngs Moduli (GPa) = 88.23820 65.50206 104.02888
#
# Poissons Ratio (x) = 0.19962 0.27145
# Poissons Ratio (y) = 0.26891 0.43751
# Poissons Ratio (z) = 0.23024 0.27548
#
# Static dielectric constant tensor:
#      x y z
#    x 3.705440 0.000000 0.000000 
#    y 0.000000 3.561580 0.000000 
#    z 0.000000 0.000000 3.723340 
# 
# 
# High freq. dielectric constant tensor:
#      x y z
#    x 1.776950 0.000000 0.000000 
#    y 0.000000 1.784680 0.000000 
#    z 0.000000 0.000000 1.783880 
# 
# From -- ./inp_files/24902.got.cif
#   From: 2010.03.12/outbox.cif.g09.slc.cpg/sg51_13_cif.got.tgz:24902.got - 2010.04.16 13:43:02.
