data_PCOD8210475
_publ_section_title
;
Structure prediction by ZEFSAII (Michael W. Deem and Ramdas Pophale) SiO2 
 PCOD8210475
Probable space group: P M M A
;
_chemical_formula_sum "Si O2"
_cell_formula_units_Z 48
_cell_length_a 9.363130
_cell_length_b 8.925808
_cell_length_c 30.934919
_cell_angle_alpha 90.000000
_cell_angle_beta 90.000000
_cell_angle_gamma 90.000000
_cell_volume 2585.339473
_symmetry_space_group_name_H-M "P M M A"
_symmetry_group_IT_number 51
_symmetry_cell_setting 'orthorhombic'
loop_
_space_group_symop_operation_xyz
x,y,z
1/2-x,-y,z
1/2+x,-y,-z
-x,y,-z
-x,-y,-z
1/2+x,y,-z
1/2-x,y,z
x,-y,z
loop_
_atom_site_type_symbol
_atom_site_label
_atom_site_fract_x
_atom_site_fract_y
_atom_site_fract_z
Si Si1 0.412885 0.824096 0.118353
Si Si2 0.586728 0.676098 0.791936
Si Si3 0.410448 0.178170 0.460721
Si Si4 0.416483 0.674053 0.956941
Si Si5 0.410450 0.821969 0.365855
Si Si6 0.915480 0.823740 0.284433
O O1 0.250000 0.779681 0.106091
O O2 0.459919 0.745780 0.162588
O O3 0.520665 0.771071 0.081703
O O4 0.428605 0.000000 0.124774
O O5 0.750000 0.719485 0.780938
O O6 0.565325 0.500000 0.794944
O O7 0.484739 0.741008 0.755674
O O8 0.500000 0.250601 0.500000
O O9 0.250000 0.235011 0.466837
O O10 0.466119 0.231165 0.413300
O O11 0.417839 0.000000 0.463195
O O12 0.250000 0.711946 0.963113
O O13 0.440759 0.500000 0.946334
O O14 0.500000 0.721147 0.000000
O O15 0.250000 0.761224 0.357552
O O16 0.514374 0.760662 0.328600
O O17 0.408215 0.000000 0.364952
O O18 0.750000 0.783055 0.286141
O O19 0.941976 0.000000 0.279256
#
# Coordination Sequence:
#
# PCOD8210475 Si02
#       6
#     8   8   8   8   8   8
#     4  10  21  37  58  83 109 138 173 213 257 304
#     4  10  21  37  57  78 100 131 170 209 252 304
#     4   8  13  20  31  50  78 114 154 194 238 288
#     4  10  21  37  58  83 111 145 182 218 257 300
#     4   8  14  25  40  58  84 121 162 201 243 293
#     4  10  20  32  48  72 100 130 165 206 253 302
#
# _framework density 18.566227000000001
#
# number of rings (size 3 to 8) (size 9 to 14) (size 15 to 20)
#    0.000    2.667    0.000    3.000    0.000    5.667 
#    0.000    3.333    0.000    0.000    0.000    0.000 
#    0.000    0.667    0.000    2.167    0.000    4.333 
#
# Total GULP energy -595113.907640 kJ/mol
# GULP energy per Si atom -12398.206409 kJ/mol
# Density = 1.852397 g / cm^3
# Si number density = 18.566227 Si / 1000 Ang^3
#
#
#
# Elastic Constant Matrix: (Units=GPa)
#
#
# Indices 1 2 3 4 5 6 
#
# 1 113.9441 41.8586 99.2708 0.0000 0.0000 0.0000
# 2 41.8586 36.8140 44.0776 0.0000 0.0000 0.0000
# 3 99.2708 44.0776 176.4797 0.0000 0.0000 0.0000
# 4 0.0000 0.0000 0.0000 -23.2960 0.0000 0.0000
# 5 0.0000 0.0000 0.0000 0.0000 36.8162 0.0000
# 6 0.0000 0.0000 0.0000 0.0000 0.0000 21.6342
#
#
#
# Elastic Compliance Matrix: (Units=1/GPa)
#
#
# Indices 1 2 3 4 5 6 
#
# 1 0.021359 -0.014124 -0.008487 0.000000 0.000000 0.000000
# 2 -0.014124 0.048092 -0.004066 0.000000 0.000000 0.000000
# 3 -0.008487 -0.004066 0.011456 0.000000 0.000000 0.000000
# 4 0.000000 0.000000 0.000000 -0.042926 0.000000 0.000000
# 5 0.000000 0.000000 0.000000 0.000000 0.027162 0.000000
# 6 0.000000 0.000000 0.000000 0.000000 0.000000 0.046223
#
#
# Mechanical properties :
#
#
# Convention : Reuss Voigt Hill
#
# Bulk Modulus (GPa) = 36.29535 77.51687 56.90611
# Shear Modulus (GPa) = 28.75123 16.49960 22.62542
#
# Velocity S-wave (km/s) = 3.93947 2.98432 3.49468
# Velocity P-wave (km/s) = 6.34697 7.32919 6.85570
#
# Compressibility (1/GPa) = 0.02755174
#
# Stress axis : x y z
#
# Youngs Moduli (GPa) = 46.81894 20.79331 87.29153
#
# Poissons Ratio (x) = 0.29369 0.74082
# Poissons Ratio (y) = 0.66129 0.35497
# Poissons Ratio (z) = 0.39734 0.08456
#
# Static dielectric constant tensor:
#      x y z
#    x 3.544360 0.000000 0.000000 
#    y 0.000000 3.033560 0.000000 
#    z 0.000000 0.000000 3.807420 
# 
# 
# High freq. dielectric constant tensor:
#      x y z
#    x 1.718990 0.000000 0.000000 
#    y 0.000000 1.681180 0.000000 
#    z 0.000000 0.000000 1.738100 
# 
# From -- ./inp_files/37062.got.cif
#   From: 2010.03.12/outbox.cif.g09.slc.cpg/sg51_19_cif.got.tgz:37062.got - 2010.04.16 13:43:02.
