data_PCOD8210684
_publ_section_title
;
Structure prediction by ZEFSAII (Michael W. Deem and Ramdas Pophale) SiO2 
 PCOD8210684
Probable space group: P M M A
;
_chemical_formula_sum "Si O2"
_cell_formula_units_Z 48
_cell_length_a 9.235369
_cell_length_b 13.592050
_cell_length_c 23.932995
_cell_angle_alpha 90.000000
_cell_angle_beta 90.000000
_cell_angle_gamma 90.000000
_cell_volume 3004.251357
_symmetry_space_group_name_H-M "P M M A"
_symmetry_group_IT_number 51
_symmetry_cell_setting 'orthorhombic'
loop_
_space_group_symop_operation_xyz
x,y,z
1/2-x,-y,z
1/2+x,-y,-z
-x,y,-z
-x,-y,-z
1/2+x,y,-z
1/2-x,y,z
x,-y,z
loop_
_atom_site_type_symbol
_atom_site_label
_atom_site_fract_x
_atom_site_fract_y
_atom_site_fract_z
Si Si1 0.416615 0.109679 0.623033
Si Si2 0.581732 0.885625 0.837870
Si Si3 0.415959 0.389606 0.343377
Si Si4 0.081707 0.200321 0.277957
Si Si5 0.420464 0.298653 0.557137
Si Si6 0.413494 0.882860 0.946744
O O1 0.250000 0.123914 0.639214
O O2 0.504900 0.127074 0.679323
O O3 0.459838 0.186740 0.574720
O O4 0.448900 0.000000 0.600370
O O5 0.750000 0.868459 0.851349
O O6 0.528510 0.822242 0.784695
O O7 0.491004 0.846174 0.890425
O O8 0.550489 0.000000 0.825565
O O9 0.250000 0.374093 0.363022
O O10 0.441004 0.500000 0.320675
O O11 0.453439 0.313876 0.293347
O O12 0.520643 0.372304 0.395792
O O13 0.250000 0.175941 0.282519
O O14 0.500000 0.324114 0.500000
O O15 0.250000 0.315159 0.549693
O O16 0.250000 0.842068 0.948163
O O17 0.414604 0.000000 0.948734
O O18 0.500000 0.840326 0.000000
#
# Coordination Sequence:
#
# PCOD8210684 Si02
#       6
#     8   8   8   8   8   8
#     4   9  18  31  45  62  86 114 141 171 208 248
#     4   9  16  25  38  58  85 115 144 173 204 240
#     4   9  18  33  51  68  86 109 137 172 215 259
#     4   9  17  29  45  65  87 111 142 177 211 251
#     4  10  20  33  48  66  87 110 138 172 209 252
#     4   9  16  25  37  54  79 113 150 182 209 238
#
# _framework density 15.977359
#
# number of rings (size 3 to 8) (size 9 to 14) (size 15 to 20)
#    0.000    2.833    0.000    1.500    0.000    5.333 
#    0.000    1.667    0.000    0.000    0.000    0.000 
#    0.000    0.667    0.000    1.167    0.000    1.667 
#
# Total GULP energy -595155.859453 kJ/mol
# GULP energy per Si atom -12399.080405 kJ/mol
# Density = 1.594099 g / cm^3
# Si number density = 15.977359 Si / 1000 Ang^3
#
#
#
# Elastic Constant Matrix: (Units=GPa)
#
#
# Indices 1 2 3 4 5 6 
#
# 1 70.0361 20.4535 51.6962 0.0000 0.0000 0.0000
# 2 20.4535 66.6557 29.8927 0.0000 0.0000 0.0000
# 3 51.6962 29.8927 121.0191 0.0000 0.0000 0.0000
# 4 0.0000 0.0000 0.0000 13.2607 0.0000 0.0000
# 5 0.0000 0.0000 0.0000 0.0000 29.2854 0.0000
# 6 0.0000 0.0000 0.0000 0.0000 0.0000 15.9496
#
#
#
# Elastic Compliance Matrix: (Units=1/GPa)
#
#
# Indices 1 2 3 4 5 6 
#
# 1 0.021296 -0.002761 -0.008415 0.000000 0.000000 0.000000
# 2 -0.002761 0.017229 -0.003076 0.000000 0.000000 0.000000
# 3 -0.008415 -0.003076 0.012618 0.000000 0.000000 0.000000
# 4 0.000000 0.000000 0.000000 0.075411 0.000000 0.000000
# 5 0.000000 0.000000 0.000000 0.000000 0.034147 0.000000
# 6 0.000000 0.000000 0.000000 0.000000 0.000000 0.062697
#
#
# Mechanical properties :
#
#
# Convention : Reuss Voigt Hill
#
# Bulk Modulus (GPa) = 44.17286 51.31063 47.74175
# Shear Modulus (GPa) = 19.27158 22.07705 20.67432
#
# Velocity S-wave (km/s) = 3.47678 3.72125 3.60109
# Velocity P-wave (km/s) = 6.62001 7.11673 6.87286
#
# Compressibility (1/GPa) = 0.02263833
#
# Stress axis : x y z
#
# Youngs Moduli (GPa) = 46.95659 58.04064 79.25287
#
# Poissons Ratio (x) = 0.16024 0.66693
# Poissons Ratio (y) = 0.12964 0.24381
# Poissons Ratio (z) = 0.39515 0.17856
#
# Static dielectric constant tensor:
#      x y z
#    x 3.115810 0.000000 0.000000 
#    y 0.000000 2.897690 0.000000 
#    z 0.000000 0.000000 3.023440 
# 
# 
# High freq. dielectric constant tensor:
#      x y z
#    x 1.621120 0.000000 0.000000 
#    y 0.000000 1.580590 0.000000 
#    z 0.000000 0.000000 1.605840 
# 
# From -- ./inp_files/34634.got.cif
#   From: 2010.03.12/outbox.cif.g09.slc.cpg/sg51_18_cif.got.tgz:34634.got - 2010.04.16 13:43:02.
