data_PCOD8210558
_publ_section_title
;
Structure prediction by ZEFSAII (Michael W. Deem and Ramdas Pophale) SiO2 
 PCOD8210558
Probable space group: P M M A
;
_chemical_formula_sum "Si O2"
_cell_formula_units_Z 44
_cell_length_a 9.350981
_cell_length_b 7.657682
_cell_length_c 30.245825
_cell_angle_alpha 90.000000
_cell_angle_beta 90.000000
_cell_angle_gamma 90.000000
_cell_volume 2165.807918
_symmetry_space_group_name_H-M "P M M A"
_symmetry_group_IT_number 51
_symmetry_cell_setting 'orthorhombic'
loop_
_space_group_symop_operation_xyz
x,y,z
1/2-x,-y,z
1/2+x,-y,-z
-x,y,-z
-x,-y,-z
1/2+x,y,-z
1/2-x,y,z
x,-y,z
loop_
_atom_site_type_symbol
_atom_site_label
_atom_site_fract_x
_atom_site_fract_y
_atom_site_fract_z
Si Si1 0.409562 0.796754 0.540293
Si Si2 0.589327 0.293170 0.625656
Si Si3 0.417822 0.000000 0.045527
Si Si4 0.411015 0.707736 0.707357
Si Si5 0.417375 0.300578 0.111836
Si Si6 0.090415 0.707078 0.804702
O O1 0.500000 0.710927 0.500000
O O2 0.250000 0.712195 0.542410
O O3 0.492421 0.766926 0.585445
O O4 0.392621 0.000000 0.531176
O O5 0.750000 0.217208 0.620833
O O6 0.594171 0.500000 0.627371
O O7 0.519017 0.216725 0.670575
O O8 0.463391 0.174798 0.071839
O O9 0.250000 0.000000 0.035863
O O10 0.500000 0.000000 0.000000
O O11 0.250000 0.774396 0.697385
O O12 0.412447 0.500000 0.705991
O O13 0.460026 0.773710 0.756169
O O14 0.250000 0.291367 0.120112
O O15 0.466018 0.500000 0.101005
O O16 0.487825 0.224935 0.156573
O O17 0.250000 0.776363 0.814335
O O18 0.088905 0.500000 0.804411
#
# Coordination Sequence:
#
# PCOD8210558 Si02
#       6
#     8   8   4   8   8   8
#     4  10  21  37  56  74  93 124 165 208 256 309
#     4  10  20  32  49  76 106 134 166 205 250 302
#     4  10  22  38  54  76 106 138 174 218 265 314
#     4   8  14  26  45  70 101 134 166 203 247 294
#     4   9  18  33  53  76 103 136 173 215 263 313
#     4   8  14  26  47  75 103 132 169 209 247 293
#
# _framework density 20.315743999999999
#
# number of rings (size 3 to 8) (size 9 to 14) (size 15 to 20)
#    0.000    2.909    0.000    2.182    0.000    4.364 
#    0.000    3.636    2.000    0.000    0.000    0.000 
#    0.000    0.000    0.000    0.000    0.000    0.000 
#
# Total GULP energy -545353.438087 kJ/mol
# GULP energy per Si atom -12394.396320 kJ/mol
# Density = 2.026950 g / cm^3
# Si number density = 20.315744 Si / 1000 Ang^3
#
#
#
# Elastic Constant Matrix: (Units=GPa)
#
#
# Indices 1 2 3 4 5 6 
#
# 1 135.0495 23.3321 100.4311 0.0000 0.0000 0.0000
# 2 23.3321 44.5480 33.8276 0.0000 0.0000 0.0000
# 3 100.4311 33.8276 198.8566 0.0000 0.0000 0.0000
# 4 0.0000 0.0000 0.0000 40.4483 0.0000 0.0000
# 5 0.0000 0.0000 0.0000 0.0000 48.2070 0.0000
# 6 0.0000 0.0000 0.0000 0.0000 0.0000 12.7246
#
#
#
# Elastic Compliance Matrix: (Units=1/GPa)
#
#
# Indices 1 2 3 4 5 6 
#
# 1 0.012002 -0.001933 -0.005733 0.000000 0.000000 0.000000
# 2 -0.001933 0.026089 -0.003462 0.000000 0.000000 0.000000
# 3 -0.005733 -0.003462 0.008513 0.000000 0.000000 0.000000
# 4 0.000000 0.000000 0.000000 0.024723 0.000000 0.000000
# 5 0.000000 0.000000 0.000000 0.000000 0.020744 0.000000
# 6 0.000000 0.000000 0.000000 0.000000 0.000000 0.078588
#
#
# Mechanical properties :
#
#
# Convention : Reuss Voigt Hill
#
# Bulk Modulus (GPa) = 41.06970 77.07061 59.07016
# Shear Modulus (GPa) = 24.87204 35.00021 29.93612
#
# Velocity S-wave (km/s) = 3.50276 4.15518 3.84284
# Velocity P-wave (km/s) = 6.05134 7.81277 6.98778
#
# Compressibility (1/GPa) = 0.02434885
#
# Stress axis : x y z
#
# Youngs Moduli (GPa) = 83.32128 38.33066 117.46971
#
# Poissons Ratio (x) = 0.07409 0.67341
# Poissons Ratio (y) = 0.16105 0.40665
# Poissons Ratio (z) = 0.47765 0.13269
#
# Static dielectric constant tensor:
#      x y z
#    x 3.896240 0.000000 0.000000 
#    y 0.000000 3.464520 0.000000 
#    z 0.000000 0.000000 3.915540 
# 
# 
# High freq. dielectric constant tensor:
#      x y z
#    x 1.791680 0.000000 0.000000 
#    y 0.000000 1.766810 0.000000 
#    z 0.000000 0.000000 1.798110 
# 
# From -- ./inp_files/36759.got.cif
#   From: 2010.03.12/outbox.cif.g09.slc.cpg/sg51_19_cif.got.tgz:36759.got - 2010.04.16 13:43:02.
