data_PCOD8210047
_publ_section_title
;
Structure prediction by ZEFSAII (Michael W. Deem and Ramdas Pophale) SiO2 
 PCOD8210047
Probable space group: P M M A
;
_chemical_formula_sum "Si O2"
_cell_formula_units_Z 40
_cell_length_a 9.770705
_cell_length_b 9.031395
_cell_length_c 24.422811
_cell_angle_alpha 90.000000
_cell_angle_beta 90.000000
_cell_angle_gamma 90.000000
_cell_volume 2155.144463
_symmetry_space_group_name_H-M "P M M A"
_symmetry_group_IT_number 51
_symmetry_cell_setting 'orthorhombic'
loop_
_space_group_symop_operation_xyz
x,y,z
1/2-x,-y,z
1/2+x,-y,-z
-x,y,-z
-x,-y,-z
1/2+x,y,-z
1/2-x,y,z
x,-y,z
loop_
_atom_site_type_symbol
_atom_site_label
_atom_site_fract_x
_atom_site_fract_y
_atom_site_fract_z
Si Si1 0.409452 0.825811 0.447934
Si Si2 0.405607 0.323096 0.641151
Si Si3 0.090322 0.335029 0.761434
Si Si4 0.020755 0.327991 0.877044
Si Si5 0.750000 0.174393 0.054702
Si Si6 0.250000 0.666505 0.057909
O O1 0.500000 0.777864 0.500000
O O2 0.250000 0.776832 0.455163
O O3 0.477703 0.744820 0.396765
O O4 0.418554 0.000000 0.438102
O O5 0.250000 0.275966 0.623842
O O6 0.415151 0.500000 0.639970
O O7 0.437216 0.258987 0.702377
O O8 0.250000 0.336224 0.773988
O O9 0.031393 0.500000 0.756318
O O10 0.020336 0.260481 0.814887
O O11 0.067492 0.500000 0.875563
O O12 0.117450 0.236407 0.916211
O O13 0.873728 0.306131 0.901796
O O14 0.750000 0.000000 0.058659
O O15 0.750000 0.218995 0.991334
O O16 0.250000 0.500000 0.033282
#
# Coordination Sequence:
#
# PCOD8210047 Si02
#       6
#     8   8   8   8   4   4
#     4  10  21  37  56  78 107 146 190 227 263 309
#     4   9  18  33  55  84 112 139 174 219 273 325
#     4   8  14  29  55  81 104 134 173 218 265 312
#     4  10  19  36  59  80 104 137 179 225 267 317
#     4  12  24  36  54  78 106 142 181 218 269 328
#     4  10  22  36  54  82 106 134 179 224 271 324
#
# _framework density 18.56024
#
# number of rings (size 3 to 8) (size 9 to 14) (size 15 to 20)
#    0.000    2.400    1.000    3.300    0.000    5.200 
#    1.800    1.000    0.000    0.000    0.000    0.000 
#    0.000    0.000    0.000    0.000    0.000    0.000 
#
# Total GULP energy -495678.810010 kJ/mol
# GULP energy per Si atom -12391.970250 kJ/mol
# Density = 1.851800 g / cm^3
# Si number density = 18.560240 Si / 1000 Ang^3
#
#
#
# Elastic Constant Matrix: (Units=GPa)
#
#
# Indices 1 2 3 4 5 6 
#
# 1 130.9263 39.6772 79.5807 0.0000 0.0000 0.0000
# 2 39.6772 46.2436 40.5914 0.0000 0.0000 0.0000
# 3 79.5807 40.5914 163.1842 0.0000 0.0000 0.0000
# 4 0.0000 0.0000 0.0000 -9.4157 0.0000 0.0000
# 5 0.0000 0.0000 0.0000 0.0000 23.2585 0.0000
# 6 0.0000 0.0000 0.0000 0.0000 0.0000 13.2110
#
#
#
# Elastic Compliance Matrix: (Units=1/GPa)
#
#
# Indices 1 2 3 4 5 6 
#
# 1 0.012318 -0.006775 -0.004322 0.000000 0.000000 0.000000
# 2 -0.006775 0.031392 -0.004504 0.000000 0.000000 0.000000
# 3 -0.004322 -0.004504 0.009356 0.000000 0.000000 0.000000
# 4 0.000000 0.000000 0.000000 -0.106206 0.000000 0.000000
# 5 0.000000 0.000000 0.000000 0.000000 0.042995 0.000000
# 6 0.000000 0.000000 0.000000 0.000000 0.000000 0.075695
#
#
# Mechanical properties :
#
#
# Convention : Reuss Voigt Hill
#
# Bulk Modulus (GPa) = 45.73990 73.33917 59.53954
# Shear Modulus (GPa) = 48.05797 17.44441 32.75119
#
# Velocity S-wave (km/s) = 5.09403 3.06907 4.20526
# Velocity P-wave (km/s) = 7.70042 7.22211 7.46509
#
# Compressibility (1/GPa) = 0.02186275
#
# Stress axis : x y z
#
# Youngs Moduli (GPa) = 81.18120 31.85549 106.88147
#
# Poissons Ratio (x) = 0.21583 0.46193
# Poissons Ratio (y) = 0.55003 0.48144
# Poissons Ratio (z) = 0.35086 0.14349
#
# Static dielectric constant tensor:
#      x y z
#    x 3.369810 0.000000 0.000000 
#    y 0.000000 3.116690 0.000000 
#    z 0.000000 0.000000 3.739360 
# 
# 
# High freq. dielectric constant tensor:
#      x y z
#    x 1.716670 0.000000 0.000000 
#    y 0.000000 1.681020 0.000000 
#    z 0.000000 0.000000 1.741840 
# 
# From -- ./inp_files/35998.got.cif
#   From: 2010.03.12/outbox.cif.g09.slc.cpg/sg51_18_cif.got.tgz:35998.got - 2010.04.16 13:43:02.
