data_PCOD8210276
_publ_section_title
;
Structure prediction by ZEFSAII (Michael W. Deem and Ramdas Pophale) SiO2 
 PCOD8210276
Probable space group: P M M A
;
_chemical_formula_sum "Si O2"
_cell_formula_units_Z 64
_cell_length_a 19.311854
_cell_length_b 9.004879
_cell_length_c 21.766609
_cell_angle_alpha 90.000000
_cell_angle_beta 90.000000
_cell_angle_gamma 90.000000
_cell_volume 3785.233081
_symmetry_space_group_name_H-M "P M M A"
_symmetry_group_IT_number 51
_symmetry_cell_setting 'orthorhombic'
loop_
_space_group_symop_operation_xyz
x,y,z
1/2-x,-y,z
1/2+x,-y,-z
-x,y,-z
-x,-y,-z
1/2+x,y,-z
1/2-x,y,z
x,-y,z
loop_
_atom_site_type_symbol
_atom_site_label
_atom_site_fract_x
_atom_site_fract_y
_atom_site_fract_z
Si Si1 0.671261 0.827435 0.980976
Si Si2 0.033130 0.833064 0.406062
Si Si3 0.324196 0.824162 0.880357
Si Si4 0.964106 0.823261 0.174657
Si Si5 0.959477 0.325098 0.937907
Si Si6 0.327021 0.674452 0.628942
Si Si7 0.536459 0.324946 0.301736
Si Si8 0.890492 0.165581 0.478022
O O1 0.750000 0.804567 0.957778
O O2 0.620187 0.726635 0.940878
O O3 0.649839 0.000000 0.975573
O O4 0.663472 0.767912 0.050510
O O5 0.095273 0.779208 0.451703
O O6 0.023870 0.719225 0.349787
O O7 0.962911 0.835086 0.443715
O O8 0.048721 0.000000 0.381747
O O9 0.250000 0.763124 0.855702
O O10 0.384971 0.769363 0.836151
O O11 0.321863 0.000000 0.883241
O O12 0.985690 0.755697 0.239423
O O13 0.009853 0.759518 0.120160
O O14 0.971674 0.000000 0.175819
O O15 0.963859 0.500000 0.926656
O O16 0.000000 0.278248 0.000000
O O17 0.250000 0.722964 0.652182
O O18 0.333151 0.500000 0.624883
O O19 0.387477 0.732623 0.674967
O O20 0.337126 0.732268 0.559258
O O21 0.536208 0.500000 0.291617
O O22 0.859288 0.000000 0.479816
#
# Coordination Sequence:
#
# PCOD8210276 Si02
#       8
#     8   8   8   8   8   8   8   8
#     4   9  17  32  54  76  97 123 158 199 244 298
#     4   8  14  27  45  65  89 115 148 190 238 280
#     4   8  15  28  46  68  92 120 158 202 243 288
#     4  11  21  33  51  70  94 130 172 212 254 303
#     4  11  22  34  50  74 104 131 160 205 259 309
#     4   9  18  31  45  64  96 136 169 196 231 280
#     4  10  20  32  45  64  94 128 165 203 240 286
#     4   8  14  25  44  68  90 114 149 196 236 268
#
# _framework density 16.907807999999999
#
# number of rings (size 3 to 8) (size 9 to 14) (size 15 to 20)
#    0.000    2.750    1.250    2.625    0.000    2.500 
#    0.000    2.500    0.000    1.125    0.000    0.875 
#    0.000    3.000    0.000    0.000    0.000    0.000 
#
# Total GULP energy -793096.516290 kJ/mol
# GULP energy per Si atom -12392.133067 kJ/mol
# Density = 1.686933 g / cm^3
# Si number density = 16.907808 Si / 1000 Ang^3
#
#
#
# Elastic Constant Matrix: (Units=GPa)
#
#
# Indices 1 2 3 4 5 6 
#
# 1 46.9496 24.8393 35.4784 0.0000 0.0000 0.0000
# 2 24.8393 55.1896 38.9830 0.0000 0.0000 0.0000
# 3 35.4784 38.9830 106.1904 0.0000 0.0000 0.0000
# 4 0.0000 0.0000 0.0000 24.7247 0.0000 0.0000
# 5 0.0000 0.0000 0.0000 0.0000 17.7005 0.0000
# 6 0.0000 0.0000 0.0000 0.0000 0.0000 19.7593
#
#
#
# Elastic Compliance Matrix: (Units=1/GPa)
#
#
# Indices 1 2 3 4 5 6 
#
# 1 0.031564 -0.009123 -0.007197 0.000000 0.000000 0.000000
# 2 -0.009123 0.027099 -0.006900 0.000000 0.000000 0.000000
# 3 -0.007197 -0.006900 0.014355 0.000000 0.000000 0.000000
# 4 0.000000 0.000000 0.000000 0.040445 0.000000 0.000000
# 5 0.000000 0.000000 0.000000 0.000000 0.056496 0.000000
# 6 0.000000 0.000000 0.000000 0.000000 0.000000 0.050609
#
#
# Mechanical properties :
#
#
# Convention : Reuss Voigt Hill
#
# Bulk Modulus (GPa) = 37.62434 45.21455 41.41945
# Shear Modulus (GPa) = 18.12465 19.70550 18.91508
#
# Velocity S-wave (km/s) = 3.27765 3.41760 3.34835
# Velocity P-wave (km/s) = 6.05185 6.50947 6.28483
#
# Compressibility (1/GPa) = 0.02657854
#
# Stress axis : x y z
#
# Youngs Moduli (GPa) = 31.68134 36.90133 69.66415
#
# Poissons Ratio (x) = 0.33665 0.50135
# Poissons Ratio (y) = 0.28903 0.48070
# Poissons Ratio (z) = 0.22800 0.25463
#
# Static dielectric constant tensor:
#      x y z
#    x 3.420580 0.000000 0.000000 
#    y 0.000000 3.047130 0.000000 
#    z 0.000000 0.000000 3.182120 
# 
# 
# High freq. dielectric constant tensor:
#      x y z
#    x 1.630380 0.000000 0.000000 
#    y 0.000000 1.642450 0.000000 
#    z 0.000000 0.000000 1.635340 
# 
# From -- ./inp_files/34143.got.cif
#   From: 2010.03.12/outbox.cif.g09.slc.cpg/sg51_18_cif.got.tgz:34143.got - 2010.04.16 13:43:02.
