data_PCOD8210415
_publ_section_title
;
Structure prediction by ZEFSAII (Michael W. Deem and Ramdas Pophale) SiO2 
 PCOD8210415
Probable space group: P M M A
;
_chemical_formula_sum "Si O2"
_cell_formula_units_Z 52
_cell_length_a 9.658085
_cell_length_b 12.779913
_cell_length_c 23.355938
_cell_angle_alpha 90.000000
_cell_angle_beta 90.000000
_cell_angle_gamma 90.000000
_cell_volume 2882.811423
_symmetry_space_group_name_H-M "P M M A"
_symmetry_group_IT_number 51
_symmetry_cell_setting 'orthorhombic'
loop_
_space_group_symop_operation_xyz
x,y,z
1/2-x,-y,z
1/2+x,-y,-z
-x,y,-z
-x,-y,-z
1/2+x,y,-z
1/2-x,y,z
x,-y,z
loop_
_atom_site_type_symbol
_atom_site_label
_atom_site_fract_x
_atom_site_fract_y
_atom_site_fract_z
Si Si1 0.589961 0.000000 0.056139
Si Si2 0.598388 0.118241 0.452682
Si Si3 0.408374 0.382075 0.446041
Si Si4 0.592580 0.803653 0.636103
Si Si5 0.590966 0.878807 0.760915
Si Si6 0.590135 0.619390 0.054738
Si Si7 0.910536 0.193624 0.135781
O O1 0.550623 0.102185 0.091954
O O2 0.750000 0.000000 0.038294
O O3 0.500000 0.000000 0.000000
O O4 0.500000 0.174961 0.500000
O O5 0.750000 0.173702 0.449582
O O6 0.518704 0.119023 0.392365
O O7 0.623243 0.000000 0.471726
O O8 0.500000 0.346713 0.500000
O O9 0.250000 0.371857 0.465659
O O10 0.445453 0.500000 0.427342
O O11 0.437958 0.311511 0.389765
O O12 0.750000 0.839325 0.621394
O O13 0.568561 0.810603 0.703720
O O14 0.750000 0.874701 0.780635
O O15 0.499246 0.820419 0.807496
O O16 0.545318 0.000000 0.752029
O O17 0.750000 0.634612 0.037299
O O18 0.559276 0.500000 0.073670
O O19 0.551612 0.694868 0.107439
O O20 0.500000 0.651393 0.000000
O O21 0.750000 0.187760 0.153067
#
# Coordination Sequence:
#
# PCOD8210415 Si02
#       7
#     4   8   8   8   8   8   8
#     4  10  20  32  50  78 106 134 169 214 265 312
#     4  10  20  32  47  70  99 129 161 201 251 305
#     4   9  18  33  53  76 102 131 163 206 261 315
#     4  10  20  34  52  73  98 130 169 212 256 305
#     4  10  21  36  53  74 102 138 177 217 261 309
#     4   9  18  33  54  80 109 140 173 212 260 312
#     4  10  20  35  53  75 106 141 177 217 260 312
#
# _framework density 18.037946000000002
#
# number of rings (size 3 to 8) (size 9 to 14) (size 15 to 20)
#    0.000    2.308    0.769    1.846    0.000    5.231 
#    0.000    0.769    0.000    0.923    0.000    0.000 
#    0.000    0.000    0.000    0.000    0.000    0.000 
#
# Total GULP energy -644667.043891 kJ/mol
# GULP energy per Si atom -12397.443152 kJ/mol
# Density = 1.799689 g / cm^3
# Si number density = 18.037946 Si / 1000 Ang^3
#
#
#
# Elastic Constant Matrix: (Units=GPa)
#
#
# Indices 1 2 3 4 5 6 
#
# 1 108.3590 43.3628 79.9479 0.0000 0.0000 0.0000
# 2 43.3628 106.9236 62.7632 0.0000 0.0000 0.0000
# 3 79.9479 62.7632 139.4707 0.0000 0.0000 0.0000
# 4 0.0000 0.0000 0.0000 23.4759 0.0000 0.0000
# 5 0.0000 0.0000 0.0000 0.0000 37.8002 0.0000
# 6 0.0000 0.0000 0.0000 0.0000 0.0000 16.0939
#
#
#
# Elastic Compliance Matrix: (Units=1/GPa)
#
#
# Indices 1 2 3 4 5 6 
#
# 1 0.016171 -0.001518 -0.008587 0.000000 0.000000 0.000000
# 2 -0.001518 0.012852 -0.004914 0.000000 0.000000 0.000000
# 3 -0.008587 -0.004914 0.014303 0.000000 0.000000 0.000000
# 4 0.000000 0.000000 0.000000 0.042597 0.000000 0.000000
# 5 0.000000 0.000000 0.000000 0.000000 0.026455 0.000000
# 6 0.000000 0.000000 0.000000 0.000000 0.000000 0.062135
#
#
# Mechanical properties :
#
#
# Convention : Reuss Voigt Hill
#
# Bulk Modulus (GPa) = 75.24196 80.76680 78.00438
# Shear Modulus (GPa) = 23.92569 26.71930 25.32250
#
# Velocity S-wave (km/s) = 3.64594 3.85292 3.75086
# Velocity P-wave (km/s) = 7.71541 8.04155 7.88017
#
# Compressibility (1/GPa) = 0.01329046
#
# Stress axis : x y z
#
# Youngs Moduli (GPa) = 61.83773 77.80725 69.91440
#
# Poissons Ratio (x) = 0.11811 0.60033
# Poissons Ratio (y) = 0.09387 0.34353
# Poissons Ratio (z) = 0.53098 0.38231
#
# Static dielectric constant tensor:
#      x y z
#    x 3.524510 0.000000 0.000000 
#    y 0.000000 3.469950 0.000000 
#    z 0.000000 0.000000 3.140100 
# 
# 
# High freq. dielectric constant tensor:
#      x y z
#    x 1.705300 0.000000 0.000000 
#    y 0.000000 1.702040 0.000000 
#    z 0.000000 0.000000 1.679530 
# 
# From -- ./inp_files/31714.got.cif
#   From: 2010.03.12/outbox.cif.g09.slc.cpg/sg51_16_cif.got.tgz:31714.got - 2010.04.16 13:43:02.
