data_PCOD8210354
_publ_section_title
;
Structure prediction by ZEFSAII (Michael W. Deem and Ramdas Pophale) SiO2 
 PCOD8210354
Probable space group: P M M A
;
_chemical_formula_sum "Si O2"
_cell_formula_units_Z 64
_cell_length_a 9.331775
_cell_length_b 23.469397
_cell_length_c 18.888789
_cell_angle_alpha 90.000000
_cell_angle_beta 90.000000
_cell_angle_gamma 90.000000
_cell_volume 4136.855065
_symmetry_space_group_name_H-M "P M M A"
_symmetry_group_IT_number 51
_symmetry_cell_setting 'orthorhombic'
loop_
_space_group_symop_operation_xyz
x,y,z
1/2-x,-y,z
1/2+x,-y,-z
-x,y,-z
-x,-y,-z
1/2+x,y,-z
1/2-x,y,z
x,-y,z
loop_
_atom_site_type_symbol
_atom_site_label
_atom_site_fract_x
_atom_site_fract_y
_atom_site_fract_z
Si Si1 0.584980 0.740573 0.219508
Si Si2 0.583275 0.066013 0.216804
Si Si3 0.586892 0.752087 0.065428
Si Si4 0.084021 0.563293 0.570138
Si Si5 0.416537 0.159925 0.289887
Si Si6 0.082719 0.773954 0.430266
Si Si7 0.914804 0.675819 0.356065
Si Si8 0.083908 0.115361 0.932288
O O1 0.750000 0.761921 0.222884
O O2 0.549411 0.720237 0.139423
O O3 0.484769 0.793135 0.238805
O O4 0.557748 0.688159 0.273008
O O5 0.750000 0.081294 0.226052
O O6 0.493260 0.099804 0.275981
O O7 0.531360 0.083019 0.138099
O O8 0.552735 0.000000 0.229680
O O9 0.750000 0.743469 0.044146
O O10 0.548955 0.818149 0.077376
O O11 0.500000 0.725326 0.000000
O O12 0.250000 0.564634 0.549976
O O13 0.038963 0.500000 0.596887
O O14 0.048487 0.609424 0.630953
O O15 0.000000 0.580758 0.500000
O O16 0.250000 0.155014 0.271213
O O17 0.440393 0.177322 0.371495
O O18 0.250000 0.764270 0.446575
O O19 0.000000 0.795001 0.500000
O O20 0.016685 0.714250 0.404481
O O21 0.750000 0.689583 0.376314
O O22 0.250000 0.103849 0.946056
O O23 0.000000 0.090463 0.000000
#
# Coordination Sequence:
#
# PCOD8210354 Si02
#       8
#     8   8   8   8   8   8   8   8
#     4   9  16  29  46  63  85 114 146 176 215 261
#     4  10  20  34  50  65  84 112 144 175 209 255
#     4   9  16  26  41  60  84 112 140 173 210 255
#     4   9  17  28  41  60  88 122 156 185 213 247
#     4  10  20  32  47  67  89 109 136 174 216 257
#     4  10  20  32  47  69  92 114 139 175 217 258
#     4   9  17  28  45  66  89 119 150 183 217 253
#     4   9  17  29  43  62  85 111 141 173 207 246
#
# _framework density 15.470689
#
# number of rings (size 3 to 8) (size 9 to 14) (size 15 to 20)
#    0.000    2.625    1.250    1.125    0.000    4.500 
#    0.000    0.000    0.000    0.375    0.000    0.000 
#    0.000    0.500    0.000    0.375    0.000    0.750 
#
# Total GULP energy -793483.149542 kJ/mol
# GULP energy per Si atom -12398.174212 kJ/mol
# Density = 1.543548 g / cm^3
# Si number density = 15.470689 Si / 1000 Ang^3
#
#
#
# Elastic Constant Matrix: (Units=GPa)
#
#
# Indices 1 2 3 4 5 6 
#
# 1 72.2425 39.9897 58.5672 0.0000 0.0000 0.0000
# 2 39.9897 81.2668 54.4630 0.0000 0.0000 0.0000
# 3 58.5672 54.4630 119.3457 0.0000 0.0000 0.0000
# 4 0.0000 0.0000 0.0000 21.4114 0.0000 0.0000
# 5 0.0000 0.0000 0.0000 0.0000 27.7403 0.0000
# 6 0.0000 0.0000 0.0000 0.0000 0.0000 16.1792
#
#
#
# Elastic Compliance Matrix: (Units=1/GPa)
#
#
# Indices 1 2 3 4 5 6 
#
# 1 0.024763 -0.005822 -0.009495 0.000000 0.000000 0.000000
# 2 -0.005822 0.019095 -0.005857 0.000000 0.000000 0.000000
# 3 -0.009495 -0.005857 0.015712 0.000000 0.000000 0.000000
# 4 0.000000 0.000000 0.000000 0.046704 0.000000 0.000000
# 5 0.000000 0.000000 0.000000 0.000000 0.036049 0.000000
# 6 0.000000 0.000000 0.000000 0.000000 0.000000 0.061808
#
#
# Mechanical properties :
#
#
# Convention : Reuss Voigt Hill
#
# Bulk Modulus (GPa) = 58.06756 64.32164 61.19460
# Shear Modulus (GPa) = 19.82408 21.05517 20.43963
#
# Velocity S-wave (km/s) = 3.58354 3.69314 3.63875
# Velocity P-wave (km/s) = 7.39850 7.73643 7.56935
#
# Compressibility (1/GPa) = 0.01722132
#
# Stress axis : x y z
#
# Youngs Moduli (GPa) = 40.38342 52.36927 63.64761
#
# Poissons Ratio (x) = 0.30488 0.60435
# Poissons Ratio (y) = 0.23510 0.37279
# Poissons Ratio (z) = 0.38345 0.30673
#
# Static dielectric constant tensor:
#      x y z
#    x 3.035910 0.000000 0.000000 
#    y 0.000000 2.805720 0.000000 
#    z 0.000000 0.000000 3.106360 
# 
# 
# High freq. dielectric constant tensor:
#      x y z
#    x 1.598410 0.000000 0.000000 
#    y 0.000000 1.557780 0.000000 
#    z 0.000000 0.000000 1.591300 
# 
# From -- ./inp_files/32714.got.cif
#   From: 2010.03.12/outbox.cif.g09.slc.cpg/sg51_17_cif.got.tgz:32714.got - 2010.04.16 13:43:02.
