data_PCOD8210058
_publ_section_title
;
Structure prediction by ZEFSAII (Michael W. Deem and Ramdas Pophale) SiO2 
 PCOD8210058
Probable space group: P M M A
;
_chemical_formula_sum "Si O2"
_cell_formula_units_Z 44
_cell_length_a 10.223075
_cell_length_b 7.904892
_cell_length_c 27.956139
_cell_angle_alpha 90.000000
_cell_angle_beta 90.000000
_cell_angle_gamma 90.000000
_cell_volume 2259.199997
_symmetry_space_group_name_H-M "P M M A"
_symmetry_group_IT_number 51
_symmetry_cell_setting 'orthorhombic'
loop_
_space_group_symop_operation_xyz
x,y,z
1/2-x,-y,z
1/2+x,-y,-z
-x,y,-z
-x,-y,-z
1/2+x,y,-z
1/2-x,y,z
x,-y,z
loop_
_atom_site_type_symbol
_atom_site_label
_atom_site_fract_x
_atom_site_fract_y
_atom_site_fract_z
Si Si1 0.597764 0.301417 0.309577
Si Si2 0.750000 0.691198 0.053118
Si Si3 0.997135 0.299257 0.894808
Si Si4 0.750000 0.812811 0.950015
Si Si5 0.401159 0.500000 0.456342
Si Si6 0.101664 0.809850 0.387200
Si Si7 0.894111 0.700253 0.203428
O O1 0.750000 0.257884 0.320259
O O2 0.573304 0.500000 0.316182
O O3 0.501735 0.201392 0.344363
O O4 0.559097 0.240106 0.255912
O O5 0.750000 0.500000 0.071681
O O6 0.619865 0.774196 0.075103
O O7 0.750000 0.690416 0.995601
O O8 0.982226 0.500000 0.900220
O O9 0.872314 0.210607 0.916039
O O10 0.009252 0.242883 0.839145
O O11 0.750000 0.000000 0.971801
O O12 0.250000 0.500000 0.473776
O O13 0.500000 0.500000 0.500000
O O14 0.432401 0.330257 0.426728
O O15 0.250000 0.778281 0.368225
O O16 0.090403 0.000000 0.409025
O O17 0.750000 0.774873 0.192572
O O18 0.883162 0.500000 0.204277
#
# Coordination Sequence:
#
# PCOD8210058 Si02
#       7
#     8   4   8   4   4   8   8
#     4   9  17  31  56  87 116 147 188 236 288 345
#     4  10  20  36  62  84  96 126 176 230 276 331
#     4  10  19  36  60  81 103 131 174 228 280 330
#     4  12  26  38  48  72 110 144 176 216 270 337
#     4  10  22  40  62  88 122 160 202 252 297 346
#     4  10  21  38  59  85 121 163 203 243 291 349
#     4   8  14  29  55  85 109 134 175 229 283 336
#
# _framework density 19.475922000000001
#
# number of rings (size 3 to 8) (size 9 to 14) (size 15 to 20)
#    0.000    2.364    1.818    2.455    0.000    4.364 
#    1.636    0.909    0.000    1.091    0.000    0.000 
#    0.000    0.000    0.000    0.000    0.000    0.000 
#
# Total GULP energy -545367.216422 kJ/mol
# GULP energy per Si atom -12394.709464 kJ/mol
# Density = 1.943159 g / cm^3
# Si number density = 19.475922 Si / 1000 Ang^3
#
#
#
# Elastic Constant Matrix: (Units=GPa)
#
#
# Indices 1 2 3 4 5 6 
#
# 1 129.1294 31.7785 77.1522 0.0000 0.0000 0.0000
# 2 31.7785 72.7789 37.8457 0.0000 0.0000 0.0000
# 3 77.1522 37.8457 136.7200 0.0000 0.0000 0.0000
# 4 0.0000 0.0000 0.0000 4.2336 0.0000 0.0000
# 5 0.0000 0.0000 0.0000 0.0000 41.3388 0.0000
# 6 0.0000 0.0000 0.0000 0.0000 0.0000 95.4904
#
#
#
# Elastic Compliance Matrix: (Units=1/GPa)
#
#
# Indices 1 2 3 4 5 6 
#
# 1 0.011926 -0.001995 -0.006178 0.000000 0.000000 0.000000
# 2 -0.001995 0.016384 -0.003410 0.000000 0.000000 0.000000
# 3 -0.006178 -0.003410 0.011744 0.000000 0.000000 0.000000
# 4 0.000000 0.000000 0.000000 0.236206 0.000000 0.000000
# 5 0.000000 0.000000 0.000000 0.000000 0.024190 0.000000
# 6 0.000000 0.000000 0.000000 0.000000 0.000000 0.010472
#
#
# Mechanical properties :
#
#
# Convention : Reuss Voigt Hill
#
# Bulk Modulus (GPa) = 59.20665 70.24236 64.72451
# Shear Modulus (GPa) = 14.71807 41.00268 27.86038
#
# Velocity S-wave (km/s) = 2.75199 4.59333 3.78630
# Velocity P-wave (km/s) = 6.36898 8.01724 7.24017
#
# Compressibility (1/GPa) = 0.01688999
#
# Stress axis : x y z
#
# Youngs Moduli (GPa) = 83.84843 61.03379 85.14802
#
# Poissons Ratio (x) = 0.12176 0.52603
# Poissons Ratio (y) = 0.16728 0.29032
# Poissons Ratio (z) = 0.51800 0.20810
#
# Static dielectric constant tensor:
#      x y z
#    x 3.692750 0.000000 0.000000 
#    y 0.000000 3.385820 0.000000 
#    z 0.000000 0.000000 3.539200 
# 
# 
# High freq. dielectric constant tensor:
#      x y z
#    x 1.754730 0.000000 0.000000 
#    y 0.000000 1.743050 0.000000 
#    z 0.000000 0.000000 1.751950 
# 
# From -- ./inp_files/36839.got.cif
#   From: 2010.03.12/outbox.cif.g09.slc.cpg/sg51_19_cif.got.tgz:36839.got - 2010.04.16 13:43:02.
