data_PCOD8210369
_publ_section_title
;
Structure prediction by ZEFSAII (Michael W. Deem and Ramdas Pophale) SiO2 
 PCOD8210369
Probable space group: P M M A
;
_chemical_formula_sum "Si O2"
_cell_formula_units_Z 40
_cell_length_a 8.932540
_cell_length_b 13.738240
_cell_length_c 18.968414
_cell_angle_alpha 90.000000
_cell_angle_beta 90.000000
_cell_angle_gamma 90.000000
_cell_volume 2327.754037
_symmetry_space_group_name_H-M "P M M A"
_symmetry_group_IT_number 51
_symmetry_cell_setting 'orthorhombic'
loop_
_space_group_symop_operation_xyz
x,y,z
1/2-x,-y,z
1/2+x,-y,-z
-x,y,-z
-x,-y,-z
1/2+x,y,-z
1/2-x,y,z
x,-y,z
loop_
_atom_site_type_symbol
_atom_site_label
_atom_site_fract_x
_atom_site_fract_y
_atom_site_fract_z
Si Si1 0.572515 0.295753 0.784957
Si Si2 0.572860 0.222993 0.572598
Si Si3 0.425864 0.389026 0.070959
Si Si4 0.422801 0.612347 0.654652
Si Si5 0.426528 0.106721 0.291182
O O1 0.750000 0.309022 0.774905
O O2 0.521070 0.322536 0.863802
O O3 0.492983 0.368965 0.731380
O O4 0.522125 0.184497 0.768231
O O5 0.500000 0.187531 0.500000
O O6 0.750000 0.230972 0.564219
O O7 0.509482 0.328169 0.594444
O O8 0.525087 0.144867 0.631872
O O9 0.250000 0.383187 0.061002
O O10 0.478001 0.500000 0.084779
O O11 0.500000 0.347269 0.000000
O O12 0.250000 0.644195 0.655702
O O13 0.441634 0.500000 0.635310
O O14 0.250000 0.096948 0.288637
O O15 0.499362 0.000000 0.277254
#
# Coordination Sequence:
#
# PCOD8210369 Si02
#       5
#     8   8   8   8   8
#     4   9  17  30  49  70  93 122 154 191 231 270
#     4  10  20  33  49  68  92 121 152 189 231 274
#     4   9  17  28  43  66  95 125 156 187 222 266
#     4  10  20  32  47  68  93 122 155 189 227 273
#     4   8  15  29  49  71  91 114 149 190 232 277
#
# _framework density 17.183945000000001
#
# number of rings (size 3 to 8) (size 9 to 14) (size 15 to 20)
#    0.000    2.800    0.000    3.000    0.000    4.000 
#    0.000    2.000    0.000   15.000    0.000    0.000 
#    0.000    0.000    0.000    0.000    0.000    0.000 
#
# Total GULP energy -495905.845471 kJ/mol
# GULP energy per Si atom -12397.646137 kJ/mol
# Density = 1.714483 g / cm^3
# Si number density = 17.183945 Si / 1000 Ang^3
#
#
#
# Elastic Constant Matrix: (Units=GPa)
#
#
# Indices 1 2 3 4 5 6 
#
# 1 46.9063 24.9377 27.8571 0.0000 0.0000 0.0000
# 2 24.9377 107.0413 57.4105 0.0000 0.0000 0.0000
# 3 27.8571 57.4105 134.6518 0.0000 0.0000 0.0000
# 4 0.0000 0.0000 0.0000 16.7440 0.0000 0.0000
# 5 0.0000 0.0000 0.0000 0.0000 30.5031 0.0000
# 6 0.0000 0.0000 0.0000 0.0000 0.0000 13.2504
#
#
#
# Elastic Compliance Matrix: (Units=1/GPa)
#
#
# Indices 1 2 3 4 5 6 
#
# 1 0.025590 -0.004048 -0.003568 0.000000 0.000000 0.000000
# 2 -0.004048 0.012752 -0.004600 0.000000 0.000000 0.000000
# 3 -0.003568 -0.004600 0.010126 0.000000 0.000000 0.000000
# 4 0.000000 0.000000 0.000000 0.059723 0.000000 0.000000
# 5 0.000000 0.000000 0.000000 0.000000 0.032784 0.000000
# 6 0.000000 0.000000 0.000000 0.000000 0.000000 0.075469
#
#
# Mechanical properties :
#
#
# Convention : Reuss Voigt Hill
#
# Bulk Modulus (GPa) = 41.60316 56.55666 49.07991
# Shear Modulus (GPa) = 20.08932 23.99244 22.04088
#
# Velocity S-wave (km/s) = 3.42288 3.74065 3.58529
# Velocity P-wave (km/s) = 6.31542 7.18613 6.76480
#
# Compressibility (1/GPa) = 0.02403664
#
# Stress axis : x y z
#
# Youngs Moduli (GPa) = 39.07719 78.41765 98.75689
#
# Poissons Ratio (x) = 0.31744 0.35239
# Poissons Ratio (y) = 0.15819 0.45424
# Poissons Ratio (z) = 0.13944 0.36069
#
# Static dielectric constant tensor:
#      x y z
#    x 3.083840 0.000000 0.000000 
#    y 0.000000 3.427470 0.000000 
#    z 0.000000 0.000000 3.243070 
# 
# 
# High freq. dielectric constant tensor:
#      x y z
#    x 1.650140 0.000000 0.000000 
#    y 0.000000 1.653890 0.000000 
#    z 0.000000 0.000000 1.658050 
# 
# From -- ./inp_files/27208.got.cif
#   From: 2010.03.12/outbox.cif.g09.slc.cpg/sg51_14_cif.got.tgz:27208.got - 2010.04.16 13:43:02.
