data_PCOD8210314
_publ_section_title
;
Structure prediction by ZEFSAII (Michael W. Deem and Ramdas Pophale) SiO2 
 PCOD8210314
Probable space group: P M M A
;
_chemical_formula_sum "Si O2"
_cell_formula_units_Z 64
_cell_length_a 9.396616
_cell_length_b 17.406513
_cell_length_c 20.829451
_cell_angle_alpha 90.000000
_cell_angle_beta 90.000000
_cell_angle_gamma 90.000000
_cell_volume 3406.913300
_symmetry_space_group_name_H-M "P M M A"
_symmetry_group_IT_number 51
_symmetry_cell_setting 'orthorhombic'
loop_
_space_group_symop_operation_xyz
x,y,z
1/2-x,-y,z
1/2+x,-y,-z
-x,y,-z
-x,-y,-z
1/2+x,y,-z
1/2-x,y,z
x,-y,z
loop_
_atom_site_type_symbol
_atom_site_label
_atom_site_fract_x
_atom_site_fract_y
_atom_site_fract_z
Si Si1 0.913764 0.413815 0.086786
Si Si2 0.406692 0.361590 0.775534
Si Si3 0.912620 0.868772 0.562361
Si Si4 0.582294 0.782534 0.798281
Si Si5 0.910437 0.687643 0.559428
Si Si6 0.918266 0.914067 0.702664
Si Si7 0.081118 0.263206 0.059819
Si Si8 0.908764 0.415437 0.359882
O O1 0.750000 0.392841 0.068571
O O2 0.951842 0.500000 0.062211
O O3 0.936264 0.413691 0.162970
O O4 0.023091 0.351008 0.059074
O O5 0.250000 0.323190 0.780152
O O6 0.518034 0.292856 0.766272
O O7 0.416190 0.419760 0.716681
O O8 0.750000 0.896306 0.552950
O O9 0.923156 0.777886 0.567338
O O10 0.977372 0.899269 0.630073
O O11 0.000000 0.899020 0.500000
O O12 0.750000 0.777545 0.790645
O O13 0.523203 0.856378 0.758125
O O14 0.541628 0.782883 0.874497
O O15 0.750000 0.660534 0.550072
O O16 0.000000 0.656211 0.500000
O O17 0.975813 0.647489 0.621173
O O18 0.750000 0.904149 0.698315
O O19 0.962431 0.000000 0.723732
O O20 0.250000 0.264129 0.048600
O O21 0.000000 0.221436 0.000000
O O22 0.750000 0.390880 0.382640
O O23 0.946008 0.500000 0.386974
#
# Coordination Sequence:
#
# PCOD8210314 Si02
#       8
#     8   8   8   8   8   8   8   8
#     4   9  17  30  48  70  98 131 165 202 245 292
#     4   9  17  30  49  71  95 126 161 196 240 292
#     4   9  18  32  51  75 102 132 164 197 234 281
#     4   9  18  33  53  76  99 126 165 209 245 285
#     4  10  20  34  50  66  87 118 158 202 245 290
#     4   9  17  31  53  79 105 132 161 195 238 287
#     4  10  20  33  50  72  98 129 167 210 253 297
#     4  10  20  32  46  66  92 121 156 200 247 294
#
# _framework density 18.785333000000001
#
# number of rings (size 3 to 8) (size 9 to 14) (size 15 to 20)
#    0.000    2.625    0.000    1.875    0.000    5.250 
#    0.000    0.625    0.000    3.750    0.000    0.000 
#    0.000    0.000    0.000    0.000    0.000    0.375 
#
# Total GULP energy -793088.260210 kJ/mol
# GULP energy per Si atom -12392.004066 kJ/mol
# Density = 1.874258 g / cm^3
# Si number density = 18.785333 Si / 1000 Ang^3
#
#
#
# Elastic Constant Matrix: (Units=GPa)
#
#
# Indices 1 2 3 4 5 6 
#
# 1 67.8161 29.5676 38.0505 0.0000 0.0000 0.0000
# 2 29.5676 64.8994 43.6161 0.0000 0.0000 0.0000
# 3 38.0505 43.6161 111.0092 0.0000 0.0000 0.0000
# 4 0.0000 0.0000 0.0000 12.8210 0.0000 0.0000
# 5 0.0000 0.0000 0.0000 0.0000 29.2567 0.0000
# 6 0.0000 0.0000 0.0000 0.0000 0.0000 13.4021
#
#
#
# Elastic Compliance Matrix: (Units=1/GPa)
#
#
# Indices 1 2 3 4 5 6 
#
# 1 0.019881 -0.006084 -0.004424 0.000000 0.000000 0.000000
# 2 -0.006084 0.022799 -0.006872 0.000000 0.000000 0.000000
# 3 -0.004424 -0.006872 0.013225 0.000000 0.000000 0.000000
# 4 0.000000 0.000000 0.000000 0.077997 0.000000 0.000000
# 5 0.000000 0.000000 0.000000 0.000000 0.034180 0.000000
# 6 0.000000 0.000000 0.000000 0.000000 0.000000 0.074615
#
#
# Mechanical properties :
#
#
# Convention : Reuss Voigt Hill
#
# Bulk Modulus (GPa) = 47.29616 51.79922 49.54769
# Shear Modulus (GPa) = 17.57430 19.92866 18.75148
#
# Velocity S-wave (km/s) = 3.06197 3.26062 3.16285
# Velocity P-wave (km/s) = 6.14269 6.46604 6.30644
#
# Compressibility (1/GPa) = 0.02114337
#
# Stress axis : x y z
#
# Youngs Moduli (GPa) = 50.30009 43.86149 75.61545
#
# Poissons Ratio (x) = 0.26687 0.33452
# Poissons Ratio (y) = 0.30604 0.51965
# Poissons Ratio (z) = 0.22252 0.30143
#
# Static dielectric constant tensor:
#      x y z
#    x 3.391050 0.000000 0.000000 
#    y 0.000000 3.221760 0.000000 
#    z 0.000000 0.000000 3.731610 
# 
# 
# High freq. dielectric constant tensor:
#      x y z
#    x 1.713420 0.000000 0.000000 
#    y 0.000000 1.702260 0.000000 
#    z 0.000000 0.000000 1.742470 
# 
# From -- ./inp_files/32373.got.cif
#   From: 2010.03.12/outbox.cif.g09.slc.cpg/sg51_17_cif.got.tgz:32373.got - 2010.04.16 13:43:02.
