data_PCOD8210295
_publ_section_title
;
Structure prediction by ZEFSAII (Michael W. Deem and Ramdas Pophale) SiO2 
 PCOD8210295
Probable space group: P M M A
;
_chemical_formula_sum "Si O2"
_cell_formula_units_Z 56
_cell_length_a 9.307617
_cell_length_b 21.584294
_cell_length_c 18.204467
_cell_angle_alpha 90.000000
_cell_angle_beta 90.000000
_cell_angle_gamma 90.000000
_cell_volume 3657.247233
_symmetry_space_group_name_H-M "P M M A"
_symmetry_group_IT_number 51
_symmetry_cell_setting 'orthorhombic'
loop_
_space_group_symop_operation_xyz
x,y,z
1/2-x,-y,z
1/2+x,-y,-z
-x,y,-z
-x,-y,-z
1/2+x,y,-z
1/2-x,y,z
x,-y,z
loop_
_atom_site_type_symbol
_atom_site_label
_atom_site_fract_x
_atom_site_fract_y
_atom_site_fract_z
Si Si1 0.584678 0.252011 0.785704
Si Si2 0.587627 0.202910 0.427253
Si Si3 0.582173 0.681069 0.327160
Si Si4 0.911184 0.145935 0.283829
Si Si5 0.417516 0.429802 0.573259
Si Si6 0.081417 0.820050 0.073732
Si Si7 0.584814 0.069747 0.150580
O O1 0.750000 0.264077 0.768484
O O2 0.496817 0.309951 0.751625
O O3 0.534354 0.190213 0.745587
O O4 0.558546 0.239021 0.872234
O O5 0.500000 0.190203 0.500000
O O6 0.750000 0.211726 0.453216
O O7 0.536872 0.264659 0.383985
O O8 0.569929 0.143109 0.372455
O O9 0.750000 0.682618 0.310946
O O10 0.533997 0.615274 0.360907
O O11 0.750000 0.173807 0.268716
O O12 0.927162 0.081711 0.239142
O O13 0.500000 0.410207 0.500000
O O14 0.250000 0.421635 0.556186
O O15 0.455379 0.500000 0.596737
O O16 0.250000 0.832014 0.059808
O O17 0.014023 0.883435 0.105213
O O18 0.000000 0.801191 0.000000
O O19 0.750000 0.078293 0.125160
O O20 0.531632 0.000000 0.135423
#
# Coordination Sequence:
#
# PCOD8210295 Si02
#       7
#     8   8   8   8   8   8   8
#     4   9  17  28  43  63  82 103 135 171 204 241
#     4   9  16  24  36  55  77 101 131 168 208 247
#     4   9  17  28  41  58  82 112 143 174 209 247
#     4   8  15  28  42  57  79 104 131 166 208 250
#     4   9  17  28  41  59  86 120 155 186 214 246
#     4  10  20  32  46  65  89 113 134 161 200 245
#     4   9  17  30  48  65  80 105 140 171 200 239
#
# _framework density 15.312063
#
# number of rings (size 3 to 8) (size 9 to 14) (size 15 to 20)
#    0.000    3.000    0.000    2.143    0.000    5.143 
#    0.000    0.000    0.000    0.429    0.000    0.000 
#    0.000    0.571    0.000    1.286    0.000    2.857 
#
# Total GULP energy -693789.579669 kJ/mol
# GULP energy per Si atom -12389.099637 kJ/mol
# Density = 1.527721 g / cm^3
# Si number density = 15.312063 Si / 1000 Ang^3
#
#
#
# Elastic Constant Matrix: (Units=GPa)
#
#
# Indices 1 2 3 4 5 6 
#
# 1 69.5063 34.8896 56.5234 0.0000 0.0000 0.0000
# 2 34.8896 61.6468 44.5316 0.0000 0.0000 0.0000
# 3 56.5234 44.5316 107.9453 0.0000 0.0000 0.0000
# 4 0.0000 0.0000 0.0000 21.6257 0.0000 0.0000
# 5 0.0000 0.0000 0.0000 0.0000 27.9651 0.0000
# 6 0.0000 0.0000 0.0000 0.0000 0.0000 16.5990
#
#
#
# Elastic Compliance Matrix: (Units=1/GPa)
#
#
# Indices 1 2 3 4 5 6 
#
# 1 0.027163 -0.007263 -0.011227 0.000000 0.000000 0.000000
# 2 -0.007263 0.025050 -0.006531 0.000000 0.000000 0.000000
# 3 -0.011227 -0.006531 0.017837 0.000000 0.000000 0.000000
# 4 0.000000 0.000000 0.000000 0.046241 0.000000 0.000000
# 5 0.000000 0.000000 0.000000 0.000000 0.035759 0.000000
# 6 0.000000 0.000000 0.000000 0.000000 0.000000 0.060245
#
#
# Mechanical properties :
#
#
# Convention : Reuss Voigt Hill
#
# Bulk Modulus (GPa) = 49.98059 56.77641 53.37850
# Shear Modulus (GPa) = 18.58700 20.11488 19.35094
#
# Velocity S-wave (km/s) = 3.48786 3.62838 3.55881
# Velocity P-wave (km/s) = 6.99517 7.39686 7.19882
#
# Compressibility (1/GPa) = 0.02000777
#
# Stress axis : x y z
#
# Youngs Moduli (GPa) = 36.81493 39.92064 56.06345
#
# Poissons Ratio (x) = 0.28995 0.62942
# Poissons Ratio (y) = 0.26739 0.36614
# Poissons Ratio (z) = 0.41332 0.26071
#
# Static dielectric constant tensor:
#      x y z
#    x 2.982390 0.000000 0.000000 
#    y 0.000000 2.847050 0.000000 
#    z 0.000000 0.000000 3.070880 
# 
# 
# High freq. dielectric constant tensor:
#      x y z
#    x 1.593610 0.000000 0.000000 
#    y 0.000000 1.550700 0.000000 
#    z 0.000000 0.000000 1.578500 
# 
# From -- ./inp_files/28175.got.cif
#   From: 2010.03.12/outbox.cif.g09.slc.cpg/sg51_15_cif.got.tgz:28175.got - 2010.04.16 13:43:02.
