data_PCOD8210334
_publ_section_title
;
Structure prediction by ZEFSAII (Michael W. Deem and Ramdas Pophale) SiO2 
 PCOD8210334
Probable space group: P M M A
;
_chemical_formula_sum "Si O2"
_cell_formula_units_Z 64
_cell_length_a 23.522865
_cell_length_b 9.193885
_cell_length_c 16.802999
_cell_angle_alpha 90.000000
_cell_angle_beta 90.000000
_cell_angle_gamma 90.000000
_cell_volume 3633.926047
_symmetry_space_group_name_H-M "P M M A"
_symmetry_group_IT_number 51
_symmetry_cell_setting 'orthorhombic'
loop_
_space_group_symop_operation_xyz
x,y,z
1/2-x,-y,z
1/2+x,-y,-z
-x,y,-z
-x,-y,-z
1/2+x,y,-z
1/2-x,y,z
x,-y,z
loop_
_atom_site_type_symbol
_atom_site_label
_atom_site_fract_x
_atom_site_fract_y
_atom_site_fract_z
Si Si1 0.584039 0.170928 0.630658
Si Si2 0.686632 0.672681 0.068195
Si Si3 0.316142 0.165523 0.631616
Si Si4 0.817606 0.661338 0.895605
Si Si5 0.519303 0.334735 0.318330
Si Si6 0.402109 0.668392 0.530873
Si Si7 0.370440 0.670536 0.772533
Si Si8 0.814237 0.830357 0.742690
O O1 0.533718 0.225326 0.689027
O O2 0.576266 0.258118 0.549407
O O3 0.644961 0.209685 0.669288
O O4 0.577792 0.000000 0.615264
O O5 0.750000 0.734757 0.086514
O O6 0.690550 0.500000 0.063251
O O7 0.642971 0.720861 0.137332
O O8 0.663671 0.727580 0.981835
O O9 0.250000 0.170051 0.613750
O O10 0.345383 0.250837 0.559367
O O11 0.328625 0.241171 0.715500
O O12 0.338777 0.000000 0.633885
O O13 0.750000 0.655020 0.895754
O O14 0.843105 0.500000 0.883388
O O15 0.839338 0.759148 0.822925
O O16 0.497633 0.500000 0.309122
O O17 0.549332 0.313465 0.403321
O O18 0.563904 0.295617 0.248137
O O19 0.388203 0.500000 0.515205
O O20 0.357659 0.500000 0.759007
O O21 0.750000 0.775976 0.722874
O O22 0.814518 0.000000 0.759182
#
# Coordination Sequence:
#
# PCOD8210334 Si02
#       8
#     8   8   8   8   8   8   8   8
#     4  11  22  34  52  74  93 120 157 196 243 295
#     4   8  13  23  44  74 102 126 156 195 235 276
#     4  10  20  32  46  68 101 135 163 195 236 281
#     4   8  14  26  46  72  98 123 154 192 233 277
#     4   9  19  34  50  70  96 125 159 199 237 277
#     4  10  21  36  53  72  94 123 161 203 243 283
#     4   9  17  30  49  71  97 131 166 198 235 279
#     4   9  19  35  51  69  96 125 152 188 237 289
#
# _framework density 17.611806999999999
#
# number of rings (size 3 to 8) (size 9 to 14) (size 15 to 20)
#    0.000    2.750    0.000    3.375    0.000    7.000 
#    0.000    1.875    0.000    3.000    0.000    5.250 
#    0.000    0.000    0.000    0.000    0.000    0.000 
#
# Total GULP energy -793399.016938 kJ/mol
# GULP energy per Si atom -12396.859640 kJ/mol
# Density = 1.757172 g / cm^3
# Si number density = 17.611807 Si / 1000 Ang^3
#
#
#
# Elastic Constant Matrix: (Units=GPa)
#
#
# Indices 1 2 3 4 5 6 
#
# 1 70.2495 36.3309 24.8552 0.0000 0.0000 0.0000
# 2 36.3309 70.5822 26.5102 0.0000 0.0000 0.0000
# 3 24.8552 26.5102 70.1817 0.0000 0.0000 0.0000
# 4 0.0000 0.0000 0.0000 13.4382 0.0000 0.0000
# 5 0.0000 0.0000 0.0000 0.0000 16.5014 0.0000
# 6 0.0000 0.0000 0.0000 0.0000 0.0000 26.1413
#
#
#
# Elastic Compliance Matrix: (Units=1/GPa)
#
#
# Indices 1 2 3 4 5 6 
#
# 1 0.020217 -0.008993 -0.003763 0.000000 0.000000 0.000000
# 2 -0.008993 0.020511 -0.004563 0.000000 0.000000 0.000000
# 3 -0.003763 -0.004563 0.017305 0.000000 0.000000 0.000000
# 4 0.000000 0.000000 0.000000 0.074414 0.000000 0.000000
# 5 0.000000 0.000000 0.000000 0.000000 0.060601 0.000000
# 6 0.000000 0.000000 0.000000 0.000000 0.000000 0.038254
#
#
# Mechanical properties :
#
#
# Convention : Reuss Voigt Hill
#
# Bulk Modulus (GPa) = 42.74377 42.93402 42.83889
# Shear Modulus (GPa) = 18.26562 19.43732 18.85147
#
# Velocity S-wave (km/s) = 3.22393 3.32573 3.27523
# Velocity P-wave (km/s) = 6.17908 6.25925 6.21929
#
# Compressibility (1/GPa) = 0.02339522
#
# Stress axis : x y z
#
# Youngs Moduli (GPa) = 49.46237 48.75514 57.78705
#
# Poissons Ratio (x) = 0.43846 0.21746
# Poissons Ratio (y) = 0.44482 0.26366
# Poissons Ratio (z) = 0.18613 0.22245
#
# Static dielectric constant tensor:
#      x y z
#    x 3.164910 0.000000 0.000000 
#    y 0.000000 3.275440 0.000000 
#    z 0.000000 0.000000 3.459050 
# 
# 
# High freq. dielectric constant tensor:
#      x y z
#    x 1.660570 0.000000 0.000000 
#    y 0.000000 1.671690 0.000000 
#    z 0.000000 0.000000 1.677410 
# 
# From -- ./inp_files/30899.got.cif
#   From: 2010.03.12/outbox.cif.g09.slc.cpg/sg51_16_cif.got.tgz:30899.got - 2010.04.16 13:43:02.
