data_PCOD8210714
_publ_section_title
;
Structure prediction by ZEFSAII (Michael W. Deem and Ramdas Pophale) SiO2 
 PCOD8210714
Probable space group: P M M A
;
_chemical_formula_sum "Si O2"
_cell_formula_units_Z 48
_cell_length_a 9.463306
_cell_length_b 19.224559
_cell_length_c 15.441620
_cell_angle_alpha 90.000000
_cell_angle_beta 90.000000
_cell_angle_gamma 90.000000
_cell_volume 2809.261260
_symmetry_space_group_name_H-M "P M M A"
_symmetry_group_IT_number 51
_symmetry_cell_setting 'orthorhombic'
loop_
_space_group_symop_operation_xyz
x,y,z
1/2-x,-y,z
1/2+x,-y,-z
-x,y,-z
-x,-y,-z
1/2+x,y,-z
1/2-x,y,z
x,-y,z
loop_
_atom_site_type_symbol
_atom_site_label
_atom_site_fract_x
_atom_site_fract_y
_atom_site_fract_z
Si Si1 0.586417 0.822931 0.583621
Si Si2 0.415445 0.661325 0.414168
Si Si3 0.918387 0.077435 0.733866
Si Si4 0.406095 0.417426 0.923106
Si Si5 0.093824 0.082588 0.076586
Si Si6 0.086723 0.581716 0.729155
O O1 0.500000 0.846484 0.500000
O O2 0.750000 0.839355 0.565960
O O3 0.562156 0.742444 0.605071
O O4 0.526006 0.867661 0.663587
O O5 0.500000 0.638656 0.500000
O O6 0.250000 0.642835 0.425649
O O7 0.479848 0.620499 0.333814
O O8 0.750000 0.076328 0.737378
O O9 0.972854 0.100706 0.829185
O O10 0.974375 0.000000 0.710316
O O11 0.250000 0.386869 0.936290
O O12 0.402598 0.500000 0.931218
O O13 0.460302 0.397697 0.826927
O O14 0.500000 0.384515 0.000000
O O15 0.250000 0.114979 0.067433
O O16 0.102444 0.000000 0.067358
O O17 0.000000 0.115500 0.000000
O O18 0.250000 0.603586 0.712573
O O19 0.069663 0.500000 0.713764
#
# Coordination Sequence:
#
# PCOD8210714 Si02
#       6
#     8   8   8   8   8   8
#     4   9  18  32  48  66  88 116 150 184 219 264
#     4  10  20  33  49  67  88 118 153 187 225 271
#     4   8  14  26  45  67  90 117 147 179 219 264
#     4   8  14  25  42  65  92 119 145 176 216 260
#     4   8  13  22  38  60  85 113 143 175 213 256
#     4   9  18  32  49  70  95 120 148 186 228 265
#
# _framework density 17.086342999999999
#
# number of rings (size 3 to 8) (size 9 to 14) (size 15 to 20)
#    0.000    3.333    0.000    2.500    0.000    2.333 
#    0.000    2.500    0.000    2.000    0.000    4.667 
#    0.000    0.000    0.000    0.000    0.000    0.000 
#
# Total GULP energy -594895.015491 kJ/mol
# GULP energy per Si atom -12393.646156 kJ/mol
# Density = 1.704745 g / cm^3
# Si number density = 17.086343 Si / 1000 Ang^3
#
#
#
# Elastic Constant Matrix: (Units=GPa)
#
#
# Indices 1 2 3 4 5 6 
#
# 1 81.4648 31.8187 77.4986 0.0000 0.0000 0.0000
# 2 31.8187 38.4873 54.0543 0.0000 0.0000 0.0000
# 3 77.4986 54.0543 172.3962 0.0000 0.0000 0.0000
# 4 0.0000 0.0000 0.0000 0.2371 0.0000 0.0000
# 5 0.0000 0.0000 0.0000 0.0000 35.8452 0.0000
# 6 0.0000 0.0000 0.0000 0.0000 0.0000 13.3363
#
#
#
# Elastic Compliance Matrix: (Units=1/GPa)
#
#
# Indices 1 2 3 4 5 6 
#
# 1 0.022727 -0.007934 -0.007729 0.000000 0.000000 0.000000
# 2 -0.007934 0.049198 -0.011859 0.000000 0.000000 0.000000
# 3 -0.007729 -0.011859 0.012993 0.000000 0.000000 0.000000
# 4 0.000000 0.000000 0.000000 4.218264 0.000000 0.000000
# 5 0.000000 0.000000 0.000000 0.000000 0.027898 0.000000
# 6 0.000000 0.000000 0.000000 0.000000 0.000000 0.074984
#
#
# Mechanical properties :
#
#
# Convention : Reuss Voigt Hill
#
# Bulk Modulus (GPa) = 33.47407 68.78794 51.13101
# Shear Modulus (GPa) = 1.11830 18.48214 9.80022
#
# Velocity S-wave (km/s) = 0.80989 3.29247 2.39753
# Velocity P-wave (km/s) = 4.52860 7.40272 6.13631
#
# Compressibility (1/GPa) = 0.02987387
#
# Stress axis : x y z
#
# Youngs Moduli (GPa) = 44.00123 20.32615 76.96208
#
# Poissons Ratio (x) = 0.16127 0.59483
# Poissons Ratio (y) = 0.34910 0.91271
# Poissons Ratio (z) = 0.34008 0.24105
#
# Static dielectric constant tensor:
#      x y z
#    x 3.241010 0.000000 0.000000 
#    y 0.000000 2.872010 0.000000 
#    z 0.000000 0.000000 3.495050 
# 
# 
# High freq. dielectric constant tensor:
#      x y z
#    x 1.643890 0.000000 0.000000 
#    y 0.000000 1.616520 0.000000 
#    z 0.000000 0.000000 1.674360 
# 
# From -- ./inp_files/21393.got.cif
#   From: 2010.03.12/outbox.cif.g09.slc.cpg/sg51_11_cif.got.tgz:21393.got - 2010.04.16 13:43:02.
