data_PCOD8210539
_publ_section_title
;
Structure prediction by ZEFSAII (Michael W. Deem and Ramdas Pophale) SiO2 
 PCOD8210539
Probable space group: P M M A
;
_chemical_formula_sum "Si O2"
_cell_formula_units_Z 40
_cell_length_a 18.803171
_cell_length_b 8.832800
_cell_length_c 13.063170
_cell_angle_alpha 90.000000
_cell_angle_beta 90.000000
_cell_angle_gamma 90.000000
_cell_volume 2169.592002
_symmetry_space_group_name_H-M "P M M A"
_symmetry_group_IT_number 51
_symmetry_cell_setting 'orthorhombic'
loop_
_space_group_symop_operation_xyz
x,y,z
1/2-x,-y,z
1/2+x,-y,-z
-x,y,-z
-x,-y,-z
1/2+x,y,-z
1/2-x,y,z
x,-y,z
loop_
_atom_site_type_symbol
_atom_site_label
_atom_site_fract_x
_atom_site_fract_y
_atom_site_fract_z
Si Si1 0.927673 0.673873 0.097057
Si Si2 0.068796 0.178010 0.320743
Si Si3 0.915563 0.325634 0.322587
Si Si4 0.329749 0.179206 0.501061
Si Si5 0.421829 0.825277 0.095670
O O1 0.951310 0.500000 0.083977
O O2 0.887440 0.694810 0.205197
O O3 0.995255 0.783510 0.099034
O O4 0.883189 0.727938 0.995597
O O5 0.122970 0.238076 0.406520
O O6 0.106200 0.211592 0.210403
O O7 0.995505 0.266402 0.335788
O O8 0.052186 0.000000 0.331930
O O9 0.914960 0.500000 0.355295
O O10 0.861245 0.234954 0.392205
O O11 0.250000 0.243267 0.488300
O O12 0.329181 0.000000 0.502377
O O13 0.410930 0.000000 0.069174
#
# Coordination Sequence:
#
# PCOD8210539 Si02
#       5
#     8   8   8   8   8
#     4   9  16  26  41  65  97 126 151 186 233 280
#     4   9  18  32  50  73  99 126 158 198 241 284
#     4  10  20  32  49  74 100 127 160 198 238 281
#     4  10  21  36  52  69  93 127 163 199 242 289
#     4   9  15  24  42  68  95 122 153 191 233 277
#
# _framework density 18.436646
#
# number of rings (size 3 to 8) (size 9 to 14) (size 15 to 20)
#    0.000    2.600    0.000    3.600    0.000    6.800 
#    0.000    0.000    0.000    1.200    0.000    2.800 
#    0.000    0.000    0.000    0.000    0.000    0.000 
#
# Total GULP energy -495605.793854 kJ/mol
# GULP energy per Si atom -12390.144846 kJ/mol
# Density = 1.839468 g / cm^3
# Si number density = 18.436646 Si / 1000 Ang^3
#
#
#
# Elastic Constant Matrix: (Units=GPa)
#
#
# Indices 1 2 3 4 5 6 
#
# 1 59.2572 13.9512 39.5159 0.0000 0.0000 0.0000
# 2 13.9512 21.2861 29.8127 0.0000 0.0000 0.0000
# 3 39.5159 29.8127 147.8930 0.0000 0.0000 0.0000
# 4 0.0000 0.0000 0.0000 28.5302 0.0000 0.0000
# 5 0.0000 0.0000 0.0000 0.0000 3.5110 0.0000
# 6 0.0000 0.0000 0.0000 0.0000 0.0000 -0.1952
#
#
#
# Elastic Compliance Matrix: (Units=1/GPa)
#
#
# Indices 1 2 3 4 5 6 
#
# 1 0.021573 -0.008453 -0.004060 0.000000 0.000000 0.000000
# 2 -0.008453 0.068772 -0.011605 0.000000 0.000000 0.000000
# 3 -0.004060 -0.011605 0.010186 0.000000 0.000000 0.000000
# 4 0.000000 0.000000 0.000000 0.035051 0.000000 0.000000
# 5 0.000000 0.000000 0.000000 0.000000 0.284822 0.000000
# 6 0.000000 0.000000 0.000000 0.000000 0.000000 -5.122194
#
#
# Mechanical properties :
#
#
# Convention : Reuss Voigt Hill
#
# Bulk Modulus (GPa) = 19.12194 43.88843 31.50519
# Shear Modulus (GPa) = -1.07849 16.04629 7.48390
#
# Velocity S-wave (km/s) = -0.76566 2.95337 2.01694
# Velocity P-wave (km/s) = 3.10041 5.95706 4.74864
#
# Compressibility (1/GPa) = 0.05229594
#
# Stress axis : x y z
#
# Youngs Moduli (GPa) = 46.35363 14.54071 98.17531
#
# Poissons Ratio (x) = 0.12291 0.39862
# Poissons Ratio (y) = 0.39181 1.13931
# Poissons Ratio (z) = 0.18821 0.16874
#
# Static dielectric constant tensor:
#      x y z
#    x 2.938970 0.000000 0.000000 
#    y 0.000000 3.362930 0.000000 
#    z 0.000000 0.000000 4.389660 
# 
# 
# High freq. dielectric constant tensor:
#      x y z
#    x 1.643040 0.000000 0.000000 
#    y 0.000000 1.717850 0.000000 
#    z 0.000000 0.000000 1.749890 
# 
# From -- ./inp_files/24532.got.cif
#   From: 2010.03.12/outbox.cif.g09.slc.cpg/sg51_13_cif.got.tgz:24532.got - 2010.04.16 13:43:02.
