data_PCOD8210668
_publ_section_title
;
Structure prediction by ZEFSAII (Michael W. Deem and Ramdas Pophale) SiO2 
 PCOD8210668
Probable space group: P M M A
;
_chemical_formula_sum "Si O2"
_cell_formula_units_Z 56
_cell_length_a 8.971671
_cell_length_b 13.452411
_cell_length_c 30.219236
_cell_angle_alpha 90.000000
_cell_angle_beta 90.000000
_cell_angle_gamma 90.000000
_cell_volume 3647.177895
_symmetry_space_group_name_H-M "P M M A"
_symmetry_group_IT_number 51
_symmetry_cell_setting 'orthorhombic'
loop_
_space_group_symop_operation_xyz
x,y,z
1/2-x,-y,z
1/2+x,-y,-z
-x,y,-z
-x,-y,-z
1/2+x,y,-z
1/2-x,y,z
x,-y,z
loop_
_atom_site_type_symbol
_atom_site_label
_atom_site_fract_x
_atom_site_fract_y
_atom_site_fract_z
Si Si1 0.427105 0.725497 0.109910
Si Si2 0.426299 0.886578 0.952958
Si Si3 0.916116 0.618667 0.629815
Si Si4 0.586249 0.382923 0.285833
Si Si5 0.417297 0.618510 0.543322
Si Si6 0.914456 0.385745 0.040837
Si Si7 0.426965 0.614639 0.813525
O O1 0.250000 0.739309 0.109950
O O2 0.505115 0.820305 0.086741
O O3 0.480749 0.628299 0.083085
O O4 0.485998 0.699556 0.158878
O O5 0.250000 0.868826 0.956454
O O6 0.463524 0.000000 0.940552
O O7 0.500000 0.858584 0.000000
O O8 0.750000 0.659942 0.625317
O O9 0.918394 0.500000 0.630185
O O10 0.981715 0.661834 0.675803
O O11 0.007282 0.659895 0.587912
O O12 0.750000 0.335273 0.291407
O O13 0.599117 0.500000 0.292273
O O14 0.524736 0.360540 0.236785
O O15 0.500000 0.660541 0.500000
O O16 0.250000 0.658917 0.542128
O O17 0.421772 0.500000 0.543190
O O18 0.750000 0.336301 0.046916
O O19 0.891209 0.500000 0.030901
O O20 0.000000 0.333546 0.000000
O O21 0.250000 0.626473 0.820431
O O22 0.471987 0.500000 0.825336
#
# Coordination Sequence:
#
# PCOD8210668 Si02
#       7
#     8   8   8   8   8   8   8
#     4  12  23  32  46  67  90 112 133 160 194 233
#     4  10  21  38  58  75  90 108 131 160 193 231
#     4   9  15  21  30  44  61  82 110 145 186 232
#     4   8  14  25  39  52  67  91 123 157 192 228
#     4   9  15  21  28  38  54  76 104 141 186 234
#     4  10  20  33  47  62  83 110 138 165 190 221
#     4   9  18  32  47  62  83 111 141 171 201 235
#
# _framework density 15.354336999999999
#
# number of rings (size 3 to 8) (size 9 to 14) (size 15 to 20)
#    0.000    2.429    0.000    4.714    0.000    7.714 
#    0.000    1.429    0.000    0.000    0.000    0.000 
#    0.000    0.000    0.000    0.000    0.000    0.000 
#
# Total GULP energy -693892.705578 kJ/mol
# GULP energy per Si atom -12390.941171 kJ/mol
# Density = 1.531939 g / cm^3
# Si number density = 15.354337 Si / 1000 Ang^3
#
#
#
# Elastic Constant Matrix: (Units=GPa)
#
#
# Indices 1 2 3 4 5 6 
#
# 1 124.2646 24.1788 71.3855 0.0000 0.0000 0.0000
# 2 24.1788 46.6815 28.3019 0.0000 0.0000 0.0000
# 3 71.3855 28.3019 135.1064 0.0000 0.0000 0.0000
# 4 0.0000 0.0000 0.0000 7.3312 0.0000 0.0000
# 5 0.0000 0.0000 0.0000 0.0000 30.0399 0.0000
# 6 0.0000 0.0000 0.0000 0.0000 0.0000 11.7720
#
#
#
# Elastic Compliance Matrix: (Units=1/GPa)
#
#
# Indices 1 2 3 4 5 6 
#
# 1 0.011840 -0.002680 -0.005694 0.000000 0.000000 0.000000
# 2 -0.002680 0.025145 -0.003851 0.000000 0.000000 0.000000
# 3 -0.005694 -0.003851 0.011217 0.000000 0.000000 0.000000
# 4 0.000000 0.000000 0.000000 0.136403 0.000000 0.000000
# 5 0.000000 0.000000 0.000000 0.000000 0.033289 0.000000
# 6 0.000000 0.000000 0.000000 0.000000 0.000000 0.084947
#
#
# Mechanical properties :
#
#
# Convention : Reuss Voigt Hill
#
# Bulk Modulus (GPa) = 42.10462 61.53165 51.81814
# Shear Modulus (GPa) = 14.91603 21.97438 18.44521
#
# Velocity S-wave (km/s) = 3.12020 3.78716 3.46974
# Velocity P-wave (km/s) = 6.36100 7.69967 7.06213
#
# Compressibility (1/GPa) = 0.02375036
#
# Stress axis : x y z
#
# Youngs Moduli (GPa) = 84.45882 39.76956 89.14998
#
# Poissons Ratio (x) = 0.10659 0.50766
# Poissons Ratio (y) = 0.22637 0.34333
# Poissons Ratio (z) = 0.48095 0.15316
#
# Static dielectric constant tensor:
#      x y z
#    x 3.242740 0.000000 0.000000 
#    y 0.000000 2.444650 0.000000 
#    z 0.000000 0.000000 3.124820 
# 
# 
# High freq. dielectric constant tensor:
#      x y z
#    x 1.604360 0.000000 0.000000 
#    y 0.000000 1.513060 0.000000 
#    z 0.000000 0.000000 1.593730 
# 
# From -- ./inp_files/37451.got.cif
#   From: 2010.03.12/outbox.cif.g09.slc.cpg/sg51_19_cif.got.tgz:37451.got - 2010.04.16 13:43:02.
