data_PCOD8210914
_publ_section_title
;
Structure prediction by ZEFSAII (Michael W. Deem and Ramdas Pophale) SiO2 
 PCOD8210914
Probable space group: P M M A
;
_chemical_formula_sum "Si O2"
_cell_formula_units_Z 64
_cell_length_a 18.841722
_cell_length_b 9.096787
_cell_length_c 20.260213
_cell_angle_alpha 90.000000
_cell_angle_beta 90.000000
_cell_angle_gamma 90.000000
_cell_volume 3472.582917
_symmetry_space_group_name_H-M "P M M A"
_symmetry_group_IT_number 51
_symmetry_cell_setting 'orthorhombic'
loop_
_space_group_symop_operation_xyz
x,y,z
1/2-x,-y,z
1/2+x,-y,-z
-x,y,-z
-x,-y,-z
1/2+x,y,-z
1/2-x,y,z
x,-y,z
loop_
_atom_site_type_symbol
_atom_site_label
_atom_site_fract_x
_atom_site_fract_y
_atom_site_fract_z
Si Si1 0.334311 0.335820 0.045858
Si Si2 0.922383 0.669900 0.475608
Si Si3 0.403742 0.673834 0.299052
Si Si4 0.667017 0.171834 0.823053
Si Si5 0.329693 0.825488 0.775244
Si Si6 0.065663 0.330716 0.677179
Si Si7 0.333563 0.168062 0.420409
Si Si8 0.834345 0.163407 0.078995
O O1 0.250000 0.340143 0.041958
O O2 0.364970 0.500000 0.055046
O O3 0.358377 0.234589 0.106681
O O4 0.365623 0.268833 0.977914
O O5 0.907997 0.500000 0.493425
O O6 0.914966 0.700100 0.398352
O O7 0.865359 0.771118 0.511664
O O8 0.000000 0.716148 0.500000
O O9 0.392702 0.500000 0.295813
O O10 0.377676 0.745639 0.231888
O O11 0.485253 0.717629 0.309578
O O12 0.358653 0.734866 0.359446
O O13 0.750000 0.202257 0.810754
O O14 0.649819 0.000000 0.820859
O O15 0.250000 0.767112 0.760863
O O16 0.382535 0.764271 0.721339
O O17 0.354959 0.774808 0.848506
O O18 0.330321 0.000000 0.772435
O O19 0.076665 0.500000 0.695488
O O20 0.250000 0.180564 0.426352
O O21 0.357663 0.000000 0.409502
O O22 0.750000 0.154778 0.073908
O O23 0.865894 0.000000 0.068342
#
# Coordination Sequence:
#
# PCOD8210914 Si02
#       8
#     8   8   8   8   8   8   8   8
#     4   9  16  26  44  73 105 139 180 222 268 321
#     4  10  20  40  62  80 107 143 184 225 269 325
#     4  11  22  38  57  78 108 146 186 226 270 323
#     4  10  20  33  50  76 110 144 181 227 274 322
#     4   9  19  35  55  81 112 144 179 221 271 327
#     4  10  22  38  58  82 108 141 181 224 269 322
#     4  11  24  39  57  86 117 143 179 226 274 325
#     4   8  14  27  47  71 102 139 176 217 266 318
#
# _framework density 18.430084999999998
#
# number of rings (size 3 to 8) (size 9 to 14) (size 15 to 20)
#    0.000    2.250    1.250    2.625    0.000    7.750 
#    0.000    3.750    0.000    0.750    0.000    5.250 
#    0.000    0.000    0.000    0.000    0.000    0.000 
#
# Total GULP energy -793646.984048 kJ/mol
# GULP energy per Si atom -12400.734126 kJ/mol
# Density = 1.838814 g / cm^3
# Si number density = 18.430085 Si / 1000 Ang^3
#
#
#
# Elastic Constant Matrix: (Units=GPa)
#
#
# Indices 1 2 3 4 5 6 
#
# 1 60.2688 42.0939 44.3466 0.0000 0.0000 0.0000
# 2 42.0939 92.9906 52.7529 0.0000 0.0000 0.0000
# 3 44.3466 52.7529 120.8368 0.0000 0.0000 0.0000
# 4 0.0000 0.0000 0.0000 39.9747 0.0000 0.0000
# 5 0.0000 0.0000 0.0000 0.0000 28.7108 0.0000
# 6 0.0000 0.0000 0.0000 0.0000 0.0000 25.4696
#
#
#
# Elastic Compliance Matrix: (Units=1/GPa)
#
#
# Indices 1 2 3 4 5 6 
#
# 1 0.027318 -0.008877 -0.006150 0.000000 0.000000 0.000000
# 2 -0.008877 0.017178 -0.004242 0.000000 0.000000 0.000000
# 3 -0.006150 -0.004242 0.012384 0.000000 0.000000 0.000000
# 4 0.000000 0.000000 0.000000 0.025016 0.000000 0.000000
# 5 0.000000 0.000000 0.000000 0.000000 0.034830 0.000000
# 6 0.000000 0.000000 0.000000 0.000000 0.000000 0.039262
#
#
# Mechanical properties :
#
#
# Convention : Reuss Voigt Hill
#
# Bulk Modulus (GPa) = 54.51657 61.38701 57.95179
# Shear Modulus (GPa) = 24.92021 27.82455 26.37238
#
# Velocity S-wave (km/s) = 3.68115 3.88975 3.78688
# Velocity P-wave (km/s) = 6.90740 7.31805 7.11569
#
# Compressibility (1/GPa) = 0.01834305
#
# Stress axis : x y z
#
# Youngs Moduli (GPa) = 36.60643 58.21296 80.74654
#
# Poissons Ratio (x) = 0.51675 0.49660
# Poissons Ratio (y) = 0.32495 0.34250
# Poissons Ratio (z) = 0.22513 0.24692
#
# Static dielectric constant tensor:
#      x y z
#    x -0.497460 0.000000 0.000000 
#    y 0.000000 3.522410 0.000000 
#    z 0.000000 0.000000 3.639910 
# 
# 
# High freq. dielectric constant tensor:
#      x y z
#    x 1.683130 0.000000 0.000000 
#    y 0.000000 1.719910 0.000000 
#    z 0.000000 0.000000 1.731670 
# 
# From -- ./inp_files/33753.got.cif
#   From: 2010.03.12/outbox.cif.g09.slc.cpg/sg51_17_cif.got.tgz:33753.got - 2010.04.16 13:43:02.
