data_PCOD8210974
_publ_section_title
;
Structure prediction by ZEFSAII (Michael W. Deem and Ramdas Pophale) SiO2 
 PCOD8210974
Probable space group: P M M A
;
_chemical_formula_sum "Si O2"
_cell_formula_units_Z 56
_cell_length_a 14.400298
_cell_length_b 9.072393
_cell_length_c 21.262821
_cell_angle_alpha 90.000000
_cell_angle_beta 90.000000
_cell_angle_gamma 90.000000
_cell_volume 2777.884711
_symmetry_space_group_name_H-M "P M M A"
_symmetry_group_IT_number 51
_symmetry_cell_setting 'orthorhombic'
loop_
_space_group_symop_operation_xyz
x,y,z
1/2-x,-y,z
1/2+x,-y,-z
-x,y,-z
-x,-y,-z
1/2+x,y,-z
1/2-x,y,z
x,-y,z
loop_
_atom_site_type_symbol
_atom_site_label
_atom_site_fract_x
_atom_site_fract_y
_atom_site_fract_z
Si Si1 0.597423 0.165952 0.034973
Si Si2 0.855105 0.169840 0.804093
Si Si3 0.140368 0.672491 0.839975
Si Si4 0.467122 0.827240 0.729832
Si Si5 0.524107 0.674446 0.400727
Si Si6 0.647429 0.341226 0.921837
Si Si7 0.646382 0.674194 0.517916
O O1 0.591058 0.250130 0.100792
O O2 0.634359 0.000000 0.045871
O O3 0.500000 0.166713 0.000000
O O4 0.661822 0.254598 0.987025
O O5 0.750000 0.218539 0.785225
O O6 0.899784 0.250126 0.865272
O O7 0.924798 0.203150 0.746914
O O8 0.855878 0.000000 0.823168
O O9 0.250000 0.700574 0.844104
O O10 0.116385 0.500000 0.840454
O O11 0.102324 0.744622 0.776584
O O12 0.450132 0.763670 0.661110
O O13 0.443956 0.000000 0.731520
O O14 0.525837 0.500000 0.387290
O O15 0.602245 0.720431 0.451286
O O16 0.422383 0.724906 0.425988
O O17 0.750000 0.370583 0.896379
O O18 0.596533 0.500000 0.931828
O O19 0.750000 0.743704 0.525821
O O20 0.653259 0.500000 0.519865
#
# Coordination Sequence:
#
# PCOD8210974 Si02
#       7
#     8   8   8   8   8   8   8
#     4  11  23  37  55  80 108 139 177 224 283 345
#     4   9  19  36  55  76 107 148 190 231 282 345
#     4  11  25  43  61  82 110 148 196 245 288 333
#     4  11  23  38  57  82 115 153 190 231 281 337
#     4   9  18  33  55  83 112 145 187 230 272 324
#     4  10  20  33  51  76 102 129 169 222 275 326
#     4   8  15  31  56  84 113 145 183 228 275 323
#
# _framework density 20.159224999999999
#
# number of rings (size 3 to 8) (size 9 to 14) (size 15 to 20)
#    0.000    2.143    0.000    3.857    0.000   10.571 
#    0.000    2.857    0.000    0.857    0.000    0.000 
#    0.000    0.000    0.000    0.000    0.000    0.000 
#
# Total GULP energy -694095.848425 kJ/mol
# GULP energy per Si atom -12394.568722 kJ/mol
# Density = 2.011334 g / cm^3
# Si number density = 20.159225 Si / 1000 Ang^3
#
#
#
# Elastic Constant Matrix: (Units=GPa)
#
#
# Indices 1 2 3 4 5 6 
#
# 1 77.6537 24.5420 19.2111 0.0000 0.0000 0.0000
# 2 24.5420 106.5835 46.8588 0.0000 0.0000 0.0000
# 3 19.2111 46.8588 120.6830 0.0000 0.0000 0.0000
# 4 0.0000 0.0000 0.0000 22.9734 0.0000 0.0000
# 5 0.0000 0.0000 0.0000 0.0000 23.9831 0.0000
# 6 0.0000 0.0000 0.0000 0.0000 0.0000 10.7230
#
#
#
# Elastic Compliance Matrix: (Units=1/GPa)
#
#
# Indices 1 2 3 4 5 6 
#
# 1 0.014026 -0.002711 -0.001180 0.000000 0.000000 0.000000
# 2 -0.002711 0.011838 -0.004165 0.000000 0.000000 0.000000
# 3 -0.001180 -0.004165 0.010091 0.000000 0.000000 0.000000
# 4 0.000000 0.000000 0.000000 0.043529 0.000000 0.000000
# 5 0.000000 0.000000 0.000000 0.000000 0.041696 0.000000
# 6 0.000000 0.000000 0.000000 0.000000 0.000000 0.093257
#
#
# Mechanical properties :
#
#
# Convention : Reuss Voigt Hill
#
# Bulk Modulus (GPa) = 50.39458 54.01599 52.20528
# Shear Modulus (GPa) = 21.08255 25.82313 23.45284
#
# Velocity S-wave (km/s) = 3.23739 3.58293 3.41454
# Velocity P-wave (km/s) = 6.24715 6.63094 6.44190
#
# Compressibility (1/GPa) = 0.01984340
#
# Stress axis : x y z
#
# Youngs Moduli (GPa) = 71.29406 84.47714 99.09683
#
# Poissons Ratio (x) = 0.22900 0.11696
# Poissons Ratio (y) = 0.19327 0.41271
# Poissons Ratio (z) = 0.08414 0.35183
#
# Static dielectric constant tensor:
#      x y z
#    x 3.897980 0.000000 0.000000 
#    y 0.000000 3.755470 0.000000 
#    z 0.000000 0.000000 3.521970 
# 
# 
# High freq. dielectric constant tensor:
#      x y z
#    x 1.793210 0.000000 0.000000 
#    y 0.000000 1.777380 0.000000 
#    z 0.000000 0.000000 1.778940 
# 
# From -- ./inp_files/33431.got.cif
#   From: 2010.03.12/outbox.cif.g09.slc.cpg/sg51_17_cif.got.tgz:33431.got - 2010.04.16 13:43:02.
