data_PCOD8210080
_publ_section_title
;
Structure prediction by ZEFSAII (Michael W. Deem and Ramdas Pophale) SiO2 
 PCOD8210080
Probable space group: P M M A
;
_chemical_formula_sum "Si O2"
_cell_formula_units_Z 48
_cell_length_a 17.749981
_cell_length_b 13.610234
_cell_length_c 9.963866
_cell_angle_alpha 90.000000
_cell_angle_beta 90.000000
_cell_angle_gamma 90.000000
_cell_volume 2407.084647
_symmetry_space_group_name_H-M "P M M A"
_symmetry_group_IT_number 51
_symmetry_cell_setting 'orthorhombic'
loop_
_space_group_symop_operation_xyz
x,y,z
1/2-x,-y,z
1/2+x,-y,-z
-x,y,-z
-x,-y,-z
1/2+x,y,-z
1/2-x,y,z
x,-y,z
loop_
_atom_site_type_symbol
_atom_site_label
_atom_site_fract_x
_atom_site_fract_y
_atom_site_fract_z
Si Si1 0.836801 0.610236 0.684568
Si Si2 0.095221 0.800378 0.246077
Si Si3 0.836383 0.112888 0.491639
Si Si4 0.337901 0.112648 0.987043
Si Si5 0.079523 0.796047 0.748368
Si Si6 0.575595 0.610786 0.422806
O O1 0.750000 0.638200 0.703722
O O2 0.854123 0.500000 0.736130
O O3 0.887293 0.684228 0.774353
O O4 0.855401 0.617386 0.526220
O O5 0.126004 0.822567 0.393733
O O6 0.007559 0.823756 0.236702
O O7 0.139266 0.866544 0.139781
O O8 0.750000 0.144910 0.470507
O O9 0.881597 0.129565 0.354824
O O10 0.842433 0.000000 0.533368
O O11 0.250000 0.131960 0.968332
O O12 0.382562 0.188236 0.892616
O O13 0.358239 0.000000 0.951864
O O14 0.090521 0.683313 0.701700
O O15 0.500000 0.644843 0.500000
O O16 0.566003 0.500000 0.366366
#
# Coordination Sequence:
#
# PCOD8210080 Si02
#       6
#     8   8   8   8   8   8
#     4  10  20  35  60  92 123 158 200 247 299 356
#     4  12  23  39  62  91 121 159 207 254 308 371
#     4  11  23  38  59  87 120 157 202 256 310 368
#     4  11  26  46  64  83 118 168 212 257 317 377
#     4  12  23  38  61  93 122 158 201 256 314 364
#     4  10  19  36  61  92 129 162 196 242 302 367
#
# _framework density 19.941134000000002
#
# number of rings (size 3 to 8) (size 9 to 14) (size 15 to 20)
#    0.000    1.000    3.333    4.000    0.000    7.333 
#    0.000    0.833    0.000    3.000    0.000    0.000 
#    0.000    0.000    0.000    0.000    0.000    0.000 
#
# Total GULP energy -595434.062500 kJ/mol
# GULP energy per Si atom -12404.876302 kJ/mol
# Density = 1.989575 g / cm^3
# Si number density = 19.941134 Si / 1000 Ang^3
#
#
#
# Elastic Constant Matrix: (Units=GPa)
#
#
# Indices 1 2 3 4 5 6 
#
# 1 125.0764 42.1526 20.9164 0.0000 0.0000 0.0000
# 2 42.1526 86.8409 11.6991 0.0000 0.0000 0.0000
# 3 20.9164 11.6991 51.7342 0.0000 0.0000 0.0000
# 4 0.0000 0.0000 0.0000 32.4382 0.0000 0.0000
# 5 0.0000 0.0000 0.0000 0.0000 24.8222 0.0000
# 6 0.0000 0.0000 0.0000 0.0000 0.0000 28.2786
#
#
#
# Elastic Compliance Matrix: (Units=1/GPa)
#
#
# Indices 1 2 3 4 5 6 
#
# 1 0.010001 -0.004445 -0.003038 0.000000 0.000000 0.000000
# 2 -0.004445 0.013853 -0.001335 0.000000 0.000000 0.000000
# 3 -0.003038 -0.001335 0.020860 0.000000 0.000000 0.000000
# 4 0.000000 0.000000 0.000000 0.030828 0.000000 0.000000
# 5 0.000000 0.000000 0.000000 0.000000 0.040287 0.000000
# 6 0.000000 0.000000 0.000000 0.000000 0.000000 0.035362
#
#
# Mechanical properties :
#
#
# Convention : Reuss Voigt Hill
#
# Bulk Modulus (GPa) = 36.93291 45.90973 41.42132
# Shear Modulus (GPa) = 28.11283 29.70003 28.90643
#
# Velocity S-wave (km/s) = 3.75879 3.86344 3.81148
# Velocity P-wave (km/s) = 6.11549 6.55547 6.33930
#
# Compressibility (1/GPa) = 0.02707613
#
# Stress axis : x y z
#
# Youngs Moduli (GPa) = 99.98643 72.18659 47.93867
#
# Poissons Ratio (x) = 0.32089 0.14565
# Poissons Ratio (y) = 0.44447 0.06402
# Poissons Ratio (z) = 0.30379 0.09640
#
# Static dielectric constant tensor:
#      x y z
#    x 3.754210 0.000000 0.000000 
#    y 0.000000 3.796780 0.000000 
#    z 0.000000 0.000000 3.336690 
# 
# 
# High freq. dielectric constant tensor:
#      x y z
#    x 1.792310 0.000000 0.000000 
#    y 0.000000 1.791320 0.000000 
#    z 0.000000 0.000000 1.749080 
# 
# From -- ./inp_files/9575.got.cif
#   From: 2010.03.12/outbox.cif.g09.slc.cpg/sg51_5_cif.got.tgz:9575.got - 2010.04.16 13:43:02.
