data_PCOD8210653
_publ_section_title
;
Structure prediction by ZEFSAII (Michael W. Deem and Ramdas Pophale) SiO2 
 PCOD8210653
Probable space group: P M M A
;
_chemical_formula_sum "Si O2"
_cell_formula_units_Z 48
_cell_length_a 19.227211
_cell_length_b 7.617311
_cell_length_c 16.615336
_cell_angle_alpha 90.000000
_cell_angle_beta 90.000000
_cell_angle_gamma 90.000000
_cell_volume 2433.476226
_symmetry_space_group_name_H-M "P M M A"
_symmetry_group_IT_number 51
_symmetry_cell_setting 'orthorhombic'
loop_
_space_group_symop_operation_xyz
x,y,z
1/2-x,-y,z
1/2+x,-y,-z
-x,y,-z
-x,-y,-z
1/2+x,y,-z
1/2-x,y,z
x,-y,z
loop_
_atom_site_type_symbol
_atom_site_label
_atom_site_fract_x
_atom_site_fract_y
_atom_site_fract_z
Si Si1 0.576848 0.794697 0.189232
Si Si2 0.671491 0.291002 0.873641
Si Si3 0.101329 0.500000 0.563599
Si Si4 0.168565 0.202311 0.661300
Si Si5 0.068545 0.799796 0.261780
Si Si6 0.924716 0.699620 0.012873
Si Si7 0.443486 0.500000 0.384765
O O1 0.631209 0.734380 0.257010
O O2 0.499450 0.732839 0.213388
O O3 0.599636 0.708554 0.105241
O O4 0.579272 0.000000 0.176130
O O5 0.750000 0.220004 0.876473
O O6 0.670075 0.500000 0.868731
O O7 0.635247 0.211402 0.795107
O O8 0.632604 0.216352 0.953422
O O9 0.142291 0.324343 0.589036
O O10 0.098096 0.500000 0.467796
O O11 0.025791 0.500000 0.603132
O O12 0.250000 0.227541 0.674184
O O13 0.149636 0.000000 0.640933
O O14 0.079533 0.675597 0.338390
O O15 0.058233 0.000000 0.292080
O O16 0.932272 0.500000 0.985189
O O17 0.000000 0.793625 0.000000
#
# Coordination Sequence:
#
# PCOD8210653 Si02
#       7
#     8   8   4   8   8   8   4
#     4  10  21  35  57  88 119 157 206 252 295 354
#     4  10  21  38  58  84 122 163 206 259 310 358
#     4  11  23  40  66  97 122 158 201 241 314 375
#     4  10  22  41  63  91 129 165 200 248 304 365
#     4  11  22  39  64  91 122 161 204 250 306 363
#     4  10  20  32  54  83 116 159 204 252 302 352
#     4  11  24  40  66  96 124 152 197 262 302 359
#
# _framework density 19.724869000000002
#
# number of rings (size 3 to 8) (size 9 to 14) (size 15 to 20)
#    0.000    1.667    4.167    0.250    2.333    2.667 
#    0.000    3.333    0.000    0.000    0.000    0.000 
#    0.000    0.000    0.000    0.000    0.000    0.000 
#
# Total GULP energy -595300.761545 kJ/mol
# GULP energy per Si atom -12402.099199 kJ/mol
# Density = 1.967997 g / cm^3
# Si number density = 19.724869 Si / 1000 Ang^3
#
#
#
# Elastic Constant Matrix: (Units=GPa)
#
#
# Indices 1 2 3 4 5 6 
#
# 1 144.7463 35.5754 69.3022 0.0000 0.0000 0.0000
# 2 35.5754 77.7124 51.1944 0.0000 0.0000 0.0000
# 3 69.3022 51.1944 151.4225 0.0000 0.0000 0.0000
# 4 0.0000 0.0000 0.0000 6.3104 0.0000 0.0000
# 5 0.0000 0.0000 0.0000 0.0000 31.8893 0.0000
# 6 0.0000 0.0000 0.0000 0.0000 0.0000 21.3447
#
#
#
# Elastic Compliance Matrix: (Units=1/GPa)
#
#
# Indices 1 2 3 4 5 6 
#
# 1 0.009043 -0.001818 -0.003524 0.000000 0.000000 0.000000
# 2 -0.001818 0.016921 -0.004889 0.000000 0.000000 0.000000
# 3 -0.003524 -0.004889 0.009870 0.000000 0.000000 0.000000
# 4 0.000000 0.000000 0.000000 0.158470 0.000000 0.000000
# 5 0.000000 0.000000 0.000000 0.000000 0.031358 0.000000
# 6 0.000000 0.000000 0.000000 0.000000 0.000000 0.046850
#
#
# Mechanical properties :
#
#
# Convention : Reuss Voigt Hill
#
# Bulk Modulus (GPa) = 65.05455 76.22504 70.63979
# Shear Modulus (GPa) = 16.77309 26.42949 21.60129
#
# Velocity S-wave (km/s) = 2.91924 3.66444 3.31286
# Velocity P-wave (km/s) = 6.66447 7.52544 7.10800
#
# Compressibility (1/GPa) = 0.01537172
#
# Stress axis : x y z
#
# Youngs Moduli (GPa) = 110.58653 59.09913 101.32095
#
# Poissons Ratio (x) = 0.10745 0.35705
# Poissons Ratio (y) = 0.20106 0.49532
# Poissons Ratio (z) = 0.38970 0.28891
#
# Static dielectric constant tensor:
#      x y z
#    x 3.693470 0.000000 0.000000 
#    y 0.000000 3.517820 0.000000 
#    z 0.000000 0.000000 3.496130 
# 
# 
# High freq. dielectric constant tensor:
#      x y z
#    x 1.765710 0.000000 0.000000 
#    y 0.000000 1.769130 0.000000 
#    z 0.000000 0.000000 1.760030 
# 
# From -- ./inp_files/24882.got.cif
#   From: 2010.03.12/outbox.cif.g09.slc.cpg/sg51_13_cif.got.tgz:24882.got - 2010.04.16 13:43:02.
