data_PCOD8210053
_publ_section_title
;
Structure prediction by ZEFSAII (Michael W. Deem and Ramdas Pophale) SiO2 
 PCOD8210053
Probable space group: P M M A
;
_chemical_formula_sum "Si O2"
_cell_formula_units_Z 64
_cell_length_a 8.886400
_cell_length_b 24.490072
_cell_length_c 15.160895
_cell_angle_alpha 90.000000
_cell_angle_beta 90.000000
_cell_angle_gamma 90.000000
_cell_volume 3299.443987
_symmetry_space_group_name_H-M "P M M A"
_symmetry_group_IT_number 51
_symmetry_cell_setting 'orthorhombic'
loop_
_space_group_symop_operation_xyz
x,y,z
1/2-x,-y,z
1/2+x,-y,-z
-x,y,-z
-x,-y,-z
1/2+x,y,-z
1/2-x,y,z
x,-y,z
loop_
_atom_site_type_symbol
_atom_site_label
_atom_site_fract_x
_atom_site_fract_y
_atom_site_fract_z
Si Si1 0.076343 0.562188 0.224026
Si Si2 0.425301 0.172016 0.586504
Si Si3 0.072008 0.642426 0.910180
Si Si4 0.577818 0.743342 0.828289
Si Si5 0.071079 0.145961 0.781357
Si Si6 0.424403 0.064080 0.090940
Si Si7 0.074383 0.598014 0.413309
Si Si8 0.579404 0.280543 0.627254
O O1 0.250000 0.581832 0.215361
O O2 0.058023 0.500000 0.192187
O O3 0.022213 0.566517 0.325493
O O4 0.971176 0.600554 0.166396
O O5 0.500000 0.143892 0.500000
O O6 0.250000 0.165066 0.575698
O O7 0.480311 0.144699 0.678311
O O8 0.467387 0.235896 0.587413
O O9 0.250000 0.645501 0.918569
O O10 0.007723 0.702982 0.894109
O O11 0.000000 0.619575 0.000000
O O12 0.750000 0.750652 0.859207
O O13 0.497236 0.801875 0.830989
O O14 0.568191 0.716693 0.732376
O O15 0.250000 0.148162 0.788989
O O16 0.006692 0.091964 0.826642
O O17 0.250000 0.080644 0.088811
O O18 0.447150 0.000000 0.104145
O O19 0.500000 0.083872 0.000000
O O20 0.250000 0.591849 0.424780
O O21 0.025394 0.661253 0.407852
O O22 0.000000 0.571404 0.500000
O O23 0.750000 0.266001 0.598678
#
# Coordination Sequence:
#
# PCOD8210053 Si02
#       8
#     8   8   8   8   8   8   8   8
#     4  10  22  43  65  82 108 146 187 234 285 338
#     4  10  20  32  49  77 114 153 195 236 280 333
#     4  12  25  41  63  88 115 145 183 230 284 346
#     4  10  19  36  59  84 117 152 188 229 280 337
#     4  10  21  36  56  87 122 157 197 240 289 341
#     4  10  21  38  61  88 117 153 197 244 293 344
#     4  10  20  34  53  82 112 145 184 225 277 334
#     4   9  17  31  52  76 108 146 184 226 275 329
#
# _framework density 19.397207000000002
#
# number of rings (size 3 to 8) (size 9 to 14) (size 15 to 20)
#    0.000    1.875    1.250    3.000    0.000    6.000 
#    0.000    2.500    0.000    0.375    0.000    0.000 
#    0.000    0.000    0.000    0.000    0.000    0.000 
#
# Total GULP energy -793749.077009 kJ/mol
# GULP energy per Si atom -12402.329328 kJ/mol
# Density = 1.935306 g / cm^3
# Si number density = 19.397207 Si / 1000 Ang^3
#
#
#
# Elastic Constant Matrix: (Units=GPa)
#
#
# Indices 1 2 3 4 5 6 
#
# 1 108.9032 39.4032 54.4243 0.0000 0.0000 0.0000
# 2 39.4032 61.4832 44.1975 0.0000 0.0000 0.0000
# 3 54.4243 44.1975 108.3823 0.0000 0.0000 0.0000
# 4 0.0000 0.0000 0.0000 2.0409 0.0000 0.0000
# 5 0.0000 0.0000 0.0000 0.0000 35.9511 0.0000
# 6 0.0000 0.0000 0.0000 0.0000 0.0000 21.5538
#
#
#
# Elastic Compliance Matrix: (Units=1/GPa)
#
#
# Indices 1 2 3 4 5 6 
#
# 1 0.013376 -0.005297 -0.004557 0.000000 0.000000 0.000000
# 2 -0.005297 0.025107 -0.007579 0.000000 0.000000 0.000000
# 3 -0.004557 -0.007579 0.014605 0.000000 0.000000 0.000000
# 4 0.000000 0.000000 0.000000 0.489987 0.000000 0.000000
# 5 0.000000 0.000000 0.000000 0.000000 0.027816 0.000000
# 6 0.000000 0.000000 0.000000 0.000000 0.000000 0.046395
#
#
# Mechanical properties :
#
#
# Convention : Reuss Voigt Hill
#
# Bulk Modulus (GPa) = 54.87274 61.64654 58.25964
# Shear Modulus (GPa) = 7.59617 21.29205 14.44411
#
# Velocity S-wave (km/s) = 1.98106 3.31673 2.73179
# Velocity P-wave (km/s) = 5.79510 6.82039 6.32854
#
# Compressibility (1/GPa) = 0.01822399
#
# Stress axis : x y z
#
# Youngs Moduli (GPa) = 74.75930 39.82919 68.46765
#
# Poissons Ratio (x) = 0.21097 0.31200
# Poissons Ratio (y) = 0.39598 0.51890
# Poissons Ratio (z) = 0.34067 0.30186
#
# Static dielectric constant tensor:
#      x y z
#    x 3.517320 0.000000 0.000000 
#    y 0.000000 3.305500 0.000000 
#    z 0.000000 0.000000 3.733850 
# 
# 
# High freq. dielectric constant tensor:
#      x y z
#    x 1.757960 0.000000 0.000000 
#    y 0.000000 1.731210 0.000000 
#    z 0.000000 0.000000 1.765180 
# 
# From -- ./inp_files/22282.got.cif
#   From: 2010.03.12/outbox.cif.g09.slc.cpg/sg51_12_cif.got.tgz:22282.got - 2010.04.16 13:43:02.
