data_PCOD8210049
_publ_section_title
;
Structure prediction by ZEFSAII (Michael W. Deem and Ramdas Pophale) SiO2 
 PCOD8210049
Probable space group: P M M A
;
_chemical_formula_sum "Si O2"
_cell_formula_units_Z 40
_cell_length_a 8.938353
_cell_length_b 11.876536
_cell_length_c 20.527457
_cell_angle_alpha 90.000000
_cell_angle_beta 90.000000
_cell_angle_gamma 90.000000
_cell_volume 2179.126503
_symmetry_space_group_name_H-M "P M M A"
_symmetry_group_IT_number 51
_symmetry_cell_setting 'orthorhombic'
loop_
_space_group_symop_operation_xyz
x,y,z
1/2-x,-y,z
1/2+x,-y,-z
-x,y,-z
-x,-y,-z
1/2+x,y,-z
1/2-x,y,z
x,-y,z
loop_
_atom_site_type_symbol
_atom_site_label
_atom_site_fract_x
_atom_site_fract_y
_atom_site_fract_z
Si Si1 0.072251 0.500000 0.727754
Si Si2 0.927935 0.874153 0.810711
Si Si3 0.427679 0.726721 0.310552
Si Si4 0.074417 0.500000 0.131906
Si Si5 0.574265 0.732622 0.932239
Si Si6 0.425930 0.127854 0.433800
O O1 0.250000 0.500000 0.726562
O O2 0.010488 0.392158 0.689408
O O3 0.016325 0.500000 0.801629
O O4 0.750000 0.877539 0.809150
O O5 0.985384 0.799109 0.750871
O O6 0.984917 0.819705 0.877998
O O7 0.994003 0.000000 0.804722
O O8 0.250000 0.707678 0.307335
O O9 0.477888 0.792610 0.375129
O O10 0.250000 0.500000 0.149940
O O11 0.028338 0.392598 0.089382
O O12 0.750000 0.742554 0.941083
O O13 0.500000 0.765201 0.000000
O O14 0.500000 0.172864 0.500000
O O15 0.250000 0.133127 0.442880
O O16 0.477835 0.000000 0.418578
#
# Coordination Sequence:
#
# PCOD8210049 Si02
#       6
#     4   8   8   4   8   8
#     4  12  24  35  54  83 111 137 173 227 282 320
#     4   9  17  31  54  80 103 134 179 224 262 311
#     4  10  19  36  59  80 107 144 185 220 259 319
#     4  10  19  37  57  75  99 139 184 221 268 324
#     4  10  20  33  52  76 105 138 176 221 269 319
#     4   9  18  33  57  88 117 147 181 219 263 312
#
# _framework density 18.355979000000001
#
# number of rings (size 3 to 8) (size 9 to 14) (size 15 to 20)
#    0.000    2.200    2.000    1.800    0.000    4.400 
#    0.000    0.500    0.000    3.000    0.000    0.000 
#    0.000    0.000    0.000    0.000    0.000    0.000 
#
# Total GULP energy -496073.091677 kJ/mol
# GULP energy per Si atom -12401.827292 kJ/mol
# Density = 1.831420 g / cm^3
# Si number density = 18.355979 Si / 1000 Ang^3
#
#
#
# Elastic Constant Matrix: (Units=GPa)
#
#
# Indices 1 2 3 4 5 6 
#
# 1 37.4492 34.6940 41.2089 0.0000 0.0000 0.0000
# 2 34.6940 153.1535 85.3560 0.0000 0.0000 0.0000
# 3 41.2089 85.3560 173.5218 0.0000 0.0000 0.0000
# 4 0.0000 0.0000 0.0000 5.4951 0.0000 0.0000
# 5 0.0000 0.0000 0.0000 0.0000 31.6158 0.0000
# 6 0.0000 0.0000 0.0000 0.0000 0.0000 13.1822
#
#
#
# Elastic Compliance Matrix: (Units=1/GPa)
#
#
# Indices 1 2 3 4 5 6 
#
# 1 0.038773 -0.005031 -0.006733 0.000000 0.000000 0.000000
# 2 -0.005031 0.009648 -0.003551 0.000000 0.000000 0.000000
# 3 -0.006733 -0.003551 0.009109 0.000000 0.000000 0.000000
# 4 0.000000 0.000000 0.000000 0.181979 0.000000 0.000000
# 5 0.000000 0.000000 0.000000 0.000000 0.031630 0.000000
# 6 0.000000 0.000000 0.000000 0.000000 0.000000 0.075860
#
#
# Mechanical properties :
#
#
# Convention : Reuss Voigt Hill
#
# Bulk Modulus (GPa) = 37.17560 76.29356 56.73458
# Shear Modulus (GPa) = 12.93340 23.58300 18.25820
#
# Velocity S-wave (km/s) = 2.65729 3.58824 3.15727
# Velocity P-wave (km/s) = 5.45082 7.66948 6.65328
#
# Compressibility (1/GPa) = 0.02689936
#
# Stress axis : x y z
#
# Youngs Moduli (GPa) = 25.79134 103.64640 109.78223
#
# Poissons Ratio (x) = 0.52140 0.73921
# Poissons Ratio (y) = 0.12974 0.38987
# Poissons Ratio (z) = 0.17366 0.36808
#
# Static dielectric constant tensor:
#      x y z
#    x 3.027820 0.000000 0.000000 
#    y 0.000000 3.639770 0.000000 
#    z 0.000000 0.000000 3.454100 
# 
# 
# High freq. dielectric constant tensor:
#      x y z
#    x 1.677820 0.000000 0.000000 
#    y 0.000000 1.719810 0.000000 
#    z 0.000000 0.000000 1.717930 
# 
# From -- ./inp_files/31432.got.cif
#   From: 2010.03.12/outbox.cif.g09.slc.cpg/sg51_16_cif.got.tgz:31432.got - 2010.04.16 13:43:02.
