data_PCOD8210127
_publ_section_title
;
Structure prediction by ZEFSAII (Michael W. Deem and Ramdas Pophale) SiO2 
 PCOD8210127
Probable space group: P M M A
;
_chemical_formula_sum "Si O2"
_cell_formula_units_Z 48
_cell_length_a 14.655048
_cell_length_b 8.698114
_cell_length_c 19.314227
_cell_angle_alpha 90.000000
_cell_angle_beta 90.000000
_cell_angle_gamma 90.000000
_cell_volume 2462.009203
_symmetry_space_group_name_H-M "P M M A"
_symmetry_group_IT_number 51
_symmetry_cell_setting 'orthorhombic'
loop_
_space_group_symop_operation_xyz
x,y,z
1/2-x,-y,z
1/2+x,-y,-z
-x,y,-z
-x,-y,-z
1/2+x,y,-z
1/2-x,y,z
x,-y,z
loop_
_atom_site_type_symbol
_atom_site_label
_atom_site_fract_x
_atom_site_fract_y
_atom_site_fract_z
Si Si1 0.355622 0.175415 0.434839
Si Si2 0.445659 0.320010 0.930249
Si Si3 0.486299 0.322792 0.328331
Si Si4 0.433700 0.179028 0.186397
Si Si5 0.750000 0.681698 0.866281
Si Si6 0.250000 0.682080 0.978571
Si Si7 0.645300 0.822822 0.406065
O O1 0.250000 0.195131 0.416175
O O2 0.412153 0.289849 0.387287
O O3 0.374005 0.219843 0.514269
O O4 0.386693 0.000000 0.421294
O O5 0.451980 0.500000 0.913125
O O6 0.488639 0.226792 0.867624
O O7 0.340802 0.264087 0.938291
O O8 0.500000 0.281599 0.000000
O O9 0.481018 0.500000 0.306398
O O10 0.468460 0.217034 0.262519
O O11 0.586506 0.286068 0.357065
O O12 0.339381 0.266114 0.174026
O O13 0.414657 0.000000 0.179613
O O14 0.750000 0.500000 0.869382
O O15 0.750000 0.751827 0.943902
O O16 0.250000 0.500000 0.985571
O O17 0.750000 0.792488 0.387220
O O18 0.619308 0.000000 0.393086
#
# Coordination Sequence:
#
# PCOD8210127 Si02
#       7
#     8   8   8   8   4   4   8
#     4   9  19  37  62  90 120 155 196 243 298 361
#     4  10  19  38  65  92 122 158 201 246 295 356
#     4  12  25  39  58  86 121 162 202 248 299 355
#     4  12  26  42  60  88 124 163 201 247 299 356
#     4  11  21  41  67  93 121 156 195 240 301 365
#     4   9  18  35  65  95 119 154 195 242 299 355
#     4   9  19  39  65  89 116 154 198 247 302 361
#
# _framework density 19.496272000000001
#
# number of rings (size 3 to 8) (size 9 to 14) (size 15 to 20)
#    0.000    1.667    1.667    4.750    1.167    3.667 
#    1.500    2.083    0.000    0.000    0.000    0.000 
#    0.000    0.000    0.000    0.000    0.000    0.000 
#
# Total GULP energy -595397.750428 kJ/mol
# GULP energy per Si atom -12404.119801 kJ/mol
# Density = 1.945190 g / cm^3
# Si number density = 19.496272 Si / 1000 Ang^3
#
#
#
# Elastic Constant Matrix: (Units=GPa)
#
#
# Indices 1 2 3 4 5 6 
#
# 1 135.1350 35.4285 56.9059 0.0000 0.0000 0.0000
# 2 35.4285 69.4696 27.1309 0.0000 0.0000 0.0000
# 3 56.9059 27.1309 90.4599 0.0000 0.0000 0.0000
# 4 0.0000 0.0000 0.0000 12.4885 0.0000 0.0000
# 5 0.0000 0.0000 0.0000 0.0000 -10.9374 0.0000
# 6 0.0000 0.0000 0.0000 0.0000 0.0000 31.0907
#
#
#
# Elastic Compliance Matrix: (Units=1/GPa)
#
#
# Indices 1 2 3 4 5 6 
#
# 1 0.010656 -0.003190 -0.005747 0.000000 0.000000 0.000000
# 2 -0.003190 0.017260 -0.003170 0.000000 0.000000 0.000000
# 3 -0.005747 -0.003170 0.015620 0.000000 0.000000 0.000000
# 4 0.000000 0.000000 0.000000 0.080073 0.000000 0.000000
# 5 0.000000 0.000000 0.000000 0.000000 -0.091429 0.000000
# 6 0.000000 0.000000 0.000000 0.000000 0.000000 0.032164
#
#
# Mechanical properties :
#
#
# Convention : Reuss Voigt Hill
#
# Bulk Modulus (GPa) = 51.75162 59.33277 55.54220
# Shear Modulus (GPa) = 52.63204 18.23498 35.43351
#
# Velocity S-wave (km/s) = 5.20140 3.06160 4.26778
# Velocity P-wave (km/s) = 7.91674 6.55719 7.26882
#
# Compressibility (1/GPa) = 0.01932306
#
# Stress axis : x y z
#
# Youngs Moduli (GPa) = 93.84024 57.93862 64.01861
#
# Poissons Ratio (x) = 0.18484 0.36790
# Poissons Ratio (y) = 0.29937 0.20292
# Poissons Ratio (z) = 0.53929 0.18365
#
# Static dielectric constant tensor:
#      x y z
#    x 3.764600 0.000000 0.000000 
#    y 0.000000 3.360850 0.000000 
#    z 0.000000 0.000000 3.532620 
# 
# 
# High freq. dielectric constant tensor:
#      x y z
#    x 1.775370 0.000000 0.000000 
#    y 0.000000 1.744550 0.000000 
#    z 0.000000 0.000000 1.756550 
# 
# From -- ./inp_files/29651.got.cif
#   From: 2010.03.12/outbox.cif.g09.slc.cpg/sg51_15_cif.got.tgz:29651.got - 2010.04.16 13:43:02.
