data_PCOD8210305
_publ_section_title
;
Structure prediction by ZEFSAII (Michael W. Deem and Ramdas Pophale) SiO2 
 PCOD8210305
Probable space group: P M M A
;
_chemical_formula_sum "Si O2"
_cell_formula_units_Z 56
_cell_length_a 8.861792
_cell_length_b 14.712886
_cell_length_c 23.409622
_cell_angle_alpha 90.000000
_cell_angle_beta 90.000000
_cell_angle_gamma 90.000000
_cell_volume 3052.205870
_symmetry_space_group_name_H-M "P M M A"
_symmetry_group_IT_number 51
_symmetry_cell_setting 'orthorhombic'
loop_
_space_group_symop_operation_xyz
x,y,z
1/2-x,-y,z
1/2+x,-y,-z
-x,y,-z
-x,-y,-z
1/2+x,y,-z
1/2-x,y,z
x,-y,z
loop_
_atom_site_type_symbol
_atom_site_label
_atom_site_fract_x
_atom_site_fract_y
_atom_site_fract_z
Si Si1 0.577095 0.894083 0.242293
Si Si2 0.572967 0.397255 0.840081
Si Si3 0.577095 0.898153 0.874686
Si Si4 0.929233 0.600620 0.713212
Si Si5 0.427631 0.896679 0.560042
Si Si6 0.427309 0.784682 0.340262
Si Si7 0.574709 0.274592 0.940847
O O1 0.750000 0.864423 0.252135
O O2 0.530205 0.871799 0.177753
O O3 0.467049 0.839917 0.283684
O O4 0.555649 0.000000 0.255695
O O5 0.750000 0.378834 0.837586
O O6 0.536043 0.500000 0.857962
O O7 0.505652 0.377068 0.776760
O O8 0.502082 0.332263 0.888566
O O9 0.750000 0.887854 0.853828
O O10 0.543729 0.831442 0.927476
O O11 0.543235 0.000000 0.896296
O O12 0.750000 0.598620 0.717765
O O13 0.986445 0.500000 0.693176
O O14 0.978972 0.679354 0.668935
O O15 0.500000 0.869834 0.500000
O O16 0.250000 0.887446 0.554391
O O17 0.484632 0.825261 0.606309
O O18 0.473083 0.000000 0.577456
O O19 0.250000 0.792172 0.351914
O O20 0.750000 0.296655 0.946976
O O21 0.500000 0.302854 0.000000
#
# Coordination Sequence:
#
# PCOD8210305 Si02
#       7
#     8   8   8   8   8   8   8
#     4  10  20  32  47  71 102 132 162 200 248 300
#     4   8  14  27  47  68  91 120 153 191 237 288
#     4   9  18  33  50  66  87 118 157 200 243 290
#     4   8  15  29  50  76 102 128 163 206 249 295
#     4  10  21  37  55  76 106 143 180 216 252 291
#     4  11  20  30  51  80 107 137 171 207 248 295
#     4  10  20  32  46  66  90 117 153 195 239 290
#
# _framework density 18.347384999999999
#
# number of rings (size 3 to 8) (size 9 to 14) (size 15 to 20)
#    0.000    2.571    0.000    3.429    0.000    6.857 
#    0.000    0.000    0.000    2.143    0.000    4.000 
#    0.000    0.000    0.000    0.000    0.000    0.000 
#
# Total GULP energy -694207.327545 kJ/mol
# GULP energy per Si atom -12396.559420 kJ/mol
# Density = 1.830563 g / cm^3
# Si number density = 18.347385 Si / 1000 Ang^3
#
#
#
# Elastic Constant Matrix: (Units=GPa)
#
#
# Indices 1 2 3 4 5 6 
#
# 1 38.7771 27.1703 23.9608 0.0000 0.0000 0.0000
# 2 27.1703 107.3813 69.7328 0.0000 0.0000 0.0000
# 3 23.9608 69.7328 95.1549 0.0000 0.0000 0.0000
# 4 0.0000 0.0000 0.0000 25.5058 0.0000 0.0000
# 5 0.0000 0.0000 0.0000 0.0000 30.9629 0.0000
# 6 0.0000 0.0000 0.0000 0.0000 0.0000 13.3371
#
#
#
# Elastic Compliance Matrix: (Units=1/GPa)
#
#
# Indices 1 2 3 4 5 6 
#
# 1 0.032152 -0.005491 -0.004072 0.000000 0.000000 0.000000
# 2 -0.005491 0.018706 -0.012326 0.000000 0.000000 0.000000
# 3 -0.004072 -0.012326 0.020568 0.000000 0.000000 0.000000
# 4 0.000000 0.000000 0.000000 0.039207 0.000000 0.000000
# 5 0.000000 0.000000 0.000000 0.000000 0.032297 0.000000
# 6 0.000000 0.000000 0.000000 0.000000 0.000000 0.074979
#
#
# Mechanical properties :
#
#
# Convention : Reuss Voigt Hill
#
# Bulk Modulus (GPa) = 36.16940 53.67123 44.92032
# Shear Modulus (GPa) = 18.45682 21.99112 20.22397
#
# Velocity S-wave (km/s) = 3.17514 3.46583 3.32366
# Velocity P-wave (km/s) = 5.76181 6.73293 6.26621
#
# Compressibility (1/GPa) = 0.02764768
#
# Stress axis : x y z
#
# Youngs Moduli (GPa) = 31.10225 53.45766 48.62023
#
# Poissons Ratio (x) = 0.29352 0.19800
# Poissons Ratio (y) = 0.17078 0.59930
# Poissons Ratio (z) = 0.12666 0.65892
#
# Static dielectric constant tensor:
#      x y z
#    x 3.157430 0.000000 0.000000 
#    y 0.000000 3.690280 0.000000 
#    z 0.000000 0.000000 3.497200 
# 
# 
# High freq. dielectric constant tensor:
#      x y z
#    x 1.684060 0.000000 0.000000 
#    y 0.000000 1.717220 0.000000 
#    z 0.000000 0.000000 1.696500 
# 
# From -- ./inp_files/32035.got.cif
#   From: 2010.03.12/outbox.cif.g09.slc.cpg/sg51_17_cif.got.tgz:32035.got - 2010.04.16 13:43:02.
