data_PCOD8210837
_publ_section_title
;
Structure prediction by ZEFSAII (Michael W. Deem and Ramdas Pophale) SiO2 
 PCOD8210837
Probable space group: P M M A
;
_chemical_formula_sum "Si O2"
_cell_formula_units_Z 48
_cell_length_a 9.044888
_cell_length_b 9.360642
_cell_length_c 30.884793
_cell_angle_alpha 90.000000
_cell_angle_beta 90.000000
_cell_angle_gamma 90.000000
_cell_volume 2614.890602
_symmetry_space_group_name_H-M "P M M A"
_symmetry_group_IT_number 51
_symmetry_cell_setting 'orthorhombic'
loop_
_space_group_symop_operation_xyz
x,y,z
1/2-x,-y,z
1/2+x,-y,-z
-x,y,-z
-x,-y,-z
1/2+x,y,-z
1/2-x,y,z
x,-y,z
loop_
_atom_site_type_symbol
_atom_site_label
_atom_site_fract_x
_atom_site_fract_y
_atom_site_fract_z
Si Si1 0.925256 0.342170 0.713398
Si Si2 0.422783 0.835772 0.543381
Si Si3 0.083450 0.669895 0.042019
Si Si4 0.418249 0.668393 0.382778
Si Si5 0.423869 0.665056 0.871157
Si Si6 0.576931 0.833348 0.795089
O O1 0.750000 0.351975 0.712813
O O2 0.989698 0.500000 0.724281
O O3 0.975973 0.292525 0.665577
O O4 0.979596 0.230201 0.749381
O O5 0.500000 0.777222 0.500000
O O6 0.250000 0.814448 0.537213
O O7 0.474797 0.746248 0.584252
O O8 0.466307 0.000000 0.551354
O O9 0.250000 0.730624 0.043035
O O10 0.084996 0.500000 0.039657
O O11 0.998312 0.721214 0.084786
O O12 0.000000 0.732637 0.000000
O O13 0.250000 0.721404 0.389659
O O14 0.428214 0.500000 0.390234
O O15 0.250000 0.686596 0.875729
O O16 0.464871 0.500000 0.862375
O O17 0.484696 0.759574 0.832520
O O18 0.750000 0.801943 0.802365
O O19 0.541780 0.000000 0.794945
#
# Coordination Sequence:
#
# PCOD8210837 Si02
#       6
#     8   8   8   8   8   8
#     4   8  15  30  52  76 102 132 167 207 250 299
#     4  10  21  36  53  74 101 135 174 212 251 297
#     4   9  16  27  46  73 103 132 164 206 253 299
#     4   9  18  33  54  80 106 132 165 206 253 304
#     4  10  20  33  50  73 101 135 174 212 252 299
#     4  10  20  33  51  76 103 132 169 211 254 301
#
# _framework density 18.356407000000001
#
# number of rings (size 3 to 8) (size 9 to 14) (size 15 to 20)
#    0.000    2.667    0.000    3.000    0.000    6.333 
#    0.000    2.500    0.000    1.500    0.000    0.000 
#    0.000    0.000    0.000    0.000    0.000    0.000 
#
# Total GULP energy -595188.198568 kJ/mol
# GULP energy per Si atom -12399.754137 kJ/mol
# Density = 1.831463 g / cm^3
# Si number density = 18.356407 Si / 1000 Ang^3
#
#
#
# Elastic Constant Matrix: (Units=GPa)
#
#
# Indices 1 2 3 4 5 6 
#
# 1 83.2270 39.2806 64.6754 0.0000 0.0000 0.0000
# 2 39.2806 63.0143 65.3084 0.0000 0.0000 0.0000
# 3 64.6754 65.3084 174.6292 0.0000 0.0000 0.0000
# 4 0.0000 0.0000 0.0000 -21.8355 0.0000 0.0000
# 5 0.0000 0.0000 0.0000 0.0000 33.7923 0.0000
# 6 0.0000 0.0000 0.0000 0.0000 0.0000 23.2710
#
#
#
# Elastic Compliance Matrix: (Units=1/GPa)
#
#
# Indices 1 2 3 4 5 6 
#
# 1 0.018737 -0.007328 -0.004199 0.000000 0.000000 0.000000
# 2 -0.007328 0.028780 -0.008049 0.000000 0.000000 0.000000
# 3 -0.004199 -0.008049 0.010292 0.000000 0.000000 0.000000
# 4 0.000000 0.000000 0.000000 -0.045797 0.000000 0.000000
# 5 0.000000 0.000000 0.000000 0.000000 0.029593 0.000000
# 6 0.000000 0.000000 0.000000 0.000000 0.000000 0.042972
#
#
# Mechanical properties :
#
#
# Convention : Reuss Voigt Hill
#
# Bulk Modulus (GPa) = 53.60158 73.26662 63.43410
# Shear Modulus (GPa) = 38.47740 17.15262 27.81501
#
# Velocity S-wave (km/s) = 4.58332 3.06015 3.89688
# Velocity P-wave (km/s) = 7.56789 7.24472 7.40807
#
# Compressibility (1/GPa) = 0.01865617
#
# Stress axis : x y z
#
# Youngs Moduli (GPa) = 53.37074 34.74677 97.16615
#
# Poissons Ratio (x) = 0.25463 0.40797
# Poissons Ratio (y) = 0.39111 0.78209
# Poissons Ratio (z) = 0.22409 0.27968
#
# Static dielectric constant tensor:
#      x y z
#    x 3.254290 0.000000 0.000000 
#    y 0.000000 3.191500 0.000000 
#    z 0.000000 0.000000 3.642660 
# 
# 
# High freq. dielectric constant tensor:
#      x y z
#    x 1.698620 0.000000 0.000000 
#    y 0.000000 1.685140 0.000000 
#    z 0.000000 0.000000 1.728540 
# 
# From -- ./inp_files/36983.got.cif
#   From: 2010.03.12/outbox.cif.g09.slc.cpg/sg51_19_cif.got.tgz:36983.got - 2010.04.16 13:43:02.
