data_PCOD8210873
_publ_section_title
;
Structure prediction by ZEFSAII (Michael W. Deem and Ramdas Pophale) SiO2 
 PCOD8210873
Probable space group: P M M A
;
_chemical_formula_sum "Si O2"
_cell_formula_units_Z 48
_cell_length_a 8.966826
_cell_length_b 9.183487
_cell_length_c 31.093696
_cell_angle_alpha 90.000000
_cell_angle_beta 90.000000
_cell_angle_gamma 90.000000
_cell_volume 2560.464189
_symmetry_space_group_name_H-M "P M M A"
_symmetry_group_IT_number 51
_symmetry_cell_setting 'orthorhombic'
loop_
_space_group_symop_operation_xyz
x,y,z
1/2-x,-y,z
1/2+x,-y,-z
-x,y,-z
-x,-y,-z
1/2+x,y,-z
1/2-x,y,z
x,-y,z
loop_
_atom_site_type_symbol
_atom_site_label
_atom_site_fract_x
_atom_site_fract_y
_atom_site_fract_z
Si Si1 0.579813 0.327128 0.378231
Si Si2 0.082003 0.826698 0.957885
Si Si3 0.081615 0.326793 0.292709
Si Si4 0.924323 0.830403 0.871406
Si Si5 0.078835 0.327540 0.793107
Si Si6 0.075641 0.168299 0.455800
O O1 0.750000 0.272725 0.379387
O O2 0.570616 0.500000 0.380519
O O3 0.504666 0.267975 0.334539
O O4 0.490600 0.263949 0.418013
O O5 0.250000 0.765631 0.956624
O O6 0.995741 0.772555 0.915638
O O7 0.082046 0.000000 0.959810
O O8 0.000000 0.763138 0.000000
O O9 0.250000 0.265281 0.292919
O O10 0.082448 0.500000 0.292902
O O11 0.997013 0.268953 0.250516
O O12 0.750000 0.798572 0.873413
O O13 0.994880 0.742031 0.832822
O O14 0.959032 0.000000 0.864502
O O15 0.250000 0.277421 0.793046
O O16 0.064050 0.500000 0.796645
O O17 0.250000 0.199053 0.459593
O O18 0.000000 0.218697 0.500000
O O19 0.040621 0.000000 0.446241
#
# Coordination Sequence:
#
# PCOD8210873 Si02
#       6
#     8   8   8   8   8   8
#     4  10  20  34  54  80 107 134 167 209 254 298
#     4   9  16  27  45  69  97 129 165 205 249 298
#     4   9  17  31  52  76 102 133 168 207 251 298
#     4  10  20  33  50  74 103 133 167 209 254 298
#     4  10  20  34  53  76 102 134 171 208 249 302
#     4  10  21  37  56  77 103 137 174 210 251 301
#
# _framework density 18.746599
#
# number of rings (size 3 to 8) (size 9 to 14) (size 15 to 20)
#    0.000    2.333    0.000    3.000    0.000    8.333 
#    0.000    0.833    0.000    5.500    0.000    0.000 
#    0.000    0.000    0.000    0.000    0.000    0.000 
#
# Total GULP energy -595312.908786 kJ/mol
# GULP energy per Si atom -12402.352266 kJ/mol
# Density = 1.870393 g / cm^3
# Si number density = 18.746599 Si / 1000 Ang^3
#
#
#
# Elastic Constant Matrix: (Units=GPa)
#
#
# Indices 1 2 3 4 5 6 
#
# 1 112.6227 12.3136 54.4597 0.0000 0.0000 0.0000
# 2 12.3136 10.9860 17.1190 0.0000 0.0000 0.0000
# 3 54.4597 17.1190 157.6771 0.0000 0.0000 0.0000
# 4 0.0000 0.0000 0.0000 18.9060 0.0000 0.0000
# 5 0.0000 0.0000 0.0000 0.0000 47.0123 0.0000
# 6 0.0000 0.0000 0.0000 0.0000 0.0000 23.0385
#
#
#
# Elastic Compliance Matrix: (Units=1/GPa)
#
#
# Indices 1 2 3 4 5 6 
#
# 1 0.011195 -0.007851 -0.003014 0.000000 0.000000 0.000000
# 2 -0.007851 0.115067 -0.009781 0.000000 0.000000 0.000000
# 3 -0.003014 -0.009781 0.008445 0.000000 0.000000 0.000000
# 4 0.000000 0.000000 0.000000 0.052893 0.000000 0.000000
# 5 0.000000 0.000000 0.000000 0.000000 0.021271 0.000000
# 6 0.000000 0.000000 0.000000 0.000000 0.000000 0.043406
#
#
# Mechanical properties :
#
#
# Convention : Reuss Voigt Hill
#
# Bulk Modulus (GPa) = 10.70504 49.89670 30.30087
# Shear Modulus (GPa) = 15.39846 30.95090 23.17468
#
# Velocity S-wave (km/s) = 2.86912 4.06768 3.51979
# Velocity P-wave (km/s) = 4.08639 6.98108 5.71988
#
# Compressibility (1/GPa) = 0.09341397
#
# Stress axis : x y z
#
# Youngs Moduli (GPa) = 89.32406 8.69062 118.41174
#
# Poissons Ratio (x) = 0.06823 0.35693
# Poissons Ratio (y) = 0.70129 1.15820
# Poissons Ratio (z) = 0.26925 0.08500
#
# Static dielectric constant tensor:
#      x y z
#    x 3.751020 0.000000 0.000000 
#    y 0.000000 2.994260 0.000000 
#    z 0.000000 0.000000 3.481740 
# 
# 
# High freq. dielectric constant tensor:
#      x y z
#    x 1.750870 0.000000 0.000000 
#    y 0.000000 1.678710 0.000000 
#    z 0.000000 0.000000 1.747310 
# 
# From -- ./inp_files/34519.got.cif
#   From: 2010.03.12/outbox.cif.g09.slc.cpg/sg51_18_cif.got.tgz:34519.got - 2010.04.16 13:43:02.
