data_PCOD8210876
_publ_section_title
;
Structure prediction by ZEFSAII (Michael W. Deem and Ramdas Pophale) SiO2 
 PCOD8210876
Probable space group: P M M A
;
_chemical_formula_sum "Si O2"
_cell_formula_units_Z 64
_cell_length_a 20.603959
_cell_length_b 9.827815
_cell_length_c 17.285125
_cell_angle_alpha 90.000000
_cell_angle_beta 90.000000
_cell_angle_gamma 90.000000
_cell_volume 3500.097757
_symmetry_space_group_name_H-M "P M M A"
_symmetry_group_IT_number 51
_symmetry_cell_setting 'orthorhombic'
loop_
_space_group_symop_operation_xyz
x,y,z
1/2-x,-y,z
1/2+x,-y,-z
-x,y,-z
-x,-y,-z
1/2+x,y,-z
1/2-x,y,z
x,-y,z
loop_
_atom_site_type_symbol
_atom_site_label
_atom_site_fract_x
_atom_site_fract_y
_atom_site_fract_z
Si Si1 0.177125 0.850114 0.984659
Si Si2 0.423806 0.661415 0.411349
Si Si3 0.983303 0.652100 0.913876
Si Si4 0.175089 0.158277 0.314079
Si Si5 0.877184 0.651182 0.133822
Si Si6 0.323291 0.662369 0.705378
Si Si7 0.430192 0.339486 0.588082
Si Si8 0.375066 0.154197 0.146750
O O1 0.250000 0.835101 0.955276
O O2 0.134889 0.738544 0.942266
O O3 0.149882 0.000000 0.963904
O O4 0.175291 0.827337 0.076616
O O5 0.412637 0.500000 0.398823
O O6 0.371173 0.746009 0.364216
O O7 0.497057 0.705298 0.386242
O O8 0.414714 0.703804 0.500646
O O9 0.953515 0.500000 0.922753
O O10 0.045527 0.646026 0.857729
O O11 0.935381 0.748349 0.867642
O O12 0.000000 0.708412 0.000000
O O13 0.250000 0.191745 0.333459
O O14 0.162532 0.193476 0.224552
O O15 0.159959 0.000000 0.331687
O O16 0.848707 0.500000 0.120260
O O17 0.844586 0.716276 0.210062
O O18 0.250000 0.712567 0.686624
O O19 0.326727 0.500000 0.704492
O O20 0.374265 0.724084 0.643230
O O21 0.427742 0.500000 0.593823
O O22 0.401465 0.000000 0.151394
#
# Coordination Sequence:
#
# PCOD8210876 Si02
#       8
#     8   8   8   8   8   8   8   8
#     4  10  20  34  52  71  95 133 176 217 261 306
#     4   9  18  34  58  84 109 138 177 219 265 318
#     4  10  20  34  51  75 104 133 169 219 276 318
#     4  10  22  39  56  78 111 146 181 225 276 325
#     4  10  20  33  50  74 103 134 170 213 260 313
#     4   9  17  29  48  75 105 138 173 207 253 314
#     4   8  16  32  53  81 113 141 170 215 266 312
#     4  10  21  36  54  74 100 137 181 221 261 317
#
# _framework density 18.285204
#
# number of rings (size 3 to 8) (size 9 to 14) (size 15 to 20)
#    0.000    2.500    1.250    1.500    1.750    4.250 
#    0.000    2.500    0.000    3.000    0.000    1.750 
#    0.000    0.000    0.000    0.000    0.000    0.000 
#
# Total GULP energy -793313.124477 kJ/mol
# GULP energy per Si atom -12395.517570 kJ/mol
# Density = 1.824359 g / cm^3
# Si number density = 18.285204 Si / 1000 Ang^3
#
#
#
# Elastic Constant Matrix: (Units=GPa)
#
#
# Indices 1 2 3 4 5 6 
#
# 1 122.1471 46.3133 61.9398 0.0000 0.0000 0.0000
# 2 46.3133 63.9550 42.0743 0.0000 0.0000 0.0000
# 3 61.9398 42.0743 102.8615 0.0000 0.0000 0.0000
# 4 0.0000 0.0000 0.0000 22.1483 0.0000 0.0000
# 5 0.0000 0.0000 0.0000 0.0000 34.4774 0.0000
# 6 0.0000 0.0000 0.0000 0.0000 0.0000 25.3793
#
#
#
# Elastic Compliance Matrix: (Units=1/GPa)
#
#
# Indices 1 2 3 4 5 6 
#
# 1 0.013256 -0.005949 -0.005549 0.000000 0.000000 0.000000
# 2 -0.005949 0.024062 -0.006260 0.000000 0.000000 0.000000
# 3 -0.005549 -0.006260 0.015624 0.000000 0.000000 0.000000
# 4 0.000000 0.000000 0.000000 0.045150 0.000000 0.000000
# 5 0.000000 0.000000 0.000000 0.000000 0.029005 0.000000
# 6 0.000000 0.000000 0.000000 0.000000 0.000000 0.039402
#
#
# Mechanical properties :
#
#
# Convention : Reuss Voigt Hill
#
# Bulk Modulus (GPa) = 57.38525 65.51316 61.44920
# Shear Modulus (GPa) = 24.05868 25.64340 24.85104
#
# Velocity S-wave (km/s) = 3.63126 3.74894 3.69057
# Velocity P-wave (km/s) = 7.00235 7.39227 7.19995
#
# Compressibility (1/GPa) = 0.01742608
#
# Stress axis : x y z
#
# Youngs Moduli (GPa) = 75.43496 41.55864 64.00407
#
# Poissons Ratio (x) = 0.24723 0.35517
# Poissons Ratio (y) = 0.44876 0.40067
# Poissons Ratio (z) = 0.41861 0.26016
#
# Static dielectric constant tensor:
#      x y z
#    x 3.503950 0.000000 0.000000 
#    y 0.000000 3.123960 0.000000 
#    z 0.000000 0.000000 3.462180 
# 
# 
# High freq. dielectric constant tensor:
#      x y z
#    x 1.714390 0.000000 0.000000 
#    y 0.000000 1.675910 0.000000 
#    z 0.000000 0.000000 1.708150 
# 
# From -- ./inp_files/30582.got.cif
#   From: 2010.03.12/outbox.cif.g09.slc.cpg/sg51_16_cif.got.tgz:30582.got - 2010.04.16 13:43:02.
