data_PCOD8210153
_publ_section_title
;
Structure prediction by ZEFSAII (Michael W. Deem and Ramdas Pophale) SiO2 
 PCOD8210153
Probable space group: P M M A
;
_chemical_formula_sum "Si O2"
_cell_formula_units_Z 64
_cell_length_a 9.277874
_cell_length_b 17.276037
_cell_length_c 28.402657
_cell_angle_alpha 90.000000
_cell_angle_beta 90.000000
_cell_angle_gamma 90.000000
_cell_volume 4552.516881
_symmetry_space_group_name_H-M "P M M A"
_symmetry_group_IT_number 51
_symmetry_cell_setting 'orthorhombic'
loop_
_space_group_symop_operation_xyz
x,y,z
1/2-x,-y,z
1/2+x,-y,-z
-x,y,-z
-x,-y,-z
1/2+x,y,-z
1/2-x,y,z
x,-y,z
loop_
_atom_site_type_symbol
_atom_site_label
_atom_site_fract_x
_atom_site_fract_y
_atom_site_fract_z
Si Si1 0.913437 0.407706 0.954596
Si Si2 0.584358 0.588844 0.773242
Si Si3 0.091991 0.187068 0.382078
Si Si4 0.910270 0.410360 0.395079
Si Si5 0.911985 0.591619 0.134671
Si Si6 0.915425 0.091235 0.452861
Si Si7 0.583288 0.679744 0.680245
Si Si8 0.591872 0.318098 0.541275
O O1 0.750000 0.375566 0.955841
O O2 0.910896 0.500000 0.953944
O O3 0.994483 0.374618 0.908508
O O4 0.000000 0.377156 0.000000
O O5 0.750000 0.591695 0.789541
O O6 0.547901 0.500000 0.756816
O O7 0.485838 0.615357 0.816490
O O8 0.554556 0.654342 0.733839
O O9 0.250000 0.146564 0.378226
O O10 0.049045 0.228285 0.331857
O O11 0.102967 0.259564 0.416272
O O12 0.978517 0.126955 0.404257
O O13 0.750000 0.375715 0.402102
O O14 0.903384 0.500000 0.386112
O O15 0.979309 0.374325 0.349043
O O16 0.005046 0.393605 0.441507
O O17 0.750000 0.625962 0.132939
O O18 0.906190 0.500000 0.130014
O O19 0.750000 0.117869 0.458754
O O20 0.000000 0.118196 0.500000
O O21 0.928181 0.000000 0.446728
O O22 0.750000 0.663101 0.666889
O O23 0.500000 0.277776 0.500000
O O24 0.750000 0.342381 0.523244
#
# Coordination Sequence:
#
# PCOD8210153 Si02
#       8
#     8   8   8   8   8   8   8   8
#     4   9  15  22  32  45  62  85 113 145 184 231
#     4   9  16  26  40  55  71  93 121 154 191 227
#     4   9  18  31  46  63  80  98 119 142 169 204
#     4  10  20  31  42  56  72  90 115 146 178 212
#     4   9  16  24  33  47  67  89 115 149 188 228
#     4  10  20  32  47  67  87 105 122 139 164 201
#     4   9  18  31  45  59  74  95 122 149 181 219
#     4  10  20  32  45  59  74  93 116 140 169 205
#
# _framework density 14.058158000000001
#
# number of rings (size 3 to 8) (size 9 to 14) (size 15 to 20)
#    0.000    2.625    0.000    3.375    0.000    9.500 
#    0.000    1.250    0.000    0.000    0.000    0.000 
#    0.000    0.000    0.000    0.000    0.000    0.000 
#
# Total GULP energy -793047.633176 kJ/mol
# GULP energy per Si atom -12391.369268 kJ/mol
# Density = 1.402616 g / cm^3
# Si number density = 14.058158 Si / 1000 Ang^3
#
#
#
# Elastic Constant Matrix: (Units=GPa)
#
#
# Indices 1 2 3 4 5 6 
#
# 1 115.6638 23.2424 50.8775 0.0000 0.0000 0.0000
# 2 23.2424 27.7800 20.3009 0.0000 0.0000 0.0000
# 3 50.8775 20.3009 82.1795 0.0000 0.0000 0.0000
# 4 0.0000 0.0000 0.0000 8.2570 0.0000 0.0000
# 5 0.0000 0.0000 0.0000 0.0000 23.6057 0.0000
# 6 0.0000 0.0000 0.0000 0.0000 0.0000 14.8525
#
#
#
# Elastic Compliance Matrix: (Units=1/GPa)
#
#
# Indices 1 2 3 4 5 6 
#
# 1 0.012633 -0.005923 -0.006358 0.000000 0.000000 0.000000
# 2 -0.005923 0.046704 -0.007870 0.000000 0.000000 0.000000
# 3 -0.006358 -0.007870 0.018049 0.000000 0.000000 0.000000
# 4 0.000000 0.000000 0.000000 0.121110 0.000000 0.000000
# 5 0.000000 0.000000 0.000000 0.000000 0.042363 0.000000
# 6 0.000000 0.000000 0.000000 0.000000 0.000000 0.067329
#
#
# Mechanical properties :
#
#
# Convention : Reuss Voigt Hill
#
# Bulk Modulus (GPa) = 26.96635 46.05166 36.50900
# Shear Modulus (GPa) = 13.85615 18.08984 15.97300
#
# Velocity S-wave (km/s) = 3.14288 3.59107 3.37443
# Velocity P-wave (km/s) = 5.69156 7.07273 6.41940
#
# Compressibility (1/GPa) = 0.03708326
#
# Stress axis : x y z
#
# Youngs Moduli (GPa) = 79.16056 21.41129 55.40552
#
# Poissons Ratio (x) = 0.12682 0.35225
# Poissons Ratio (y) = 0.46888 0.43606
# Poissons Ratio (z) = 0.50327 0.16851
#
# Static dielectric constant tensor:
#      x y z
#    x 3.072580 0.000000 0.000000 
#    y 0.000000 2.417820 0.000000 
#    z 0.000000 0.000000 2.823840 
# 
# 
# High freq. dielectric constant tensor:
#      x y z
#    x 1.556980 0.000000 0.000000 
#    y 0.000000 1.476190 0.000000 
#    z 0.000000 0.000000 1.521190 
# 
# From -- ./inp_files/36446.got.cif
#   From: 2010.03.12/outbox.cif.g09.slc.cpg/sg51_19_cif.got.tgz:36446.got - 2010.04.16 13:43:02.
