data_PCOD8210503
_publ_section_title
;
Structure prediction by ZEFSAII (Michael W. Deem and Ramdas Pophale) SiO2 
 PCOD8210503
Probable space group: P M M A
;
_chemical_formula_sum "Si O2"
_cell_formula_units_Z 52
_cell_length_a 8.598891
_cell_length_b 22.167106
_cell_length_c 14.004693
_cell_angle_alpha 90.000000
_cell_angle_beta 90.000000
_cell_angle_gamma 90.000000
_cell_volume 2669.469941
_symmetry_space_group_name_H-M "P M M A"
_symmetry_group_IT_number 51
_symmetry_cell_setting 'orthorhombic'
loop_
_space_group_symop_operation_xyz
x,y,z
1/2-x,-y,z
1/2+x,-y,-z
-x,y,-z
-x,-y,-z
1/2+x,y,-z
1/2-x,y,z
x,-y,z
loop_
_atom_site_type_symbol
_atom_site_label
_atom_site_fract_x
_atom_site_fract_y
_atom_site_fract_z
Si Si1 0.566193 0.500000 0.604079
Si Si2 0.064695 0.068500 0.102931
Si Si3 0.066002 0.617079 0.287066
Si Si4 0.433419 0.431287 0.898925
Si Si5 0.927603 0.153683 0.733815
Si Si6 0.576238 0.065789 0.399087
Si Si7 0.935350 0.737565 0.607411
O O1 0.750000 0.500000 0.599437
O O2 0.500000 0.500000 0.500000
O O3 0.502921 0.441440 0.658133
O O4 0.250000 0.070954 0.103518
O O5 0.996434 0.122225 0.171674
O O6 0.010935 0.000000 0.131991
O O7 0.000000 0.085112 0.000000
O O8 0.250000 0.617699 0.275964
O O9 0.008985 0.673769 0.349663
O O10 0.993870 0.615240 0.181205
O O11 0.250000 0.428338 0.903524
O O12 0.490864 0.500000 0.877477
O O13 0.500000 0.409078 0.000000
O O14 0.750000 0.168147 0.756336
O O15 0.001733 0.214057 0.685764
O O16 0.946563 0.102994 0.655187
O O17 0.500000 0.059170 0.500000
O O18 0.750000 0.095601 0.401245
O O19 0.590741 0.000000 0.351599
O O20 0.750000 0.742448 0.599925
O O21 0.000000 0.747721 0.500000
#
# Coordination Sequence:
#
# PCOD8210503 Si02
#       7
#     4   8   8   8   8   8   8
#     4  10  20  32  51  76 103 136 175 224 280 332
#     4   9  18  33  54  79 106 136 172 217 269 322
#     4  10  20  36  55  78 109 145 183 227 279 331
#     4  10  20  34  56  85 113 142 176 219 271 329
#     4  10  20  35  54  76 104 141 180 219 268 321
#     4  10  20  32  48  73 103 134 171 217 266 316
#     4  10  22  38  56  78 108 146 186 228 271 323
#
# _framework density 19.479521999999999
#
# number of rings (size 3 to 8) (size 9 to 14) (size 15 to 20)
#    0.000    2.154    0.769    2.308    0.000    5.846 
#    0.000    2.308    0.000    1.846    0.000    0.000 
#    0.000    0.000    0.000    0.000    0.000    0.000 
#
# Total GULP energy -644224.685072 kJ/mol
# GULP energy per Si atom -12388.936251 kJ/mol
# Density = 1.943519 g / cm^3
# Si number density = 19.479522 Si / 1000 Ang^3
#
#
#
# Elastic Constant Matrix: (Units=GPa)
#
#
# Indices 1 2 3 4 5 6 
#
# 1 20.6155 18.3019 18.8057 0.0000 0.0000 0.0000
# 2 18.3019 131.2288 89.3742 0.0000 0.0000 0.0000
# 3 18.8057 89.3742 144.5353 0.0000 0.0000 0.0000
# 4 0.0000 0.0000 0.0000 49.2667 0.0000 0.0000
# 5 0.0000 0.0000 0.0000 0.0000 34.5665 0.0000
# 6 0.0000 0.0000 0.0000 0.0000 0.0000 18.9365
#
#
#
# Elastic Compliance Matrix: (Units=1/GPa)
#
#
# Indices 1 2 3 4 5 6 
#
# 1 0.056875 -0.004996 -0.004311 0.000000 0.000000 0.000000
# 2 -0.004996 0.013603 -0.007761 0.000000 0.000000 0.000000
# 3 -0.004311 -0.007761 0.012279 0.000000 0.000000 0.000000
# 4 0.000000 0.000000 0.000000 0.020298 0.000000 0.000000
# 5 0.000000 0.000000 0.000000 0.000000 0.028930 0.000000
# 6 0.000000 0.000000 0.000000 0.000000 0.000000 0.052808
#
#
# Mechanical properties :
#
#
# Convention : Reuss Voigt Hill
#
# Bulk Modulus (GPa) = 20.56759 61.03815 40.80287
# Shear Modulus (GPa) = 21.26430 31.88046 26.57238
#
# Velocity S-wave (km/s) = 3.30756 4.04990 3.69740
# Velocity P-wave (km/s) = 5.01678 7.29873 6.26257
#
# Compressibility (1/GPa) = 0.04862018
#
# Stress axis : x y z
#
# Youngs Moduli (GPa) = 17.58243 73.51266 81.44034
#
# Poissons Ratio (x) = 0.36730 0.35105
# Poissons Ratio (y) = 0.08785 0.63210
# Poissons Ratio (z) = 0.07579 0.57057
#
# Static dielectric constant tensor:
#      x y z
#    x 3.410120 0.000000 0.000000 
#    y 0.000000 3.832900 0.000000 
#    z 0.000000 0.000000 3.866470 
# 
# 
# High freq. dielectric constant tensor:
#      x y z
#    x 1.741790 0.000000 0.000000 
#    y 0.000000 1.749200 0.000000 
#    z 0.000000 0.000000 1.765200 
# 
# From -- ./inp_files/21610.got.cif
#   From: 2010.03.12/outbox.cif.g09.slc.cpg/sg51_11_cif.got.tgz:21610.got - 2010.04.16 13:43:02.
