data_PCOD8210071
_publ_section_title
;
Structure prediction by ZEFSAII (Michael W. Deem and Ramdas Pophale) SiO2 
 PCOD8210071
Probable space group: P M M A
;
_chemical_formula_sum "Si O2"
_cell_formula_units_Z 64
_cell_length_a 14.968374
_cell_length_b 17.085033
_cell_length_c 12.682980
_cell_angle_alpha 90.000000
_cell_angle_beta 90.000000
_cell_angle_gamma 90.000000
_cell_volume 3243.483967
_symmetry_space_group_name_H-M "P M M A"
_symmetry_group_IT_number 51
_symmetry_cell_setting 'orthorhombic'
loop_
_space_group_symop_operation_xyz
x,y,z
1/2-x,-y,z
1/2+x,-y,-z
-x,y,-z
-x,-y,-z
1/2+x,y,-z
1/2-x,y,z
x,-y,z
loop_
_atom_site_type_symbol
_atom_site_label
_atom_site_fract_x
_atom_site_fract_y
_atom_site_fract_z
Si Si1 0.901694 0.910734 0.815309
Si Si2 0.154912 0.806748 0.365123
Si Si3 0.580139 0.842062 0.239988
Si Si4 0.100485 0.088643 0.541798
Si Si5 0.850672 0.913058 0.041522
Si Si6 0.999040 0.695164 0.678434
Si Si7 0.147602 0.410661 0.563687
Si Si8 0.349071 0.412081 0.313530
O O1 0.844778 0.848246 0.749377
O O2 0.001578 0.905333 0.771599
O O3 0.866391 0.000000 0.802079
O O4 0.906107 0.886016 0.938679
O O5 0.250000 0.759848 0.371674
O O6 0.160804 0.874734 0.451266
O O7 0.069671 0.750604 0.389637
O O8 0.622743 0.861287 0.353148
O O9 0.644136 0.853366 0.139739
O O10 0.548523 0.751308 0.238155
O O11 0.000000 0.094052 0.500000
O O12 0.130265 0.000000 0.562598
O O13 0.750000 0.914909 0.000892
O O14 0.881569 0.000000 0.077730
O O15 0.929771 0.637365 0.739391
O O16 0.073886 0.648151 0.612421
O O17 0.250000 0.387244 0.595554
O O18 0.128571 0.500000 0.601892
O O19 0.136502 0.407188 0.438801
O O20 0.250000 0.381222 0.282256
O O21 0.359170 0.500000 0.273044
#
# Coordination Sequence:
#
# PCOD8210071 Si02
#       8
#     8   8   8   8   8   8   8   8
#     4  10  19  36  61  80  99 135 189 249 298 336
#     4  11  24  36  51  80 112 147 192 235 282 335
#     4  11  23  34  52  78 109 146 186 225 280 338
#     4  11  21  36  52  69 103 151 196 231 266 323
#     4  10  21  37  57  79 102 133 183 245 301 344
#     4  11  21  32  50  74 109 148 176 220 273 325
#     4   9  19  34  54  78 102 138 188 232 270 319
#     4   9  18  32  52  77 104 140 186 229 266 313
#
# _framework density 19.731867999999999
#
# number of rings (size 3 to 8) (size 9 to 14) (size 15 to 20)
#    0.000    1.750    2.500    4.125    3.500    4.500 
#    0.000    0.000    0.000    0.000    0.000    0.000 
#    0.000   32.000    0.000   53.000    0.000    0.000 
#
# Total GULP energy -792893.330655 kJ/mol
# GULP energy per Si atom -12388.958291 kJ/mol
# Density = 1.968696 g / cm^3
# Si number density = 19.731868 Si / 1000 Ang^3
#
#
#
# Elastic Constant Matrix: (Units=GPa)
#
#
# Indices 1 2 3 4 5 6 
#
# 1 86.8495 42.4304 15.7061 0.0000 0.0000 0.0000
# 2 42.4304 117.2458 35.5471 0.0000 0.0000 0.0000
# 3 15.7061 35.5471 85.9342 0.0000 0.0000 0.0000
# 4 0.0000 0.0000 0.0000 16.9961 0.0000 0.0000
# 5 0.0000 0.0000 0.0000 0.0000 5.6249 0.0000
# 6 0.0000 0.0000 0.0000 0.0000 0.0000 14.2290
#
#
#
# Elastic Compliance Matrix: (Units=1/GPa)
#
#
# Indices 1 2 3 4 5 6 
#
# 1 0.014008 -0.004909 -0.000530 0.000000 0.000000 0.000000
# 2 -0.004909 0.011472 -0.003848 0.000000 0.000000 0.000000
# 3 -0.000530 -0.003848 0.013326 0.000000 0.000000 0.000000
# 4 0.000000 0.000000 0.000000 0.058837 0.000000 0.000000
# 5 0.000000 0.000000 0.000000 0.000000 0.177780 0.000000
# 6 0.000000 0.000000 0.000000 0.000000 0.000000 0.070279
#
#
# Mechanical properties :
#
#
# Convention : Reuss Voigt Hill
#
# Bulk Modulus (GPa) = 49.42625 53.04407 51.23516
# Shear Modulus (GPa) = 13.47633 20.45971 16.96802
#
# Velocity S-wave (km/s) = 2.61621 3.22357 2.93564
# Velocity P-wave (km/s) = 5.85059 6.38717 6.12476
#
# Compressibility (1/GPa) = 0.02023216
#
# Stress axis : x y z
#
# Youngs Moduli (GPa) = 71.38681 87.16609 75.04389
#
# Poissons Ratio (x) = 0.42789 0.03975
# Poissons Ratio (y) = 0.35043 0.28880
# Poissons Ratio (z) = 0.03781 0.33545
#
# Static dielectric constant tensor:
#      x y z
#    x 3.971540 0.000000 0.000000 
#    y 0.000000 3.852370 0.000000 
#    z 0.000000 0.000000 3.283900 
# 
# 
# High freq. dielectric constant tensor:
#      x y z
#    x 1.780350 0.000000 0.000000 
#    y 0.000000 1.766520 0.000000 
#    z 0.000000 0.000000 1.719020 
# 
# From -- ./inp_files/16846.got.cif
#   From: 2010.03.12/outbox.cif.g09.slc.cpg/sg51_9_cif.got.tgz:16846.got - 2010.04.16 13:43:02.
