data_PCOD8210167
_publ_section_title
;
Structure prediction by ZEFSAII (Michael W. Deem and Ramdas Pophale) SiO2 
 PCOD8210167
Probable space group: P M M A
;
_chemical_formula_sum "Si O2"
_cell_formula_units_Z 64
_cell_length_a 18.459039
_cell_length_b 9.733168
_cell_length_c 20.513529
_cell_angle_alpha 90.000000
_cell_angle_beta 90.000000
_cell_angle_gamma 90.000000
_cell_volume 3685.561705
_symmetry_space_group_name_H-M "P M M A"
_symmetry_group_IT_number 51
_symmetry_cell_setting 'orthorhombic'
loop_
_space_group_symop_operation_xyz
x,y,z
1/2-x,-y,z
1/2+x,-y,-z
-x,y,-z
-x,-y,-z
1/2+x,y,-z
1/2-x,y,z
x,-y,z
loop_
_atom_site_type_symbol
_atom_site_label
_atom_site_fract_x
_atom_site_fract_y
_atom_site_fract_z
Si Si1 0.332581 0.154439 0.257122
Si Si2 0.951382 0.158949 0.400234
Si Si3 0.332864 0.650333 0.367708
Si Si4 0.333720 0.339537 0.847352
Si Si5 0.602077 0.839887 0.539110
Si Si6 0.529217 0.660517 0.069513
Si Si7 0.040290 0.150591 0.168722
Si Si8 0.091346 0.157667 0.739862
O O1 0.250000 0.189270 0.239767
O O2 0.366941 0.259408 0.309426
O O3 0.377049 0.168786 0.190650
O O4 0.339947 0.000000 0.285810
O O5 0.898626 0.183842 0.461456
O O6 0.916651 0.221454 0.333712
O O7 0.029779 0.213739 0.423251
O O8 0.961661 0.000000 0.385223
O O9 0.250000 0.626902 0.351226
O O10 0.370952 0.500000 0.373180
O O11 0.336431 0.738833 0.434131
O O12 0.250000 0.307478 0.867001
O O13 0.342898 0.500000 0.829496
O O14 0.387343 0.302318 0.908939
O O15 0.354653 0.250585 0.783550
O O16 0.617387 0.000000 0.553793
O O17 0.516923 0.500000 0.074173
O O18 0.474186 0.729479 0.118794
O O19 0.500000 0.715033 0.000000
O O20 0.989065 0.163381 0.231448
O O21 0.028745 0.000000 0.136255
O O22 0.120997 0.000000 0.739411
#
# Coordination Sequence:
#
# PCOD8210167 Si02
#       8
#     8   8   8   8   8   8   8   8
#     4   9  17  30  48  68  91 122 158 191 227 277
#     4   8  15  28  47  69  89 111 145 192 238 278
#     4  10  20  31  42  60  88 119 151 189 230 270
#     4   9  18  33  51  70  94 124 157 192 229 271
#     4   9  16  29  48  65  84 114 152 191 233 283
#     4   9  18  33  52  73  97 126 159 190 221 266
#     4   9  17  29  48  73  97 121 150 187 229 269
#     4   9  16  28  47  70  94 118 149 191 236 278
#
# _framework density 17.365058999999999
#
# number of rings (size 3 to 8) (size 9 to 14) (size 15 to 20)
#    0.000    3.000    0.000    1.875    0.000    3.750 
#    0.000    6.250    0.000    4.500    0.000    0.000 
#    0.000    0.000    0.000    0.000    0.000    0.000 
#
# Total GULP energy -792849.026415 kJ/mol
# GULP energy per Si atom -12388.266038 kJ/mol
# Density = 1.732554 g / cm^3
# Si number density = 17.365059 Si / 1000 Ang^3
#
#
#
# Elastic Constant Matrix: (Units=GPa)
#
#
# Indices 1 2 3 4 5 6 
#
# 1 67.5947 34.7404 47.2563 0.0000 0.0000 0.0000
# 2 34.7404 65.3037 42.4499 0.0000 0.0000 0.0000
# 3 47.2563 42.4499 115.8530 0.0000 0.0000 0.0000
# 4 0.0000 0.0000 0.0000 -549.0071 0.0000 0.0000
# 5 0.0000 0.0000 0.0000 0.0000 21.7000 0.0000
# 6 0.0000 0.0000 0.0000 0.0000 0.0000 20.2495
#
#
#
# Elastic Compliance Matrix: (Units=1/GPa)
#
#
# Indices 1 2 3 4 5 6 
#
# 1 0.023688 -0.008297 -0.006622 0.000000 0.000000 0.000000
# 2 -0.008297 0.023007 -0.005046 0.000000 0.000000 0.000000
# 3 -0.006622 -0.005046 0.013182 0.000000 0.000000 0.000000
# 4 0.000000 0.000000 0.000000 -0.001821 0.000000 0.000000
# 5 0.000000 0.000000 0.000000 0.000000 0.046083 0.000000
# 6 0.000000 0.000000 0.000000 0.000000 0.000000 0.049384
#
#
# Mechanical properties :
#
#
# Convention : Reuss Voigt Hill
#
# Bulk Modulus (GPa) = 50.13334 55.29383 52.71359
# Shear Modulus (GPa) = 24.98747 -93.12456 -34.06854
#
# Velocity S-wave (km/s) = 3.79747 -7.33103 -4.43414
# Velocity P-wave (km/s) = 6.93978 6.30456 2.05099
#
# Compressibility (1/GPa) = 0.01994680
#
# Stress axis : x y z
#
# Youngs Moduli (GPa) = 42.21556 43.46558 75.86326
#
# Poissons Ratio (x) = 0.36063 0.50238
# Poissons Ratio (y) = 0.35026 0.38278
# Poissons Ratio (z) = 0.27956 0.21931
#
# Static dielectric constant tensor:
#      x y z
#    x 3.148680 0.000000 0.000000 
#    y 0.000000 3.319780 0.000000 
#    z 0.000000 0.000000 3.253060 
# 
# 
# High freq. dielectric constant tensor:
#      x y z
#    x 1.654250 0.000000 0.000000 
#    y 0.000000 1.661300 0.000000 
#    z 0.000000 0.000000 1.657360 
# 
# From -- ./inp_files/34169.got.cif
#   From: 2010.03.12/outbox.cif.g09.slc.cpg/sg51_18_cif.got.tgz:34169.got - 2010.04.16 13:43:02.
