data_PCOD8210407
_publ_section_title
;
Structure prediction by ZEFSAII (Michael W. Deem and Ramdas Pophale) SiO2 
 PCOD8210407
Probable space group: P M M A
;
_chemical_formula_sum "Si O2"
_cell_formula_units_Z 40
_cell_length_a 9.241748
_cell_length_b 9.302634
_cell_length_c 25.828226
_cell_angle_alpha 90.000000
_cell_angle_beta 90.000000
_cell_angle_gamma 90.000000
_cell_volume 2220.519721
_symmetry_space_group_name_H-M "P M M A"
_symmetry_group_IT_number 51
_symmetry_cell_setting 'orthorhombic'
loop_
_space_group_symop_operation_xyz
x,y,z
1/2-x,-y,z
1/2+x,-y,-z
-x,y,-z
-x,-y,-z
1/2+x,y,-z
1/2-x,y,z
x,-y,z
loop_
_atom_site_type_symbol
_atom_site_label
_atom_site_fract_x
_atom_site_fract_y
_atom_site_fract_z
Si Si1 0.913954 0.328806 0.549642
Si Si2 0.582329 0.832117 0.738265
Si Si3 0.589839 0.170625 0.854302
Si Si4 0.912166 0.828423 0.049331
Si Si5 0.417192 0.330869 0.650571
O O1 0.750000 0.269021 0.549156
O O2 0.913149 0.500000 0.548096
O O3 0.000000 0.267982 0.500000
O O4 0.994845 0.273304 0.600925
O O5 0.750000 0.794817 0.727342
O O6 0.539400 0.785551 0.796680
O O7 0.478410 0.743629 0.701350
O O8 0.554059 0.000000 0.729467
O O9 0.750000 0.232514 0.865372
O O10 0.481929 0.232778 0.897691
O O11 0.596106 0.000000 0.857807
O O12 0.750000 0.768485 0.045656
O O13 0.913413 0.000000 0.049669
O O14 0.000000 0.769651 0.000000
O O15 0.250000 0.289700 0.642981
O O16 0.437876 0.500000 0.657211
#
# Coordination Sequence:
#
# PCOD8210407 Si02
#       5
#     8   8   8   8   8
#     4   9  16  27  45  68  93 120 150 186 228 272
#     4   9  18  32  49  68  91 122 158 193 231 276
#     4   8  14  25  39  55  78 108 142 180 221 266
#     4   9  15  21  31  49  74 105 140 177 218 263
#     4  10  20  32  47  70  98 125 155 191 228 268
#
# _framework density 18.013801999999998
#
# number of rings (size 3 to 8) (size 9 to 14) (size 15 to 20)
#    0.000    3.000    0.000    3.000    0.000    7.200 
#    0.000    2.000    0.000    0.600    0.000    0.000 
#    0.000    0.800    0.000    2.600    0.000    5.800 
#
# Total GULP energy -495879.318927 kJ/mol
# GULP energy per Si atom -12396.982973 kJ/mol
# Density = 1.797280 g / cm^3
# Si number density = 18.013802 Si / 1000 Ang^3
#
#
#
# Elastic Constant Matrix: (Units=GPa)
#
#
# Indices 1 2 3 4 5 6 
#
# 1 166.9932 24.3003 108.8263 0.0000 0.0000 0.0000
# 2 24.3003 11.9005 23.3390 0.0000 0.0000 0.0000
# 3 108.8263 23.3390 175.1624 0.0000 0.0000 0.0000
# 4 0.0000 0.0000 0.0000 88.6281 0.0000 0.0000
# 5 0.0000 0.0000 0.0000 0.0000 42.8387 0.0000
# 6 0.0000 0.0000 0.0000 0.0000 0.0000 16.6814
#
#
#
# Elastic Compliance Matrix: (Units=1/GPa)
#
#
# Indices 1 2 3 4 5 6 
#
# 1 0.011305 -0.012603 -0.005344 0.000000 0.000000 0.000000
# 2 -0.012603 0.127806 -0.009199 0.000000 0.000000 0.000000
# 3 -0.005344 -0.009199 0.010255 0.000000 0.000000 0.000000
# 4 0.000000 0.000000 0.000000 0.011283 0.000000 0.000000
# 5 0.000000 0.000000 0.000000 0.000000 0.023343 0.000000
# 6 0.000000 0.000000 0.000000 0.000000 0.000000 0.059947
#
#
# Mechanical properties :
#
#
# Convention : Reuss Voigt Hill
#
# Bulk Modulus (GPa) = 10.51823 74.10968 42.31396
# Shear Modulus (GPa) = 15.15504 42.80235 28.97870
#
# Velocity S-wave (km/s) = 2.90367 4.87980 4.01520
# Velocity P-wave (km/s) = 4.13441 8.54282 6.71093
#
# Compressibility (1/GPa) = 0.09507300
#
# Stress axis : x y z
#
# Youngs Moduli (GPa) = 88.45552 7.82438 97.51217
#
# Poissons Ratio (x) = 0.09861 0.52115
# Poissons Ratio (y) = 1.11481 0.89701
# Poissons Ratio (z) = 0.47275 0.07198
#
# Static dielectric constant tensor:
#      x y z
#    x 3.555790 0.000000 0.000000 
#    y 0.000000 2.620920 0.000000 
#    z 0.000000 0.000000 3.583750 
# 
# 
# High freq. dielectric constant tensor:
#      x y z
#    x 1.708160 0.000000 0.000000 
#    y 0.000000 1.618460 0.000000 
#    z 0.000000 0.000000 1.716460 
# 
# From -- ./inp_files/31363.got.cif
#   From: 2010.03.12/outbox.cif.g09.slc.cpg/sg51_16_cif.got.tgz:31363.got - 2010.04.16 13:43:02.
