data_PCOD8210349
_publ_section_title
;
Structure prediction by ZEFSAII (Michael W. Deem and Ramdas Pophale) SiO2 
 PCOD8210349
Probable space group: P M M A
;
_chemical_formula_sum "Si O2"
_cell_formula_units_Z 64
_cell_length_a 24.200815
_cell_length_b 9.225480
_cell_length_c 15.089456
_cell_angle_alpha 90.000000
_cell_angle_beta 90.000000
_cell_angle_gamma 90.000000
_cell_volume 3368.934338
_symmetry_space_group_name_H-M "P M M A"
_symmetry_group_IT_number 51
_symmetry_cell_setting 'orthorhombic'
loop_
_space_group_symop_operation_xyz
x,y,z
1/2-x,-y,z
1/2+x,-y,-z
-x,y,-z
-x,-y,-z
1/2+x,y,-z
1/2-x,y,z
x,-y,z
loop_
_atom_site_type_symbol
_atom_site_label
_atom_site_fract_x
_atom_site_fract_y
_atom_site_fract_z
Si Si1 0.900316 0.160024 0.194965
Si Si2 0.372616 0.338669 0.646268
Si Si3 0.061378 0.334389 0.973094
Si Si4 0.023482 0.158014 0.251311
Si Si5 0.107470 0.334443 0.158126
Si Si6 0.685860 0.170585 0.709868
Si Si7 0.001076 0.660992 0.597076
Si Si8 0.685477 0.668244 0.531603
O O1 0.860400 0.242474 0.265621
O O2 0.908968 0.245060 0.103949
O O3 0.958989 0.139780 0.240561
O O4 0.875273 0.000000 0.175340
O O5 0.348259 0.500000 0.662656
O O6 0.437803 0.348600 0.634893
O O7 0.345109 0.272815 0.557010
O O8 0.053467 0.500000 0.941226
O O9 0.107015 0.325473 0.051684
O O10 0.000000 0.273650 0.000000
O O11 0.047321 0.268474 0.179479
O O12 0.036717 0.230918 0.345966
O O13 0.052616 0.000000 0.246564
O O14 0.112693 0.500000 0.190680
O O15 0.154293 0.239088 0.205848
O O16 0.750000 0.205150 0.725313
O O17 0.665428 0.242073 0.617687
O O18 0.674208 0.000000 0.705689
O O19 0.974129 0.500000 0.596744
O O20 0.000000 0.728463 0.500000
O O21 0.750000 0.692283 0.515879
O O22 0.670700 0.500000 0.547871
#
# Coordination Sequence:
#
# PCOD8210349 Si02
#       8
#     8   8   8   8   8   8   8   8
#     4  10  20  33  51  75 108 143 175 217 263 314
#     4   9  18  32  50  72 102 139 175 217 265 313
#     4  10  20  35  55  79 107 141 180 220 262 315
#     4  10  20  32  46  71 104 138 174 213 261 312
#     4  11  22  35  56  80 104 139 181 224 268 317
#     4  10  22  39  57  80 111 143 175 219 273 323
#     4   9  18  30  44  65  96 137 179 214 252 308
#     4   9  18  34  57  83 107 137 181 227 269 319
#
# _framework density 18.997104
#
# number of rings (size 3 to 8) (size 9 to 14) (size 15 to 20)
#    0.000    2.250    1.250    1.500    1.750    3.750 
#    0.000    0.000    0.000    0.750    0.000    1.750 
#    0.000    0.000    0.000    0.000    0.000    0.000 
#
# Total GULP energy -793162.992066 kJ/mol
# GULP energy per Si atom -12393.171751 kJ/mol
# Density = 1.895387 g / cm^3
# Si number density = 18.997104 Si / 1000 Ang^3
#
#
#
# Elastic Constant Matrix: (Units=GPa)
#
#
# Indices 1 2 3 4 5 6 
#
# 1 36.1731 20.7556 21.4588 0.0000 0.0000 0.0000
# 2 20.7556 119.4020 72.7252 0.0000 0.0000 0.0000
# 3 21.4588 72.7252 132.3111 0.0000 0.0000 0.0000
# 4 0.0000 0.0000 0.0000 19.1408 0.0000 0.0000
# 5 0.0000 0.0000 0.0000 0.0000 25.7860 0.0000
# 6 0.0000 0.0000 0.0000 0.0000 0.0000 20.2205
#
#
#
# Elastic Compliance Matrix: (Units=1/GPa)
#
#
# Indices 1 2 3 4 5 6 
#
# 1 0.031564 -0.003561 -0.003162 0.000000 0.000000 0.000000
# 2 -0.003561 0.012992 -0.006563 0.000000 0.000000 0.000000
# 3 -0.003162 -0.006563 0.011678 0.000000 0.000000 0.000000
# 4 0.000000 0.000000 0.000000 0.052245 0.000000 0.000000
# 5 0.000000 0.000000 0.000000 0.000000 0.038781 0.000000
# 6 0.000000 0.000000 0.000000 0.000000 0.000000 0.049455
#
#
# Mechanical properties :
#
#
# Convention : Reuss Voigt Hill
#
# Bulk Modulus (GPa) = 33.71381 57.52950 45.62165
# Shear Modulus (GPa) = 21.44327 24.55922 23.00124
#
# Velocity S-wave (km/s) = 3.36335 3.59944 3.48340
# Velocity P-wave (km/s) = 5.73308 6.90099 6.34397
#
# Compressibility (1/GPa) = 0.02966143
#
# Stress axis : x y z
#
# Youngs Moduli (GPa) = 31.68191 76.97226 85.62855
#
# Poissons Ratio (x) = 0.27409 0.27075
# Poissons Ratio (y) = 0.11282 0.56201
# Poissons Ratio (z) = 0.10017 0.50520
#
# Static dielectric constant tensor:
#      x y z
#    x 3.147890 0.000000 0.000000 
#    y 0.000000 3.821880 0.000000 
#    z 0.000000 0.000000 3.518740 
# 
# 
# High freq. dielectric constant tensor:
#      x y z
#    x 1.698220 0.000000 0.000000 
#    y 0.000000 1.743240 0.000000 
#    z 0.000000 0.000000 1.742660 
# 
# From -- ./inp_files/26201.got.cif
#   From: 2010.03.12/outbox.cif.g09.slc.cpg/sg51_14_cif.got.tgz:26201.got - 2010.04.16 13:43:02.
