data_PCOD8210785
_publ_section_title
;
Structure prediction by ZEFSAII (Michael W. Deem and Ramdas Pophale) SiO2 
 PCOD8210785
Probable space group: P M M A
;
_chemical_formula_sum "Si O2"
_cell_formula_units_Z 64
_cell_length_a 29.455737
_cell_length_b 9.098065
_cell_length_c 12.776835
_cell_angle_alpha 90.000000
_cell_angle_beta 90.000000
_cell_angle_gamma 90.000000
_cell_volume 3424.066693
_symmetry_space_group_name_H-M "P M M A"
_symmetry_group_IT_number 51
_symmetry_cell_setting 'orthorhombic'
loop_
_space_group_symop_operation_xyz
x,y,z
1/2-x,-y,z
1/2+x,-y,-z
-x,y,-z
-x,-y,-z
1/2+x,y,-z
1/2-x,y,z
x,-y,z
loop_
_atom_site_type_symbol
_atom_site_label
_atom_site_fract_x
_atom_site_fract_y
_atom_site_fract_z
Si Si1 0.003300 0.170911 0.250997
Si Si2 0.196699 0.670150 0.626692
Si Si3 0.460587 0.341465 0.923732
Si Si4 0.300569 0.674790 0.860925
Si Si5 0.130491 0.673121 0.036126
Si Si6 0.128630 0.827949 0.475374
Si Si7 0.544137 0.663136 0.431200
Si Si8 0.107230 0.828600 0.242591
O O1 0.055201 0.229734 0.252213
O O2 0.978909 0.204835 0.142406
O O3 0.970207 0.257882 0.326495
O O4 0.002363 0.000000 0.278762
O O5 0.250000 0.696950 0.611237
O O6 0.184316 0.500000 0.610472
O O7 0.182208 0.722100 0.744397
O O8 0.170877 0.763023 0.538822
O O9 0.449011 0.500000 0.865791
O O10 0.500000 0.385426 0.000000
O O11 0.417349 0.283020 0.986575
O O12 0.250000 0.737168 0.879967
O O13 0.299702 0.500000 0.862815
O O14 0.331981 0.735488 0.954624
O O15 0.136085 0.500000 0.052868
O O16 0.134586 0.747659 0.150011
O O17 0.081843 0.757285 0.511124
O O18 0.133858 0.797059 0.351032
O O19 0.125827 0.000000 0.497875
O O20 0.500000 0.651982 0.500000
O O21 0.563377 0.500000 0.407346
O O22 0.106156 0.000000 0.215556
#
# Coordination Sequence:
#
# PCOD8210785 Si02
#       8
#     8   8   8   8   8   8   8   8
#     4  11  22  36  53  74 108 151 190 230 278 335
#     4   9  19  38  63  89 116 146 185 235 289 344
#     4  10  20  33  49  76 111 144 183 229 274 323
#     4   8  16  34  59  85 112 140 173 223 283 331
#     4  10  20  34  56  82 109 144 187 231 274 331
#     4  11  23  39  58  83 116 153 193 235 284 343
#     4  11  23  37  56  81 110 147 191 237 284 335
#     4  10  22  38  54  75 112 154 188 228 278 333
#
# _framework density 18.691223999999998
#
# number of rings (size 3 to 8) (size 9 to 14) (size 15 to 20)
#    0.000    2.000    2.500    1.875    1.750    3.000 
#    0.000    1.250    0.000    3.375    0.000    0.000 
#    0.000    0.000    0.000    0.000    0.000    0.000 
#
# Total GULP energy -793228.267173 kJ/mol
# GULP energy per Si atom -12394.191675 kJ/mol
# Density = 1.864868 g / cm^3
# Si number density = 18.691224 Si / 1000 Ang^3
#
#
#
# Elastic Constant Matrix: (Units=GPa)
#
#
# Indices 1 2 3 4 5 6 
#
# 1 89.2348 38.9534 63.5941 0.0000 0.0000 0.0000
# 2 38.9534 78.9484 58.3899 0.0000 0.0000 0.0000
# 3 63.5941 58.3899 137.7259 0.0000 0.0000 0.0000
# 4 0.0000 0.0000 0.0000 32.9176 0.0000 0.0000
# 5 0.0000 0.0000 0.0000 0.0000 32.0655 0.0000
# 6 0.0000 0.0000 0.0000 0.0000 0.0000 24.4616
#
#
#
# Elastic Compliance Matrix: (Units=1/GPa)
#
#
# Indices 1 2 3 4 5 6 
#
# 1 0.017477 -0.003867 -0.006430 0.000000 0.000000 0.000000
# 2 -0.003867 0.019308 -0.006400 0.000000 0.000000 0.000000
# 3 -0.006430 -0.006400 0.012943 0.000000 0.000000 0.000000
# 4 0.000000 0.000000 0.000000 0.030379 0.000000 0.000000
# 5 0.000000 0.000000 0.000000 0.000000 0.031186 0.000000
# 6 0.000000 0.000000 0.000000 0.000000 0.000000 0.040880
#
#
# Mechanical properties :
#
#
# Convention : Reuss Voigt Hill
#
# Bulk Modulus (GPa) = 61.22581 69.75378 65.48980
# Shear Modulus (GPa) = 26.17601 27.55372 26.86487
#
# Velocity S-wave (km/s) = 3.74631 3.84364 3.79528
# Velocity P-wave (km/s) = 7.17918 7.55633 7.37017
#
# Compressibility (1/GPa) = 0.01633298
#
# Stress axis : x y z
#
# Youngs Moduli (GPa) = 57.21689 51.79148 77.25967
#
# Poissons Ratio (x) = 0.20030 0.49681
# Poissons Ratio (y) = 0.22129 0.49447
# Poissons Ratio (z) = 0.36793 0.33147
#
# Static dielectric constant tensor:
#      x y z
#    x 3.358180 0.000000 0.000000 
#    y 0.000000 3.286820 0.000000 
#    z 0.000000 0.000000 3.533170 
# 
# 
# High freq. dielectric constant tensor:
#      x y z
#    x 1.715330 0.000000 0.000000 
#    y 0.000000 1.712590 0.000000 
#    z 0.000000 0.000000 1.731320 
# 
# From -- ./inp_files/19488.got.cif
#   From: 2010.03.12/outbox.cif.g09.slc.cpg/sg51_10_cif.got.tgz:19488.got - 2010.04.16 13:43:02.
