data_PCOD8210048
_publ_section_title
;
Structure prediction by ZEFSAII (Michael W. Deem and Ramdas Pophale) SiO2 
 PCOD8210048
Probable space group: P M M A
;
_chemical_formula_sum "Si O2"
_cell_formula_units_Z 48
_cell_length_a 18.059397
_cell_length_b 8.967958
_cell_length_c 15.883966
_cell_angle_alpha 90.000000
_cell_angle_beta 90.000000
_cell_angle_gamma 90.000000
_cell_volume 2572.502228
_symmetry_space_group_name_H-M "P M M A"
_symmetry_group_IT_number 51
_symmetry_cell_setting 'orthorhombic'
loop_
_space_group_symop_operation_xyz
x,y,z
1/2-x,-y,z
1/2+x,-y,-z
-x,y,-z
-x,-y,-z
1/2+x,y,-z
1/2-x,y,z
x,-y,z
loop_
_atom_site_type_symbol
_atom_site_label
_atom_site_fract_x
_atom_site_fract_y
_atom_site_fract_z
Si Si1 0.250000 0.322409 0.284232
Si Si2 0.664298 0.326267 0.422579
Si Si3 0.022214 0.825645 0.865551
Si Si4 0.610304 0.674522 0.609848
Si Si5 0.250000 0.325442 0.095858
Si Si6 0.464230 0.822268 0.677435
Si Si7 0.112396 0.824891 0.022956
O O1 0.250000 0.500000 0.289406
O O2 0.175121 0.264238 0.328946
O O3 0.250000 0.256655 0.189843
O O4 0.750000 0.277366 0.412400
O O5 0.654998 0.500000 0.401880
O O6 0.637317 0.291377 0.516299
O O7 0.613697 0.232294 0.359452
O O8 0.031613 0.756677 0.772729
O O9 0.949399 0.765082 0.912183
O O10 0.012714 0.000000 0.855460
O O11 0.091538 0.790332 0.926022
O O12 0.595462 0.500000 0.624098
O O13 0.533884 0.760730 0.625343
O O14 0.250000 0.500000 0.105558
O O15 0.317838 0.273425 0.041228
O O16 0.466067 0.000000 0.674519
O O17 0.127787 0.000000 0.035605
#
# Coordination Sequence:
#
# PCOD8210048 Si02
#       7
#     4   8   8   8   4   8   8
#     4   9  18  33  55  80 109 142 176 221 271 315
#     4  10  21  39  59  77 103 144 191 226 255 309
#     4   8  17  35  57  78 100 135 183 222 253 305
#     4  10  19  36  59  80 104 142 187 222 258 315
#     4  11  21  31  47  82 117 134 160 213 275 321
#     4  11  22  35  54  84 114 138 172 224 279 322
#     4   9  17  35  59  75  98 141 184 215 250 309
#
# _framework density 18.658877
#
# number of rings (size 3 to 8) (size 9 to 14) (size 15 to 20)
#    0.000    2.333    0.833    3.250    0.000    3.000 
#    1.500    5.417    0.000    0.000    0.000    0.000 
#    0.000    0.000    0.000    0.000    0.000    0.000 
#
# Total GULP energy -595094.548317 kJ/mol
# GULP energy per Si atom -12397.803090 kJ/mol
# Density = 1.861641 g / cm^3
# Si number density = 18.658877 Si / 1000 Ang^3
#
#
#
# Elastic Constant Matrix: (Units=GPa)
#
#
# Indices 1 2 3 4 5 6 
#
# 1 144.8274 43.2096 68.1751 0.0000 0.0000 0.0000
# 2 43.2096 45.5545 35.2223 0.0000 0.0000 0.0000
# 3 68.1751 35.2223 89.8651 0.0000 0.0000 0.0000
# 4 0.0000 0.0000 0.0000 24.9529 0.0000 0.0000
# 5 0.0000 0.0000 0.0000 0.0000 28.8516 0.0000
# 6 0.0000 0.0000 0.0000 0.0000 0.0000 42.0676
#
#
#
# Elastic Compliance Matrix: (Units=1/GPa)
#
#
# Indices 1 2 3 4 5 6 
#
# 1 0.011828 -0.006143 -0.006566 0.000000 0.000000 0.000000
# 2 -0.006143 0.034687 -0.008935 0.000000 0.000000 0.000000
# 3 -0.006566 -0.008935 0.019611 0.000000 0.000000 0.000000
# 4 0.000000 0.000000 0.000000 0.040076 0.000000 0.000000
# 5 0.000000 0.000000 0.000000 0.000000 0.034660 0.000000
# 6 0.000000 0.000000 0.000000 0.000000 0.000000 0.023771
#
#
# Mechanical properties :
#
#
# Convention : Reuss Voigt Hill
#
# Bulk Modulus (GPa) = 43.78551 63.71786 53.75168
# Shear Modulus (GPa) = 23.19828 28.08375 25.64101
#
# Velocity S-wave (km/s) = 3.52985 3.88379 3.71104
# Velocity P-wave (km/s) = 6.33485 7.37121 6.87259
#
# Compressibility (1/GPa) = 0.02283861
#
# Stress axis : x y z
#
# Youngs Moduli (GPa) = 84.54398 28.82925 50.99210
#
# Poissons Ratio (x) = 0.17709 0.33480
# Poissons Ratio (y) = 0.51934 0.45563
# Poissons Ratio (z) = 0.55509 0.25760
#
# Static dielectric constant tensor:
#      x y z
#    x 3.473160 0.000000 0.000000 
#    y 0.000000 3.101370 0.000000 
#    z 0.000000 0.000000 3.796790 
# 
# 
# High freq. dielectric constant tensor:
#      x y z
#    x 1.732290 0.000000 0.000000 
#    y 0.000000 1.694960 0.000000 
#    z 0.000000 0.000000 1.734330 
# 
# From -- ./inp_files/24835.got.cif
#   From: 2010.03.12/outbox.cif.g09.slc.cpg/sg51_13_cif.got.tgz:24835.got - 2010.04.16 13:43:02.
