data_PCOD8210899
_publ_section_title
;
Structure prediction by ZEFSAII (Michael W. Deem and Ramdas Pophale) SiO2 
 PCOD8210899
Probable space group: P M M A
;
_chemical_formula_sum "Si O2"
_cell_formula_units_Z 56
_cell_length_a 18.668362
_cell_length_b 8.909084
_cell_length_c 18.133507
_cell_angle_alpha 90.000000
_cell_angle_beta 90.000000
_cell_angle_gamma 90.000000
_cell_volume 3015.928712
_symmetry_space_group_name_H-M "P M M A"
_symmetry_group_IT_number 51
_symmetry_cell_setting 'orthorhombic'
loop_
_space_group_symop_operation_xyz
x,y,z
1/2-x,-y,z
1/2+x,-y,-z
-x,y,-z
-x,-y,-z
1/2+x,y,-z
1/2-x,y,z
x,-y,z
loop_
_atom_site_type_symbol
_atom_site_label
_atom_site_fract_x
_atom_site_fract_y
_atom_site_fract_z
Si Si1 0.576241 0.323411 0.651040
Si Si2 0.915303 0.165080 0.505236
Si Si3 0.164685 0.830537 0.930383
Si Si4 0.665169 0.671765 0.217538
Si Si5 0.335304 0.669438 0.076402
Si Si6 0.665083 0.171487 0.775769
Si Si7 0.422853 0.822203 0.655950
O O1 0.567916 0.500000 0.654787
O O2 0.606502 0.278663 0.570102
O O3 0.633581 0.269156 0.710049
O O4 0.500081 0.250430 0.669043
O O5 0.889831 0.221924 0.424466
O O6 0.000000 0.151872 0.500000
O O7 0.883025 0.000000 0.523240
O O8 0.250000 0.830804 0.932307
O O9 0.136800 0.741226 0.858983
O O10 0.134978 0.000000 0.927744
O O11 0.134144 0.748920 0.003081
O O12 0.750000 0.685769 0.223070
O O13 0.639751 0.500000 0.221585
O O14 0.632625 0.764708 0.284291
O O15 0.250000 0.668655 0.074205
O O16 0.365076 0.500000 0.080229
O O17 0.363045 0.761444 0.147002
O O18 0.750000 0.183155 0.770876
O O19 0.638923 0.000000 0.769822
O O20 0.432319 0.000000 0.661808
#
# Coordination Sequence:
#
# PCOD8210899 Si02
#       7
#     8   8   8   8   8   8   8
#     4  11  21  33  53  78 103 131 165 207 253 299
#     4   8  16  32  52  73  97 128 167 207 245 292
#     4   9  16  27  45  69  97 131 170 206 243 292
#     4  10  20  33  50  75 106 135 166 209 257 298
#     4   9  16  27  45  70  99 129 164 207 251 292
#     4  10  20  34  52  74 102 135 170 208 250 297
#     4  10  20  35  55  76 100 132 170 208 247 298
#
# _framework density 18.568076999999999
#
# number of rings (size 3 to 8) (size 9 to 14) (size 15 to 20)
#    0.000    2.429    0.000    4.286    0.000    8.286 
#    0.000    0.714    0.000    1.714    0.000    6.000 
#    0.000    0.000    0.000    0.000    0.000    0.000 
#
# Total GULP energy -694336.070372 kJ/mol
# GULP energy per Si atom -12398.858399 kJ/mol
# Density = 1.852582 g / cm^3
# Si number density = 18.568077 Si / 1000 Ang^3
#
#
#
# Elastic Constant Matrix: (Units=GPa)
#
#
# Indices 1 2 3 4 5 6 
#
# 1 16.8101 24.7553 28.3982 0.0000 0.0000 0.0000
# 2 24.7553 147.2745 78.9467 0.0000 0.0000 0.0000
# 3 28.3982 78.9467 173.6173 0.0000 0.0000 0.0000
# 4 0.0000 0.0000 0.0000 30.6336 0.0000 0.0000
# 5 0.0000 0.0000 0.0000 0.0000 94.5608 0.0000
# 6 0.0000 0.0000 0.0000 0.0000 0.0000 22.5073
#
#
#
# Elastic Compliance Matrix: (Units=1/GPa)
#
#
# Indices 1 2 3 4 5 6 
#
# 1 0.091693 -0.009749 -0.010565 0.000000 0.000000 0.000000
# 2 -0.009749 0.010015 -0.002959 0.000000 0.000000 0.000000
# 3 -0.010565 -0.002959 0.008834 0.000000 0.000000 0.000000
# 4 0.000000 0.000000 0.000000 0.032644 0.000000 0.000000
# 5 0.000000 0.000000 0.000000 0.000000 0.010575 0.000000
# 6 0.000000 0.000000 0.000000 0.000000 0.000000 0.044430
#
#
# Mechanical properties :
#
#
# Convention : Reuss Voigt Hill
#
# Bulk Modulus (GPa) = 15.62631 66.87804 41.25217
# Shear Modulus (GPa) = 18.79207 43.24713 31.01960
#
# Velocity S-wave (km/s) = 3.18475 4.83132 4.09172
# Velocity P-wave (km/s) = 4.68588 8.19867 6.67741
#
# Compressibility (1/GPa) = 0.06399465
#
# Stress axis : x y z
#
# Youngs Moduli (GPa) = 10.90595 99.84835 113.20467
#
# Poissons Ratio (x) = 0.97345 1.19599
# Poissons Ratio (y) = 0.10633 0.33502
# Poissons Ratio (z) = 0.11522 0.29549
#
# Static dielectric constant tensor:
#      x y z
#    x 2.854860 0.000000 0.000000 
#    y 0.000000 3.618780 0.000000 
#    z 0.000000 0.000000 3.851490 
# 
# 
# High freq. dielectric constant tensor:
#      x y z
#    x 1.660180 0.000000 0.000000 
#    y 0.000000 1.736180 0.000000 
#    z 0.000000 0.000000 1.741450 
# 
# From -- ./inp_files/25771.got.cif
#   From: 2010.03.12/outbox.cif.g09.slc.cpg/sg51_13_cif.got.tgz:25771.got - 2010.04.16 13:43:02.
