data_PCOD8210570
_publ_section_title
;
Structure prediction by ZEFSAII (Michael W. Deem and Ramdas Pophale) SiO2 
 PCOD8210570
Probable space group: P M M A
;
_chemical_formula_sum "Si O2"
_cell_formula_units_Z 56
_cell_length_a 13.513967
_cell_length_b 9.205835
_cell_length_c 23.735031
_cell_angle_alpha 90.000000
_cell_angle_beta 90.000000
_cell_angle_gamma 90.000000
_cell_volume 2952.812318
_symmetry_space_group_name_H-M "P M M A"
_symmetry_group_IT_number 51
_symmetry_cell_setting 'orthorhombic'
loop_
_space_group_symop_operation_xyz
x,y,z
1/2-x,-y,z
1/2+x,-y,-z
-x,y,-z
-x,-y,-z
1/2+x,y,-z
1/2-x,y,z
x,-y,z
loop_
_atom_site_type_symbol
_atom_site_label
_atom_site_fract_x
_atom_site_fract_y
_atom_site_fract_z
Si Si1 0.361159 0.666695 0.424782
Si Si2 0.866435 0.838208 0.467587
Si Si3 0.950515 0.168052 0.138863
Si Si4 0.447404 0.332820 0.636198
Si Si5 0.361776 0.833937 0.072906
Si Si6 0.633312 0.337481 0.034978
Si Si7 0.634830 0.329115 0.244346
O O1 0.250000 0.716594 0.407628
O O2 0.360246 0.500000 0.444565
O O3 0.408009 0.757778 0.476625
O O4 0.433996 0.688804 0.371428
O O5 0.750000 0.842557 0.474990
O O6 0.889145 0.755777 0.410399
O O7 0.911410 0.000000 0.465081
O O8 0.889911 0.240613 0.088727
O O9 0.924922 0.245464 0.196779
O O10 0.068055 0.186580 0.127227
O O11 0.919825 0.000000 0.142587
O O12 0.416544 0.500000 0.628956
O O13 0.413921 0.277136 0.697209
O O14 0.250000 0.788691 0.089901
O O15 0.364517 0.000000 0.051537
O O16 0.406991 0.735459 0.022652
O O17 0.750000 0.344693 0.029298
O O18 0.588939 0.500000 0.041331
O O19 0.750000 0.285439 0.243310
O O20 0.621353 0.500000 0.234565
#
# Coordination Sequence:
#
# PCOD8210570 Si02
#       7
#     8   8   8   8   8   8   8
#     4   9  18  33  53  77 105 136 170 208 252 305
#     4  10  20  32  49  77 110 139 168 208 258 307
#     4  11  22  35  54  78 103 136 176 214 254 302
#     4  10  20  35  55  76 100 135 176 214 254 302
#     4   9  19  36  55  76 105 138 171 209 254 305
#     4  10  20  33  52  80 111 140 170 208 256 306
#     4  10  22  39  56  75 102 135 170 211 258 305
#
# _framework density 18.964970999999998
#
# number of rings (size 3 to 8) (size 9 to 14) (size 15 to 20)
#    0.000    2.143    0.000    3.000    0.000   10.000 
#    0.000    0.714    0.000    0.857    0.000    0.000 
#    0.000    0.000    0.000    0.000    0.000    0.000 
#
# Total GULP energy -694424.531287 kJ/mol
# GULP energy per Si atom -12400.438059 kJ/mol
# Density = 1.892181 g / cm^3
# Si number density = 18.964971 Si / 1000 Ang^3
#
#
#
# Elastic Constant Matrix: (Units=GPa)
#
#
# Indices 1 2 3 4 5 6 
#
# 1 66.9353 39.2694 60.1221 0.0000 0.0000 0.0000
# 2 39.2694 84.0697 61.9034 0.0000 0.0000 0.0000
# 3 60.1221 61.9034 145.5534 0.0000 0.0000 0.0000
# 4 0.0000 0.0000 0.0000 1.2670 0.0000 0.0000
# 5 0.0000 0.0000 0.0000 0.0000 30.8927 0.0000
# 6 0.0000 0.0000 0.0000 0.0000 0.0000 21.9525
#
#
#
# Elastic Compliance Matrix: (Units=1/GPa)
#
#
# Indices 1 2 3 4 5 6 
#
# 1 0.025739 -0.006107 -0.008035 0.000000 0.000000 0.000000
# 2 -0.006107 0.018767 -0.005459 0.000000 0.000000 0.000000
# 3 -0.008035 -0.005459 0.012511 0.000000 0.000000 0.000000
# 4 0.000000 0.000000 0.000000 0.789245 0.000000 0.000000
# 5 0.000000 0.000000 0.000000 0.000000 0.032370 0.000000
# 6 0.000000 0.000000 0.000000 0.000000 0.000000 0.045553
#
#
# Mechanical properties :
#
#
# Convention : Reuss Voigt Hill
#
# Bulk Modulus (GPa) = 56.12879 68.79427 62.46153
# Shear Modulus (GPa) = 5.15823 19.84000 12.49911
#
# Velocity S-wave (km/s) = 1.65099 3.23792 2.57001
# Velocity P-wave (km/s) = 5.77015 7.09450 6.46632
#
# Compressibility (1/GPa) = 0.01781617
#
# Stress axis : x y z
#
# Youngs Moduli (GPa) = 38.85103 53.28454 79.93045
#
# Poissons Ratio (x) = 0.32540 0.64221
# Poissons Ratio (y) = 0.23726 0.43635
# Poissons Ratio (z) = 0.31215 0.29089
#
# Static dielectric constant tensor:
#      x y z
#    x 3.668320 0.000000 0.000000 
#    y 0.000000 3.707050 0.000000 
#    z 0.000000 0.000000 3.316660 
# 
# 
# High freq. dielectric constant tensor:
#      x y z
#    x 1.751640 0.000000 0.000000 
#    y 0.000000 1.740630 0.000000 
#    z 0.000000 0.000000 1.715790 
# 
# From -- ./inp_files/33321.got.cif
#   From: 2010.03.12/outbox.cif.g09.slc.cpg/sg51_17_cif.got.tgz:33321.got - 2010.04.16 13:43:02.
