data_PCOD8210966
_publ_section_title
;
Structure prediction by ZEFSAII (Michael W. Deem and Ramdas Pophale) SiO2 
 PCOD8210966
Probable space group: P M M A
;
_chemical_formula_sum "Si O2"
_cell_formula_units_Z 64
_cell_length_a 9.048083
_cell_length_b 14.089513
_cell_length_c 31.083945
_cell_angle_alpha 90.000000
_cell_angle_beta 90.000000
_cell_angle_gamma 90.000000
_cell_volume 3962.677142
_symmetry_space_group_name_H-M "P M M A"
_symmetry_group_IT_number 51
_symmetry_cell_setting 'orthorhombic'
loop_
_space_group_symop_operation_xyz
x,y,z
1/2-x,-y,z
1/2+x,-y,-z
-x,y,-z
-x,-y,-z
1/2+x,y,-z
1/2-x,y,z
x,-y,z
loop_
_atom_site_type_symbol
_atom_site_label
_atom_site_fract_x
_atom_site_fract_y
_atom_site_fract_z
Si Si1 0.582066 0.105555 0.244522
Si Si2 0.924690 0.390727 0.635238
Si Si3 0.578005 0.701865 0.286807
Si Si4 0.578024 0.611174 0.793678
Si Si5 0.923242 0.608582 0.042694
Si Si6 0.912136 0.387643 0.540007
Si Si7 0.578237 0.107736 0.843399
Si Si8 0.925256 0.716583 0.127624
O O1 0.750000 0.114241 0.226884
O O2 0.552798 0.185165 0.280477
O O3 0.471177 0.124905 0.205533
O O4 0.554968 0.000000 0.264069
O O5 0.750000 0.373061 0.639525
O O6 0.961180 0.500000 0.646240
O O7 0.980724 0.365003 0.586954
O O8 0.013958 0.322532 0.666705
O O9 0.750000 0.674951 0.284383
O O10 0.491977 0.641293 0.251385
O O11 0.750000 0.638779 0.793748
O O12 0.554324 0.500000 0.800266
O O13 0.496687 0.664418 0.832038
O O14 0.750000 0.618569 0.036128
O O15 0.971357 0.500000 0.050199
O O16 0.978047 0.666921 0.083860
O O17 0.000000 0.650099 0.000000
O O18 0.750000 0.342578 0.537702
O O19 0.902434 0.500000 0.534543
O O20 0.000000 0.341958 0.500000
O O21 0.750000 0.133268 0.846894
O O22 0.483955 0.175583 0.874565
O O23 0.546483 0.000000 0.857774
O O24 0.750000 0.713733 0.132941
#
# Coordination Sequence:
#
# PCOD8210966 Si02
#       8
#     8   8   8   8   8   8   8   8
#     4   9  18  33  50  67  90 121 156 196 243 287
#     4   9  18  31  44  60  89 129 163 191 231 283
#     4  11  21  31  46  68  92 123 160 198 235 277
#     4  11  23  35  47  66  95 131 164 195 233 276
#     4   9  19  35  54  76 101 128 158 193 234 280
#     4   8  14  25  41  60  82 112 152 195 236 275
#     4  10  20  33  51  75  99 124 158 198 238 283
#     4  11  21  34  53  76 100 127 159 197 238 281
#
# _framework density 16.150697000000001
#
# number of rings (size 3 to 8) (size 9 to 14) (size 15 to 20)
#    0.000    2.250    1.250    3.000    0.000    6.000 
#    0.000    2.500    0.000    0.375    0.000    0.000 
#    0.000    0.500    0.000    1.125    0.000    1.750 
#
# Total GULP energy -793507.081339 kJ/mol
# GULP energy per Si atom -12398.548146 kJ/mol
# Density = 1.611394 g / cm^3
# Si number density = 16.150697 Si / 1000 Ang^3
#
#
#
# Elastic Constant Matrix: (Units=GPa)
#
#
# Indices 1 2 3 4 5 6 
#
# 1 74.0308 39.6632 47.9634 0.0000 0.0000 0.0000
# 2 39.6632 81.5854 48.5102 0.0000 0.0000 0.0000
# 3 47.9634 48.5102 116.5741 0.0000 0.0000 0.0000
# 4 0.0000 0.0000 0.0000 12.1117 0.0000 0.0000
# 5 0.0000 0.0000 0.0000 0.0000 30.1586 0.0000
# 6 0.0000 0.0000 0.0000 0.0000 0.0000 23.4634
#
#
#
# Elastic Compliance Matrix: (Units=1/GPa)
#
#
# Indices 1 2 3 4 5 6 
#
# 1 0.020845 -0.006690 -0.005793 0.000000 0.000000 0.000000
# 2 -0.006690 0.018434 -0.004919 0.000000 0.000000 0.000000
# 3 -0.005793 -0.004919 0.013008 0.000000 0.000000 0.000000
# 4 0.000000 0.000000 0.000000 0.082565 0.000000 0.000000
# 5 0.000000 0.000000 0.000000 0.000000 0.033158 0.000000
# 6 0.000000 0.000000 0.000000 0.000000 0.000000 0.042620
#
#
# Mechanical properties :
#
#
# Convention : Reuss Voigt Hill
#
# Bulk Modulus (GPa) = 57.19039 60.49600 58.84319
# Shear Modulus (GPa) = 19.89974 22.21697 21.05836
#
# Velocity S-wave (km/s) = 3.51398 3.71294 3.61483
# Velocity P-wave (km/s) = 7.20773 7.47795 7.34408
#
# Compressibility (1/GPa) = 0.01748546
#
# Stress axis : x y z
#
# Youngs Moduli (GPa) = 47.97320 54.24818 76.87372
#
# Poissons Ratio (x) = 0.36290 0.44531
# Poissons Ratio (y) = 0.32092 0.37810
# Poissons Ratio (z) = 0.27790 0.26682
#
# Static dielectric constant tensor:
#      x y z
#    x 3.212290 0.000000 0.000000 
#    y 0.000000 3.109860 0.000000 
#    z 0.000000 0.000000 3.076890 
# 
# 
# High freq. dielectric constant tensor:
#      x y z
#    x 1.630390 0.000000 0.000000 
#    y 0.000000 1.603290 0.000000 
#    z 0.000000 0.000000 1.607820 
# 
# From -- ./inp_files/37668.got.cif
#   From: 2010.03.12/outbox.cif.g09.slc.cpg/sg51_19_cif.got.tgz:37668.got - 2010.04.16 13:43:02.
