data_PCOD8210403
_publ_section_title
;
Structure prediction by ZEFSAII (Michael W. Deem and Ramdas Pophale) SiO2 
 PCOD8210403
Probable space group: P M M A
;
_chemical_formula_sum "Si O2"
_cell_formula_units_Z 48
_cell_length_a 9.446358
_cell_length_b 8.865868
_cell_length_c 31.225283
_cell_angle_alpha 90.000000
_cell_angle_beta 90.000000
_cell_angle_gamma 90.000000
_cell_volume 2615.122544
_symmetry_space_group_name_H-M "P M M A"
_symmetry_group_IT_number 51
_symmetry_cell_setting 'orthorhombic'
loop_
_space_group_symop_operation_xyz
x,y,z
1/2-x,-y,z
1/2+x,-y,-z
-x,y,-z
-x,-y,-z
1/2+x,y,-z
1/2-x,y,z
x,-y,z
loop_
_atom_site_type_symbol
_atom_site_label
_atom_site_fract_x
_atom_site_fract_y
_atom_site_fract_z
Si Si1 0.593877 0.678995 0.791415
Si Si2 0.091398 0.679325 0.961535
Si Si3 0.091747 0.320673 0.867662
Si Si4 0.911172 0.821174 0.378372
Si Si5 0.588355 0.820331 0.540674
Si Si6 0.086163 0.323420 0.304416
O O1 0.750000 0.746177 0.798028
O O2 0.598753 0.500000 0.795684
O O3 0.497757 0.751159 0.828794
O O4 0.539528 0.720707 0.743902
O O5 0.250000 0.741670 0.966451
O O6 0.091811 0.500000 0.965267
O O7 0.030629 0.726105 0.914574
O O8 0.000000 0.751495 0.000000
O O9 0.250000 0.257649 0.863054
O O10 0.092295 0.500000 0.863862
O O11 0.750000 0.759584 0.382174
O O12 0.006432 0.759058 0.417507
O O13 0.981558 0.767810 0.334601
O O14 0.909384 0.000000 0.379158
O O15 0.500000 0.759930 0.500000
O O16 0.750000 0.757752 0.539852
O O17 0.592268 0.000000 0.540355
O O18 0.250000 0.277973 0.312464
O O19 0.065897 0.500000 0.312751
#
# Coordination Sequence:
#
# PCOD8210403 Si02
#       6
#     8   8   8   8   8   8
#     4   8  14  24  37  53  72  95 127 167 207 247
#     4   8  13  19  25  35  53  78 110 149 192 237
#     4   8  13  20  29  42  61  85 116 156 199 242
#     4  10  20  32  47  70  97 122 151 185 219 260
#     4   9  16  27  45  68  93 120 149 182 219 257
#     4   9  18  32  48  66  89 117 150 187 225 266
#
# _framework density 18.354780999999999
#
# number of rings (size 3 to 8) (size 9 to 14) (size 15 to 20)
#    0.000    3.333    0.000    3.000    0.000    4.667 
#    0.000    5.000    0.000    0.500    0.000    0.000 
#    0.000    0.000    0.000    0.000    0.000    0.833 
#
# Total GULP energy -594787.778824 kJ/mol
# GULP energy per Si atom -12391.412059 kJ/mol
# Density = 1.831300 g / cm^3
# Si number density = 18.354781 Si / 1000 Ang^3
#
#
#
# Elastic Constant Matrix: (Units=GPa)
#
#
# Indices 1 2 3 4 5 6 
#
# 1 129.9352 8.0594 97.5535 0.0000 0.0000 0.0000
# 2 8.0594 2.4068 7.6019 0.0000 0.0000 0.0000
# 3 97.5535 7.6019 182.0796 0.0000 0.0000 0.0000
# 4 0.0000 0.0000 0.0000 -16.6210 0.0000 0.0000
# 5 0.0000 0.0000 0.0000 0.0000 43.6503 0.0000
# 6 0.0000 0.0000 0.0000 0.0000 0.0000 12.6939
#
#
#
# Elastic Compliance Matrix: (Units=1/GPa)
#
#
# Indices 1 2 3 4 5 6 
#
# 1 0.014273 -0.027232 -0.006510 0.000000 0.000000 0.000000
# 2 -0.027232 0.530553 -0.007561 0.000000 0.000000 0.000000
# 3 -0.006510 -0.007561 0.009296 0.000000 0.000000 0.000000
# 4 0.000000 0.000000 0.000000 -0.060165 0.000000 0.000000
# 5 0.000000 0.000000 0.000000 0.000000 0.022909 0.000000
# 6 0.000000 0.000000 0.000000 0.000000 0.000000 0.078778
#
#
# Mechanical properties :
#
#
# Convention : Reuss Voigt Hill
#
# Bulk Modulus (GPa) = 2.12082 60.09458 31.10770
# Shear Modulus (GPa) = 5.98500 21.35842 13.67171
#
# Velocity S-wave (km/s) = 1.80771 3.41492 2.73217
# Velocity P-wave (km/s) = 2.34841 6.95418 5.19016
#
# Compressibility (1/GPa) = 0.47151580
#
# Stress axis : x y z
#
# Youngs Moduli (GPa) = 70.06242 1.88483 107.57631
#
# Poissons Ratio (x) = 0.05133 0.70034
# Poissons Ratio (y) = 1.90794 0.81334
# Poissons Ratio (z) = 0.45612 0.01425
#
# Static dielectric constant tensor:
#      x y z
#    x 3.680250 0.000000 0.000000 
#    y 0.000000 2.594520 0.000000 
#    z 0.000000 0.000000 3.764380 
# 
# 
# High freq. dielectric constant tensor:
#      x y z
#    x 1.713830 0.000000 0.000000 
#    y 0.000000 1.628120 0.000000 
#    z 0.000000 0.000000 1.732230 
# 
# From -- ./inp_files/37313.got.cif
#   From: 2010.03.12/outbox.cif.g09.slc.cpg/sg51_19_cif.got.tgz:37313.got - 2010.04.16 13:43:02.
