data_PCOD8210389
_publ_section_title
;
Structure prediction by ZEFSAII (Michael W. Deem and Ramdas Pophale) SiO2 
 PCOD8210389
Probable space group: P M M A
;
_chemical_formula_sum "Si O2"
_cell_formula_units_Z 64
_cell_length_a 9.126722
_cell_length_b 17.490664
_cell_length_c 20.575970
_cell_angle_alpha 90.000000
_cell_angle_beta 90.000000
_cell_angle_gamma 90.000000
_cell_volume 3284.592048
_symmetry_space_group_name_H-M "P M M A"
_symmetry_group_IT_number 51
_symmetry_cell_setting 'orthorhombic'
loop_
_space_group_symop_operation_xyz
x,y,z
1/2-x,-y,z
1/2+x,-y,-z
-x,y,-z
-x,-y,-z
1/2+x,y,-z
1/2-x,y,z
x,-y,z
loop_
_atom_site_type_symbol
_atom_site_label
_atom_site_fract_x
_atom_site_fract_y
_atom_site_fract_z
Si Si1 0.088870 0.123542 0.283891
Si Si2 0.923102 0.372934 0.066472
Si Si3 0.581748 0.803038 0.062259
Si Si4 0.412406 0.915978 0.140632
Si Si5 0.582399 0.413731 0.803097
Si Si6 0.577976 0.917592 0.403430
Si Si7 0.580032 0.294858 0.693935
Si Si8 0.925676 0.250256 0.435591
O O1 0.250000 0.115721 0.316712
O O2 0.085153 0.077816 0.217645
O O3 0.056188 0.213242 0.271808
O O4 0.969013 0.083942 0.328651
O O5 0.750000 0.389812 0.061598
O O6 0.960357 0.284102 0.075214
O O7 0.987789 0.411791 0.130776
O O8 0.000000 0.403628 0.000000
O O9 0.750000 0.813705 0.049087
O O10 0.532821 0.853790 0.122507
O O11 0.500000 0.836498 0.000000
O O12 0.250000 0.890740 0.116794
O O13 0.450848 0.000000 0.112548
O O14 0.750000 0.390943 0.820157
O O15 0.573298 0.500000 0.775951
O O16 0.522313 0.358157 0.745817
O O17 0.750000 0.915812 0.406965
O O18 0.518889 0.839104 0.435569
O O19 0.522227 0.000000 0.433593
O O20 0.750000 0.310676 0.676554
O O21 0.485669 0.296195 0.627187
O O22 0.750000 0.257627 0.437820
O O23 0.000000 0.286544 0.500000
#
# Coordination Sequence:
#
# PCOD8210389 Si02
#       8
#     8   8   8   8   8   8   8   8
#     4   9  17  30  49  71  95 128 169 208 249 301
#     4  10  21  37  58  83 111 145 183 221 262 312
#     4  10  21  36  53  71  92 124 168 214 260 310
#     4  10  20  32  47  69  97 129 167 214 266 316
#     4  10  21  37  59  87 116 145 176 212 259 316
#     4   9  18  31  46  68 101 137 171 212 261 308
#     4   9  18  34  56  80 107 139 174 215 262 313
#     4  10  20  34  53  77 105 139 181 225 268 316
#
# _framework density 19.484916999999999
#
# number of rings (size 3 to 8) (size 9 to 14) (size 15 to 20)
#    0.000    2.375    0.000    2.250    0.000    6.000 
#    0.000    2.500    0.000    0.375    0.000    0.000 
#    0.000    0.000    0.000    0.000    0.000    0.000 
#
# Total GULP energy -793158.485900 kJ/mol
# GULP energy per Si atom -12393.101342 kJ/mol
# Density = 1.944057 g / cm^3
# Si number density = 19.484917 Si / 1000 Ang^3
#
#
#
# Elastic Constant Matrix: (Units=GPa)
#
#
# Indices 1 2 3 4 5 6 
#
# 1 45.5635 29.2018 36.1290 0.0000 0.0000 0.0000
# 2 29.2018 74.4929 39.8691 0.0000 0.0000 0.0000
# 3 36.1290 39.8691 102.3087 0.0000 0.0000 0.0000
# 4 0.0000 0.0000 0.0000 1.4897 0.0000 0.0000
# 5 0.0000 0.0000 0.0000 0.0000 33.7835 0.0000
# 6 0.0000 0.0000 0.0000 0.0000 0.0000 19.6290
#
#
#
# Elastic Compliance Matrix: (Units=1/GPa)
#
#
# Indices 1 2 3 4 5 6 
#
# 1 0.034571 -0.008868 -0.008753 0.000000 0.000000 0.000000
# 2 -0.008868 0.019236 -0.004365 0.000000 0.000000 0.000000
# 3 -0.008753 -0.004365 0.014566 0.000000 0.000000 0.000000
# 4 0.000000 0.000000 0.000000 0.671262 0.000000 0.000000
# 5 0.000000 0.000000 0.000000 0.000000 0.029600 0.000000
# 6 0.000000 0.000000 0.000000 0.000000 0.000000 0.050945
#
#
# Mechanical properties :
#
#
# Convention : Reuss Voigt Hill
#
# Bulk Modulus (GPa) = 40.97798 48.08499 44.53149
# Shear Modulus (GPa) = 5.73207 18.79146 12.26177
#
# Velocity S-wave (km/s) = 1.71703 3.10887 2.51130
# Velocity P-wave (km/s) = 5.00072 6.13338 5.59578
#
# Compressibility (1/GPa) = 0.02440335
#
# Stress axis : x y z
#
# Youngs Moduli (GPa) = 28.92605 51.98497 68.65221
#
# Poissons Ratio (x) = 0.46098 0.60089
# Poissons Ratio (y) = 0.25650 0.29965
# Poissons Ratio (z) = 0.25318 0.22690
#
# Static dielectric constant tensor:
#      x y z
#    x 3.551410 0.000000 0.000000 
#    y 0.000000 3.594770 0.000000 
#    z 0.000000 0.000000 3.418050 
# 
# 
# High freq. dielectric constant tensor:
#      x y z
#    x 1.753640 0.000000 0.000000 
#    y 0.000000 1.747560 0.000000 
#    z 0.000000 0.000000 1.749600 
# 
# From -- ./inp_files/32333.got.cif
#   From: 2010.03.12/outbox.cif.g09.slc.cpg/sg51_17_cif.got.tgz:32333.got - 2010.04.16 13:43:02.
