data_PCOD8210687
_publ_section_title
;
Structure prediction by ZEFSAII (Michael W. Deem and Ramdas Pophale) SiO2 
 PCOD8210687
Probable space group: P M M A
;
_chemical_formula_sum "Si O2"
_cell_formula_units_Z 60
_cell_length_a 8.985722
_cell_length_b 20.470816
_cell_length_c 17.958430
_cell_angle_alpha 90.000000
_cell_angle_beta 90.000000
_cell_angle_gamma 90.000000
_cell_volume 3303.364514
_symmetry_space_group_name_H-M "P M M A"
_symmetry_group_IT_number 51
_symmetry_cell_setting 'orthorhombic'
loop_
_space_group_symop_operation_xyz
x,y,z
1/2-x,-y,z
1/2+x,-y,-z
-x,y,-z
-x,-y,-z
1/2+x,y,-z
1/2-x,y,z
x,-y,z
loop_
_atom_site_type_symbol
_atom_site_label
_atom_site_fract_x
_atom_site_fract_y
_atom_site_fract_z
Si Si1 0.922025 0.000000 0.077682
Si Si2 0.076404 0.073694 0.576609
Si Si3 0.425396 0.572620 0.222490
Si Si4 0.422172 0.302286 0.771792
Si Si5 0.921878 0.836069 0.286809
Si Si6 0.078067 0.744812 0.077793
Si Si7 0.418137 0.882360 0.145231
Si Si8 0.086582 0.574579 0.931837
O O1 0.964796 0.063412 0.123168
O O2 0.750000 0.000000 0.061996
O O3 0.000000 0.000000 0.000000
O O4 0.250000 0.074732 0.561822
O O5 0.032386 0.129284 0.636215
O O6 0.000000 0.093891 0.500000
O O7 0.027563 0.000000 0.602129
O O8 0.250000 0.581648 0.225746
O O9 0.469824 0.500000 0.253292
O O10 0.503778 0.632810 0.266286
O O11 0.481304 0.580506 0.138745
O O12 0.250000 0.316151 0.785518
O O13 0.444049 0.242622 0.713439
O O14 0.495060 0.289834 0.853063
O O15 0.750000 0.852833 0.266154
O O16 0.038342 0.862851 0.228024
O O17 0.250000 0.722204 0.077068
O O18 0.066869 0.822519 0.088483
O O19 0.000000 0.726663 0.000000
O O20 0.250000 0.909711 0.145165
O O21 0.250000 0.606815 0.918580
O O22 0.112837 0.500000 0.953957
O O23 0.000000 0.610290 0.000000
#
# Coordination Sequence:
#
# PCOD8210687 Si02
#       8
#     4   8   8   8   8   8   8   8
#     4  12  24  36  50  68  95 128 167 218 270 316
#     4   9  18  33  54  82 115 147 178 206 240 284
#     4  10  20  33  48  66  90 119 154 200 252 304
#     4  10  20  34  51  71  96 127 167 209 253 305
#     4   9  19  35  54  77 106 140 173 208 249 296
#     4  10  20  34  51  68  90 120 160 210 261 311
#     4  10  21  35  51  73  97 126 167 213 260 310
#     4   9  16  26  40  58  81 110 146 190 243 301
#
# _framework density 18.163298999999999
#
# number of rings (size 3 to 8) (size 9 to 14) (size 15 to 20)
#    0.000    2.267    0.000    3.000    0.933    6.667 
#    0.000    2.667    0.000    0.000    0.000    0.000 
#    0.000    0.533    0.000    1.200    0.000    2.133 
#
# Total GULP energy -743614.295494 kJ/mol
# GULP energy per Si atom -12393.571592 kJ/mol
# Density = 1.812196 g / cm^3
# Si number density = 18.163299 Si / 1000 Ang^3
#
#
#
# Elastic Constant Matrix: (Units=GPa)
#
#
# Indices 1 2 3 4 5 6 
#
# 1 108.4095 59.7648 28.4171 0.0000 0.0000 0.0000
# 2 59.7648 129.6956 44.7853 0.0000 0.0000 0.0000
# 3 28.4171 44.7853 66.3758 0.0000 0.0000 0.0000
# 4 0.0000 0.0000 0.0000 -0.0343 0.0000 0.0000
# 5 0.0000 0.0000 0.0000 0.0000 22.1378 0.0000
# 6 0.0000 0.0000 0.0000 0.0000 0.0000 29.5841
#
#
#
# Elastic Compliance Matrix: (Units=1/GPa)
#
#
# Indices 1 2 3 4 5 6 
#
# 1 0.012550 -0.005121 -0.001918 0.000000 0.000000 0.000000
# 2 -0.005121 0.012142 -0.006000 0.000000 0.000000 0.000000
# 3 -0.001918 -0.006000 0.019935 0.000000 0.000000 0.000000
# 4 0.000000 0.000000 0.000000-29.112461 0.000000 0.000000
# 5 0.000000 0.000000 0.000000 0.000000 0.045172 0.000000
# 6 0.000000 0.000000 0.000000 0.000000 0.000000 0.033802
#
#
# Mechanical properties :
#
#
# Convention : Reuss Voigt Hill
#
# Bulk Modulus (GPa) = 53.90942 63.37950 58.64446
# Shear Modulus (GPa) = -0.17267 21.77176 10.79954
#
# Velocity S-wave (km/s) = -0.30866 3.46593 2.44105
# Velocity P-wave (km/s) = 5.44223 7.14051 6.34842
#
# Compressibility (1/GPa) = 0.01854963
#
# Stress axis : x y z
#
# Youngs Moduli (GPa) = 79.68058 82.35838 50.16256
#
# Poissons Ratio (x) = 0.42175 0.09620
# Poissons Ratio (y) = 0.40804 0.30098
# Poissons Ratio (z) = 0.15281 0.49416
#
# Static dielectric constant tensor:
#      x y z
#    x 3.557000 0.000000 0.000000 
#    y 0.000000 3.914640 0.000000 
#    z 0.000000 0.000000 3.162430 
# 
# 
# High freq. dielectric constant tensor:
#      x y z
#    x 1.719850 0.000000 0.000000 
#    y 0.000000 1.723470 0.000000 
#    z 0.000000 0.000000 1.640420 
# 
# From -- ./inp_files/28367.got.cif
#   From: 2010.03.12/outbox.cif.g09.slc.cpg/sg51_15_cif.got.tgz:28367.got - 2010.04.16 13:43:02.
