data_PCOD8210651
_publ_section_title
;
Structure prediction by ZEFSAII (Michael W. Deem and Ramdas Pophale) SiO2 
 PCOD8210651
Probable space group: P M M A
;
_chemical_formula_sum "Si O2"
_cell_formula_units_Z 40
_cell_length_a 14.763549
_cell_length_b 14.717866
_cell_length_c 9.165253
_cell_angle_alpha 90.000000
_cell_angle_beta 90.000000
_cell_angle_gamma 90.000000
_cell_volume 1991.498906
_symmetry_space_group_name_H-M "P M M A"
_symmetry_group_IT_number 51
_symmetry_cell_setting 'orthorhombic'
loop_
_space_group_symop_operation_xyz
x,y,z
1/2-x,-y,z
1/2+x,-y,-z
-x,y,-z
-x,-y,-z
1/2+x,y,-z
1/2-x,y,z
x,-y,z
loop_
_atom_site_type_symbol
_atom_site_label
_atom_site_fract_x
_atom_site_fract_y
_atom_site_fract_z
Si Si1 0.750000 0.744830 0.021578
Si Si2 0.417298 0.636249 0.595091
Si Si3 0.593357 0.601858 0.073320
Si Si4 0.750000 0.900970 0.263430
Si Si5 0.250000 0.404309 0.409283
Si Si6 0.398852 0.159522 0.524351
Si Si7 0.750000 0.790384 0.702421
O O1 0.663834 0.679343 0.028696
O O2 0.750000 0.816954 0.152969
O O3 0.750000 0.807936 0.875700
O O4 0.500000 0.600799 0.500000
O O5 0.424380 0.597565 0.755659
O O6 0.331394 0.594858 0.520238
O O7 0.413225 0.744727 0.602069
O O8 0.623908 0.500000 0.022859
O O9 0.500000 0.630908 0.000000
O O10 0.839683 0.899796 0.364645
O O11 0.750000 0.000000 0.184477
O O12 0.250000 0.500000 0.319609
O O13 0.250000 0.319488 0.301635
O O14 0.500000 0.116376 0.500000
O O15 0.341287 0.170272 0.373158
#
# Coordination Sequence:
#
# PCOD8210651 Si02
#       7
#     4   8   8   4   4   8   4
#     4  12  24  42  60  86 131 169 199 252 311 370
#     4  10  20  37  59  83 116 158 203 255 299 350
#     4  11  25  39  57  88 125 170 212 250 303 362
#     4  11  23  42  69  97 122 156 203 250 314 381
#     4  10  20  32  54  82 114 153 207 257 297 341
#     4   9  19  40  67  92 117 154 201 256 309 362
#     4   9  22  36  59  89 115 160 206 241 305 362
#
# _framework density 20.085376
#
# number of rings (size 3 to 8) (size 9 to 14) (size 15 to 20)
#    0.000    1.800    2.000    2.100    8.400    2.800 
#    0.000    2.000    0.000    4.200    0.000    0.000 
#    0.000    0.000    0.000    0.000    0.000    0.000 
#
# Total GULP energy -495735.610191 kJ/mol
# GULP energy per Si atom -12393.390255 kJ/mol
# Density = 2.003966 g / cm^3
# Si number density = 20.085376 Si / 1000 Ang^3
#
#
#
# Elastic Constant Matrix: (Units=GPa)
#
#
# Indices 1 2 3 4 5 6 
#
# 1 168.8418 37.1483 44.6489 0.0000 0.0000 0.0000
# 2 37.1483 86.5154 14.1332 0.0000 0.0000 0.0000
# 3 44.6489 14.1332 92.0073 0.0000 0.0000 0.0000
# 4 0.0000 0.0000 0.0000 12.6087 0.0000 0.0000
# 5 0.0000 0.0000 0.0000 0.0000 53.1705 0.0000
# 6 0.0000 0.0000 0.0000 0.0000 0.0000 11.6541
#
#
#
# Elastic Compliance Matrix: (Units=1/GPa)
#
#
# Indices 1 2 3 4 5 6 
#
# 1 0.007337 -0.002635 -0.003156 0.000000 0.000000 0.000000
# 2 -0.002635 0.012802 -0.000688 0.000000 0.000000 0.000000
# 3 -0.003156 -0.000688 0.012506 0.000000 0.000000 0.000000
# 4 0.000000 0.000000 0.000000 0.079310 0.000000 0.000000
# 5 0.000000 0.000000 0.000000 0.000000 0.018807 0.000000
# 6 0.000000 0.000000 0.000000 0.000000 0.000000 0.085807
#
#
# Mechanical properties :
#
#
# Convention : Reuss Voigt Hill
#
# Bulk Modulus (GPa) = 50.79210 59.91392 55.35301
# Shear Modulus (GPa) = 21.17844 32.24893 26.71369
#
# Velocity S-wave (km/s) = 3.25071 4.01133 3.65088
# Velocity P-wave (km/s) = 6.27953 7.16580 6.73726
#
# Compressibility (1/GPa) = 0.01968810
#
# Stress axis : x y z
#
# Youngs Moduli (GPa) = 136.29715 78.11054 79.96321
#
# Poissons Ratio (x) = 0.20581 0.25234
# Poissons Ratio (y) = 0.35912 0.05501
# Poissons Ratio (z) = 0.43011 0.05374
#
# Static dielectric constant tensor:
#      x y z
#    x 3.938070 0.000000 0.000000 
#    y 0.000000 3.467000 0.000000 
#    z 0.000000 0.000000 3.456120 
# 
# 
# High freq. dielectric constant tensor:
#      x y z
#    x 1.798860 0.000000 0.000000 
#    y 0.000000 1.770270 0.000000 
#    z 0.000000 0.000000 1.771980 
# 
# From -- ./inp_files/8046.got.cif
#   From: 2010.03.12/outbox.cif.g09.slc.cpg/sg51_5_cif.got.tgz:8046.got - 2010.04.16 13:43:02.
