data_PCOD8210867
_publ_section_title
;
Structure prediction by ZEFSAII (Michael W. Deem and Ramdas Pophale) SiO2 
 PCOD8210867
Probable space group: P M M A
;
_chemical_formula_sum "Si O2"
_cell_formula_units_Z 52
_cell_length_a 8.831494
_cell_length_b 26.577802
_cell_length_c 13.708602
_cell_angle_alpha 90.000000
_cell_angle_beta 90.000000
_cell_angle_gamma 90.000000
_cell_volume 3217.706351
_symmetry_space_group_name_H-M "P M M A"
_symmetry_group_IT_number 51
_symmetry_cell_setting 'orthorhombic'
loop_
_space_group_symop_operation_xyz
x,y,z
1/2-x,-y,z
1/2+x,-y,-z
-x,y,-z
-x,-y,-z
1/2+x,y,-z
1/2-x,y,z
x,-y,z
loop_
_atom_site_type_symbol
_atom_site_label
_atom_site_fract_x
_atom_site_fract_y
_atom_site_fract_z
Si Si1 0.429032 0.857161 0.720481
Si Si2 0.071925 0.608220 0.894490
Si Si3 0.925650 0.760580 0.398338
Si Si4 0.570044 0.198263 0.896791
Si Si5 0.571231 0.708821 0.204344
Si Si6 0.925596 0.941665 0.602590
Si Si7 0.927211 0.500000 0.104215
O O1 0.250000 0.858913 0.738073
O O2 0.472681 0.816112 0.638084
O O3 0.510400 0.843020 0.820773
O O4 0.490665 0.911079 0.687296
O O5 0.250000 0.611082 0.910576
O O6 0.020256 0.651955 0.820469
O O7 0.024987 0.553534 0.846314
O O8 0.000000 0.616734 0.000000
O O9 0.750000 0.757893 0.417477
O O10 0.974963 0.720034 0.316179
O O11 0.000000 0.746261 0.500000
O O12 0.750000 0.196797 0.901706
O O13 0.516116 0.254042 0.867978
O O14 0.500000 0.183301 0.000000
O O15 0.750000 0.718173 0.189464
O O16 0.750000 0.926793 0.597837
O O17 0.000000 0.927520 0.500000
O O18 0.948870 0.000000 0.627526
O O19 0.750000 0.500000 0.089368
O O20 0.000000 0.500000 0.000000
#
# Coordination Sequence:
#
# PCOD8210867 Si02
#       7
#     8   8   8   8   8   8   4
#     4  10  20  34  51  71  95 123 155 191 231 275
#     4   9  16  26  41  60  86 115 145 181 221 266
#     4   9  18  30  44  63  88 115 145 182 223 266
#     4  11  21  33  49  69  94 123 155 189 225 270
#     4   9  18  31  44  63  90 119 150 186 226 268
#     4  10  20  33  50  74 102 130 160 194 233 276
#     4   8  14  24  38  58  81 110 144 178 219 266
#
# _framework density 16.160578999999998
#
# number of rings (size 3 to 8) (size 9 to 14) (size 15 to 20)
#    0.000    2.462    0.000    4.154    0.000    7.077 
#    0.000    0.000    0.000    0.462    0.000    0.538 
#    0.000    0.000    0.000    0.000    0.000    0.000 
#
# Total GULP energy -644551.477350 kJ/mol
# GULP energy per Si atom -12395.220718 kJ/mol
# Density = 1.612380 g / cm^3
# Si number density = 16.160579 Si / 1000 Ang^3
#
#
#
# Elastic Constant Matrix: (Units=GPa)
#
#
# Indices 1 2 3 4 5 6 
#
# 1 72.1735 42.2994 44.0831 0.0000 0.0000 0.0000
# 2 42.2994 116.2439 59.8054 0.0000 0.0000 0.0000
# 3 44.0831 59.8054 106.9641 0.0000 0.0000 0.0000
# 4 0.0000 0.0000 0.0000 30.9139 0.0000 0.0000
# 5 0.0000 0.0000 0.0000 0.0000 28.0741 0.0000
# 6 0.0000 0.0000 0.0000 0.0000 0.0000 20.3544
#
#
#
# Elastic Compliance Matrix: (Units=1/GPa)
#
#
# Indices 1 2 3 4 5 6 
#
# 1 0.019903 -0.004243 -0.005831 0.000000 0.000000 0.000000
# 2 -0.004243 0.012981 -0.005509 0.000000 0.000000 0.000000
# 3 -0.005831 -0.005509 0.014832 0.000000 0.000000 0.000000
# 4 0.000000 0.000000 0.000000 0.032348 0.000000 0.000000
# 5 0.000000 0.000000 0.000000 0.000000 0.035620 0.000000
# 6 0.000000 0.000000 0.000000 0.000000 0.000000 0.049130
#
#
# Mechanical properties :
#
#
# Convention : Reuss Voigt Hill
#
# Bulk Modulus (GPa) = 60.41841 65.30638 62.86239
# Shear Modulus (GPa) = 24.81436 25.81472 25.31454
#
# Velocity S-wave (km/s) = 3.92278 4.00107 3.96212
# Velocity P-wave (km/s) = 7.61479 7.86406 7.74043
#
# Compressibility (1/GPa) = 0.01655125
#
# Stress axis : x y z
#
# Youngs Moduli (GPa) = 50.24264 77.03614 67.42091
#
# Poissons Ratio (x) = 0.32685 0.39310
# Poissons Ratio (y) = 0.21317 0.37144
# Poissons Ratio (z) = 0.29294 0.42441
#
# Static dielectric constant tensor:
#      x y z
#    x 3.096040 0.000000 0.000000 
#    y 0.000000 3.386060 0.000000 
#    z 0.000000 0.000000 3.155470 
# 
# 
# High freq. dielectric constant tensor:
#      x y z
#    x 1.629070 0.000000 0.000000 
#    y 0.000000 1.621070 0.000000 
#    z 0.000000 0.000000 1.598600 
# 
# From -- ./inp_files/14596.got.cif
#   From: 2010.03.12/outbox.cif.g09.slc.cpg/sg51_8_cif.got.tgz:14596.got - 2010.04.16 13:43:02.
