data_PCOD8210198
_publ_section_title
;
Structure prediction by ZEFSAII (Michael W. Deem and Ramdas Pophale) SiO2 
 PCOD8210198
Probable space group: P M M A
;
_chemical_formula_sum "Si O2"
_cell_formula_units_Z 64
_cell_length_a 9.713759
_cell_length_b 13.430772
_cell_length_c 24.807272
_cell_angle_alpha 90.000000
_cell_angle_beta 90.000000
_cell_angle_gamma 90.000000
_cell_volume 3236.438132
_symmetry_space_group_name_H-M "P M M A"
_symmetry_group_IT_number 51
_symmetry_cell_setting 'orthorhombic'
loop_
_space_group_symop_operation_xyz
x,y,z
1/2-x,-y,z
1/2+x,-y,-z
-x,y,-z
-x,-y,-z
1/2+x,y,-z
1/2-x,y,z
x,-y,z
loop_
_atom_site_type_symbol
_atom_site_label
_atom_site_fract_x
_atom_site_fract_y
_atom_site_fract_z
Si Si1 0.402144 0.384577 0.741471
Si Si2 0.401804 0.385634 0.169191
Si Si3 0.407137 0.293963 0.338962
Si Si4 0.593348 0.883365 0.163003
Si Si5 0.408638 0.886598 0.263816
Si Si6 0.400085 0.608204 0.927297
Si Si7 0.093534 0.613670 0.450543
Si Si8 0.903212 0.180788 0.045325
O O1 0.250000 0.334661 0.739667
O O2 0.383184 0.500000 0.753850
O O3 0.497067 0.332825 0.787581
O O4 0.483323 0.370188 0.685963
O O5 0.250000 0.334693 0.168778
O O6 0.383850 0.500000 0.185927
O O7 0.471962 0.376379 0.111723
O O8 0.250000 0.325170 0.324050
O O9 0.437979 0.182631 0.316287
O O10 0.429709 0.305836 0.402871
O O11 0.750000 0.851161 0.175760
O O12 0.498052 0.849404 0.212764
O O13 0.542240 0.833847 0.106642
O O14 0.580862 0.000000 0.153903
O O15 0.250000 0.879729 0.246265
O O16 0.448255 0.000000 0.279883
O O17 0.250000 0.610117 0.896740
O O18 0.414819 0.500000 0.956696
O O19 0.400678 0.700623 0.968418
O O20 0.250000 0.618257 0.470642
O O21 0.057549 0.500000 0.432141
O O22 0.000000 0.648324 0.500000
O O23 0.750000 0.134349 0.040206
O O24 0.000000 0.129366 0.000000
#
# Coordination Sequence:
#
# PCOD8210198 Si02
#       8
#     8   8   8   8   8   8   8   8
#     4  10  20  31  44  68 104 141 174 211 257 311
#     4   9  17  29  45  66  93 127 166 206 249 300
#     4  10  20  33  52  79 108 142 182 227 274 316
#     4   9  19  37  58  78 103 134 167 209 266 327
#     4   9  19  36  57  82 109 138 176 220 269 328
#     4   9  18  33  50  68  95 130 165 204 250 301
#     4   9  18  33  53  77 109 149 190 230 269 312
#     4  10  22  37  53  76 101 129 167 213 261 315
#
# _framework density 19.774826999999998
#
# number of rings (size 3 to 8) (size 9 to 14) (size 15 to 20)
#    0.000    2.625    0.000    1.125    1.750    5.250 
#    0.000    1.250    0.000    0.375    0.000    0.000 
#    0.000    0.000    0.000    0.000    0.000    0.000 
#
# Total GULP energy -792974.122740 kJ/mol
# GULP energy per Si atom -12390.220668 kJ/mol
# Density = 1.972982 g / cm^3
# Si number density = 19.774827 Si / 1000 Ang^3
#
#
#
# Elastic Constant Matrix: (Units=GPa)
#
#
# Indices 1 2 3 4 5 6 
#
# 1 137.6593 25.0359 66.9725 0.0000 0.0000 0.0000
# 2 25.0359 62.3217 34.7246 0.0000 0.0000 0.0000
# 3 66.9725 34.7246 114.0520 0.0000 0.0000 0.0000
# 4 0.0000 0.0000 0.0000 6.5821 0.0000 0.0000
# 5 0.0000 0.0000 0.0000 0.0000 31.4454 0.0000
# 6 0.0000 0.0000 0.0000 0.0000 0.0000 13.9282
#
#
#
# Elastic Compliance Matrix: (Units=1/GPa)
#
#
# Indices 1 2 3 4 5 6 
#
# 1 0.010213 -0.000917 -0.005718 0.000000 0.000000 0.000000
# 2 -0.000917 0.019406 -0.005370 0.000000 0.000000 0.000000
# 3 -0.005718 -0.005370 0.013761 0.000000 0.000000 0.000000
# 4 0.000000 0.000000 0.000000 0.151927 0.000000 0.000000
# 5 0.000000 0.000000 0.000000 0.000000 0.031801 0.000000
# 6 0.000000 0.000000 0.000000 0.000000 0.000000 0.071797
#
#
# Mechanical properties :
#
#
# Convention : Reuss Voigt Hill
#
# Bulk Modulus (GPa) = 51.62647 63.05546 57.34096
# Shear Modulus (GPa) = 15.18045 22.87781 19.02913
#
# Velocity S-wave (km/s) = 2.77368 3.40504 3.10545
# Velocity P-wave (km/s) = 6.03503 6.88585 6.47443
#
# Compressibility (1/GPa) = 0.01936991
#
# Stress axis : x y z
#
# Youngs Moduli (GPa) = 97.91537 51.52990 72.67124
#
# Poissons Ratio (x) = 0.04724 0.41553
# Poissons Ratio (y) = 0.08977 0.39025
# Poissons Ratio (z) = 0.55988 0.27672
#
# Static dielectric constant tensor:
#      x y z
#    x 3.918950 0.000000 0.000000 
#    y 0.000000 3.582160 0.000000 
#    z 0.000000 0.000000 3.256270 
# 
# 
# High freq. dielectric constant tensor:
#      x y z
#    x 1.782640 0.000000 0.000000 
#    y 0.000000 1.760140 0.000000 
#    z 0.000000 0.000000 1.734300 
# 
# From -- ./inp_files/34915.got.cif
#   From: 2010.03.12/outbox.cif.g09.slc.cpg/sg51_18_cif.got.tgz:34915.got - 2010.04.16 13:43:02.
