data_PCOD8210898
_publ_section_title
;
Structure prediction by ZEFSAII (Michael W. Deem and Ramdas Pophale) SiO2 
 PCOD8210898
Probable space group: P M M A
;
_chemical_formula_sum "Si O2"
_cell_formula_units_Z 40
_cell_length_a 8.992391
_cell_length_b 12.751178
_cell_length_c 18.317312
_cell_angle_alpha 90.000000
_cell_angle_beta 90.000000
_cell_angle_gamma 90.000000
_cell_volume 2100.328539
_symmetry_space_group_name_H-M "P M M A"
_symmetry_group_IT_number 51
_symmetry_cell_setting 'orthorhombic'
loop_
_space_group_symop_operation_xyz
x,y,z
1/2-x,-y,z
1/2+x,-y,-z
-x,y,-z
-x,-y,-z
1/2+x,y,-z
1/2-x,y,z
x,-y,z
loop_
_atom_site_type_symbol
_atom_site_label
_atom_site_fract_x
_atom_site_fract_y
_atom_site_fract_z
Si Si1 0.073606 0.297342 0.078225
Si Si2 0.575724 0.500000 0.322705
Si Si3 0.574434 0.692192 0.424179
Si Si4 0.074924 0.500000 0.166890
Si Si5 0.073300 0.115265 0.181688
Si Si6 0.076781 0.878697 0.346108
O O1 0.250000 0.293705 0.068949
O O2 0.021202 0.399743 0.121483
O O3 0.011212 0.198372 0.123731
O O4 0.000000 0.296174 0.000000
O O5 0.750000 0.500000 0.308793
O O6 0.526340 0.603895 0.366142
O O7 0.496091 0.500000 0.245732
O O8 0.500000 0.660459 0.500000
O O9 0.750000 0.696027 0.435010
O O10 0.518377 0.806292 0.399453
O O11 0.250000 0.500000 0.178179
O O12 0.250000 0.114904 0.181303
O O13 0.021533 0.143834 0.263504
O O14 0.013022 0.000000 0.159710
O O15 0.250000 0.850760 0.355008
O O16 0.048101 0.000000 0.366575
#
# Coordination Sequence:
#
# PCOD8210898 Si02
#       6
#     8   4   8   4   8   8
#     4  10  20  33  50  75 105 136 172 212 257 309
#     4  10  23  40  58  82 108 136 175 224 272 316
#     4  11  23  38  56  80 111 143 176 217 266 319
#     4  10  21  36  56  78 100 134 177 216 258 316
#     4   8  15  30  52  75 100 133 173 214 255 305
#     4   9  18  35  59  83 107 140 182 224 266 314
#
# _framework density 19.044640000000001
#
# number of rings (size 3 to 8) (size 9 to 14) (size 15 to 20)
#    0.000    2.400    0.000    3.600    0.000    5.200 
#    0.000    1.000    0.000    1.200    0.000    0.000 
#    0.000    0.000    0.000    0.000    0.000    0.000 
#
# Total GULP energy -496040.575667 kJ/mol
# GULP energy per Si atom -12401.014392 kJ/mol
# Density = 1.900129 g / cm^3
# Si number density = 19.044640 Si / 1000 Ang^3
#
#
#
# Elastic Constant Matrix: (Units=GPa)
#
#
# Indices 1 2 3 4 5 6 
#
# 1 34.7422 20.6546 16.3334 0.0000 0.0000 0.0000
# 2 20.6546 103.5717 30.1155 0.0000 0.0000 0.0000
# 3 16.3334 30.1155 77.7964 0.0000 0.0000 0.0000
# 4 0.0000 0.0000 0.0000 43.6180 0.0000 0.0000
# 5 0.0000 0.0000 0.0000 0.0000 30.1353 0.0000
# 6 0.0000 0.0000 0.0000 0.0000 0.0000 4.6615
#
#
#
# Elastic Compliance Matrix: (Units=1/GPa)
#
#
# Indices 1 2 3 4 5 6 
#
# 1 0.034390 -0.005362 -0.005144 0.000000 0.000000 0.000000
# 2 -0.005362 0.011716 -0.003409 0.000000 0.000000 0.000000
# 3 -0.005144 -0.003409 0.015254 0.000000 0.000000 0.000000
# 4 0.000000 0.000000 0.000000 0.022926 0.000000 0.000000
# 5 0.000000 0.000000 0.000000 0.000000 0.033184 0.000000
# 6 0.000000 0.000000 0.000000 0.000000 0.000000 0.214522
#
#
# Mechanical properties :
#
#
# Convention : Reuss Voigt Hill
#
# Bulk Modulus (GPa) = 29.82631 38.92412 34.37522
# Shear Modulus (GPa) = 13.47707 25.61673 19.54690
#
# Velocity S-wave (km/s) = 2.66307 3.67152 3.20718
# Velocity P-wave (km/s) = 5.01509 6.20130 5.63947
#
# Compressibility (1/GPa) = 0.03352744
#
# Stress axis : x y z
#
# Youngs Moduli (GPa) = 29.07823 85.35414 65.55669
#
# Poissons Ratio (x) = 0.45770 0.33725
# Poissons Ratio (y) = 0.15593 0.22351
# Poissons Ratio (z) = 0.14959 0.29101
#
# Static dielectric constant tensor:
#      x y z
#    x 3.163660 0.000000 0.000000 
#    y 0.000000 3.976950 0.000000 
#    z 0.000000 0.000000 3.499670 
# 
# 
# High freq. dielectric constant tensor:
#      x y z
#    x 1.712060 0.000000 0.000000 
#    y 0.000000 1.757680 0.000000 
#    z 0.000000 0.000000 1.747230 
# 
# From -- ./inp_files/31430.got.cif
#   From: 2010.03.12/outbox.cif.g09.slc.cpg/sg51_16_cif.got.tgz:31430.got - 2010.04.16 13:43:02.
