data_PCOD8210738
_publ_section_title
;
Structure prediction by ZEFSAII (Michael W. Deem and Ramdas Pophale) SiO2 
 PCOD8210738
Probable space group: P M M A
;
_chemical_formula_sum "Si O2"
_cell_formula_units_Z 48
_cell_length_a 18.432753
_cell_length_b 9.159201
_cell_length_c 15.614013
_cell_angle_alpha 90.000000
_cell_angle_beta 90.000000
_cell_angle_gamma 90.000000
_cell_volume 2636.102724
_symmetry_space_group_name_H-M "P M M A"
_symmetry_group_IT_number 51
_symmetry_cell_setting 'orthorhombic'
loop_
_space_group_symop_operation_xyz
x,y,z
1/2-x,-y,z
1/2+x,-y,-z
-x,y,-z
-x,-y,-z
1/2+x,y,-z
1/2-x,y,z
x,-y,z
loop_
_atom_site_type_symbol
_atom_site_label
_atom_site_fract_x
_atom_site_fract_y
_atom_site_fract_z
Si Si1 0.163383 0.664218 0.483921
Si Si2 0.663608 0.837142 0.353459
Si Si3 0.915027 0.169699 0.001084
Si Si4 0.663713 0.835432 0.680883
Si Si5 0.169400 0.826642 0.833509
Si Si6 0.165528 0.670874 0.149977
O O1 0.250000 0.665774 0.483745
O O2 0.133687 0.500000 0.476740
O O3 0.132798 0.733758 0.571764
O O4 0.133018 0.756005 0.403614
O O5 0.750000 0.843829 0.357334
O O6 0.640889 0.773113 0.259932
O O7 0.632031 0.000000 0.367619
O O8 0.885175 0.225341 0.092638
O O9 0.895655 0.000000 0.985375
O O10 0.878509 0.266522 0.929053
O O11 0.000000 0.197360 0.000000
O O12 0.750000 0.836549 0.677817
O O13 0.636672 0.748783 0.764266
O O14 0.632944 0.000000 0.684115
O O15 0.250000 0.763731 0.852960
O O16 0.173716 0.000000 0.829426
O O17 0.250000 0.704590 0.134796
O O18 0.150748 0.500000 0.159500
#
# Coordination Sequence:
#
# PCOD8210738 Si02
#       6
#     8   8   8   8   8   8
#     4   9  15  22  34  57  91 123 147 179 225 272
#     4   8  13  22  37  57  82 115 153 187 221 265
#     4  10  20  33  50  72  96 124 160 200 242 289
#     4   9  16  26  42  64  90 121 155 189 226 272
#     4   8  14  26  45  67  91 121 157 196 234 272
#     4  10  20  33  49  70  96 126 160 198 240 284
#
# _framework density 18.208697999999998
#
# number of rings (size 3 to 8) (size 9 to 14) (size 15 to 20)
#    0.000    3.000    0.000    3.000    0.000    6.000 
#    0.000    0.833    0.000    3.000    0.000    1.167 
#    0.000    9.333    0.000    0.000    0.000    0.000 
#
# Total GULP energy -595025.164761 kJ/mol
# GULP energy per Si atom -12396.357599 kJ/mol
# Density = 1.816725 g / cm^3
# Si number density = 18.208698 Si / 1000 Ang^3
#
#
#
# Elastic Constant Matrix: (Units=GPa)
#
#
# Indices 1 2 3 4 5 6 
#
# 1 34.5681 30.1451 40.7787 0.0000 0.0000 0.0000
# 2 30.1451 114.3734 84.0400 0.0000 0.0000 0.0000
# 3 40.7787 84.0400 192.8486 0.0000 0.0000 0.0000
# 4 0.0000 0.0000 0.0000 12.5090 0.0000 0.0000
# 5 0.0000 0.0000 0.0000 0.0000 -1.6701 0.0000
# 6 0.0000 0.0000 0.0000 0.0000 0.0000 11.2726
#
#
#
# Elastic Compliance Matrix: (Units=1/GPa)
#
#
# Indices 1 2 3 4 5 6 
#
# 1 0.041709 -0.006638 -0.005927 0.000000 0.000000 0.000000
# 2 -0.006638 0.013918 -0.004662 0.000000 0.000000 0.000000
# 3 -0.005927 -0.004662 0.008470 0.000000 0.000000 0.000000
# 4 0.000000 0.000000 0.000000 0.079942 0.000000 0.000000
# 5 0.000000 0.000000 0.000000 0.000000 -0.598760 0.000000
# 6 0.000000 0.000000 0.000000 0.000000 0.000000 0.088710
#
#
# Mechanical properties :
#
#
# Convention : Reuss Voigt Hill
#
# Bulk Modulus (GPa) = 33.73368 72.41308 53.07338
# Shear Modulus (GPa) = -15.54359 16.87740 0.66690
#
# Velocity S-wave (km/s) = -2.92487 3.04778 0.60585
# Velocity P-wave (km/s) = 2.67579 7.22773 5.44977
#
# Compressibility (1/GPa) = 0.02964396
#
# Stress axis : x y z
#
# Youngs Moduli (GPa) = 23.97580 71.84833 118.06246
#
# Poissons Ratio (x) = 0.47695 0.69972
# Poissons Ratio (y) = 0.15916 0.55036
# Poissons Ratio (z) = 0.14210 0.33493
#
# Static dielectric constant tensor:
#      x y z
#    x 2.689730 0.000000 0.000000 
#    y 0.000000 3.331520 0.000000 
#    z 0.000000 0.000000 3.776270 
# 
# 
# High freq. dielectric constant tensor:
#      x y z
#    x 1.638100 0.000000 0.000000 
#    y 0.000000 1.693310 0.000000 
#    z 0.000000 0.000000 1.728110 
# 
# From -- ./inp_files/25460.got.cif
#   From: 2010.03.12/outbox.cif.g09.slc.cpg/sg51_13_cif.got.tgz:25460.got - 2010.04.16 13:43:02.
