data_PCOD8210132
_publ_section_title
;
Structure prediction by ZEFSAII (Michael W. Deem and Ramdas Pophale) SiO2 
 PCOD8210132
Probable space group: P M M A
;
_chemical_formula_sum "Si O2"
_cell_formula_units_Z 52
_cell_length_a 9.717725
_cell_length_b 15.559842
_cell_length_c 20.342669
_cell_angle_alpha 90.000000
_cell_angle_beta 90.000000
_cell_angle_gamma 90.000000
_cell_volume 3075.939012
_symmetry_space_group_name_H-M "P M M A"
_symmetry_group_IT_number 51
_symmetry_cell_setting 'orthorhombic'
loop_
_space_group_symop_operation_xyz
x,y,z
1/2-x,-y,z
1/2+x,-y,-z
-x,y,-z
-x,-y,-z
1/2+x,y,-z
1/2-x,y,z
x,-y,z
loop_
_atom_site_type_symbol
_atom_site_label
_atom_site_fract_x
_atom_site_fract_y
_atom_site_fract_z
Si Si1 0.591095 0.098403 0.062390
Si Si2 0.595538 0.898948 0.558059
Si Si3 0.408638 0.593117 0.792071
Si Si4 0.588725 0.784007 0.184062
Si Si5 0.906973 0.180354 0.692251
Si Si6 0.404953 0.500000 0.438939
Si Si7 0.096515 0.375297 0.326965
O O1 0.750000 0.112028 0.043324
O O2 0.545947 0.162526 0.120107
O O3 0.564005 0.000000 0.084558
O O4 0.500000 0.123176 0.000000
O O5 0.500000 0.859229 0.500000
O O6 0.750000 0.860558 0.550557
O O7 0.540179 0.878781 0.631896
O O8 0.599095 0.000000 0.549486
O O9 0.250000 0.600458 0.772977
O O10 0.434149 0.500000 0.829886
O O11 0.449968 0.682493 0.829387
O O12 0.491952 0.587076 0.725381
O O13 0.750000 0.794850 0.199544
O O14 0.505163 0.826293 0.244301
O O15 0.750000 0.156488 0.713114
O O16 0.916584 0.274816 0.663139
O O17 0.250000 0.500000 0.464660
O O18 0.500000 0.500000 0.500000
O O19 0.437799 0.584609 0.397003
O O20 0.250000 0.401681 0.303761
#
# Coordination Sequence:
#
# PCOD8210132 Si02
#       7
#     8   8   8   8   8   4   8
#     4   9  18  33  52  73  99 131 162 191 227 273
#     4   9  18  32  47  63  85 115 152 191 231 278
#     4   9  16  27  46  68  89 116 149 184 224 269
#     4   9  18  31  47  72 100 122 152 194 234 274
#     4   9  18  31  47  67  91 118 150 190 235 279
#     4  10  20  30  40  56  80 110 143 182 227 272
#     4   9  17  30  44  59  82 112 144 181 226 272
#
# _framework density 16.905408000000001
#
# number of rings (size 3 to 8) (size 9 to 14) (size 15 to 20)
#    0.000    2.923    0.769    0.000    0.000    3.077 
#    0.000    0.000    0.000    0.462    0.000    0.000 
#    0.000    0.000    0.000    0.000    0.000    0.000 
#
# Total GULP energy -644293.094636 kJ/mol
# GULP energy per Si atom -12390.251820 kJ/mol
# Density = 1.686693 g / cm^3
# Si number density = 16.905408 Si / 1000 Ang^3
#
#
#
# Elastic Constant Matrix: (Units=GPa)
#
#
# Indices 1 2 3 4 5 6 
#
# 1 61.3282 37.5067 61.9059 0.0000 0.0000 0.0000
# 2 37.5067 69.2857 59.7422 0.0000 0.0000 0.0000
# 3 61.9059 59.7422 122.7888 0.0000 0.0000 0.0000
# 4 0.0000 0.0000 0.0000 -67.1679 0.0000 0.0000
# 5 0.0000 0.0000 0.0000 0.0000 31.0072 0.0000
# 6 0.0000 0.0000 0.0000 0.0000 0.0000 18.5816
#
#
#
# Elastic Compliance Matrix: (Units=1/GPa)
#
#
# Indices 1 2 3 4 5 6 
#
# 1 0.034770 -0.006386 -0.014423 0.000000 0.000000 0.000000
# 2 -0.006386 0.026037 -0.009449 0.000000 0.000000 0.000000
# 3 -0.014423 -0.009449 0.020013 0.000000 0.000000 0.000000
# 4 0.000000 0.000000 0.000000 -0.014888 0.000000 0.000000
# 5 0.000000 0.000000 0.000000 0.000000 0.032251 0.000000
# 6 0.000000 0.000000 0.000000 0.000000 0.000000 0.053817
#
#
# Mechanical properties :
#
#
# Convention : Reuss Voigt Hill
#
# Bulk Modulus (GPa) = 49.24899 63.52359 56.38629
# Shear Modulus (GPa) = 22.80174 2.76735 12.78454
#
# Velocity S-wave (km/s) = 3.67656 1.28083 2.75296
# Velocity P-wave (km/s) = 6.87155 6.31228 6.59784
#
# Compressibility (1/GPa) = 0.02030498
#
# Stress axis : x y z
#
# Youngs Moduli (GPa) = 28.76071 38.40674 49.96840
#
# Poissons Ratio (x) = 0.24526 0.72068
# Poissons Ratio (y) = 0.18366 0.47213
# Poissons Ratio (z) = 0.41480 0.36289
#
# Static dielectric constant tensor:
#      x y z
#    x 3.315160 0.000000 0.000000 
#    y 0.000000 3.322510 0.000000 
#    z 0.000000 0.000000 2.926430 
# 
# 
# High freq. dielectric constant tensor:
#      x y z
#    x 1.653380 0.000000 0.000000 
#    y 0.000000 1.661560 0.000000 
#    z 0.000000 0.000000 1.620170 
# 
# From -- ./inp_files/27929.got.cif
#   From: 2010.03.12/outbox.cif.g09.slc.cpg/sg51_14_cif.got.tgz:27929.got - 2010.04.16 13:43:02.
