data_PCOD8210826
_publ_section_title
;
Structure prediction by ZEFSAII (Michael W. Deem and Ramdas Pophale) SiO2 
 PCOD8210826
Probable space group: P M M A
;
_chemical_formula_sum "Si O2"
_cell_formula_units_Z 64
_cell_length_a 9.114562
_cell_length_b 18.478267
_cell_length_c 20.731656
_cell_angle_alpha 90.000000
_cell_angle_beta 90.000000
_cell_angle_gamma 90.000000
_cell_volume 3491.652667
_symmetry_space_group_name_H-M "P M M A"
_symmetry_group_IT_number 51
_symmetry_cell_setting 'orthorhombic'
loop_
_space_group_symop_operation_xyz
x,y,z
1/2-x,-y,z
1/2+x,-y,-z
-x,y,-z
-x,-y,-z
1/2+x,y,-z
1/2-x,y,z
x,-y,z
loop_
_atom_site_type_symbol
_atom_site_label
_atom_site_fract_x
_atom_site_fract_y
_atom_site_fract_z
Si Si1 0.415088 0.086202 0.061932
Si Si2 0.583853 0.413892 0.062733
Si Si3 0.423371 0.664645 0.692198
Si Si4 0.923574 0.830631 0.312493
Si Si5 0.078461 0.415348 0.191419
Si Si6 0.578521 0.916017 0.189038
Si Si7 0.078563 0.417124 0.563846
Si Si8 0.421928 0.916578 0.564838
O O1 0.250000 0.116412 0.061170
O O2 0.495249 0.113545 0.126245
O O3 0.416491 0.000000 0.059658
O O4 0.500000 0.117828 0.000000
O O5 0.750000 0.383760 0.063735
O O6 0.584787 0.500000 0.060088
O O7 0.499260 0.387125 0.126398
O O8 0.500000 0.382871 0.000000
O O9 0.250000 0.655246 0.704073
O O10 0.472666 0.747725 0.689487
O O11 0.510131 0.626627 0.749040
O O12 0.472796 0.629022 0.625057
O O13 0.750000 0.838774 0.313441
O O14 0.984608 0.871421 0.249500
O O15 0.986416 0.868902 0.376564
O O16 0.250000 0.398401 0.185837
O O17 0.048543 0.500000 0.201947
O O18 0.750000 0.902488 0.177689
O O19 0.545516 0.000000 0.202079
O O20 0.250000 0.409075 0.552107
O O21 0.032705 0.500000 0.576674
O O22 0.000000 0.386629 0.500000
O O23 0.500000 0.889854 0.500000
O O24 0.250000 0.904300 0.555604
O O25 0.458686 0.000000 0.579824
#
# Coordination Sequence:
#
# PCOD8210826 Si02
#       8
#     8   8   8   8   8   8   8   8
#     4   9  16  26  42  67  97 125 155 195 242 288
#     4   9  16  27  46  73 103 132 163 202 247 292
#     4  10  20  34  51  71  97 129 165 204 246 293
#     4   9  18  32  50  71  96 129 166 202 242 290
#     4  10  20  33  50  73 100 130 165 204 246 294
#     4   9  16  28  48  71  94 124 162 200 238 283
#     4   9  18  32  50  71  94 121 154 193 238 288
#     4   9  17  31  51  74 100 130 165 204 245 291
#
# _framework density 18.329429999999999
#
# number of rings (size 3 to 8) (size 9 to 14) (size 15 to 20)
#    0.000    2.750    0.000    1.875    0.000    6.750 
#    0.000    3.125    0.000    3.750    0.000    3.500 
#    0.000    0.000    0.000    0.000    0.000    0.000 
#
# Total GULP energy -793650.653322 kJ/mol
# GULP energy per Si atom -12400.791458 kJ/mol
# Density = 1.828771 g / cm^3
# Si number density = 18.329430 Si / 1000 Ang^3
#
#
#
# Elastic Constant Matrix: (Units=GPa)
#
#
# Indices 1 2 3 4 5 6 
#
# 1 85.3812 39.6245 80.1786 0.0000 0.0000 0.0000
# 2 39.6245 69.1759 75.4072 0.0000 0.0000 0.0000
# 3 80.1786 75.4072 213.1545 0.0000 0.0000 0.0000
# 4 0.0000 0.0000 0.0000 -2.0490 0.0000 0.0000
# 5 0.0000 0.0000 0.0000 0.0000 37.9649 0.0000
# 6 0.0000 0.0000 0.0000 0.0000 0.0000 14.0368
#
#
#
# Elastic Compliance Matrix: (Units=1/GPa)
#
#
# Indices 1 2 3 4 5 6 
#
# 1 0.019143 -0.005072 -0.005406 0.000000 0.000000 0.000000
# 2 -0.005072 0.024874 -0.006892 0.000000 0.000000 0.000000
# 3 -0.005406 -0.006892 0.009163 0.000000 0.000000 0.000000
# 4 0.000000 0.000000 0.000000 -0.488043 0.000000 0.000000
# 5 0.000000 0.000000 0.000000 0.000000 0.026340 0.000000
# 6 0.000000 0.000000 0.000000 0.000000 0.000000 0.071241
#
#
# Mechanical properties :
#
#
# Convention : Reuss Voigt Hill
#
# Bulk Modulus (GPa) = 54.23051 84.23689 69.23370
# Shear Modulus (GPa) = -16.86937 21.49063 2.31063
#
# Velocity S-wave (km/s) = -3.03701 3.42784 1.12399
# Velocity P-wave (km/s) = 4.16568 7.85645 6.28795
#
# Compressibility (1/GPa) = 0.01843980
#
# Stress axis : x y z
#
# Youngs Moduli (GPa) = 52.23859 40.20337 109.13303
#
# Poissons Ratio (x) = 0.20390 0.59002
# Poissons Ratio (y) = 0.26494 0.75211
# Poissons Ratio (z) = 0.28242 0.27707
#
# Static dielectric constant tensor:
#      x y z
#    x 3.303030 0.000000 0.000000 
#    y 0.000000 3.152460 0.000000 
#    z 0.000000 0.000000 3.629700 
# 
# 
# High freq. dielectric constant tensor:
#      x y z
#    x 1.698080 0.000000 0.000000 
#    y 0.000000 1.675240 0.000000 
#    z 0.000000 0.000000 1.729080 
# 
# From -- ./inp_files/32307.got.cif
#   From: 2010.03.12/outbox.cif.g09.slc.cpg/sg51_17_cif.got.tgz:32307.got - 2010.04.16 13:43:02.
