data_PCOD8210160
_publ_section_title
;
Structure prediction by ZEFSAII (Michael W. Deem and Ramdas Pophale) SiO2 
 PCOD8210160
Probable space group: P M M A
;
_chemical_formula_sum "Si O2"
_cell_formula_units_Z 64
_cell_length_a 9.187984
_cell_length_b 14.480698
_cell_length_c 28.569107
_cell_angle_alpha 90.000000
_cell_angle_beta 90.000000
_cell_angle_gamma 90.000000
_cell_volume 3801.074591
_symmetry_space_group_name_H-M "P M M A"
_symmetry_group_IT_number 51
_symmetry_cell_setting 'orthorhombic'
loop_
_space_group_symop_operation_xyz
x,y,z
1/2-x,-y,z
1/2+x,-y,-z
-x,y,-z
-x,-y,-z
1/2+x,y,-z
1/2-x,y,z
x,-y,z
loop_
_atom_site_type_symbol
_atom_site_label
_atom_site_fract_x
_atom_site_fract_y
_atom_site_fract_z
Si Si1 0.410481 0.390381 0.543093
Si Si2 0.416328 0.397355 0.088953
Si Si3 0.577247 0.227186 0.046654
Si Si4 0.423813 0.396690 0.645661
Si Si5 0.408448 0.147286 0.858570
Si Si6 0.582891 0.896903 0.771356
Si Si7 0.422166 0.274096 0.730596
Si Si8 0.408702 0.645695 0.825531
O O1 0.500000 0.346758 0.500000
O O2 0.250000 0.347208 0.539592
O O3 0.402406 0.500000 0.538205
O O4 0.480075 0.366282 0.593945
O O5 0.250000 0.361815 0.089609
O O6 0.425997 0.500000 0.066917
O O7 0.514075 0.328547 0.058550
O O8 0.473198 0.405537 0.142604
O O9 0.750000 0.237489 0.039577
O O10 0.540024 0.151743 0.087115
O O11 0.500000 0.189880 0.000000
O O12 0.250000 0.399421 0.645196
O O13 0.481382 0.500000 0.658063
O O14 0.480202 0.321293 0.682972
O O15 0.250000 0.097883 0.854663
O O16 0.523353 0.098233 0.824734
O O17 0.388986 0.251617 0.843473
O O18 0.750000 0.865910 0.773836
O O19 0.498258 0.824927 0.738366
O O20 0.566770 0.000000 0.749955
O O21 0.250000 0.255361 0.729532
O O22 0.461637 0.347216 0.771677
O O23 0.250000 0.596015 0.828508
#
# Coordination Sequence:
#
# PCOD8210160 Si02
#       8
#     8   8   8   8   8   8   8   8
#     4   8  13  22  37  56  80 113 153 195 233 267
#     4  10  20  31  42  58  81 110 144 179 214 254
#     4  10  20  33  49  67  85 107 136 170 213 261
#     4   8  14  25  41  62  89 122 159 195 229 266
#     4   8  16  31  49  68  86 106 136 170 203 246
#     4  10  20  32  48  71  96 121 147 178 221 268
#     4   9  17  29  46  67  90 119 154 188 223 265
#     4   8  15  27  42  60  80 104 137 175 214 254
#
# _framework density 16.837343000000001
#
# number of rings (size 3 to 8) (size 9 to 14) (size 15 to 20)
#    0.000    3.125    0.000    3.375    0.000    7.750 
#    0.000    1.875    0.000    1.500    0.000    0.000 
#    0.000    0.500    0.000    1.125    0.000    2.000 
#
# Total GULP energy -792936.225495 kJ/mol
# GULP energy per Si atom -12389.628523 kJ/mol
# Density = 1.679902 g / cm^3
# Si number density = 16.837343 Si / 1000 Ang^3
#
#
#
# Elastic Constant Matrix: (Units=GPa)
#
#
# Indices 1 2 3 4 5 6 
#
# 1 72.4221 25.2039 39.2283 0.0000 0.0000 0.0000
# 2 25.2039 54.6235 33.3466 0.0000 0.0000 0.0000
# 3 39.2283 33.3466 130.4923 0.0000 0.0000 0.0000
# 4 0.0000 0.0000 0.0000 10.0820 0.0000 0.0000
# 5 0.0000 0.0000 0.0000 0.0000 23.0726 0.0000
# 6 0.0000 0.0000 0.0000 0.0000 0.0000 12.4901
#
#
#
# Elastic Compliance Matrix: (Units=1/GPa)
#
#
# Indices 1 2 3 4 5 6 
#
# 1 0.017975 -0.005919 -0.003891 0.000000 0.000000 0.000000
# 2 -0.005919 0.023640 -0.004262 0.000000 0.000000 0.000000
# 3 -0.003891 -0.004262 0.009922 0.000000 0.000000 0.000000
# 4 0.000000 0.000000 0.000000 0.099187 0.000000 0.000000
# 5 0.000000 0.000000 0.000000 0.000000 0.043342 0.000000
# 6 0.000000 0.000000 0.000000 0.000000 0.000000 0.080064
#
#
# Mechanical properties :
#
#
# Convention : Reuss Voigt Hill
#
# Bulk Modulus (GPa) = 42.74575 50.34394 46.54484
# Shear Modulus (GPa) = 16.12535 19.77952 17.95244
#
# Velocity S-wave (km/s) = 3.09805 3.43117 3.26886
# Velocity P-wave (km/s) = 6.18383 6.75739 6.47696
#
# Compressibility (1/GPa) = 0.02339414
#
# Stress axis : x y z
#
# Youngs Moduli (GPa) = 55.63149 42.30159 100.78455
#
# Poissons Ratio (x) = 0.25036 0.39218
# Poissons Ratio (y) = 0.32926 0.42952
# Poissons Ratio (z) = 0.21648 0.18028
#
# Static dielectric constant tensor:
#      x y z
#    x 3.100630 0.000000 0.000000 
#    y 0.000000 2.860130 0.000000 
#    z 0.000000 0.000000 3.579490 
# 
# 
# High freq. dielectric constant tensor:
#      x y z
#    x 1.639280 0.000000 0.000000 
#    y 0.000000 1.610740 0.000000 
#    z 0.000000 0.000000 1.640030 
# 
# From -- ./inp_files/37528.got.cif
#   From: 2010.03.12/outbox.cif.g09.slc.cpg/sg51_19_cif.got.tgz:37528.got - 2010.04.16 13:43:02.
