data_PCOD8210303
_publ_section_title
;
Structure prediction by ZEFSAII (Michael W. Deem and Ramdas Pophale) SiO2 
 PCOD8210303
Probable space group: P M M A
;
_chemical_formula_sum "Si O2"
_cell_formula_units_Z 64
_cell_length_a 8.923885
_cell_length_b 14.971129
_cell_length_c 24.460816
_cell_angle_alpha 90.000000
_cell_angle_beta 90.000000
_cell_angle_gamma 90.000000
_cell_volume 3267.980514
_symmetry_space_group_name_H-M "P M M A"
_symmetry_group_IT_number 51
_symmetry_cell_setting 'orthorhombic'
loop_
_space_group_symop_operation_xyz
x,y,z
1/2-x,-y,z
1/2+x,-y,-z
-x,y,-z
-x,-y,-z
1/2+x,y,-z
1/2-x,y,z
x,-y,z
loop_
_atom_site_type_symbol
_atom_site_label
_atom_site_fract_x
_atom_site_fract_y
_atom_site_fract_z
Si Si1 0.424285 0.395975 0.878167
Si Si2 0.070933 0.901001 0.379749
Si Si3 0.572343 0.268982 0.557190
Si Si4 0.429085 0.899678 0.145056
Si Si5 0.072099 0.244559 0.057511
Si Si6 0.087107 0.105449 0.262313
Si Si7 0.416236 0.394135 0.230187
Si Si8 0.071697 0.400467 0.349397
O O1 0.250000 0.376792 0.885935
O O2 0.463262 0.500000 0.886567
O O3 0.516151 0.341679 0.923393
O O4 0.472224 0.363366 0.817614
O O5 0.250000 0.901616 0.374123
O O6 0.019325 0.830547 0.425480
O O7 0.003853 0.871593 0.319858
O O8 0.013176 0.000000 0.396598
O O9 0.500000 0.295223 0.500000
O O10 0.750000 0.275072 0.551829
O O11 0.510009 0.337251 0.602723
O O12 0.250000 0.899522 0.148368
O O13 0.486469 0.830917 0.099525
O O14 0.493909 0.867579 0.204943
O O15 0.485840 0.000000 0.130528
O O16 0.250000 0.245848 0.052266
O O17 0.000000 0.219726 0.000000
O O18 0.250000 0.152859 0.263376
O O19 0.109701 0.000000 0.260360
O O20 0.250000 0.356024 0.216964
O O21 0.407530 0.500000 0.234308
O O22 0.475265 0.360577 0.289664
O O23 0.250000 0.404336 0.350936
O O24 0.005387 0.500000 0.358547
#
# Coordination Sequence:
#
# PCOD8210303 Si02
#       8
#     8   8   8   8   8   8   8   8
#     4  10  21  37  56  78 106 137 167 206 257 308
#     4   8  14  25  42  65  92 120 151 192 241 288
#     4  10  20  32  46  65  91 125 166 206 242 285
#     4   8  15  29  50  77 106 132 160 201 254 306
#     4  11  23  37  54  76 104 139 179 218 252 294
#     4   7  10  20  41  69  97 120 148 191 239 288
#     4   8  14  28  52  79 102 124 156 198 245 301
#     4   8  15  29  49  72  97 124 156 198 245 292
#
# _framework density 19.583959
#
# number of rings (size 3 to 8) (size 9 to 14) (size 15 to 20)
#    0.000    3.250    0.000    3.000    0.000    2.750 
#    0.000    4.375    0.000    1.875    0.000    0.000 
#    0.000    6.000    0.000    0.000    0.000    0.000 
#
# Total GULP energy -792930.487527 kJ/mol
# GULP energy per Si atom -12389.538868 kJ/mol
# Density = 1.953939 g / cm^3
# Si number density = 19.583959 Si / 1000 Ang^3
#
#
#
# Elastic Constant Matrix: (Units=GPa)
#
#
# Indices 1 2 3 4 5 6 
#
# 1 32.5929 11.3891 15.0689 0.0000 0.0000 0.0000
# 2 11.3891 50.3023 11.1113 0.0000 0.0000 0.0000
# 3 15.0689 11.1113 91.3798 0.0000 0.0000 0.0000
# 4 0.0000 0.0000 0.0000 34.9158 0.0000 0.0000
# 5 0.0000 0.0000 0.0000 0.0000 27.1292 0.0000
# 6 0.0000 0.0000 0.0000 0.0000 0.0000 10.9148
#
#
#
# Elastic Compliance Matrix: (Units=1/GPa)
#
#
# Indices 1 2 3 4 5 6 
#
# 1 0.035408 -0.006913 -0.004998 0.000000 0.000000 0.000000
# 2 -0.006913 0.021778 -0.001508 0.000000 0.000000 0.000000
# 3 -0.004998 -0.001508 0.011951 0.000000 0.000000 0.000000
# 4 0.000000 0.000000 0.000000 0.028640 0.000000 0.000000
# 5 0.000000 0.000000 0.000000 0.000000 0.036861 0.000000
# 6 0.000000 0.000000 0.000000 0.000000 0.000000 0.091619
#
#
# Mechanical properties :
#
#
# Convention : Reuss Voigt Hill
#
# Bulk Modulus (GPa) = 23.64148 27.71261 25.67705
# Shear Modulus (GPa) = 18.71291 23.70567 21.20929
#
# Velocity S-wave (km/s) = 3.09451 3.48295 3.29446
# Velocity P-wave (km/s) = 4.98658 5.50962 5.25462
#
# Compressibility (1/GPa) = 0.04229853
#
# Stress axis : x y z
#
# Youngs Moduli (GPa) = 28.24218 45.91768 83.67524
#
# Poissons Ratio (x) = 0.31742 0.41824
# Poissons Ratio (y) = 0.19523 0.12620
# Poissons Ratio (z) = 0.14116 0.06925
#
# Static dielectric constant tensor:
#      x y z
#    x 2.965630 0.000000 0.000000 
#    y 0.000000 3.635830 0.000000 
#    z 0.000000 0.000000 3.900330 
# 
# 
# High freq. dielectric constant tensor:
#      x y z
#    x 1.692760 0.000000 0.000000 
#    y 0.000000 1.759510 0.000000 
#    z 0.000000 0.000000 1.774510 
# 
# From -- ./inp_files/35031.got.cif
#   From: 2010.03.12/outbox.cif.g09.slc.cpg/sg51_18_cif.got.tgz:35031.got - 2010.04.16 13:43:02.
