data_PCOD8210468
_publ_section_title
;
Structure prediction by ZEFSAII (Michael W. Deem and Ramdas Pophale) SiO2 
 PCOD8210468
Probable space group: P M M A
;
_chemical_formula_sum "Si O2"
_cell_formula_units_Z 48
_cell_length_a 14.661883
_cell_length_b 9.198893
_cell_length_c 19.893830
_cell_angle_alpha 90.000000
_cell_angle_beta 90.000000
_cell_angle_gamma 90.000000
_cell_volume 2683.142382
_symmetry_space_group_name_H-M "P M M A"
_symmetry_group_IT_number 51
_symmetry_cell_setting 'orthorhombic'
loop_
_space_group_symop_operation_xyz
x,y,z
1/2-x,-y,z
1/2+x,-y,-z
-x,y,-z
-x,-y,-z
1/2+x,y,-z
1/2-x,y,z
x,-y,z
loop_
_atom_site_type_symbol
_atom_site_label
_atom_site_fract_x
_atom_site_fract_y
_atom_site_fract_z
Si Si1 0.250000 0.673125 0.366401
Si Si2 0.479677 0.669672 0.163379
Si Si3 0.443413 0.326794 0.563639
Si Si4 0.441461 0.327132 0.312363
Si Si5 0.646806 0.667510 0.073812
Si Si6 0.750000 0.673049 0.481468
Si Si7 0.643117 0.167731 0.940903
O O1 0.250000 0.500000 0.367827
O O2 0.160344 0.731414 0.327865
O O3 0.250000 0.733568 0.442450
O O4 0.454907 0.500000 0.158994
O O5 0.473875 0.727941 0.239534
O O6 0.581980 0.700100 0.137113
O O7 0.406178 0.755785 0.120542
O O8 0.500000 0.267570 0.500000
O O9 0.446211 0.500000 0.563663
O O10 0.488218 0.265276 0.631996
O O11 0.339400 0.270264 0.557899
O O12 0.441868 0.500000 0.315258
O O13 0.750000 0.709538 0.094787
O O14 0.640615 0.500000 0.051660
O O15 0.611777 0.761611 0.011103
O O16 0.750000 0.500000 0.484518
O O17 0.750000 0.191225 0.930140
O O18 0.615457 0.000000 0.942957
#
# Coordination Sequence:
#
# PCOD8210468 Si02
#       7
#     4   8   8   8   8   4   8
#     4   9  14  22  36  54  79 114 153 188 226 273
#     4  10  20  32  48  71  98 130 162 192 236 290
#     4   9  14  22  34  51  79 114 154 191 223 268
#     4   9  17  26  37  58  87 118 153 190 227 275
#     4   9  18  34  52  69  94 127 161 197 237 283
#     4   9  14  20  34  52  74 114 155 188 230 271
#     4  10  21  35  52  75  98 121 155 199 242 284
#
# _framework density 17.889471
#
# number of rings (size 3 to 8) (size 9 to 14) (size 15 to 20)
#    0.000    2.667    1.667    1.000    1.167    3.667 
#    1.500    0.000    0.000    0.000    0.000    0.000 
#    0.000    0.667    0.000    0.333    0.000    0.167 
#
# Total GULP energy -595126.307131 kJ/mol
# GULP energy per Si atom -12398.464732 kJ/mol
# Density = 1.784875 g / cm^3
# Si number density = 17.889471 Si / 1000 Ang^3
#
#
#
# Elastic Constant Matrix: (Units=GPa)
#
#
# Indices 1 2 3 4 5 6 
#
# 1 137.5812 26.7955 96.8758 0.0000 0.0000 0.0000
# 2 26.7955 32.5016 34.4302 0.0000 0.0000 0.0000
# 3 96.8758 34.4302 178.4160 0.0000 0.0000 0.0000
# 4 0.0000 0.0000 0.0000 -0.8469 0.0000 0.0000
# 5 0.0000 0.0000 0.0000 0.0000 30.8632 0.0000
# 6 0.0000 0.0000 0.0000 0.0000 0.0000 12.9318
#
#
#
# Elastic Compliance Matrix: (Units=1/GPa)
#
#
# Indices 1 2 3 4 5 6 
#
# 1 0.012130 -0.003800 -0.005853 0.000000 0.000000 0.000000
# 2 -0.003800 0.039864 -0.005630 0.000000 0.000000 0.000000
# 3 -0.005853 -0.005630 0.009869 0.000000 0.000000 0.000000
# 4 0.000000 0.000000 0.000000 -1.180749 0.000000 0.000000
# 5 0.000000 0.000000 0.000000 0.000000 0.032401 0.000000
# 6 0.000000 0.000000 0.000000 0.000000 0.000000 0.077329
#
#
# Mechanical properties :
#
#
# Convention : Reuss Voigt Hill
#
# Bulk Modulus (GPa) = 31.95065 73.85575 52.90320
# Shear Modulus (GPa) = -5.16444 21.28278 8.05917
#
# Velocity S-wave (km/s) = -1.70092 3.45292 2.12480
# Velocity P-wave (km/s) = 3.74717 7.56776 5.97128
#
# Compressibility (1/GPa) = 0.03129827
#
# Stress axis : x y z
#
# Youngs Moduli (GPa) = 82.44203 25.08517 101.32523
#
# Poissons Ratio (x) = 0.09533 0.59304
# Poissons Ratio (y) = 0.31328 0.57041
# Poissons Ratio (z) = 0.48252 0.14122
#
# Static dielectric constant tensor:
#      x y z
#    x 3.586250 0.000000 0.000000 
#    y 0.000000 2.773800 0.000000 
#    z 0.000000 0.000000 3.445380 
# 
# 
# High freq. dielectric constant tensor:
#      x y z
#    x 1.707860 0.000000 0.000000 
#    y 0.000000 1.628660 0.000000 
#    z 0.000000 0.000000 1.691600 
# 
# From -- ./inp_files/29635.got.cif
#   From: 2010.03.12/outbox.cif.g09.slc.cpg/sg51_15_cif.got.tgz:29635.got - 2010.04.16 13:43:02.
