data_PCOD8210730
_publ_section_title
;
Structure prediction by ZEFSAII (Michael W. Deem and Ramdas Pophale) SiO2 
 PCOD8210730
Probable space group: P M M A
;
_chemical_formula_sum "Si O2"
_cell_formula_units_Z 56
_cell_length_a 8.948690
_cell_length_b 19.746913
_cell_length_c 15.452447
_cell_angle_alpha 90.000000
_cell_angle_beta 90.000000
_cell_angle_gamma 90.000000
_cell_volume 2730.586502
_symmetry_space_group_name_H-M "P M M A"
_symmetry_group_IT_number 51
_symmetry_cell_setting 'orthorhombic'
loop_
_space_group_symop_operation_xyz
x,y,z
1/2-x,-y,z
1/2+x,-y,-z
-x,y,-z
-x,-y,-z
1/2+x,y,-z
1/2-x,y,z
x,-y,z
loop_
_atom_site_type_symbol
_atom_site_label
_atom_site_fract_x
_atom_site_fract_y
_atom_site_fract_z
Si Si1 0.920597 0.074661 0.610861
Si Si2 0.074865 0.423059 0.588791
Si Si3 0.425983 0.313964 0.729090
Si Si4 0.575295 0.211427 0.416664
Si Si5 0.916397 0.691332 0.914324
Si Si6 0.917266 0.926705 0.217097
Si Si7 0.084108 0.849919 0.081355
O O1 0.750000 0.099076 0.599480
O O2 0.032098 0.132036 0.575717
O O3 0.959061 0.066657 0.710254
O O4 0.944606 0.000000 0.566990
O O5 0.250000 0.415797 0.574377
O O6 0.027140 0.500000 0.610092
O O7 0.024281 0.377424 0.669972
O O8 0.000000 0.397877 0.500000
O O9 0.250000 0.313149 0.746492
O O10 0.474895 0.246241 0.674516
O O11 0.502797 0.321804 0.822584
O O12 0.500000 0.248171 0.500000
O O13 0.750000 0.220357 0.427674
O O14 0.750000 0.659177 0.910280
O O15 0.901506 0.770532 0.928857
O O16 0.000000 0.660733 0.000000
O O17 0.750000 0.908281 0.251781
O O18 0.973362 0.865489 0.159319
O O19 0.911917 0.000000 0.168945
O O20 0.250000 0.882034 0.091700
O O21 0.000000 0.882657 0.000000
#
# Coordination Sequence:
#
# PCOD8210730 Si02
#       7
#     8   8   8   8   8   8   8
#     4  10  21  37  55  73  96 131 176 224 273 327
#     4   9  18  34  57  86 121 159 195 230 270 320
#     4  10  21  36  56  84 117 151 186 228 278 328
#     4  11  23  37  55  80 111 145 182 228 279 332
#     4  10  21  36  56  81 108 141 181 227 276 327
#     4  10  20  33  49  69  93 123 162 210 265 325
#     4  10  20  33  49  69  94 126 165 211 267 328
#
# _framework density 20.508414999999999
#
# number of rings (size 3 to 8) (size 9 to 14) (size 15 to 20)
#    0.000    2.000    0.000    3.429    0.000    8.000 
#    0.000    0.000    0.000    0.429    0.000    0.000 
#    0.000    0.000    0.000    0.000    0.000    0.000 
#
# Total GULP energy -693785.150607 kJ/mol
# GULP energy per Si atom -12389.020547 kJ/mol
# Density = 2.046174 g / cm^3
# Si number density = 20.508415 Si / 1000 Ang^3
#
#
#
# Elastic Constant Matrix: (Units=GPa)
#
#
# Indices 1 2 3 4 5 6 
#
# 1 102.8068 26.6332 63.8991 0.0000 0.0000 0.0000
# 2 26.6332 63.2280 31.7715 0.0000 0.0000 0.0000
# 3 63.8991 31.7715 156.3589 0.0000 0.0000 0.0000
# 4 0.0000 0.0000 0.0000 21.5466 0.0000 0.0000
# 5 0.0000 0.0000 0.0000 0.0000 39.1347 0.0000
# 6 0.0000 0.0000 0.0000 0.0000 0.0000 17.7998
#
#
#
# Elastic Compliance Matrix: (Units=1/GPa)
#
#
# Indices 1 2 3 4 5 6 
#
# 1 0.013622 -0.003275 -0.004901 0.000000 0.000000 0.000000
# 2 -0.003275 0.018402 -0.002401 0.000000 0.000000 0.000000
# 3 -0.004901 -0.002401 0.008886 0.000000 0.000000 0.000000
# 4 0.000000 0.000000 0.000000 0.046411 0.000000 0.000000
# 5 0.000000 0.000000 0.000000 0.000000 0.025553 0.000000
# 6 0.000000 0.000000 0.000000 0.000000 0.000000 0.056180
#
#
# Mechanical properties :
#
#
# Convention : Reuss Voigt Hill
#
# Bulk Modulus (GPa) = 50.61836 63.00016 56.80926
# Shear Modulus (GPa) = 25.40737 29.03556 27.22146
#
# Velocity S-wave (km/s) = 3.52358 3.76678 3.64721
# Velocity P-wave (km/s) = 6.42569 7.05011 6.74513
#
# Compressibility (1/GPa) = 0.01975568
#
# Stress axis : x y z
#
# Youngs Moduli (GPa) = 73.41168 54.34303 112.53153
#
# Poissons Ratio (x) = 0.17797 0.55156
# Poissons Ratio (y) = 0.24042 0.27016
# Poissons Ratio (z) = 0.35982 0.13046
#
# Static dielectric constant tensor:
#      x y z
#    x 3.894620 0.000000 0.000000 
#    y 0.000000 3.701220 0.000000 
#    z 0.000000 0.000000 3.870310 
# 
# 
# High freq. dielectric constant tensor:
#      x y z
#    x 1.807730 0.000000 0.000000 
#    y 0.000000 1.773270 0.000000 
#    z 0.000000 0.000000 1.805720 
# 
# From -- ./inp_files/21757.got.cif
#   From: 2010.03.12/outbox.cif.g09.slc.cpg/sg51_11_cif.got.tgz:21757.got - 2010.04.16 13:43:02.
