data_PCOD8210846
_publ_section_title
;
Structure prediction by ZEFSAII (Michael W. Deem and Ramdas Pophale) SiO2 
 PCOD8210846
Probable space group: P M M A
;
_chemical_formula_sum "Si O2"
_cell_formula_units_Z 40
_cell_length_a 25.421852
_cell_length_b 9.063430
_cell_length_c 9.493832
_cell_angle_alpha 90.000000
_cell_angle_beta 90.000000
_cell_angle_gamma 90.000000
_cell_volume 2187.466009
_symmetry_space_group_name_H-M "P M M A"
_symmetry_group_IT_number 51
_symmetry_cell_setting 'orthorhombic'
loop_
_space_group_symop_operation_xyz
x,y,z
1/2-x,-y,z
1/2+x,-y,-z
-x,y,-z
-x,-y,-z
1/2+x,y,-z
1/2-x,y,z
x,-y,z
loop_
_atom_site_type_symbol
_atom_site_label
_atom_site_fract_x
_atom_site_fract_y
_atom_site_fract_z
Si Si1 0.970631 0.829090 0.745752
Si Si2 0.920606 0.672797 0.278205
Si Si3 0.901594 0.329812 0.959806
Si Si4 0.690335 0.329300 0.755114
Si Si5 0.624056 0.829197 0.534696
O O1 0.948115 0.766608 0.892273
O O2 0.929016 0.802387 0.622166
O O3 0.022571 0.744073 0.700535
O O4 0.984059 0.000000 0.766191
O O5 0.925350 0.500000 0.307024
O O6 0.879838 0.743630 0.387544
O O7 0.897705 0.707687 0.123986
O O8 0.916570 0.500000 0.934491
O O9 0.845570 0.289939 0.890025
O O10 0.750000 0.289519 0.795862
O O11 0.684145 0.500000 0.713829
O O12 0.673492 0.233782 0.620547
O O13 0.633990 0.000000 0.504070
#
# Coordination Sequence:
#
# PCOD8210846 Si02
#       5
#     8   8   8   8   8
#     4  10  20  33  50  73 102 139 177 208 246 299
#     4  11  21  32  49  75 107 139 170 208 252 298
#     4   9  19  34  51  75 104 132 167 209 252 300
#     4   9  18  36  60  78  94 124 166 209 253 302
#     4  10  21  35  51  74 104 135 169 209 251 298
#
# _framework density 18.285996999999998
#
# number of rings (size 3 to 8) (size 9 to 14) (size 15 to 20)
#    0.000    2.200    0.000    3.000    0.000    9.200 
#    0.000    1.000    0.000    3.600    0.000    0.000 
#    0.000    0.000    0.000    0.000    0.000    0.000 
#
# Total GULP energy -496182.666406 kJ/mol
# GULP energy per Si atom -12404.566660 kJ/mol
# Density = 1.824438 g / cm^3
# Si number density = 18.285997 Si / 1000 Ang^3
#
#
#
# Elastic Constant Matrix: (Units=GPa)
#
#
# Indices 1 2 3 4 5 6 
#
# 1 67.6926 23.4898 16.4373 0.0000 0.0000 0.0000
# 2 23.4898 87.3750 46.2983 0.0000 0.0000 0.0000
# 3 16.4373 46.2983 97.8137 0.0000 0.0000 0.0000
# 4 0.0000 0.0000 0.0000 23.9677 0.0000 0.0000
# 5 0.0000 0.0000 0.0000 0.0000 14.4780 0.0000
# 6 0.0000 0.0000 0.0000 0.0000 0.0000 18.9678
#
#
#
# Elastic Compliance Matrix: (Units=1/GPa)
#
#
# Indices 1 2 3 4 5 6 
#
# 1 0.016350 -0.003924 -0.000890 0.000000 0.000000 0.000000
# 2 -0.003924 0.016218 -0.007017 0.000000 0.000000 0.000000
# 3 -0.000890 -0.007017 0.013695 0.000000 0.000000 0.000000
# 4 0.000000 0.000000 0.000000 0.041723 0.000000 0.000000
# 5 0.000000 0.000000 0.000000 0.000000 0.069070 0.000000
# 6 0.000000 0.000000 0.000000 0.000000 0.000000 0.052721
#
#
# Mechanical properties :
#
#
# Convention : Reuss Voigt Hill
#
# Bulk Modulus (GPa) = 44.24702 47.25913 45.75307
# Shear Modulus (GPa) = 20.74921 22.59310 21.67116
#
# Velocity S-wave (km/s) = 3.37219 3.51884 3.44630
# Velocity P-wave (km/s) = 6.27790 6.51231 6.39618
#
# Compressibility (1/GPa) = 0.02260039
#
# Stress axis : x y z
#
# Youngs Moduli (GPa) = 61.16038 61.65977 73.02169
#
# Poissons Ratio (x) = 0.24194 0.06502
# Poissons Ratio (y) = 0.23998 0.51240
# Poissons Ratio (z) = 0.05446 0.43267
#
# Static dielectric constant tensor:
#      x y z
#    x 3.261680 0.000000 0.000000 
#    y 0.000000 3.468220 0.000000 
#    z 0.000000 0.000000 3.416530 
# 
# 
# High freq. dielectric constant tensor:
#      x y z
#    x 1.690680 0.000000 0.000000 
#    y 0.000000 1.717020 0.000000 
#    z 0.000000 0.000000 1.711100 
# 
# From -- ./inp_files/11413.got.cif
#   From: 2010.03.12/outbox.cif.g09.slc.cpg/sg51_6_cif.got.tgz:11413.got - 2010.04.16 13:43:02.
