data_PCOD8210090
_publ_section_title
;
Structure prediction by ZEFSAII (Michael W. Deem and Ramdas Pophale) SiO2 
 PCOD8210090
Probable space group: P M M A
;
_chemical_formula_sum "Si O2"
_cell_formula_units_Z 26
_cell_length_a 11.756695
_cell_length_b 7.375804
_cell_length_c 14.852321
_cell_angle_alpha 90.000000
_cell_angle_beta 90.000000
_cell_angle_gamma 90.000000
_cell_volume 1287.920174
_symmetry_space_group_name_H-M "P M M A"
_symmetry_group_IT_number 51
_symmetry_cell_setting 'orthorhombic'
loop_
_space_group_symop_operation_xyz
x,y,z
1/2-x,-y,z
1/2+x,-y,-z
-x,y,-z
-x,-y,-z
1/2+x,y,-z
1/2-x,y,z
x,-y,z
loop_
_atom_site_type_symbol
_atom_site_label
_atom_site_fract_x
_atom_site_fract_y
_atom_site_fract_z
Si Si1 0.250000 0.000000 0.178661
Si Si2 0.250000 0.201560 0.348599
Si Si3 0.508698 0.298655 0.596989
Si Si4 0.496381 0.000000 0.106088
Si Si5 0.116206 0.713766 0.772169
O O1 0.250000 0.819019 0.240444
O O2 0.362177 0.000000 0.120188
O O3 0.359867 0.311987 0.377276
O O4 0.250000 0.000000 0.393404
O O5 0.500000 0.195745 0.500000
O O6 0.458219 0.500000 0.584600
O O7 0.435873 0.208062 0.677770
O O8 0.556590 0.821007 0.146532
O O9 0.500000 0.000000 0.000000
O O10 0.250000 0.753921 0.772874
O O11 0.090013 0.500000 0.783858
#
# Coordination Sequence:
#
# PCOD8210090 Si02
#       5
#     2   4   8   4   8
#     4  10  22  42  58  92 118 152 208 256 300 376
#     4  10  19  37  56  79 124 151 198 253 296 355
#     4  10  21  36  58  86 120 163 204 242 292 355
#     4  12  25  44  69  90 121 158 205 257 316 368
#     4  10  22  42  63  91 128 163 204 251 304 366
#
# _framework density 20.187584999999999
#
# number of rings (size 3 to 8) (size 9 to 14) (size 15 to 20)
#    0.462    1.231    3.077    0.923    4.308    1.231 
#    0.000    0.769    0.000    0.000    0.000    0.000 
#    0.000    0.000    0.000    0.000    0.000    0.000 
#
# Total GULP energy -322190.375918 kJ/mol
# GULP energy per Si atom -12391.937535 kJ/mol
# Density = 2.014164 g / cm^3
# Si number density = 20.187585 Si / 1000 Ang^3
#
#
#
# Elastic Constant Matrix: (Units=GPa)
#
#
# Indices 1 2 3 4 5 6 
#
# 1 177.0608 24.8606 86.6641 0.0000 0.0000 0.0000
# 2 24.8606 73.9797 40.7054 0.0000 0.0000 0.0000
# 3 86.6641 40.7054 207.1118 0.0000 0.0000 0.0000
# 4 0.0000 0.0000 0.0000 10.3901 0.0000 0.0000
# 5 0.0000 0.0000 0.0000 0.0000 29.8545 0.0000
# 6 0.0000 0.0000 0.0000 0.0000 0.0000 8.5701
#
#
#
# Elastic Compliance Matrix: (Units=1/GPa)
#
#
# Indices 1 2 3 4 5 6 
#
# 1 0.007150 -0.000848 -0.002825 0.000000 0.000000 0.000000
# 2 -0.000848 0.015257 -0.002644 0.000000 0.000000 0.000000
# 3 -0.002825 -0.002644 0.006530 0.000000 0.000000 0.000000
# 4 0.000000 0.000000 0.000000 0.096245 0.000000 0.000000
# 5 0.000000 0.000000 0.000000 0.000000 0.033496 0.000000
# 6 0.000000 0.000000 0.000000 0.000000 0.000000 0.116685
#
#
# Mechanical properties :
#
#
# Convention : Reuss Voigt Hill
#
# Bulk Modulus (GPa) = 61.33929 84.73474 73.03701
# Shear Modulus (GPa) = 17.03984 30.15775 23.59880
#
# Velocity S-wave (km/s) = 2.90845 3.86926 3.42274
# Velocity P-wave (km/s) = 6.45983 7.87568 7.20263
#
# Compressibility (1/GPa) = 0.01630277
#
# Stress axis : x y z
#
# Youngs Moduli (GPa) = 139.86826 65.54428 153.14010
#
# Poissons Ratio (x) = 0.05560 0.43262
# Poissons Ratio (y) = 0.11864 0.40485
# Poissons Ratio (z) = 0.39512 0.17327
#
# Static dielectric constant tensor:
#      x y z
#    x 3.426250 0.000000 0.000000 
#    y 0.000000 3.441660 0.000000 
#    z 0.000000 0.000000 3.669770 
# 
# 
# High freq. dielectric constant tensor:
#      x y z
#    x 1.800190 0.000000 0.000000 
#    y 0.000000 1.776840 0.000000 
#    z 0.000000 0.000000 1.780460 
# 
# From -- ./inp_files/22695.got.cif
#   From: 2010.03.12/outbox.cif.g09.slc.cpg/sg51_12_cif.got.tgz:22695.got - 2010.04.16 13:43:02.
