data_PCOD8210021
_publ_section_title
;
Structure prediction by ZEFSAII (Michael W. Deem and Ramdas Pophale) SiO2 
 PCOD8210021
Probable space group: P M M A
;
_chemical_formula_sum "Si O2"
_cell_formula_units_Z 64
_cell_length_a 31.259218
_cell_length_b 9.088761
_cell_length_c 12.094139
_cell_angle_alpha 90.000000
_cell_angle_beta 90.000000
_cell_angle_gamma 90.000000
_cell_volume 3436.036339
_symmetry_space_group_name_H-M "P M M A"
_symmetry_group_IT_number 51
_symmetry_cell_setting 'orthorhombic'
loop_
_space_group_symop_operation_xyz
x,y,z
1/2-x,-y,z
1/2+x,-y,-z
-x,y,-z
-x,-y,-z
1/2+x,y,-z
1/2-x,y,z
x,-y,z
loop_
_atom_site_type_symbol
_atom_site_label
_atom_site_fract_x
_atom_site_fract_y
_atom_site_fract_z
Si Si1 0.478769 0.832954 0.615040
Si Si2 0.700220 0.666754 0.730910
Si Si3 0.297331 0.324867 0.019700
Si Si4 0.374677 0.325899 0.874786
Si Si5 0.939190 0.832041 0.754909
Si Si6 0.547832 0.325491 0.977274
Si Si7 0.607634 0.673044 0.369372
Si Si8 0.365989 0.826829 0.412605
O O1 0.500000 0.789575 0.500000
O O2 0.512551 0.816038 0.712983
O O3 0.441631 0.718158 0.637729
O O4 0.460730 0.000000 0.608447
O O5 0.750000 0.673906 0.702963
O O6 0.683230 0.500000 0.716117
O O7 0.676874 0.774791 0.646844
O O8 0.691431 0.723353 0.855366
O O9 0.250000 0.265046 0.986177
O O10 0.296372 0.500000 0.014658
O O11 0.333474 0.258428 0.938424
O O12 0.373834 0.500000 0.887430
O O13 0.371077 0.279285 0.746983
O O14 0.419474 0.269440 0.927730
O O15 0.933423 0.732199 0.861970
O O16 0.906997 0.777137 0.659350
O O17 0.928633 0.000000 0.786325
O O18 0.546339 0.500000 0.970677
O O19 0.500000 0.262677 0.000000
O O20 0.610728 0.500000 0.388765
O O21 0.632330 0.754017 0.467110
O O22 0.365017 0.000000 0.429450
#
# Coordination Sequence:
#
# PCOD8210021 Si02
#       8
#     8   8   8   8   8   8   8   8
#     4  10  19  36  54  70 102 143 179 221 270 317
#     4   9  18  34  58  87 112 134 169 219 269 318
#     4   8  14  28  53  81 106 134 168 210 266 322
#     4   9  18  32  49  73 107 140 173 220 272 322
#     4  10  21  35  53  76 103 137 179 222 264 318
#     4  10  20  34  52  75 106 139 172 216 272 327
#     4  11  22  35  53  78 106 139 184 230 268 314
#     4  11  22  37  54  76 108 144 179 215 266 322
#
# _framework density 18.626111999999999
#
# number of rings (size 3 to 8) (size 9 to 14) (size 15 to 20)
#    0.000    2.250    1.250    3.000    0.000    4.250 
#    0.000    1.875    0.000    3.750    0.000    0.000 
#    0.000    0.000    0.000    0.000    0.000    0.000 
#
# Total GULP energy -793610.883427 kJ/mol
# GULP energy per Si atom -12400.170054 kJ/mol
# Density = 1.858372 g / cm^3
# Si number density = 18.626112 Si / 1000 Ang^3
#
#
#
# Elastic Constant Matrix: (Units=GPa)
#
#
# Indices 1 2 3 4 5 6 
#
# 1 111.7097 30.7409 72.1079 0.0000 0.0000 0.0000
# 2 30.7409 46.3369 45.4624 0.0000 0.0000 0.0000
# 3 72.1079 45.4624 147.4001 0.0000 0.0000 0.0000
# 4 0.0000 0.0000 0.0000 20.5855 0.0000 0.0000
# 5 0.0000 0.0000 0.0000 0.0000 28.3756 0.0000
# 6 0.0000 0.0000 0.0000 0.0000 0.0000 20.9911
#
#
#
# Elastic Compliance Matrix: (Units=1/GPa)
#
#
# Indices 1 2 3 4 5 6 
#
# 1 0.013477 -0.003545 -0.005500 0.000000 0.000000 0.000000
# 2 -0.003545 0.031878 -0.008098 0.000000 0.000000 0.000000
# 3 -0.005500 -0.008098 0.011972 0.000000 0.000000 0.000000
# 4 0.000000 0.000000 0.000000 0.048578 0.000000 0.000000
# 5 0.000000 0.000000 0.000000 0.000000 0.035242 0.000000
# 6 0.000000 0.000000 0.000000 0.000000 0.000000 0.047639
#
#
# Mechanical properties :
#
#
# Convention : Reuss Voigt Hill
#
# Bulk Modulus (GPa) = 43.39852 66.89655 55.14754
# Shear Modulus (GPa) = 21.66826 24.46615 23.06721
#
# Velocity S-wave (km/s) = 3.41446 3.62821 3.52296
# Velocity P-wave (km/s) = 6.23659 7.31747 6.79855
#
# Compressibility (1/GPa) = 0.02304226
#
# Stress axis : x y z
#
# Youngs Moduli (GPa) = 74.19840 31.36958 83.52654
#
# Poissons Ratio (x) = 0.11122 0.45937
# Poissons Ratio (y) = 0.26306 0.67637
# Poissons Ratio (z) = 0.40806 0.25402
#
# Static dielectric constant tensor:
#      x y z
#    x 3.587230 0.000000 0.000000 
#    y 0.000000 3.142590 0.000000 
#    z 0.000000 0.000000 3.569870 
# 
# 
# High freq. dielectric constant tensor:
#      x y z
#    x 1.721960 0.000000 0.000000 
#    y 0.000000 1.693240 0.000000 
#    z 0.000000 0.000000 1.728320 
# 
# From -- ./inp_files/19560.got.cif
#   From: 2010.03.12/outbox.cif.g09.slc.cpg/sg51_10_cif.got.tgz:19560.got - 2010.04.16 13:43:02.
