data_PCOD8210517
_publ_section_title
;
Structure prediction by ZEFSAII (Michael W. Deem and Ramdas Pophale) SiO2 
 PCOD8210517
Probable space group: P M M A
;
_chemical_formula_sum "Si O2"
_cell_formula_units_Z 40
_cell_length_a 9.142139
_cell_length_b 9.616104
_cell_length_c 25.170598
_cell_angle_alpha 90.000000
_cell_angle_beta 90.000000
_cell_angle_gamma 90.000000
_cell_volume 2212.791555
_symmetry_space_group_name_H-M "P M M A"
_symmetry_group_IT_number 51
_symmetry_cell_setting 'orthorhombic'
loop_
_space_group_symop_operation_xyz
x,y,z
1/2-x,-y,z
1/2+x,-y,-z
-x,y,-z
-x,-y,-z
1/2+x,y,-z
1/2-x,y,z
x,-y,z
loop_
_atom_site_type_symbol
_atom_site_label
_atom_site_fract_x
_atom_site_fract_y
_atom_site_fract_z
Si Si1 0.584845 0.165585 0.551190
Si Si2 0.082979 0.339808 0.136890
Si Si3 0.420461 0.838544 0.655963
Si Si4 0.420592 0.160616 0.947079
Si Si5 0.917211 0.660296 0.740063
O O1 0.500000 0.225731 0.500000
O O2 0.750000 0.223396 0.550853
O O3 0.504579 0.218326 0.604195
O O4 0.583855 0.000000 0.549278
O O5 0.250000 0.299685 0.123657
O O6 0.054194 0.500000 0.122659
O O7 0.049454 0.311974 0.198408
O O8 0.974145 0.245704 0.103470
O O9 0.250000 0.812655 0.646643
O O10 0.473188 0.755267 0.707136
O O11 0.455123 0.000000 0.665794
O O12 0.250000 0.185597 0.954956
O O13 0.458862 0.000000 0.936870
O O14 0.500000 0.215541 0.000000
O O15 0.750000 0.700356 0.726728
O O16 0.945981 0.500000 0.725824
#
# Coordination Sequence:
#
# PCOD8210517 Si02
#       5
#     8   8   8   8   8
#     4   9  16  27  45  69  98 131 166 206 252 299
#     4   9  19  36  56  77 101 131 169 210 251 298
#     4  10  20  32  48  74 105 134 168 209 250 297
#     4  10  21  36  54  77 105 136 169 205 248 298
#     4   9  19  36  55  74  99 133 171 209 251 300
#
# _framework density 18.076712000000001
#
# number of rings (size 3 to 8) (size 9 to 14) (size 15 to 20)
#    0.000    2.600    0.000    3.000    0.000    7.600 
#    0.000    6.000    0.000    0.600    0.000    0.000 
#    0.000    0.000    0.000    0.000    0.000    0.000 
#
# Total GULP energy -496094.753517 kJ/mol
# GULP energy per Si atom -12402.368838 kJ/mol
# Density = 1.803557 g / cm^3
# Si number density = 18.076712 Si / 1000 Ang^3
#
#
#
# Elastic Constant Matrix: (Units=GPa)
#
#
# Indices 1 2 3 4 5 6 
#
# 1 118.4664 47.1100 69.4577 0.0000 0.0000 0.0000
# 2 47.1100 51.9815 51.6202 0.0000 0.0000 0.0000
# 3 69.4577 51.6202 112.4610 0.0000 0.0000 0.0000
# 4 0.0000 0.0000 0.0000 -7.4053 0.0000 0.0000
# 5 0.0000 0.0000 0.0000 0.0000 42.3909 0.0000
# 6 0.0000 0.0000 0.0000 0.0000 0.0000 29.0214
#
#
#
# Elastic Compliance Matrix: (Units=1/GPa)
#
#
# Indices 1 2 3 4 5 6 
#
# 1 0.014843 -0.007991 -0.005500 0.000000 0.000000 0.000000
# 2 -0.007991 0.039653 -0.013266 0.000000 0.000000 0.000000
# 3 -0.005500 -0.013266 0.018378 0.000000 0.000000 0.000000
# 4 0.000000 0.000000 0.000000 -0.135039 0.000000 0.000000
# 5 0.000000 0.000000 0.000000 0.000000 0.023590 0.000000
# 6 0.000000 0.000000 0.000000 0.000000 0.000000 0.034457
#
#
# Mechanical properties :
#
#
# Convention : Reuss Voigt Hill
#
# Bulk Modulus (GPa) = 51.64839 68.80943 60.22891
# Shear Modulus (GPa) = 89.52788 20.44947 54.98868
#
# Velocity S-wave (km/s) = 7.04515 3.36707 5.52138
# Velocity P-wave (km/s) = 9.73718 7.29823 8.60456
#
# Compressibility (1/GPa) = 0.01936169
#
# Stress axis : x y z
#
# Youngs Moduli (GPa) = 67.36995 25.21872 54.41390
#
# Poissons Ratio (x) = 0.20152 0.29926
# Poissons Ratio (y) = 0.53835 0.72184
# Poissons Ratio (z) = 0.37051 0.33454
#
# Static dielectric constant tensor:
#      x y z
#    x 3.377440 0.000000 0.000000 
#    y 0.000000 3.042750 0.000000 
#    z 0.000000 0.000000 3.360070 
# 
# 
# High freq. dielectric constant tensor:
#      x y z
#    x 1.709200 0.000000 0.000000 
#    y 0.000000 1.670760 0.000000 
#    z 0.000000 0.000000 1.709380 
# 
# From -- ./inp_files/31371.got.cif
#   From: 2010.03.12/outbox.cif.g09.slc.cpg/sg51_16_cif.got.tgz:31371.got - 2010.04.16 13:43:02.
