data_PCOD8210694
_publ_section_title
;
Structure prediction by ZEFSAII (Michael W. Deem and Ramdas Pophale) SiO2 
 PCOD8210694
Probable space group: P M M A
;
_chemical_formula_sum "Si O2"
_cell_formula_units_Z 64
_cell_length_a 19.155072
_cell_length_b 8.858785
_cell_length_c 21.727139
_cell_angle_alpha 90.000000
_cell_angle_beta 90.000000
_cell_angle_gamma 90.000000
_cell_volume 3686.892655
_symmetry_space_group_name_H-M "P M M A"
_symmetry_group_IT_number 51
_symmetry_cell_setting 'orthorhombic'
loop_
_space_group_symop_operation_xyz
x,y,z
1/2-x,-y,z
1/2+x,-y,-z
-x,y,-z
-x,-y,-z
1/2+x,y,-z
1/2-x,y,z
x,-y,z
loop_
_atom_site_type_symbol
_atom_site_label
_atom_site_fract_x
_atom_site_fract_y
_atom_site_fract_z
Si Si1 0.963459 0.177704 0.700701
Si Si2 0.547381 0.321298 0.827512
Si Si3 0.538785 0.176319 0.063852
Si Si4 0.109318 0.331254 0.478300
Si Si5 0.172987 0.822606 0.369733
Si Si6 0.170787 0.676040 0.982709
Si Si7 0.171010 0.172605 0.113136
Si Si8 0.966082 0.330041 0.405143
O O1 0.982836 0.265742 0.762722
O O2 0.888180 0.238309 0.675324
O O3 0.025214 0.217521 0.652551
O O4 0.962599 0.000000 0.713164
O O5 0.554191 0.500000 0.828623
O O6 0.497704 0.268258 0.882254
O O7 0.623372 0.244562 0.834211
O O8 0.618843 0.231827 0.061180
O O9 0.536623 0.000000 0.079359
O O10 0.500000 0.213163 0.000000
O O11 0.139947 0.500000 0.480690
O O12 0.163392 0.229084 0.440576
O O13 0.095832 0.273690 0.548668
O O14 0.036681 0.330377 0.443186
O O15 0.250000 0.769391 0.346730
O O16 0.167765 0.000000 0.370178
O O17 0.250000 0.707170 0.960570
O O18 0.152353 0.500000 0.980233
O O19 0.160372 0.731618 0.051927
O O20 0.250000 0.179782 0.137354
O O21 0.148343 0.000000 0.099500
O O22 0.950001 0.500000 0.381698
#
# Coordination Sequence:
#
# PCOD8210694 Si02
#       8
#     8   8   8   8   8   8   8   8
#     4  10  20  33  48  67  95 131 172 209 247 299
#     4  12  24  36  52  73 101 135 175 220 266 316
#     4  11  22  36  56  79 104 135 171 215 267 317
#     4   8  14  25  44  68  92 120 154 196 240 282
#     4   9  18  31  46  67  98 135 171 206 242 283
#     4  10  20  34  54  80 106 131 162 203 254 311
#     4  10  20  34  51  71  98 132 169 209 253 305
#     4   8  14  27  45  66  92 119 152 195 244 286
#
# _framework density 17.358791
#
# number of rings (size 3 to 8) (size 9 to 14) (size 15 to 20)
#    0.000    2.250    1.250    3.375    0.000    3.750 
#    0.000    3.750    0.000    0.000    0.000    0.875 
#    0.000    3.000    0.000    0.000    0.000    0.000 
#
# Total GULP energy -793348.088741 kJ/mol
# GULP energy per Si atom -12396.063887 kJ/mol
# Density = 1.731928 g / cm^3
# Si number density = 17.358791 Si / 1000 Ang^3
#
#
#
# Elastic Constant Matrix: (Units=GPa)
#
#
# Indices 1 2 3 4 5 6 
#
# 1 47.8875 26.5019 28.4782 0.0000 0.0000 0.0000
# 2 26.5019 51.8858 21.6827 0.0000 0.0000 0.0000
# 3 28.4782 21.6827 83.6190 0.0000 0.0000 0.0000
# 4 0.0000 0.0000 0.0000 29.4772 0.0000 0.0000
# 5 0.0000 0.0000 0.0000 0.0000 18.2193 0.0000
# 6 0.0000 0.0000 0.0000 0.0000 0.0000 24.1582
#
#
#
# Elastic Compliance Matrix: (Units=1/GPa)
#
#
# Indices 1 2 3 4 5 6 
#
# 1 0.033015 -0.013643 -0.007706 0.000000 0.000000 0.000000
# 2 -0.013643 0.027253 -0.002420 0.000000 0.000000 0.000000
# 3 -0.007706 -0.002420 0.015211 0.000000 0.000000 0.000000
# 4 0.000000 0.000000 0.000000 0.033925 0.000000 0.000000
# 5 0.000000 0.000000 0.000000 0.000000 0.054887 0.000000
# 6 0.000000 0.000000 0.000000 0.000000 0.000000 0.041394
#
#
# Mechanical properties :
#
#
# Convention : Reuss Voigt Hill
#
# Bulk Modulus (GPa) = 35.79083 37.41307 36.60195
# Shear Modulus (GPa) = 19.04488 21.48626 20.26557
#
# Velocity S-wave (km/s) = 3.31589 3.52202 3.42051
# Velocity P-wave (km/s) = 5.94333 6.17568 6.06062
#
# Compressibility (1/GPa) = 0.02794011
#
# Stress axis : x y z
#
# Youngs Moduli (GPa) = 30.28885 36.69319 65.74099
#
# Poissons Ratio (x) = 0.50060 0.50663
# Poissons Ratio (y) = 0.41323 0.15912
# Poissons Ratio (z) = 0.23342 0.08881
#
# Static dielectric constant tensor:
#      x y z
#    x 3.364080 0.000000 0.000000 
#    y 0.000000 3.287710 0.000000 
#    z 0.000000 0.000000 3.248150 
# 
# 
# High freq. dielectric constant tensor:
#      x y z
#    x 1.646790 0.000000 0.000000 
#    y 0.000000 1.677090 0.000000 
#    z 0.000000 0.000000 1.652740 
# 
# From -- ./inp_files/34174.got.cif
#   From: 2010.03.12/outbox.cif.g09.slc.cpg/sg51_18_cif.got.tgz:34174.got - 2010.04.16 13:43:02.
