data_PCOD8210813
_publ_section_title
;
Structure prediction by ZEFSAII (Michael W. Deem and Ramdas Pophale) SiO2 
 PCOD8210813
Probable space group: P M M A
;
_chemical_formula_sum "Si O2"
_cell_formula_units_Z 48
_cell_length_a 9.117454
_cell_length_b 9.087421
_cell_length_c 31.067155
_cell_angle_alpha 90.000000
_cell_angle_beta 90.000000
_cell_angle_gamma 90.000000
_cell_volume 2574.042501
_symmetry_space_group_name_H-M "P M M A"
_symmetry_group_IT_number 51
_symmetry_cell_setting 'orthorhombic'
loop_
_space_group_symop_operation_xyz
x,y,z
1/2-x,-y,z
1/2+x,-y,-z
-x,y,-z
-x,-y,-z
1/2+x,y,-z
1/2-x,y,z
x,-y,z
loop_
_atom_site_type_symbol
_atom_site_label
_atom_site_fract_x
_atom_site_fract_y
_atom_site_fract_z
Si Si1 0.418014 0.826682 0.212783
Si Si2 0.084382 0.324900 0.374456
Si Si3 0.078450 0.670664 0.710841
Si Si4 0.084060 0.324477 0.542023
Si Si5 0.420405 0.669660 0.125827
Si Si6 0.084662 0.675355 0.958537
O O1 0.250000 0.780590 0.222522
O O2 0.523230 0.762596 0.248894
O O3 0.469339 0.762088 0.167201
O O4 0.436876 0.000000 0.211219
O O5 0.250000 0.263214 0.374713
O O6 0.084530 0.500000 0.376023
O O7 0.003223 0.269591 0.331587
O O8 0.998628 0.262506 0.415901
O O9 0.250000 0.696655 0.704164
O O10 0.041920 0.500000 0.718960
O O11 0.250000 0.264064 0.541660
O O12 0.084369 0.500000 0.542352
O O13 0.000000 0.264873 0.500000
O O14 0.250000 0.690226 0.115362
O O15 0.459096 0.500000 0.134976
O O16 0.508347 0.732411 0.084978
O O17 0.250000 0.735044 0.959739
O O18 0.079972 0.500000 0.959523
O O19 0.000000 0.739357 0.000000
#
# Coordination Sequence:
#
# PCOD8210813 Si02
#       6
#     8   8   8   8   8   8
#     4  10  21  36  53  73  98 129 164 202 246 296
#     4   9  16  26  41  61  86 118 156 197 241 288
#     4  10  20  33  50  72  97 126 162 204 248 294
#     4   9  15  22  33  52  82 119 156 192 233 284
#     4   9  17  30  49  72  98 128 161 197 238 284
#     4   9  16  26  43  69  99 127 156 193 236 280
#
# _framework density 18.647711000000001
#
# number of rings (size 3 to 8) (size 9 to 14) (size 15 to 20)
#    0.000    2.667    0.000    2.500    0.000    8.667 
#    0.000    1.667    0.000    0.500    0.000    0.000 
#    0.000    0.667    0.000    2.500    0.000    5.500 
#
# Total GULP energy -595255.499810 kJ/mol
# GULP energy per Si atom -12401.156246 kJ/mol
# Density = 1.860527 g / cm^3
# Si number density = 18.647711 Si / 1000 Ang^3
#
#
#
# Elastic Constant Matrix: (Units=GPa)
#
#
# Indices 1 2 3 4 5 6 
#
# 1 142.5381 26.4107 97.5225 0.0000 0.0000 0.0000
# 2 26.4107 28.7194 34.4068 0.0000 0.0000 0.0000
# 3 97.5225 34.4068 185.6535 0.0000 0.0000 0.0000
# 4 0.0000 0.0000 0.0000 -2.3866 0.0000 0.0000
# 5 0.0000 0.0000 0.0000 0.0000 44.2583 0.0000
# 6 0.0000 0.0000 0.0000 0.0000 0.0000 12.6412
#
#
#
# Elastic Compliance Matrix: (Units=1/GPa)
#
#
# Indices 1 2 3 4 5 6 
#
# 1 0.011338 -0.004231 -0.005172 0.000000 0.000000 0.000000
# 2 -0.004231 0.046336 -0.006365 0.000000 0.000000 0.000000
# 3 -0.005172 -0.006365 0.009283 0.000000 0.000000 0.000000
# 4 0.000000 0.000000 0.000000 -0.419009 0.000000 0.000000
# 5 0.000000 0.000000 0.000000 0.000000 0.022595 0.000000
# 6 0.000000 0.000000 0.000000 0.000000 0.000000 0.079107
#
#
# Mechanical properties :
#
#
# Convention : Reuss Voigt Hill
#
# Bulk Modulus (GPa) = 28.23134 74.84345 51.53740
# Shear Modulus (GPa) = -24.15348 24.14065 -0.00642
#
# Velocity S-wave (km/s) = -3.60287 3.60191 -0.05873
# Velocity P-wave (km/s) = 1.46128 7.58425 5.26239
#
# Compressibility (1/GPa) = 0.03542162
#
# Stress axis : x y z
#
# Youngs Moduli (GPa) = 88.19929 21.58166 107.72786
#
# Poissons Ratio (x) = 0.09130 0.55714
# Poissons Ratio (y) = 0.37314 0.68569
# Poissons Ratio (z) = 0.45614 0.13737
#
# Static dielectric constant tensor:
#      x y z
#    x 3.566440 0.000000 0.000000 
#    y 0.000000 2.803900 0.000000 
#    z 0.000000 0.000000 3.628240 
# 
# 
# High freq. dielectric constant tensor:
#      x y z
#    x 1.734040 0.000000 0.000000 
#    y 0.000000 1.656150 0.000000 
#    z 0.000000 0.000000 1.742330 
# 
# From -- ./inp_files/36942.got.cif
#   From: 2010.03.12/outbox.cif.g09.slc.cpg/sg51_19_cif.got.tgz:36942.got - 2010.04.16 13:43:02.
