data_PCOD8210841
_publ_section_title
;
Structure prediction by ZEFSAII (Michael W. Deem and Ramdas Pophale) SiO2 
 PCOD8210841
Probable space group: P M M A
;
_chemical_formula_sum "Si O2"
_cell_formula_units_Z 64
_cell_length_a 19.846506
_cell_length_b 9.132257
_cell_length_c 20.143622
_cell_angle_alpha 90.000000
_cell_angle_beta 90.000000
_cell_angle_gamma 90.000000
_cell_volume 3650.898406
_symmetry_space_group_name_H-M "P M M A"
_symmetry_group_IT_number 51
_symmetry_cell_setting 'orthorhombic'
loop_
_space_group_symop_operation_xyz
x,y,z
1/2-x,-y,z
1/2+x,-y,-z
-x,y,-z
-x,-y,-z
1/2+x,y,-z
1/2-x,y,z
x,-y,z
loop_
_atom_site_type_symbol
_atom_site_label
_atom_site_fract_x
_atom_site_fract_y
_atom_site_fract_z
Si Si1 0.825004 0.325602 0.571406
Si Si2 0.103631 0.333181 0.297348
Si Si3 0.931811 0.674866 0.467224
Si Si4 0.432213 0.171294 0.809885
Si Si5 0.947005 0.334031 0.320809
Si Si6 0.673096 0.830825 0.079818
Si Si7 0.672650 0.671645 0.943591
Si Si8 0.414831 0.172715 0.166370
O O1 0.750000 0.265519 0.560585
O O2 0.828075 0.500000 0.571346
O O3 0.851586 0.270436 0.642566
O O4 0.869901 0.264875 0.510938
O O5 0.123272 0.500000 0.278774
O O6 0.118037 0.231501 0.234167
O O7 0.027242 0.324258 0.321006
O O8 0.935173 0.500000 0.466165
O O9 0.922646 0.731185 0.391593
O O10 0.000000 0.737236 0.500000
O O11 0.414963 0.243439 0.739323
O O12 0.376423 0.224208 0.862279
O O13 0.506260 0.216875 0.836145
O O14 0.428431 0.000000 0.798235
O O15 0.922368 0.500000 0.311885
O O16 0.750000 0.809988 0.103958
O O17 0.658765 0.000000 0.061435
O O18 0.657498 0.731695 0.016579
O O19 0.750000 0.704902 0.923398
O O20 0.657427 0.500000 0.942410
O O21 0.622257 0.752370 0.894561
O O22 0.404230 0.000000 0.162043
#
# Coordination Sequence:
#
# PCOD8210841 Si02
#       8
#     8   8   8   8   8   8   8   8
#     4   9  16  25  40  65  94 121 154 200 247 287
#     4   9  16  28  45  66  93 125 162 200 240 286
#     4   9  14  24  43  65  88 120 159 195 235 287
#     4   9  19  34  51  74 103 130 161 204 246 288
#     4   9  16  27  47  71  93 123 163 201 239 289
#     4   9  18  35  57  75  94 128 170 204 240 291
#     4  10  21  36  53  74 100 129 163 204 245 288
#     4  10  20  33  50  73 102 133 163 198 242 292
#
# _framework density 17.529931000000001
#
# number of rings (size 3 to 8) (size 9 to 14) (size 15 to 20)
#    0.000    2.750    1.250    0.750    0.000    2.750 
#    0.000    4.375    0.000    1.875    0.000    0.000 
#    0.000    0.000    0.000    0.000    0.000    0.000 
#
# Total GULP energy -793542.647725 kJ/mol
# GULP energy per Si atom -12399.103871 kJ/mol
# Density = 1.749003 g / cm^3
# Si number density = 17.529931 Si / 1000 Ang^3
#
#
#
# Elastic Constant Matrix: (Units=GPa)
#
#
# Indices 1 2 3 4 5 6 
#
# 1 98.9250 35.0047 88.1598 0.0000 0.0000 0.0000
# 2 35.0047 51.9342 54.5830 0.0000 0.0000 0.0000
# 3 88.1598 54.5830 165.0702 0.0000 0.0000 0.0000
# 4 0.0000 0.0000 0.0000 -1.9113 0.0000 0.0000
# 5 0.0000 0.0000 0.0000 0.0000 31.4416 0.0000
# 6 0.0000 0.0000 0.0000 0.0000 0.0000 16.6473
#
#
#
# Elastic Compliance Matrix: (Units=1/GPa)
#
#
# Indices 1 2 3 4 5 6 
#
# 1 0.019673 -0.003398 -0.009383 0.000000 0.000000 0.000000
# 2 -0.003398 0.030098 -0.008137 0.000000 0.000000 0.000000
# 3 -0.009383 -0.008137 0.013760 0.000000 0.000000 0.000000
# 4 0.000000 0.000000 0.000000 -0.523201 0.000000 0.000000
# 5 0.000000 0.000000 0.000000 0.000000 0.031805 0.000000
# 6 0.000000 0.000000 0.000000 0.000000 0.000000 0.060070
#
#
# Mechanical properties :
#
#
# Convention : Reuss Voigt Hill
#
# Bulk Modulus (GPa) = 46.09676 74.60272 60.34974
# Shear Modulus (GPa) = -15.68752 18.44764 1.38006
#
# Velocity S-wave (km/s) = -2.99473 3.24752 0.88824
# Velocity P-wave (km/s) = 3.79410 7.53071 5.96267
#
# Compressibility (1/GPa) = 0.02169350
#
# Stress axis : x y z
#
# Youngs Moduli (GPa) = 50.82998 33.22460 72.67317
#
# Poissons Ratio (x) = 0.11291 0.68192
# Poissons Ratio (y) = 0.17274 0.59138
# Poissons Ratio (z) = 0.47696 0.27036
#
# Static dielectric constant tensor:
#      x y z
#    x 3.293890 0.000000 0.000000 
#    y 0.000000 3.019880 0.000000 
#    z 0.000000 0.000000 3.395550 
# 
# 
# High freq. dielectric constant tensor:
#      x y z
#    x 1.666830 0.000000 0.000000 
#    y 0.000000 1.648550 0.000000 
#    z 0.000000 0.000000 1.687550 
# 
# From -- ./inp_files/30526.got.cif
#   From: 2010.03.12/outbox.cif.g09.slc.cpg/sg51_16_cif.got.tgz:30526.got - 2010.04.16 13:43:02.
