data_PCOD8210753
_publ_section_title
;
Structure prediction by ZEFSAII (Michael W. Deem and Ramdas Pophale) SiO2 
 PCOD8210753
Probable space group: P M M A
;
_chemical_formula_sum "Si O2"
_cell_formula_units_Z 44
_cell_length_a 8.958983
_cell_length_b 13.562456
_cell_length_c 19.718504
_cell_angle_alpha 90.000000
_cell_angle_beta 90.000000
_cell_angle_gamma 90.000000
_cell_volume 2395.912855
_symmetry_space_group_name_H-M "P M M A"
_symmetry_group_IT_number 51
_symmetry_cell_setting 'orthorhombic'
loop_
_space_group_symop_operation_xyz
x,y,z
1/2-x,-y,z
1/2+x,-y,-z
-x,y,-z
-x,-y,-z
1/2+x,y,-z
1/2-x,y,z
x,-y,z
loop_
_atom_site_type_symbol
_atom_site_label
_atom_site_fract_x
_atom_site_fract_y
_atom_site_fract_z
Si Si1 0.428396 0.500000 0.073066
Si Si2 0.074183 0.318391 0.163145
Si Si3 0.072670 0.609127 0.306306
Si Si4 0.574473 0.109915 0.800926
Si Si5 0.915933 0.886249 0.340757
Si Si6 0.926662 0.741868 0.570411
O O1 0.250000 0.500000 0.067772
O O2 0.488549 0.600200 0.110269
O O3 0.500000 0.500000 0.000000
O O4 0.250000 0.332653 0.162817
O O5 0.010023 0.340969 0.237910
O O6 0.033534 0.201736 0.147815
O O7 0.250000 0.608091 0.304173
O O8 0.006384 0.500000 0.310399
O O9 0.017069 0.665438 0.372713
O O10 0.750000 0.111007 0.786740
O O11 0.497175 0.133901 0.730129
O O12 0.526735 0.000000 0.828885
O O13 0.750000 0.838943 0.338305
O O14 0.011777 0.846317 0.403912
O O15 0.902278 0.000000 0.355434
O O16 0.750000 0.745482 0.561789
O O17 0.000000 0.710018 0.500000
#
# Coordination Sequence:
#
# PCOD8210753 Si02
#       6
#     4   8   8   8   8   8
#     4  10  20  34  56  82 113 142 172 207 248 301
#     4   9  15  28  52  79 102 134 171 207 249 296
#     4   9  16  29  51  76  97 124 168 211 252 305
#     4   9  16  28  50  79 104 128 169 218 258 301
#     4  10  20  33  49  71 100 132 167 211 265 317
#     4  11  22  35  51  70  96 131 172 218 265 314
#
# _framework density 18.364608
#
# number of rings (size 3 to 8) (size 9 to 14) (size 15 to 20)
#    0.000    2.364    2.727    1.091    0.000    1.818 
#    0.000    0.909    0.000    2.182    0.000    0.000 
#    0.000    0.000    0.000    0.000    0.000    0.000 
#
# Total GULP energy -545108.815234 kJ/mol
# GULP energy per Si atom -12388.836710 kJ/mol
# Density = 1.832281 g / cm^3
# Si number density = 18.364608 Si / 1000 Ang^3
#
#
#
# Elastic Constant Matrix: (Units=GPa)
#
#
# Indices 1 2 3 4 5 6 
#
# 1 42.9321 27.2422 23.3166 0.0000 0.0000 0.0000
# 2 27.2422 141.7546 77.8379 0.0000 0.0000 0.0000
# 3 23.3166 77.8379 106.4521 0.0000 0.0000 0.0000
# 4 0.0000 0.0000 0.0000 25.6346 0.0000 0.0000
# 5 0.0000 0.0000 0.0000 0.0000 24.5956 0.0000
# 6 0.0000 0.0000 0.0000 0.0000 0.0000 12.2302
#
#
#
# Elastic Compliance Matrix: (Units=1/GPa)
#
#
# Indices 1 2 3 4 5 6 
#
# 1 0.027322 -0.003283 -0.003584 0.000000 0.000000 0.000000
# 2 -0.003283 0.012181 -0.008188 0.000000 0.000000 0.000000
# 3 -0.003584 -0.008188 0.016166 0.000000 0.000000 0.000000
# 4 0.000000 0.000000 0.000000 0.039010 0.000000 0.000000
# 5 0.000000 0.000000 0.000000 0.000000 0.040658 0.000000
# 6 0.000000 0.000000 0.000000 0.000000 0.000000 0.081765
#
#
# Mechanical properties :
#
#
# Convention : Reuss Voigt Hill
#
# Bulk Modulus (GPa) = 39.12389 60.88135 50.00262
# Shear Modulus (GPa) = 19.55176 23.34156 21.44666
#
# Velocity S-wave (km/s) = 3.26643 3.56899 3.42105
# Velocity P-wave (km/s) = 5.96458 7.08569 6.54917
#
# Compressibility (1/GPa) = 0.02555983
#
# Stress axis : x y z
#
# Youngs Moduli (GPa) = 36.60038 82.09266 61.85808
#
# Poissons Ratio (x) = 0.26948 0.22171
# Poissons Ratio (y) = 0.12015 0.50649
# Poissons Ratio (z) = 0.13118 0.67218
#
# Static dielectric constant tensor:
#      x y z
#    x 3.161590 0.000000 0.000000 
#    y 0.000000 3.916850 0.000000 
#    z 0.000000 0.000000 3.169830 
# 
# 
# High freq. dielectric constant tensor:
#      x y z
#    x 1.680170 0.000000 0.000000 
#    y 0.000000 1.733110 0.000000 
#    z 0.000000 0.000000 1.677860 
# 
# From -- ./inp_files/27355.got.cif
#   From: 2010.03.12/outbox.cif.g09.slc.cpg/sg51_14_cif.got.tgz:27355.got - 2010.04.16 13:43:02.
