data_PCOD8210836
_publ_section_title
;
Structure prediction by ZEFSAII (Michael W. Deem and Ramdas Pophale) SiO2 
 PCOD8210836
Probable space group: P M M A
;
_chemical_formula_sum "Si O2"
_cell_formula_units_Z 44
_cell_length_a 9.306376
_cell_length_b 7.878313
_cell_length_c 29.871292
_cell_angle_alpha 90.000000
_cell_angle_beta 90.000000
_cell_angle_gamma 90.000000
_cell_volume 2190.119608
_symmetry_space_group_name_H-M "P M M A"
_symmetry_group_IT_number 51
_symmetry_cell_setting 'orthorhombic'
loop_
_space_group_symop_operation_xyz
x,y,z
1/2-x,-y,z
1/2+x,-y,-z
-x,y,-z
-x,-y,-z
1/2+x,y,-z
1/2-x,y,z
x,-y,z
loop_
_atom_site_type_symbol
_atom_site_label
_atom_site_fract_x
_atom_site_fract_y
_atom_site_fract_z
Si Si1 0.587483 0.801617 0.302528
Si Si2 0.412354 0.306171 0.793506
Si Si3 0.591322 0.805176 0.874421
Si Si4 0.581441 0.193644 0.609997
Si Si5 0.080933 0.500000 0.453611
Si Si6 0.912229 0.797553 0.042930
O O1 0.750000 0.745808 0.313549
O O2 0.532069 0.710714 0.257477
O O3 0.490559 0.745107 0.344051
O O4 0.575347 0.000000 0.293907
O O5 0.250000 0.231835 0.796916
O O6 0.415264 0.500000 0.808490
O O7 0.517213 0.205504 0.826121
O O8 0.750000 0.718619 0.873457
O O9 0.491127 0.722818 0.912874
O O10 0.611811 0.000000 0.886868
O O11 0.750000 0.201347 0.617975
O O12 0.534261 0.327948 0.572187
O O13 0.533882 0.000000 0.596870
O O14 0.250000 0.500000 0.462503
O O15 0.000000 0.500000 0.500000
O O16 0.750000 0.724922 0.041402
O O17 0.907139 0.000000 0.043843
O O18 0.000000 0.731605 0.000000
#
# Coordination Sequence:
#
# PCOD8210836 Si02
#       6
#     8   8   8   8   4   8
#     4   9  18  33  54  80 107 136 174 218 263 313
#     4  10  21  35  51  74 104 138 174 214 261 314
#     4  10  20  33  50  73 101 134 173 215 259 311
#     4   9  19  36  56  79 110 145 181 224 273 326
#     4  10  22  38  56  82 112 146 186 228 275 324
#     4   9  16  27  46  72 100 129 164 210 262 313
#
# _framework density 20.090228
#
# number of rings (size 3 to 8) (size 9 to 14) (size 15 to 20)
#    0.000    2.545    0.000    1.636    1.273    6.182 
#    0.000    1.818    0.000    0.545    0.000    0.000 
#    0.000    0.000    0.000    0.000    0.000    0.000 
#
# Total GULP energy -545536.808348 kJ/mol
# GULP energy per Si atom -12398.563826 kJ/mol
# Density = 2.004450 g / cm^3
# Si number density = 20.090228 Si / 1000 Ang^3
#
#
#
# Elastic Constant Matrix: (Units=GPa)
#
#
# Indices 1 2 3 4 5 6 
#
# 1 120.1653 26.5899 86.3653 0.0000 0.0000 0.0000
# 2 26.5899 51.3889 40.3171 0.0000 0.0000 0.0000
# 3 86.3653 40.3171 166.6494 0.0000 0.0000 0.0000
# 4 0.0000 0.0000 0.0000 -3.3593 0.0000 0.0000
# 5 0.0000 0.0000 0.0000 0.0000 43.1209 0.0000
# 6 0.0000 0.0000 0.0000 0.0000 0.0000 13.0631
#
#
#
# Elastic Compliance Matrix: (Units=1/GPa)
#
#
# Indices 1 2 3 4 5 6 
#
# 1 0.013400 -0.001833 -0.006501 0.000000 0.000000 0.000000
# 2 -0.001833 0.024269 -0.004921 0.000000 0.000000 0.000000
# 3 -0.006501 -0.004921 0.010560 0.000000 0.000000 0.000000
# 4 0.000000 0.000000 0.000000 -0.297678 0.000000 0.000000
# 5 0.000000 0.000000 0.000000 0.000000 0.023191 0.000000
# 6 0.000000 0.000000 0.000000 0.000000 0.000000 0.076551
#
#
# Mechanical properties :
#
#
# Convention : Reuss Voigt Hill
#
# Bulk Modulus (GPa) = 46.04395 71.63870 58.84132
# Shear Modulus (GPa) = -43.11956 22.89370 -10.11293
#
# Velocity S-wave (km/s) = -4.63784 3.37938 -2.24604
# Velocity P-wave (km/s) = 2.38978 7.13882 4.75667
#
# Compressibility (1/GPa) = 0.02171838
#
# Stress axis : x y z
#
# Youngs Moduli (GPa) = 74.62767 41.20488 94.69418
#
# Poissons Ratio (x) = 0.07553 0.61560
# Poissons Ratio (y) = 0.13680 0.46602
# Poissons Ratio (z) = 0.48515 0.20278
#
# Static dielectric constant tensor:
#      x y z
#    x 3.866930 0.000000 0.000000 
#    y 0.000000 3.478620 0.000000 
#    z 0.000000 0.000000 3.594090 
# 
# 
# High freq. dielectric constant tensor:
#      x y z
#    x 1.782810 0.000000 0.000000 
#    y 0.000000 1.764380 0.000000 
#    z 0.000000 0.000000 1.783950 
# 
# From -- ./inp_files/36749.got.cif
#   From: 2010.03.12/outbox.cif.g09.slc.cpg/sg51_19_cif.got.tgz:36749.got - 2010.04.16 13:43:02.
