data_PCOD8210568
_publ_section_title
;
Structure prediction by ZEFSAII (Michael W. Deem and Ramdas Pophale) SiO2 
 PCOD8210568
Probable space group: P M M A
;
_chemical_formula_sum "Si O2"
_cell_formula_units_Z 56
_cell_length_a 8.997635
_cell_length_b 14.484672
_cell_length_c 23.261830
_cell_angle_alpha 90.000000
_cell_angle_beta 90.000000
_cell_angle_gamma 90.000000
_cell_volume 3031.662936
_symmetry_space_group_name_H-M "P M M A"
_symmetry_group_IT_number 51
_symmetry_cell_setting 'orthorhombic'
loop_
_space_group_symop_operation_xyz
x,y,z
1/2-x,-y,z
1/2+x,-y,-z
-x,y,-z
-x,-y,-z
1/2+x,y,-z
1/2-x,y,z
x,-y,z
loop_
_atom_site_type_symbol
_atom_site_label
_atom_site_fract_x
_atom_site_fract_y
_atom_site_fract_z
Si Si1 0.920818 0.106969 0.167639
Si Si2 0.919842 0.396889 0.121198
Si Si3 0.074067 0.725568 0.666083
Si Si4 0.421464 0.393124 0.238255
Si Si5 0.074765 0.894376 0.285680
Si Si6 0.578494 0.781964 0.058050
Si Si7 0.424976 0.605041 0.558673
O O1 0.750000 0.133994 0.180695
O O2 0.983830 0.161747 0.112709
O O3 0.017706 0.134978 0.222716
O O4 0.937592 0.000000 0.153238
O O5 0.750000 0.386317 0.143039
O O6 0.950309 0.500000 0.097862
O O7 0.951237 0.326611 0.069136
O O8 0.028433 0.372892 0.173444
O O9 0.250000 0.735962 0.667475
O O10 0.019669 0.672782 0.608936
O O11 0.022471 0.667210 0.720491
O O12 0.000799 0.827441 0.667335
O O13 0.250000 0.364413 0.245142
O O14 0.446797 0.500000 0.253733
O O15 0.250000 0.881098 0.287626
O O16 0.028911 0.000000 0.299678
O O17 0.750000 0.805378 0.049983
O O18 0.500000 0.814218 0.000000
O O19 0.500000 0.638988 0.500000
O O20 0.250000 0.611135 0.550573
O O21 0.473733 0.500000 0.573577
#
# Coordination Sequence:
#
# PCOD8210568 Si02
#       7
#     8   8   8   8   8   8   8
#     4   9  18  34  54  74  98 128 161 199 249 310
#     4   9  18  33  50  67  92 127 164 203 250 304
#     4  11  21  33  53  79 108 143 179 214 255 308
#     4  10  20  32  49  77 108 135 167 210 260 310
#     4  10  21  36  55  81 109 135 168 214 265 312
#     4  10  21  34  48  68  92 121 160 204 249 299
#     4   9  19  35  54  78 109 145 183 219 255 297
#
# _framework density 18.471710000000002
#
# number of rings (size 3 to 8) (size 9 to 14) (size 15 to 20)
#    0.000    2.286    0.000    2.571    0.000    6.286 
#    0.000    1.429    0.000    0.429    0.000    0.000 
#    0.000    0.000    0.000    0.000    0.000    0.000 
#
# Total GULP energy -694503.185438 kJ/mol
# GULP energy per Si atom -12401.842597 kJ/mol
# Density = 1.842967 g / cm^3
# Si number density = 18.471710 Si / 1000 Ang^3
#
#
#
# Elastic Constant Matrix: (Units=GPa)
#
#
# Indices 1 2 3 4 5 6 
#
# 1 59.3333 36.8826 36.2407 0.0000 0.0000 0.0000
# 2 36.8826 94.0909 60.7545 0.0000 0.0000 0.0000
# 3 36.2407 60.7545 91.6087 0.0000 0.0000 0.0000
# 4 0.0000 0.0000 0.0000 28.0076 0.0000 0.0000
# 5 0.0000 0.0000 0.0000 0.0000 31.7514 0.0000
# 6 0.0000 0.0000 0.0000 0.0000 0.0000 25.6090
#
#
#
# Elastic Compliance Matrix: (Units=1/GPa)
#
#
# Indices 1 2 3 4 5 6 
#
# 1 0.023850 -0.005696 -0.005658 0.000000 0.000000 0.000000
# 2 -0.005696 0.019948 -0.010976 0.000000 0.000000 0.000000
# 3 -0.005658 -0.010976 0.020434 0.000000 0.000000 0.000000
# 4 0.000000 0.000000 0.000000 0.035705 0.000000 0.000000
# 5 0.000000 0.000000 0.000000 0.000000 0.031495 0.000000
# 6 0.000000 0.000000 0.000000 0.000000 0.000000 0.039049
#
#
# Mechanical properties :
#
#
# Convention : Reuss Voigt Hill
#
# Bulk Modulus (GPa) = 51.09249 56.97650 54.03450
# Shear Modulus (GPa) = 22.55670 24.48395 23.52033
#
# Velocity S-wave (km/s) = 3.49828 3.64467 3.57223
# Velocity P-wave (km/s) = 6.63606 6.97307 6.80665
#
# Compressibility (1/GPa) = 0.01957235
#
# Stress axis : x y z
#
# Youngs Moduli (GPa) = 41.92816 50.13032 48.93906
#
# Poissons Ratio (x) = 0.28553 0.27689
# Poissons Ratio (y) = 0.23881 0.53716
# Poissons Ratio (z) = 0.23722 0.55024
#
# Static dielectric constant tensor:
#      x y z
#    x 3.380860 0.000000 0.000000 
#    y 0.000000 3.644140 0.000000 
#    z 0.000000 0.000000 3.249620 
# 
# 
# High freq. dielectric constant tensor:
#      x y z
#    x 1.715180 0.000000 0.000000 
#    y 0.000000 1.724830 0.000000 
#    z 0.000000 0.000000 1.694860 
# 
# From -- ./inp_files/31890.got.cif
#   From: 2010.03.12/outbox.cif.g09.slc.cpg/sg51_16_cif.got.tgz:31890.got - 2010.04.16 13:43:02.
