data_PCOD8210900
_publ_section_title
;
Structure prediction by ZEFSAII (Michael W. Deem and Ramdas Pophale) SiO2 
 PCOD8210900
Probable space group: P M M A
;
_chemical_formula_sum "Si O2"
_cell_formula_units_Z 56
_cell_length_a 8.883065
_cell_length_b 14.165537
_cell_length_c 23.728665
_cell_angle_alpha 90.000000
_cell_angle_beta 90.000000
_cell_angle_gamma 90.000000
_cell_volume 2985.858261
_symmetry_space_group_name_H-M "P M M A"
_symmetry_group_IT_number 51
_symmetry_cell_setting 'orthorhombic'
loop_
_space_group_symop_operation_xyz
x,y,z
1/2-x,-y,z
1/2+x,-y,-z
-x,y,-z
-x,-y,-z
1/2+x,y,-z
1/2-x,y,z
x,-y,z
loop_
_atom_site_type_symbol
_atom_site_label
_atom_site_fract_x
_atom_site_fract_y
_atom_site_fract_z
Si Si1 0.925395 0.393919 0.224276
Si Si2 0.074268 0.787986 0.839737
Si Si3 0.427209 0.606852 0.338873
Si Si4 0.579323 0.888202 0.737481
Si Si5 0.925003 0.889900 0.377648
Si Si6 0.427066 0.107534 0.059110
Si Si7 0.928847 0.265769 0.557648
O O1 0.750000 0.394589 0.237607
O O2 0.981932 0.500000 0.208517
O O3 0.961390 0.322471 0.172937
O O4 0.005334 0.354166 0.280411
O O5 0.250000 0.805407 0.849803
O O6 0.022288 0.850338 0.787523
O O7 0.985449 0.818804 0.895047
O O8 0.250000 0.613553 0.333578
O O9 0.482638 0.500000 0.348287
O O10 0.484335 0.666297 0.392107
O O11 0.750000 0.849271 0.741704
O O12 0.508499 0.854511 0.678698
O O13 0.577817 0.000000 0.741732
O O14 0.750000 0.863943 0.372989
O O15 0.002376 0.837527 0.430218
O O16 0.949835 0.000000 0.387898
O O17 0.250000 0.118610 0.053518
O O18 0.470750 0.000000 0.076120
O O19 0.500000 0.135411 0.000000
O O20 0.750000 0.260850 0.552211
O O21 0.000000 0.305084 0.500000
#
# Coordination Sequence:
#
# PCOD8210900 Si02
#       7
#     8   8   8   8   8   8   8
#     4   9  19  35  54  78 107 138 172 211 258 310
#     4  11  21  32  52  80 109 142 179 220 262 305
#     4   9  19  36  56  78 104 133 166 207 258 313
#     4  10  20  33  50  75 107 139 170 208 257 312
#     4  10  21  37  55  74  99 132 169 211 259 310
#     4  10  21  37  56  79 110 147 184 221 261 307
#     4  11  23  37  54  75 100 131 168 211 256 307
#
# _framework density 18.755075000000001
#
# number of rings (size 3 to 8) (size 9 to 14) (size 15 to 20)
#    0.000    2.000    0.000    3.429    0.000    9.429 
#    0.000    0.000    0.000    0.429    0.000    0.000 
#    0.000    0.000    0.000    0.000    0.000    0.000 
#
# Total GULP energy -694554.818919 kJ/mol
# GULP energy per Si atom -12402.764624 kJ/mol
# Density = 1.871239 g / cm^3
# Si number density = 18.755075 Si / 1000 Ang^3
#
#
#
# Elastic Constant Matrix: (Units=GPa)
#
#
# Indices 1 2 3 4 5 6 
#
# 1 64.1736 38.0039 36.3026 0.0000 0.0000 0.0000
# 2 38.0039 69.3444 62.0348 0.0000 0.0000 0.0000
# 3 36.3026 62.0348 117.3269 0.0000 0.0000 0.0000
# 4 0.0000 0.0000 0.0000 23.9567 0.0000 0.0000
# 5 0.0000 0.0000 0.0000 0.0000 38.5671 0.0000
# 6 0.0000 0.0000 0.0000 0.0000 0.0000 24.6151
#
#
#
# Elastic Compliance Matrix: (Units=1/GPa)
#
#
# Indices 1 2 3 4 5 6 
#
# 1 0.023116 -0.011898 -0.000862 0.000000 0.000000 0.000000
# 2 -0.011898 0.033488 -0.014025 0.000000 0.000000 0.000000
# 3 -0.000862 -0.014025 0.016205 0.000000 0.000000 0.000000
# 4 0.000000 0.000000 0.000000 0.041742 0.000000 0.000000
# 5 0.000000 0.000000 0.000000 0.000000 0.025929 0.000000
# 6 0.000000 0.000000 0.000000 0.000000 0.000000 0.040625
#
#
# Mechanical properties :
#
#
# Convention : Reuss Voigt Hill
#
# Bulk Modulus (GPa) = 51.97366 58.16973 55.07170
# Shear Modulus (GPa) = 20.73937 25.06136 22.90036
#
# Velocity S-wave (km/s) = 3.32896 3.65943 3.49810
# Velocity P-wave (km/s) = 6.52288 6.99557 6.76336
#
# Compressibility (1/GPa) = 0.01924051
#
# Stress axis : x y z
#
# Youngs Moduli (GPa) = 43.25982 29.86167 61.70866
#
# Poissons Ratio (x) = 0.35529 0.05317
# Poissons Ratio (y) = 0.51470 0.86545
# Poissons Ratio (z) = 0.03728 0.41880
#
# Static dielectric constant tensor:
#      x y z
#    x 4.100620 0.000000 0.000000 
#    y 0.000000 3.634670 0.000000 
#    z 0.000000 0.000000 -6.405130 
# 
# 
# High freq. dielectric constant tensor:
#      x y z
#    x 1.738200 0.000000 0.000000 
#    y 0.000000 1.728690 0.000000 
#    z 0.000000 0.000000 1.716450 
# 
# From -- ./inp_files/31872.got.cif
#   From: 2010.03.12/outbox.cif.g09.slc.cpg/sg51_16_cif.got.tgz:31872.got - 2010.04.16 13:43:02.
