data_PCOD8210380
_publ_section_title
;
Structure prediction by ZEFSAII (Michael W. Deem and Ramdas Pophale) SiO2 
 PCOD8210380
Probable space group: P M M A
;
_chemical_formula_sum "Si O2"
_cell_formula_units_Z 52
_cell_length_a 9.546997
_cell_length_b 10.035764
_cell_length_c 29.404311
_cell_angle_alpha 90.000000
_cell_angle_beta 90.000000
_cell_angle_gamma 90.000000
_cell_volume 2817.268462
_symmetry_space_group_name_H-M "P M M A"
_symmetry_group_IT_number 51
_symmetry_cell_setting 'orthorhombic'
loop_
_space_group_symop_operation_xyz
x,y,z
1/2-x,-y,z
1/2+x,-y,-z
-x,y,-z
-x,-y,-z
1/2+x,y,-z
1/2-x,y,z
x,-y,z
loop_
_atom_site_type_symbol
_atom_site_label
_atom_site_fract_x
_atom_site_fract_y
_atom_site_fract_z
Si Si1 0.090386 0.756126 0.393601
Si Si2 0.587432 0.154548 0.874346
Si Si3 0.590638 0.154619 0.704491
Si Si4 0.408255 0.841908 0.788425
Si Si5 0.587961 0.347907 0.955919
Si Si6 0.098319 0.851152 0.537197
Si Si7 0.411430 0.500000 0.453564
O O1 0.250000 0.801197 0.403317
O O2 0.065115 0.752145 0.339496
O O3 0.052542 0.620850 0.419652
O O4 0.980580 0.860703 0.414560
O O5 0.750000 0.174557 0.861446
O O6 0.493681 0.205800 0.832493
O O7 0.543195 0.246407 0.916484
O O8 0.557003 0.000000 0.886398
O O9 0.750000 0.169464 0.722049
O O10 0.487236 0.209611 0.743349
O O11 0.560462 0.000000 0.692147
O O12 0.250000 0.784560 0.789739
O O13 0.406633 0.000000 0.787416
O O14 0.750000 0.329831 0.968450
O O15 0.556359 0.500000 0.940537
O O16 0.500000 0.308563 0.000000
O O17 0.250000 0.778247 0.540514
O O18 0.000000 0.774635 0.500000
O O19 0.124861 0.000000 0.519597
O O20 0.250000 0.500000 0.468134
O O21 0.500000 0.500000 0.500000
#
# Coordination Sequence:
#
# PCOD8210380 Si02
#       7
#     8   8   8   8   8   8   4
#     4  10  20  34  52  72  95 123 158 197 235 281
#     4   9  17  30  49  72  99 132 171 213 255 302
#     4   9  17  30  50  74  98 126 158 193 240 296
#     4   9  17  29  47  73 102 129 159 198 243 291
#     4   9  18  32  49  70  99 135 174 214 258 308
#     4  10  20  32  47  69  96 122 148 183 229 279
#     4  10  22  38  54  72  94 124 164 204 239 282
#
# _framework density 18.457594
#
# number of rings (size 3 to 8) (size 9 to 14) (size 15 to 20)
#    0.000    2.615    0.000    1.846    0.000    6.769 
#    0.000    1.538    1.692    0.000    0.000    0.000 
#    0.000    0.000    0.000    0.000    0.000    0.000 
#
# Total GULP energy -644503.064409 kJ/mol
# GULP energy per Si atom -12394.289700 kJ/mol
# Density = 1.841558 g / cm^3
# Si number density = 18.457594 Si / 1000 Ang^3
#
#
#
# Elastic Constant Matrix: (Units=GPa)
#
#
# Indices 1 2 3 4 5 6 
#
# 1 134.1693 33.4560 95.8793 0.0000 0.0000 0.0000
# 2 33.4560 54.7449 54.5247 0.0000 0.0000 0.0000
# 3 95.8793 54.5247 165.7435 0.0000 0.0000 0.0000
# 4 0.0000 0.0000 0.0000 22.7548 0.0000 0.0000
# 5 0.0000 0.0000 0.0000 0.0000 37.5563 0.0000
# 6 0.0000 0.0000 0.0000 0.0000 0.0000 14.1331
#
#
#
# Elastic Compliance Matrix: (Units=1/GPa)
#
#
# Indices 1 2 3 4 5 6 
#
# 1 0.012722 -0.000662 -0.007142 0.000000 0.000000 0.000000
# 2 -0.000662 0.027203 -0.008566 0.000000 0.000000 0.000000
# 3 -0.007142 -0.008566 0.012983 0.000000 0.000000 0.000000
# 4 0.000000 0.000000 0.000000 0.043947 0.000000 0.000000
# 5 0.000000 0.000000 0.000000 0.000000 0.026627 0.000000
# 6 0.000000 0.000000 0.000000 0.000000 0.000000 0.070756
#
#
# Mechanical properties :
#
#
# Convention : Reuss Voigt Hill
#
# Bulk Modulus (GPa) = 49.58291 80.26419 64.92355
# Shear Modulus (GPa) = 21.39515 26.27535 23.83525
#
# Velocity S-wave (km/s) = 3.40832 3.77709 3.59744
# Velocity P-wave (km/s) = 6.51232 7.91214 7.24612
#
# Compressibility (1/GPa) = 0.02016824
#
# Stress axis : x y z
#
# Youngs Moduli (GPa) = 78.60553 36.76131 77.02594
#
# Poissons Ratio (x) = 0.02433 0.55009
# Poissons Ratio (y) = 0.05202 0.65981
# Poissons Ratio (z) = 0.56137 0.31490
#
# Static dielectric constant tensor:
#      x y z
#    x 3.669420 0.000000 0.000000 
#    y 0.000000 3.180000 0.000000 
#    z 0.000000 0.000000 3.387490 
# 
# 
# High freq. dielectric constant tensor:
#      x y z
#    x 1.723480 0.000000 0.000000 
#    y 0.000000 1.682830 0.000000 
#    z 0.000000 0.000000 1.712870 
# 
# From -- ./inp_files/36238.got.cif
#   From: 2010.03.12/outbox.cif.g09.slc.cpg/sg51_19_cif.got.tgz:36238.got - 2010.04.16 13:43:02.
