data_PCOD8210275
_publ_section_title
;
Structure prediction by ZEFSAII (Michael W. Deem and Ramdas Pophale) SiO2 
 PCOD8210275
Probable space group: P M M A
;
_chemical_formula_sum "Si O2"
_cell_formula_units_Z 56
_cell_length_a 8.786351
_cell_length_b 16.346463
_cell_length_c 23.253318
_cell_angle_alpha 90.000000
_cell_angle_beta 90.000000
_cell_angle_gamma 90.000000
_cell_volume 3339.775506
_symmetry_space_group_name_H-M "P M M A"
_symmetry_group_IT_number 51
_symmetry_cell_setting 'orthorhombic'
loop_
_space_group_symop_operation_xyz
x,y,z
1/2-x,-y,z
1/2+x,-y,-z
-x,y,-z
-x,-y,-z
1/2+x,y,-z
1/2-x,y,z
x,-y,z
loop_
_atom_site_type_symbol
_atom_site_label
_atom_site_fract_x
_atom_site_fract_y
_atom_site_fract_z
Si Si1 0.571555 0.739559 0.234319
Si Si2 0.070487 0.093792 0.560436
Si Si3 0.073015 0.406459 0.174002
Si Si4 0.929910 0.168563 0.119183
Si Si5 0.071872 0.682947 0.058459
Si Si6 0.930372 0.000000 0.736294
Si Si7 0.569586 0.841111 0.670743
Si Si8 0.569143 0.000000 0.865762
O O1 0.750000 0.743501 0.244958
O O2 0.524313 0.647486 0.218199
O O3 0.520594 0.800610 0.182850
O O4 0.486747 0.762755 0.293444
O O5 0.250000 0.103730 0.557399
O O6 0.000000 0.120776 0.500000
O O7 0.003097 0.155940 0.607542
O O8 0.023191 0.000000 0.574772
O O9 0.250000 0.391763 0.187142
O O10 0.025066 0.500000 0.183223
O O11 0.035483 0.382058 0.108443
O O12 0.750000 0.163300 0.113553
O O13 0.993692 0.230546 0.071985
O O14 0.003263 0.081001 0.104479
O O15 0.250000 0.697031 0.050657
O O16 0.000000 0.647353 0.000000
O O17 0.993082 0.920427 0.704231
O O18 0.993224 0.000000 0.800686
O O19 0.750000 0.000000 0.736428
O O20 0.750000 0.839188 0.665054
O O21 0.750000 0.000000 0.870023
#
# Coordination Sequence:
#
# PCOD8210275 Si02
#       8
#     8   8   8   8   8   4   8   4
#     4  10  20  32  48  73 101 128 159 199 246 292
#     4  10  20  32  45  64  93 133 177 220 259 294
#     4   9  19  36  56  77 101 129 158 189 234 294
#     4  10  20  33  48  69  96 126 160 200 243 287
#     4  10  20  35  54  74  97 126 158 195 236 285
#     4   9  18  27  42  67  94 125 164 205 243 287
#     4  11  19  31  48  69  97 132 172 211 249 293
#     4  11  19  31  48  69  94 125 163 203 246 290
#
# _framework density 16.767593999999999
#
# number of rings (size 3 to 8) (size 9 to 14) (size 15 to 20)
#    0.000    2.000    2.143    2.357    0.000    2.857 
#    0.000    0.357    0.000    0.000    0.000    0.000 
#    0.000    0.571    0.000    2.143    0.000    3.286 
#
# Total GULP energy -694581.000896 kJ/mol
# GULP energy per Si atom -12403.232159 kJ/mol
# Density = 1.672943 g / cm^3
# Si number density = 16.767594 Si / 1000 Ang^3
#
#
#
# Elastic Constant Matrix: (Units=GPa)
#
#
# Indices 1 2 3 4 5 6 
#
# 1 77.1694 30.7978 35.7081 0.0000 0.0000 0.0000
# 2 30.7978 88.2521 28.3765 0.0000 0.0000 0.0000
# 3 35.7081 28.3765 91.3219 0.0000 0.0000 0.0000
# 4 0.0000 0.0000 0.0000 17.4169 0.0000 0.0000
# 5 0.0000 0.0000 0.0000 0.0000 29.8418 0.0000
# 6 0.0000 0.0000 0.0000 0.0000 0.0000 23.8247
#
#
#
# Elastic Compliance Matrix: (Units=1/GPa)
#
#
# Indices 1 2 3 4 5 6 
#
# 1 0.017147 -0.004253 -0.005383 0.000000 0.000000 0.000000
# 2 -0.004253 0.013644 -0.002577 0.000000 0.000000 0.000000
# 3 -0.005383 -0.002577 0.013856 0.000000 0.000000 0.000000
# 4 0.000000 0.000000 0.000000 0.057416 0.000000 0.000000
# 5 0.000000 0.000000 0.000000 0.000000 0.033510 0.000000
# 6 0.000000 0.000000 0.000000 0.000000 0.000000 0.041973
#
#
# Mechanical properties :
#
#
# Convention : Reuss Voigt Hill
#
# Bulk Modulus (GPa) = 49.45332 49.61202 49.53267
# Shear Modulus (GPa) = 23.95661 25.00741 24.48201
#
# Velocity S-wave (km/s) = 3.78397 3.86607 3.82524
# Velocity P-wave (km/s) = 6.97486 7.04137 7.00820
#
# Compressibility (1/GPa) = 0.02022109
#
# Stress axis : x y z
#
# Youngs Moduli (GPa) = 58.32032 73.29335 72.17216
#
# Poissons Ratio (x) = 0.31171 0.38851
# Poissons Ratio (y) = 0.24803 0.18596
# Poissons Ratio (z) = 0.31394 0.18885
#
# Static dielectric constant tensor:
#      x y z
#    x 3.090750 0.000000 0.000000 
#    y 0.000000 2.980390 0.000000 
#    z 0.000000 0.000000 3.063610 
# 
# 
# High freq. dielectric constant tensor:
#      x y z
#    x 1.656030 0.000000 0.000000 
#    y 0.000000 1.620220 0.000000 
#    z 0.000000 0.000000 1.631000 
# 
# From -- ./inp_files/32070.got.cif
#   From: 2010.03.12/outbox.cif.g09.slc.cpg/sg51_17_cif.got.tgz:32070.got - 2010.04.16 13:43:02.
