data_PCOD8210976
_publ_section_title
;
Structure prediction by ZEFSAII (Michael W. Deem and Ramdas Pophale) SiO2 
 PCOD8210976
Probable space group: P M M A
;
_chemical_formula_sum "Si O2"
_cell_formula_units_Z 64
_cell_length_a 9.536516
_cell_length_b 9.108022
_cell_length_c 41.156107
_cell_angle_alpha 90.000000
_cell_angle_beta 90.000000
_cell_angle_gamma 90.000000
_cell_volume 3574.769965
_symmetry_space_group_name_H-M "P M M A"
_symmetry_group_IT_number 51
_symmetry_cell_setting 'orthorhombic'
loop_
_space_group_symop_operation_xyz
x,y,z
1/2-x,-y,z
1/2+x,-y,-z
-x,y,-z
-x,-y,-z
1/2+x,y,-z
1/2-x,y,z
x,-y,z
loop_
_atom_site_type_symbol
_atom_site_label
_atom_site_fract_x
_atom_site_fract_y
_atom_site_fract_z
Si Si1 0.912161 0.171013 0.030964
Si Si2 0.088775 0.328546 0.595108
Si Si3 0.917012 0.665593 0.095086
Si Si4 0.913405 0.170733 0.722144
Si Si5 0.412242 0.668919 0.343543
Si Si6 0.914025 0.328507 0.222483
Si Si7 0.583214 0.834472 0.157821
Si Si8 0.411174 0.827870 0.530370
O O1 0.750000 0.206484 0.024113
O O2 0.935722 0.000000 0.038035
O O3 0.969776 0.258261 0.062106
O O4 0.000000 0.224547 0.000000
O O5 0.250000 0.287830 0.601778
O O6 0.066852 0.500000 0.589474
O O7 0.032331 0.247915 0.563027
O O8 0.000378 0.273189 0.625869
O O9 0.750000 0.667447 0.096216
O O10 0.974881 0.500000 0.096345
O O11 0.977811 0.754132 0.125917
O O12 0.750000 0.198041 0.729279
O O13 0.954540 0.231011 0.686828
O O14 0.002666 0.259555 0.747957
O O15 0.952601 0.000000 0.723960
O O16 0.250000 0.686985 0.352479
O O17 0.448945 0.500000 0.335207
O O18 0.750000 0.298826 0.228049
O O19 0.947277 0.500000 0.220015
O O20 0.967984 0.253000 0.189466
O O21 0.750000 0.836018 0.156270
O O22 0.523816 0.000000 0.159161
O O23 0.500000 0.767835 0.500000
O O24 0.250000 0.785810 0.524021
O O25 0.432726 0.000000 0.534802
#
# Coordination Sequence:
#
# PCOD8210976 Si02
#       8
#     8   8   8   8   8   8   8   8
#     4   9  17  29  45  65  89 118 152 189 231 279
#     4   9  18  32  49  70  96 124 155 194 239 284
#     4   9  16  26  42  65  92 121 154 192 234 281
#     4  10  21  36  53  74 101 133 168 204 243 290
#     4   9  18  33  51  70  94 125 160 197 238 284
#     4  10  20  33  51  76 103 130 162 201 245 291
#     4   9  16  27  45  69  97 126 156 195 241 285
#     4   9  18  32  48  67  93 124 156 190 231 279
#
# _framework density 17.903248999999999
#
# number of rings (size 3 to 8) (size 9 to 14) (size 15 to 20)
#    0.000    2.750    0.000    1.500    0.000    6.500 
#    0.000    1.250    0.000    0.750    0.000    1.750 
#    0.000    0.000    0.000    0.000    0.000    0.000 
#
# Total GULP energy -793704.469576 kJ/mol
# GULP energy per Si atom -12401.632337 kJ/mol
# Density = 1.786250 g / cm^3
# Si number density = 17.903249 Si / 1000 Ang^3
#
#
#
# Elastic Constant Matrix: (Units=GPa)
#
#
# Indices 1 2 3 4 5 6 
#
# 1 43.2381 37.4769 62.2103 0.0000 0.0000 0.0000
# 2 37.4769 107.5324 85.4577 0.0000 0.0000 0.0000
# 3 62.2103 85.4577 183.5543 0.0000 0.0000 0.0000
# 4 0.0000 0.0000 0.0000 40.4021 0.0000 0.0000
# 5 0.0000 0.0000 0.0000 0.0000 29.2446 0.0000
# 6 0.0000 0.0000 0.0000 0.0000 0.0000 17.7035
#
#
#
# Elastic Compliance Matrix: (Units=1/GPa)
#
#
# Indices 1 2 3 4 5 6 
#
# 1 0.047430 -0.005960 -0.013300 0.000000 0.000000 0.000000
# 2 -0.005960 0.015510 -0.005201 0.000000 0.000000 0.000000
# 3 -0.013300 -0.005201 0.012377 0.000000 0.000000 0.000000
# 4 0.000000 0.000000 0.000000 0.024751 0.000000 0.000000
# 5 0.000000 0.000000 0.000000 0.000000 0.034194 0.000000
# 6 0.000000 0.000000 0.000000 0.000000 0.000000 0.056486
#
#
# Mechanical properties :
#
#
# Convention : Reuss Voigt Hill
#
# Bulk Modulus (GPa) = 37.88708 78.29052 58.08880
# Shear Modulus (GPa) = 20.12324 27.41536 23.76930
#
# Velocity S-wave (km/s) = 3.35625 3.91744 3.64765
# Velocity P-wave (km/s) = 6.01891 8.01788 7.08921
#
# Compressibility (1/GPa) = 0.02639422
#
# Stress axis : x y z
#
# Youngs Moduli (GPa) = 21.08388 64.47397 80.79510
#
# Poissons Ratio (x) = 0.38429 1.07456
# Poissons Ratio (y) = 0.12567 0.42021
# Poissons Ratio (z) = 0.28041 0.33533
#
# Static dielectric constant tensor:
#      x y z
#    x 2.983530 0.000000 0.000000 
#    y 0.000000 3.390820 0.000000 
#    z 0.000000 0.000000 3.492110 
# 
# 
# High freq. dielectric constant tensor:
#      x y z
#    x 1.656570 0.000000 0.000000 
#    y 0.000000 1.698340 0.000000 
#    z 0.000000 0.000000 1.706270 
# 
# From -- ./inp_files/37769.got.cif
#   From: 2010.03.12/outbox.cif.g09.slc.cpg/sg51_19_cif.got.tgz:37769.got - 2010.04.16 13:43:02.
