data_PCOD8210665
_publ_section_title
;
Structure prediction by ZEFSAII (Michael W. Deem and Ramdas Pophale) SiO2 
 PCOD8210665
Probable space group: P M M A
;
_chemical_formula_sum "Si O2"
_cell_formula_units_Z 64
_cell_length_a 15.533970
_cell_length_b 14.366707
_cell_length_c 16.955896
_cell_angle_alpha 90.000000
_cell_angle_beta 90.000000
_cell_angle_gamma 90.000000
_cell_volume 3784.081146
_symmetry_space_group_name_H-M "P M M A"
_symmetry_group_IT_number 51
_symmetry_cell_setting 'orthorhombic'
loop_
_space_group_symop_operation_xyz
x,y,z
1/2-x,-y,z
1/2+x,-y,-z
-x,y,-z
-x,-y,-z
1/2+x,y,-z
1/2-x,y,z
x,-y,z
loop_
_atom_site_type_symbol
_atom_site_label
_atom_site_fract_x
_atom_site_fract_y
_atom_site_fract_z
Si Si1 0.147802 0.897947 0.073922
Si Si2 0.495273 0.390117 0.409042
Si Si3 0.082564 0.394702 0.855550
Si Si4 0.383008 0.605611 0.159714
Si Si5 0.348336 0.288346 0.000345
Si Si6 0.346769 0.708665 0.316181
Si Si7 0.654888 0.389401 0.307890
Si Si8 0.352138 0.898333 0.250307
O O1 0.250000 0.890340 0.078351
O O2 0.114086 0.815138 0.017773
O O3 0.109988 0.884694 0.162085
O O4 0.120295 0.000000 0.040735
O O5 0.500000 0.362448 0.500000
O O6 0.486960 0.500000 0.396451
O O7 0.409346 0.345233 0.374443
O O8 0.581290 0.350392 0.366480
O O9 0.109914 0.500000 0.878327
O O10 0.137945 0.356778 0.781895
O O11 0.984756 0.391323 0.828169
O O12 0.093859 0.330021 0.931199
O O13 0.349354 0.500000 0.162308
O O14 0.353894 0.648752 0.077540
O O15 0.340240 0.662066 0.230424
O O16 0.250000 0.284983 0.971163
O O17 0.250000 0.708167 0.352167
O O18 0.383182 0.814475 0.306643
O O19 0.750000 0.353467 0.333725
O O20 0.651485 0.500000 0.310868
O O21 0.250000 0.894413 0.244656
O O22 0.381671 0.000000 0.283371
#
# Coordination Sequence:
#
# PCOD8210665 Si02
#       8
#     8   8   8   8   8   8   8   8
#     4   8  14  26  43  63  90 123 160 205 253 295
#     4  10  21  36  52  74 106 137 164 200 246 299
#     4  10  20  33  46  62  91 131 171 210 245 284
#     4  11  21  32  44  64  99 136 162 196 250 298
#     4  11  20  29  44  68  92 123 170 210 243 288
#     4  11  20  32  53  80 106 133 165 202 251 307
#     4   9  17  32  52  69  89 126 174 213 242 279
#     4   8  14  27  48  73 100 130 165 204 248 299
#
# _framework density 16.912956000000001
#
# number of rings (size 3 to 8) (size 9 to 14) (size 15 to 20)
#    0.000    2.250    2.500    2.625    0.000    4.500 
#    0.000    1.250    0.000    2.625    0.000    0.000 
#    0.000    0.500    0.000    0.500    0.000    0.000 
#
# Total GULP energy -793342.930465 kJ/mol
# GULP energy per Si atom -12395.983289 kJ/mol
# Density = 1.687446 g / cm^3
# Si number density = 16.912956 Si / 1000 Ang^3
#
#
#
# Elastic Constant Matrix: (Units=GPa)
#
#
# Indices 1 2 3 4 5 6 
#
# 1 71.6894 22.4047 34.7452 0.0000 0.0000 0.0000
# 2 22.4047 87.4480 38.8362 0.0000 0.0000 0.0000
# 3 34.7452 38.8362 90.0618 0.0000 0.0000 0.0000
# 4 0.0000 0.0000 0.0000 12.6171 0.0000 0.0000
# 5 0.0000 0.0000 0.0000 0.0000 15.7160 0.0000
# 6 0.0000 0.0000 0.0000 0.0000 0.0000 8.1341
#
#
#
# Elastic Compliance Matrix: (Units=1/GPa)
#
#
# Indices 1 2 3 4 5 6 
#
# 1 0.017390 -0.001825 -0.005922 0.000000 0.000000 0.000000
# 2 -0.001825 0.014336 -0.005478 0.000000 0.000000 0.000000
# 3 -0.005922 -0.005478 0.015750 0.000000 0.000000 0.000000
# 4 0.000000 0.000000 0.000000 0.079257 0.000000 0.000000
# 5 0.000000 0.000000 0.000000 0.000000 0.063629 0.000000
# 6 0.000000 0.000000 0.000000 0.000000 0.000000 0.122939
#
#
# Mechanical properties :
#
#
# Convention : Reuss Voigt Hill
#
# Bulk Modulus (GPa) = 47.56012 49.01903 48.28957
# Shear Modulus (GPa) = 14.41926 17.50766 15.96346
#
# Velocity S-wave (km/s) = 2.92303 3.22089 3.07556
# Velocity P-wave (km/s) = 6.29076 6.54814 6.42074
#
# Compressibility (1/GPa) = 0.02102602
#
# Stress axis : x y z
#
# Youngs Moduli (GPa) = 57.50578 69.75602 63.49202
#
# Poissons Ratio (x) = 0.12734 0.37597
# Poissons Ratio (y) = 0.10498 0.34778
# Poissons Ratio (z) = 0.34053 0.38209
#
# Static dielectric constant tensor:
#      x y z
#    x 3.084730 0.000000 0.000000 
#    y 0.000000 3.396320 0.000000 
#    z 0.000000 0.000000 2.989190 
# 
# 
# High freq. dielectric constant tensor:
#      x y z
#    x 1.640600 0.000000 0.000000 
#    y 0.000000 1.638180 0.000000 
#    z 0.000000 0.000000 1.627670 
# 
# From -- ./inp_files/29992.got.cif
#   From: 2010.03.12/outbox.cif.g09.slc.cpg/sg51_15_cif.got.tgz:29992.got - 2010.04.16 13:43:02.
