data_PCOD8210408
_publ_section_title
;
Structure prediction by ZEFSAII (Michael W. Deem and Ramdas Pophale) SiO2 
 PCOD8210408
Probable space group: P M M A
;
_chemical_formula_sum "Si O2"
_cell_formula_units_Z 48
_cell_length_a 9.678670
_cell_length_b 9.115608
_cell_length_c 30.866828
_cell_angle_alpha 90.000000
_cell_angle_beta 90.000000
_cell_angle_gamma 90.000000
_cell_volume 2723.286451
_symmetry_space_group_name_H-M "P M M A"
_symmetry_group_IT_number 51
_symmetry_cell_setting 'orthorhombic'
loop_
_space_group_symop_operation_xyz
x,y,z
1/2-x,-y,z
1/2+x,-y,-z
-x,y,-z
-x,-y,-z
1/2+x,y,-z
1/2-x,y,z
x,-y,z
loop_
_atom_site_type_symbol
_atom_site_label
_atom_site_fract_x
_atom_site_fract_y
_atom_site_fract_z
Si Si1 0.909331 0.828833 0.959447
Si Si2 0.412442 0.168938 0.634125
Si Si3 0.085638 0.834729 0.209620
Si Si4 0.414482 0.665277 0.126187
Si Si5 0.402098 0.173724 0.536846
Si Si6 0.590379 0.671952 0.704319
O O1 0.750000 0.791091 0.969360
O O2 0.965389 0.742971 0.917627
O O3 0.929195 0.000000 0.949934
O O4 0.000000 0.776563 0.000000
O O5 0.250000 0.195674 0.641167
O O6 0.455678 0.210768 0.585043
O O7 0.499540 0.275062 0.664361
O O8 0.449896 0.000000 0.644167
O O9 0.250000 0.835087 0.207510
O O10 0.025099 0.752164 0.167524
O O11 0.035178 0.751427 0.252537
O O12 0.027217 0.000000 0.210389
O O13 0.250000 0.666569 0.127977
O O14 0.472065 0.500000 0.127240
O O15 0.500000 0.243599 0.500000
O O16 0.250000 0.241308 0.529972
O O17 0.394227 0.000000 0.531516
O O18 0.750000 0.711814 0.695251
O O19 0.570407 0.500000 0.711126
#
# Coordination Sequence:
#
# PCOD8210408 Si02
#       6
#     8   8   8   8   8   8
#     4   9  17  29  45  65  89 118 152 188 226 269
#     4   9  18  32  49  70  97 128 161 195 233 282
#     4   9  16  27  45  68  93 120 151 190 235 279
#     4   9  16  26  42  65  92 120 150 186 229 276
#     4   8  14  25  42  66  94 121 151 190 234 277
#     4  10  20  32  47  70  98 125 156 196 239 281
#
# _framework density 17.625761000000001
#
# number of rings (size 3 to 8) (size 9 to 14) (size 15 to 20)
#    0.000    3.000    0.000    2.500    0.000    6.333 
#    0.000    1.667    0.000    1.500    0.000    2.333 
#    0.000    0.000    0.000    0.000    0.000    0.000 
#
# Total GULP energy -595111.766745 kJ/mol
# GULP energy per Si atom -12398.161807 kJ/mol
# Density = 1.758564 g / cm^3
# Si number density = 17.625761 Si / 1000 Ang^3
#
#
#
# Elastic Constant Matrix: (Units=GPa)
#
#
# Indices 1 2 3 4 5 6 
#
# 1 41.0394 29.7625 53.0709 0.0000 0.0000 0.0000
# 2 29.7625 94.4397 70.8915 0.0000 0.0000 0.0000
# 3 53.0709 70.8915 168.6771 0.0000 0.0000 0.0000
# 4 0.0000 0.0000 0.0000 13.6304 0.0000 0.0000
# 5 0.0000 0.0000 0.0000 0.0000 25.1485 0.0000
# 6 0.0000 0.0000 0.0000 0.0000 0.0000 16.6877
#
#
#
# Elastic Compliance Matrix: (Units=1/GPa)
#
#
# Indices 1 2 3 4 5 6 
#
# 1 0.042587 -0.004913 -0.011334 0.000000 0.000000 0.000000
# 2 -0.004913 0.016036 -0.005194 0.000000 0.000000 0.000000
# 3 -0.011334 -0.005194 0.011677 0.000000 0.000000 0.000000
# 4 0.000000 0.000000 0.000000 0.073366 0.000000 0.000000
# 5 0.000000 0.000000 0.000000 0.000000 0.039764 0.000000
# 6 0.000000 0.000000 0.000000 0.000000 0.000000 0.059924
#
#
# Mechanical properties :
#
#
# Convention : Reuss Voigt Hill
#
# Bulk Modulus (GPa) = 36.47229 67.95621 52.21425
# Shear Modulus (GPa) = 16.92760 21.12208 19.02484
#
# Velocity S-wave (km/s) = 3.10238 3.46550 3.28895
# Velocity P-wave (km/s) = 5.79401 7.39267 6.64162
#
# Compressibility (1/GPa) = 0.02741808
#
# Stress axis : x y z
#
# Youngs Moduli (GPa) = 23.48128 62.36053 85.63544
#
# Poissons Ratio (x) = 0.30638 0.97062
# Poissons Ratio (y) = 0.11537 0.44476
# Poissons Ratio (z) = 0.26614 0.32388
#
# Static dielectric constant tensor:
#      x y z
#    x 3.089330 0.000000 0.000000 
#    y 0.000000 3.178410 0.000000 
#    z 0.000000 0.000000 3.457480 
# 
# 
# High freq. dielectric constant tensor:
#      x y z
#    x 1.637160 0.000000 0.000000 
#    y 0.000000 1.670010 0.000000 
#    z 0.000000 0.000000 1.696680 
# 
# From -- ./inp_files/35303.got.cif
#   From: 2010.03.12/outbox.cif.g09.slc.cpg/sg51_18_cif.got.tgz:35303.got - 2010.04.16 13:43:02.
