data_PCOD8210722
_publ_section_title
;
Structure prediction by ZEFSAII (Michael W. Deem and Ramdas Pophale) SiO2 
 PCOD8210722
Probable space group: P M M A
;
_chemical_formula_sum "Si O2"
_cell_formula_units_Z 56
_cell_length_a 9.026085
_cell_length_b 14.891139
_cell_length_c 20.892489
_cell_angle_alpha 90.000000
_cell_angle_beta 90.000000
_cell_angle_gamma 90.000000
_cell_volume 2808.132001
_symmetry_space_group_name_H-M "P M M A"
_symmetry_group_IT_number 51
_symmetry_cell_setting 'orthorhombic'
loop_
_space_group_symop_operation_xyz
x,y,z
1/2-x,-y,z
1/2+x,-y,-z
-x,y,-z
-x,-y,-z
1/2+x,y,-z
1/2-x,y,z
x,-y,z
loop_
_atom_site_type_symbol
_atom_site_label
_atom_site_fract_x
_atom_site_fract_y
_atom_site_fract_z
Si Si1 0.412606 0.666430 0.441677
Si Si2 0.087482 0.872210 0.439858
Si Si3 0.075974 0.400223 0.197188
Si Si4 0.078076 0.897719 0.694335
Si Si5 0.424042 0.897238 0.936447
Si Si6 0.415418 0.599543 0.672007
Si Si7 0.074529 0.782426 0.816774
O O1 0.500000 0.618481 0.500000
O O2 0.250000 0.620703 0.431794
O O3 0.388865 0.769367 0.457660
O O4 0.516647 0.664772 0.380022
O O5 0.250000 0.917447 0.434540
O O6 0.000000 0.916985 0.500000
O O7 0.006463 0.885078 0.372215
O O8 0.250000 0.383922 0.191408
O O9 0.034683 0.500000 0.168173
O O10 0.028513 0.399417 0.270303
O O11 0.991688 0.315923 0.166185
O O12 0.250000 0.879513 0.680777
O O13 0.021468 0.827050 0.749115
O O14 0.054476 0.000000 0.719492
O O15 0.250000 0.886714 0.944943
O O16 0.481652 0.845032 0.874207
O O17 0.472064 0.000000 0.926821
O O18 0.500000 0.856885 0.000000
O O19 0.250000 0.633003 0.692281
O O20 0.405525 0.500000 0.642703
O O21 0.250000 0.774155 0.816609
#
# Coordination Sequence:
#
# PCOD8210722 Si02
#       7
#     8   8   8   8   8   8   8
#     4  10  20  33  49  68  91 121 161 211 266 325
#     4  10  21  36  53  72  95 129 174 221 269 322
#     4  10  21  36  54  78 108 141 178 223 274 325
#     4  10  21  36  54  78 108 141 177 220 272 327
#     4   9  18  34  57  87 123 160 195 229 269 322
#     4  10  20  33  49  69  94 126 165 210 264 327
#     4  10  20  35  58  85 114 149 187 228 273 324
#
# _framework density 19.942083
#
# number of rings (size 3 to 8) (size 9 to 14) (size 15 to 20)
#    0.000    2.143    0.000    3.000    0.000    9.429 
#    0.000    0.000    0.000    3.000    0.000    0.000 
#    0.000    0.000    0.000    0.000    0.000    0.000 
#
# Total GULP energy -693929.361551 kJ/mol
# GULP energy per Si atom -12391.595742 kJ/mol
# Density = 1.989669 g / cm^3
# Si number density = 19.942083 Si / 1000 Ang^3
#
#
#
# Elastic Constant Matrix: (Units=GPa)
#
#
# Indices 1 2 3 4 5 6 
#
# 1 72.0804 35.8540 44.6672 0.0000 0.0000 0.0000
# 2 35.8540 93.0907 44.1155 0.0000 0.0000 0.0000
# 3 44.6672 44.1155 125.3944 0.0000 0.0000 0.0000
# 4 0.0000 0.0000 0.0000 24.5477 0.0000 0.0000
# 5 0.0000 0.0000 0.0000 0.0000 30.2623 0.0000
# 6 0.0000 0.0000 0.0000 0.0000 0.0000 7.3260
#
#
#
# Elastic Compliance Matrix: (Units=1/GPa)
#
#
# Indices 1 2 3 4 5 6 
#
# 1 0.019631 -0.005097 -0.005200 0.000000 0.000000 0.000000
# 2 -0.005097 0.014215 -0.003185 0.000000 0.000000 0.000000
# 3 -0.005200 -0.003185 0.010948 0.000000 0.000000 0.000000
# 4 0.000000 0.000000 0.000000 0.040737 0.000000 0.000000
# 5 0.000000 0.000000 0.000000 0.000000 0.033044 0.000000
# 6 0.000000 0.000000 0.000000 0.000000 0.000000 0.136500
#
#
# Mechanical properties :
#
#
# Convention : Reuss Voigt Hill
#
# Bulk Modulus (GPa) = 56.08639 59.98211 58.03425
# Shear Modulus (GPa) = 17.36223 23.48912 20.42567
#
# Velocity S-wave (km/s) = 2.95385 3.43573 3.20386
# Velocity P-wave (km/s) = 6.31026 6.77366 6.54606
#
# Compressibility (1/GPa) = 0.01782964
#
# Stress axis : x y z
#
# Youngs Moduli (GPa) = 50.94058 70.34927 91.34333
#
# Poissons Ratio (x) = 0.35855 0.47495
# Poissons Ratio (y) = 0.25963 0.29097
# Poissons Ratio (z) = 0.26487 0.22409
#
# Static dielectric constant tensor:
#      x y z
#    x 3.860460 0.000000 0.000000 
#    y 0.000000 3.922090 0.000000 
#    z 0.000000 0.000000 3.455980 
# 
# 
# High freq. dielectric constant tensor:
#      x y z
#    x 1.780910 0.000000 0.000000 
#    y 0.000000 1.783270 0.000000 
#    z 0.000000 0.000000 1.750470 
# 
# From -- ./inp_files/31999.got.cif
#   From: 2010.03.12/outbox.cif.g09.slc.cpg/sg51_16_cif.got.tgz:31999.got - 2010.04.16 13:43:02.
