data_PCOD8210868
_publ_section_title
;
Structure prediction by ZEFSAII (Michael W. Deem and Ramdas Pophale) SiO2 
 PCOD8210868
Probable space group: P M M A
;
_chemical_formula_sum "Si O2"
_cell_formula_units_Z 64
_cell_length_a 8.825576
_cell_length_b 18.949532
_cell_length_c 20.727919
_cell_angle_alpha 90.000000
_cell_angle_beta 90.000000
_cell_angle_gamma 90.000000
_cell_volume 3466.548259
_symmetry_space_group_name_H-M "P M M A"
_symmetry_group_IT_number 51
_symmetry_cell_setting 'orthorhombic'
loop_
_space_group_symop_operation_xyz
x,y,z
1/2-x,-y,z
1/2+x,-y,-z
-x,y,-z
-x,-y,-z
1/2+x,y,-z
1/2-x,y,z
x,-y,z
loop_
_atom_site_type_symbol
_atom_site_label
_atom_site_fract_x
_atom_site_fract_y
_atom_site_fract_z
Si Si1 0.419240 0.415949 0.798125
Si Si2 0.070879 0.678458 0.567652
Si Si3 0.422601 0.583267 0.329524
Si Si4 0.571773 0.579843 0.062383
Si Si5 0.423046 0.916405 0.676648
Si Si6 0.420839 0.084165 0.935427
Si Si7 0.079445 0.083983 0.193267
Si Si8 0.570192 0.173002 0.568213
O O1 0.250000 0.388507 0.781689
O O2 0.415585 0.500000 0.803337
O O3 0.532999 0.390695 0.742273
O O4 0.473351 0.385577 0.868158
O O5 0.250000 0.687416 0.560141
O O6 0.000000 0.653963 0.500000
O O7 0.033911 0.619024 0.619664
O O8 0.997752 0.752079 0.590077
O O9 0.250000 0.605613 0.342978
O O10 0.445914 0.500000 0.336090
O O11 0.750000 0.581797 0.054974
O O12 0.509233 0.500000 0.062402
O O13 0.500000 0.619945 0.000000
O O14 0.250000 0.891412 0.668248
O O15 0.482508 0.889072 0.745823
O O16 0.527363 0.884864 0.620899
O O17 0.437320 0.000000 0.671932
O O18 0.250000 0.112660 0.933840
O O19 0.506801 0.113985 0.872533
O O20 0.423916 0.000000 0.935293
O O21 0.500000 0.113476 0.000000
O O22 0.250000 0.113043 0.199467
O O23 0.078843 0.000000 0.191166
O O24 0.500000 0.149393 0.500000
O O25 0.750000 0.178643 0.561513
#
# Coordination Sequence:
#
# PCOD8210868 Si02
#       8
#     8   8   8   8   8   8   8   8
#     4   8  14  25  39  57  85 121 158 196 240 287
#     4  11  22  38  58  77 100 129 162 200 244 293
#     4  10  20  33  50  74 102 131 165 204 246 293
#     4   8  13  20  31  49  76 112 153 193 233 280
#     4  10  20  34  52  75 103 134 168 205 246 293
#     4   9  15  22  33  51  78 115 157 198 240 288
#     4   9  16  26  40  60  88 122 159 199 244 291
#     4  11  22  38  58  78 102 130 163 202 245 293
#
# _framework density 18.462168999999999
#
# number of rings (size 3 to 8) (size 9 to 14) (size 15 to 20)
#    0.000    2.500    0.000    5.250    0.000    5.500 
#    0.000    2.500    0.000    0.000    0.000    0.000 
#    0.000    1.000    0.000    8.500    0.000   12.750 
#
# Total GULP energy -793385.259287 kJ/mol
# GULP energy per Si atom -12396.644676 kJ/mol
# Density = 1.842015 g / cm^3
# Si number density = 18.462169 Si / 1000 Ang^3
#
#
#
# Elastic Constant Matrix: (Units=GPa)
#
#
# Indices 1 2 3 4 5 6 
#
# 1 139.1574 24.4627 66.1950 0.0000 0.0000 0.0000
# 2 24.4627 19.9474 33.8189 0.0000 0.0000 0.0000
# 3 66.1950 33.8189 150.4148 0.0000 0.0000 0.0000
# 4 0.0000 0.0000 0.0000 -1.1035 0.0000 0.0000
# 5 0.0000 0.0000 0.0000 0.0000 40.5021 0.0000
# 6 0.0000 0.0000 0.0000 0.0000 0.0000 17.8694
#
#
#
# Elastic Compliance Matrix: (Units=1/GPa)
#
#
# Indices 1 2 3 4 5 6 
#
# 1 0.009747 -0.007565 -0.002589 0.000000 0.000000 0.000000
# 2 -0.007565 0.086884 -0.016206 0.000000 0.000000 0.000000
# 3 -0.002589 -0.016206 0.011431 0.000000 0.000000 0.000000
# 4 0.000000 0.000000 0.000000 -0.906224 0.000000 0.000000
# 5 0.000000 0.000000 0.000000 0.000000 0.024690 0.000000
# 6 0.000000 0.000000 0.000000 0.000000 0.000000 0.055962
#
#
# Mechanical properties :
#
#
# Convention : Reuss Voigt Hill
#
# Bulk Modulus (GPa) = 18.06874 62.05255 40.06064
# Shear Modulus (GPa) = -7.73583 23.78980 8.02698
#
# Velocity S-wave (km/s) = -2.04919 3.59356 2.08740
# Velocity P-wave (km/s) = 2.05164 7.13455 5.24934
#
# Compressibility (1/GPa) = 0.05534421
#
# Stress axis : x y z
#
# Youngs Moduli (GPa) = 102.59166 11.50958 87.47951
#
# Poissons Ratio (x) = 0.08707 0.22647
# Poissons Ratio (y) = 0.77608 1.41767
# Poissons Ratio (z) = 0.26559 0.18652
#
# Static dielectric constant tensor:
#      x y z
#    x 3.523490 0.000000 0.000000 
#    y 0.000000 2.764060 0.000000 
#    z 0.000000 0.000000 3.741170 
# 
# 
# High freq. dielectric constant tensor:
#      x y z
#    x 1.728940 0.000000 0.000000 
#    y 0.000000 1.642050 0.000000 
#    z 0.000000 0.000000 1.738320 
# 
# From -- ./inp_files/32362.got.cif
#   From: 2010.03.12/outbox.cif.g09.slc.cpg/sg51_17_cif.got.tgz:32362.got - 2010.04.16 13:43:02.
