data_PCOD8210233
_publ_section_title
;
Structure prediction by ZEFSAII (Michael W. Deem and Ramdas Pophale) SiO2 
 PCOD8210233
Probable space group: P M M A
;
_chemical_formula_sum "Si O2"
_cell_formula_units_Z 48
_cell_length_a 29.187452
_cell_length_b 9.070321
_cell_length_c 9.938459
_cell_angle_alpha 90.000000
_cell_angle_beta 90.000000
_cell_angle_gamma 90.000000
_cell_volume 2631.103251
_symmetry_space_group_name_H-M "P M M A"
_symmetry_group_IT_number 51
_symmetry_cell_setting 'orthorhombic'
loop_
_space_group_symop_operation_xyz
x,y,z
1/2-x,-y,z
1/2+x,-y,-z
-x,y,-z
-x,-y,-z
1/2+x,y,-z
1/2-x,y,z
x,-y,z
loop_
_atom_site_type_symbol
_atom_site_label
_atom_site_fract_x
_atom_site_fract_y
_atom_site_fract_z
Si Si1 0.118309 0.675614 0.781487
Si Si2 0.526168 0.170513 0.131513
Si Si3 0.699136 0.324749 0.724793
Si Si4 0.965277 0.830526 0.612867
Si Si5 0.301423 0.675196 0.974422
Si Si6 0.877009 0.325133 0.524622
O O1 0.115972 0.500000 0.785295
O O2 0.071749 0.736223 0.844941
O O3 0.161462 0.736328 0.867837
O O4 0.124343 0.734323 0.628618
O O5 0.489222 0.196469 0.246431
O O6 0.540711 0.000000 0.120067
O O7 0.500000 0.227469 0.000000
O O8 0.750000 0.267267 0.690790
O O9 0.697972 0.500000 0.723061
O O10 0.665936 0.261579 0.609168
O O11 0.684999 0.270492 0.874952
O O12 0.921025 0.729633 0.604632
O O13 0.000000 0.775705 0.500000
O O14 0.951106 0.000000 0.589792
O O15 0.250000 0.731697 0.937418
O O16 0.301502 0.500000 0.970189
O O17 0.877092 0.500000 0.524028
#
# Coordination Sequence:
#
# PCOD8210233 Si02
#       6
#     8   8   8   8   8   8
#     4  10  20  32  49  77 105 128 162 206 248 287
#     4  10  22  38  53  71  97 131 169 205 244 296
#     4   8  15  29  48  71 100 132 164 198 241 293
#     4  10  20  36  54  70  95 134 169 197 241 298
#     4   8  15  29  48  70  99 133 164 197 242 294
#     4  10  20  31  49  78 104 128 162 206 247 284
#
# _framework density 18.243297999999999
#
# number of rings (size 3 to 8) (size 9 to 14) (size 15 to 20)
#    0.000    2.667    1.667    1.000    2.333    2.000 
#    0.000    3.333    0.000    1.000    0.000    4.667 
#    0.000    0.000    0.000    0.000    0.000    0.000 
#
# Total GULP energy -595039.832212 kJ/mol
# GULP energy per Si atom -12396.663171 kJ/mol
# Density = 1.820178 g / cm^3
# Si number density = 18.243298 Si / 1000 Ang^3
#
#
#
# Elastic Constant Matrix: (Units=GPa)
#
#
# Indices 1 2 3 4 5 6 
#
# 1 140.6119 20.9842 75.7888 0.0000 0.0000 0.0000
# 2 20.9842 11.4931 18.6121 0.0000 0.0000 0.0000
# 3 75.7888 18.6121 113.0022 0.0000 0.0000 0.0000
# 4 0.0000 0.0000 0.0000 20.6442 0.0000 0.0000
# 5 0.0000 0.0000 0.0000 0.0000 30.6917 0.0000
# 6 0.0000 0.0000 0.0000 0.0000 0.0000 -7.2488
#
#
#
# Elastic Compliance Matrix: (Units=1/GPa)
#
#
# Indices 1 2 3 4 5 6 
#
# 1 0.012314 -0.012422 -0.006213 0.000000 0.000000 0.000000
# 2 -0.012422 0.131189 -0.013276 0.000000 0.000000 0.000000
# 3 -0.006213 -0.013276 0.015203 0.000000 0.000000 0.000000
# 4 0.000000 0.000000 0.000000 0.048440 0.000000 0.000000
# 5 0.000000 0.000000 0.000000 0.000000 0.032582 0.000000
# 6 0.000000 0.000000 0.000000 0.000000 0.000000 -0.137954
#
#
# Mechanical properties :
#
#
# Convention : Reuss Voigt Hill
#
# Bulk Modulus (GPa) = 10.53922 55.09746 32.81834
# Shear Modulus (GPa) = 25.35173 18.79890 22.07531
#
# Velocity S-wave (km/s) = 3.73184 3.21355 3.48235
# Velocity P-wave (km/s) = 4.93542 6.63598 5.84785
#
# Compressibility (1/GPa) = 0.09488371
#
# Stress axis : x y z
#
# Youngs Moduli (GPa) = 81.20580 7.62258 65.77632
#
# Poissons Ratio (x) = 0.09469 0.40867
# Poissons Ratio (y) = 1.00875 0.87326
# Poissons Ratio (z) = 0.50454 0.10120
#
# Static dielectric constant tensor:
#      x y z
#    x 3.537230 0.000000 0.000000 
#    y 0.000000 2.917770 0.000000 
#    z 0.000000 0.000000 3.721310 
# 
# 
# High freq. dielectric constant tensor:
#      x y z
#    x 1.715560 0.000000 0.000000 
#    y 0.000000 1.658950 0.000000 
#    z 0.000000 0.000000 1.721810 
# 
# From -- ./inp_files/12304.got.cif
#   From: 2010.03.12/outbox.cif.g09.slc.cpg/sg51_7_cif.got.tgz:12304.got - 2010.04.16 13:43:02.
