data_PCOD8210736
_publ_section_title
;
Structure prediction by ZEFSAII (Michael W. Deem and Ramdas Pophale) SiO2 
 PCOD8210736
Probable space group: P M M A
;
_chemical_formula_sum "Si O2"
_cell_formula_units_Z 36
_cell_length_a 9.347895
_cell_length_b 10.330736
_cell_length_c 19.630226
_cell_angle_alpha 90.000000
_cell_angle_beta 90.000000
_cell_angle_gamma 90.000000
_cell_volume 1895.703398
_symmetry_space_group_name_H-M "P M M A"
_symmetry_group_IT_number 51
_symmetry_cell_setting 'orthorhombic'
loop_
_space_group_symop_operation_xyz
x,y,z
1/2-x,-y,z
1/2+x,-y,-z
-x,y,-z
-x,-y,-z
1/2+x,y,-z
1/2-x,y,z
x,-y,z
loop_
_atom_site_type_symbol
_atom_site_label
_atom_site_fract_x
_atom_site_fract_y
_atom_site_fract_z
Si Si1 0.406942 0.846765 0.060802
Si Si2 0.919117 0.150328 0.786899
Si Si3 0.416978 0.500000 0.572162
Si Si4 0.593598 0.145644 0.558127
Si Si5 0.581105 0.745291 0.333822
O O1 0.250000 0.785990 0.053110
O O2 0.466488 0.814542 0.136009
O O3 0.398561 0.000000 0.052310
O O4 0.500000 0.784678 0.000000
O O5 0.750000 0.173418 0.775967
O O6 0.012024 0.250499 0.741366
O O7 0.956368 0.000000 0.771024
O O8 0.250000 0.500000 0.554374
O O9 0.500000 0.500000 0.500000
O O10 0.457705 0.619591 0.621383
O O11 0.500000 0.219797 0.500000
O O12 0.750000 0.213710 0.566100
O O13 0.502800 0.140215 0.627458
O O14 0.620993 0.000000 0.533853
O O15 0.750000 0.769526 0.329051
#
# Coordination Sequence:
#
# PCOD8210736 Si02
#       5
#     8   8   4   8   8
#     4   8  14  25  42  66  99 136 168 196 228 273
#     4   9  18  32  49  73 106 138 165 197 240 288
#     4  10  24  42  56  72  93 120 159 208 255 296
#     4  10  20  33  49  70  96 123 151 187 233 286
#     4  11  22  35  51  71  95 123 159 202 246 292
#
# _framework density 18.990310999999998
#
# number of rings (size 3 to 8) (size 9 to 14) (size 15 to 20)
#    0.000    2.444    0.000    4.000    0.000    8.889 
#    0.000    2.222    0.000    0.000    0.000    0.778 
#    0.000    0.000    0.000    0.000    0.000    0.000 
#
# Total GULP energy -445978.563376 kJ/mol
# GULP energy per Si atom -12388.293427 kJ/mol
# Density = 1.894709 g / cm^3
# Si number density = 18.990311 Si / 1000 Ang^3
#
#
#
# Elastic Constant Matrix: (Units=GPa)
#
#
# Indices 1 2 3 4 5 6 
#
# 1 130.6588 31.3267 93.1220 0.0000 0.0000 0.0000
# 2 31.3267 41.0226 38.2950 0.0000 0.0000 0.0000
# 3 93.1220 38.2950 178.4188 0.0000 0.0000 0.0000
# 4 0.0000 0.0000 0.0000 19.2308 0.0000 0.0000
# 5 0.0000 0.0000 0.0000 0.0000 42.1418 0.0000
# 6 0.0000 0.0000 0.0000 0.0000 0.0000 15.6018
#
#
#
# Elastic Compliance Matrix: (Units=1/GPa)
#
#
# Indices 1 2 3 4 5 6 
#
# 1 0.012798 -0.004424 -0.005730 0.000000 0.000000 0.000000
# 2 -0.004424 0.032014 -0.004562 0.000000 0.000000 0.000000
# 3 -0.005730 -0.004562 0.009575 0.000000 0.000000 0.000000
# 4 0.000000 0.000000 0.000000 0.052000 0.000000 0.000000
# 5 0.000000 0.000000 0.000000 0.000000 0.023729 0.000000
# 6 0.000000 0.000000 0.000000 0.000000 0.000000 0.064095
#
#
# Mechanical properties :
#
#
# Convention : Reuss Voigt Hill
#
# Bulk Modulus (GPa) = 40.07377 75.06529 57.56953
# Shear Modulus (GPa) = 21.55516 27.88530 24.72023
#
# Velocity S-wave (km/s) = 3.37272 3.83612 3.61186
# Velocity P-wave (km/s) = 6.02620 7.69644 6.91195
#
# Compressibility (1/GPa) = 0.02495398
#
# Stress axis : x y z
#
# Youngs Moduli (GPa) = 78.13586 31.23612 104.44103
#
# Poissons Ratio (x) = 0.13819 0.59847
# Poissons Ratio (y) = 0.34568 0.47649
# Poissons Ratio (z) = 0.44773 0.14251
#
# Static dielectric constant tensor:
#      x y z
#    x 3.805120 0.000000 0.000000 
#    y 0.000000 3.051050 0.000000 
#    z 0.000000 0.000000 3.685610 
# 
# 
# High freq. dielectric constant tensor:
#      x y z
#    x 1.746050 0.000000 0.000000 
#    y 0.000000 1.681120 0.000000 
#    z 0.000000 0.000000 1.747850 
# 
# From -- ./inp_files/31315.got.cif
#   From: 2010.03.12/outbox.cif.g09.slc.cpg/sg51_16_cif.got.tgz:31315.got - 2010.04.16 13:43:02.
