data_PCOD8210632
_publ_section_title
;
Structure prediction by ZEFSAII (Michael W. Deem and Ramdas Pophale) SiO2 
 PCOD8210632
Probable space group: P M M A
;
_chemical_formula_sum "Si O2"
_cell_formula_units_Z 64
_cell_length_a 23.278897
_cell_length_b 13.993565
_cell_length_c 9.668201
_cell_angle_alpha 90.000000
_cell_angle_beta 90.000000
_cell_angle_gamma 90.000000
_cell_volume 3149.462480
_symmetry_space_group_name_H-M "P M M A"
_symmetry_group_IT_number 51
_symmetry_cell_setting 'orthorhombic'
loop_
_space_group_symop_operation_xyz
x,y,z
1/2-x,-y,z
1/2+x,-y,-z
-x,y,-z
-x,-y,-z
1/2+x,y,-z
1/2-x,y,z
x,-y,z
loop_
_atom_site_type_symbol
_atom_site_label
_atom_site_fract_x
_atom_site_fract_y
_atom_site_fract_z
Si Si1 0.896564 0.607542 0.360722
Si Si2 0.920034 0.299603 0.624914
Si Si3 0.497373 0.389932 0.839759
Si Si4 0.116715 0.892956 0.482922
Si Si5 0.816606 0.748962 0.997098
Si Si6 0.181551 0.227567 0.695454
Si Si7 0.314186 0.895604 0.211794
Si Si8 0.816547 0.390557 0.770253
O O1 0.874075 0.500000 0.371121
O O2 0.936291 0.633354 0.493862
O O3 0.933297 0.622705 0.220567
O O4 0.839999 0.673534 0.371902
O O5 0.927400 0.189043 0.572114
O O6 0.854150 0.323835 0.669010
O O7 0.960635 0.320633 0.754689
O O8 0.517739 0.500000 0.824084
O O9 0.500000 0.358161 0.000000
O O10 0.148850 0.861203 0.623890
O O11 0.163896 0.900199 0.365886
O O12 0.088848 0.000000 0.504479
O O13 0.750000 0.774226 0.014241
O O14 0.847379 0.823349 0.890868
O O15 0.825024 0.643458 0.930679
O O16 0.842695 0.763628 0.148302
O O17 0.250000 0.217493 0.681164
O O18 0.250000 0.856403 0.225279
O O19 0.317135 0.000000 0.142524
O O20 0.750000 0.379278 0.726377
O O21 0.837243 0.500000 0.761702
#
# Coordination Sequence:
#
# PCOD8210632 Si02
#       8
#     8   8   8   8   8   8   8   8
#     4  10  22  38  57  84 118 153 195 243 290 350
#     4  11  21  37  61  84 115 154 196 245 300 357
#     4  10  22  39  62  90 117 153 201 250 302 361
#     4  10  21  36  56  83 113 150 196 243 294 350
#     4   9  18  32  47  71 108 149 192 234 280 339
#     4  10  22  36  54  82 119 158 193 235 295 357
#     4   9  16  28  48  71  98 137 185 232 276 327
#     4  10  20  32  51  82 118 156 196 237 288 355
#
# _framework density 20.320929
#
# number of rings (size 3 to 8) (size 9 to 14) (size 15 to 20)
#    0.000    2.125    1.250    1.875    1.750    5.000 
#    0.000    2.500    0.000    6.375    0.000    0.000 
#    0.000    0.000    0.000    0.000    0.000    0.000 
#
# Total GULP energy -792973.276805 kJ/mol
# GULP energy per Si atom -12390.207450 kJ/mol
# Density = 2.027468 g / cm^3
# Si number density = 20.320929 Si / 1000 Ang^3
#
#
#
# Elastic Constant Matrix: (Units=GPa)
#
#
# Indices 1 2 3 4 5 6 
#
# 1 29.0768 16.8867 11.9443 0.0000 0.0000 0.0000
# 2 16.8867 121.3312 35.0627 0.0000 0.0000 0.0000
# 3 11.9443 35.0627 118.7779 0.0000 0.0000 0.0000
# 4 0.0000 0.0000 0.0000 27.8223 0.0000 0.0000
# 5 0.0000 0.0000 0.0000 0.0000 26.5421 0.0000
# 6 0.0000 0.0000 0.0000 0.0000 0.0000 17.2965
#
#
#
# Elastic Compliance Matrix: (Units=1/GPa)
#
#
# Indices 1 2 3 4 5 6 
#
# 1 0.038070 -0.004583 -0.002475 0.000000 0.000000 0.000000
# 2 -0.004583 0.009562 -0.002362 0.000000 0.000000 0.000000
# 3 -0.002475 -0.002362 0.009365 0.000000 0.000000 0.000000
# 4 0.000000 0.000000 0.000000 0.035942 0.000000 0.000000
# 5 0.000000 0.000000 0.000000 0.000000 0.037676 0.000000
# 6 0.000000 0.000000 0.000000 0.000000 0.000000 0.057815
#
#
# Mechanical properties :
#
#
# Convention : Reuss Voigt Hill
#
# Bulk Modulus (GPa) = 26.20760 44.10815 35.15788
# Shear Modulus (GPa) = 22.72816 28.01832 25.37324
#
# Velocity S-wave (km/s) = 3.34797 3.71724 3.53742
# Velocity P-wave (km/s) = 5.27921 6.33851 5.83296
#
# Compressibility (1/GPa) = 0.03815687
#
# Stress axis : x y z
#
# Youngs Moduli (GPa) = 26.26718 104.57703 106.77812
#
# Poissons Ratio (x) = 0.47930 0.26432
# Poissons Ratio (y) = 0.12039 0.25220
# Poissons Ratio (z) = 0.06502 0.24700
#
# Static dielectric constant tensor:
#      x y z
#    x 3.262660 0.000000 0.000000 
#    y 0.000000 3.980320 0.000000 
#    z 0.000000 0.000000 3.980570 
# 
# 
# High freq. dielectric constant tensor:
#      x y z
#    x 1.753990 0.000000 0.000000 
#    y 0.000000 1.793740 0.000000 
#    z 0.000000 0.000000 1.804860 
# 
# From -- ./inp_files/11909.got.cif
#   From: 2010.03.12/outbox.cif.g09.slc.cpg/sg51_6_cif.got.tgz:11909.got - 2010.04.16 13:43:02.
