data_PCOD8210335
_publ_section_title
;
Structure prediction by ZEFSAII (Michael W. Deem and Ramdas Pophale) SiO2 
 PCOD8210335
Probable space group: P M M A
;
_chemical_formula_sum "Si O2"
_cell_formula_units_Z 52
_cell_length_a 9.151481
_cell_length_b 17.576929
_cell_length_c 18.309773
_cell_angle_alpha 90.000000
_cell_angle_beta 90.000000
_cell_angle_gamma 90.000000
_cell_volume 2945.217287
_symmetry_space_group_name_H-M "P M M A"
_symmetry_group_IT_number 51
_symmetry_cell_setting 'orthorhombic'
loop_
_space_group_symop_operation_xyz
x,y,z
1/2-x,-y,z
1/2+x,-y,-z
-x,y,-z
-x,-y,-z
1/2+x,y,-z
1/2-x,y,z
x,-y,z
loop_
_atom_site_type_symbol
_atom_site_label
_atom_site_fract_x
_atom_site_fract_y
_atom_site_fract_z
Si Si1 0.579507 0.583295 0.158913
Si Si2 0.418346 0.914487 0.780079
Si Si3 0.422924 0.119591 0.071436
Si Si4 0.577482 0.500000 0.423067
Si Si5 0.915549 0.220685 0.719918
Si Si6 0.910320 0.281601 0.883414
Si Si7 0.578800 0.637220 0.320022
O O1 0.750000 0.583655 0.147575
O O2 0.515394 0.500000 0.139467
O O3 0.516421 0.646918 0.104159
O O4 0.537747 0.601406 0.242131
O O5 0.250000 0.888912 0.792323
O O6 0.502774 0.914936 0.857027
O O7 0.494206 0.858509 0.721002
O O8 0.425611 0.000000 0.748146
O O9 0.250000 0.100843 0.073057
O O10 0.452602 0.210214 0.066579
O O11 0.500000 0.083284 0.000000
O O12 0.750000 0.500000 0.433781
O O13 0.500000 0.500000 0.500000
O O14 0.528795 0.575987 0.380177
O O15 0.750000 0.205633 0.692695
O O16 0.917333 0.252636 0.801007
O O17 0.992190 0.283388 0.667589
O O18 0.750000 0.311528 0.902797
O O19 0.750000 0.655156 0.325080
#
# Coordination Sequence:
#
# PCOD8210335 Si02
#       7
#     8   8   8   4   8   8   8
#     4   9  15  24  41  63  83 106 141 184 228 273
#     4  10  20  33  49  70  95 122 152 187 233 286
#     4  10  20  33  48  64  85 114 151 188 228 281
#     4  10  20  32  46  68 102 142 177 208 239 270
#     4   9  17  29  46  68  92 119 153 193 238 281
#     4   8  16  28  40  59  83 106 136 179 228 274
#     4   9  16  29  46  64  92 128 165 199 233 275
#
# _framework density 17.655743000000001
#
# number of rings (size 3 to 8) (size 9 to 14) (size 15 to 20)
#    0.000    2.769    0.769    2.308    0.000    6.769 
#    0.000    0.000    0.000    0.462    0.000    0.000 
#    0.000    0.615    0.000    2.000    0.000    2.462 
#
# Total GULP energy -644498.202818 kJ/mol
# GULP energy per Si atom -12394.196208 kJ/mol
# Density = 1.761556 g / cm^3
# Si number density = 17.655743 Si / 1000 Ang^3
#
#
#
# Elastic Constant Matrix: (Units=GPa)
#
#
# Indices 1 2 3 4 5 6 
#
# 1 89.6483 58.4531 22.1737 0.0000 0.0000 0.0000
# 2 58.4531 126.6188 21.7070 0.0000 0.0000 0.0000
# 3 22.1737 21.7070 36.2637 0.0000 0.0000 0.0000
# 4 0.0000 0.0000 0.0000 8.5381 0.0000 0.0000
# 5 0.0000 0.0000 0.0000 0.0000 19.9240 0.0000
# 6 0.0000 0.0000 0.0000 0.0000 0.0000 25.6578
#
#
#
# Elastic Compliance Matrix: (Units=1/GPa)
#
#
# Indices 1 2 3 4 5 6 
#
# 1 0.017204 -0.006841 -0.006425 0.000000 0.000000 0.000000
# 2 -0.006841 0.011521 -0.002713 0.000000 0.000000 0.000000
# 3 -0.006425 -0.002713 0.033128 0.000000 0.000000 0.000000
# 4 0.000000 0.000000 0.000000 0.117123 0.000000 0.000000
# 5 0.000000 0.000000 0.000000 0.000000 0.050191 0.000000
# 6 0.000000 0.000000 0.000000 0.000000 0.000000 0.038975
#
#
# Mechanical properties :
#
#
# Convention : Reuss Voigt Hill
#
# Bulk Modulus (GPa) = 33.44983 50.79983 42.12483
# Shear Modulus (GPa) = 16.12567 20.83710 18.48139
#
# Velocity S-wave (km/s) = 3.02543 3.43911 3.23888
# Velocity P-wave (km/s) = 5.58489 6.67869 6.15613
#
# Compressibility (1/GPa) = 0.02989552
#
# Stress axis : x y z
#
# Youngs Moduli (GPa) = 58.12532 86.79854 30.18552
#
# Poissons Ratio (x) = 0.59377 0.19394
# Poissons Ratio (y) = 0.39762 0.08191
# Poissons Ratio (z) = 0.37344 0.23552
#
# Static dielectric constant tensor:
#      x y z
#    x 3.388130 0.000000 0.000000 
#    y 0.000000 3.592610 0.000000 
#    z 0.000000 0.000000 2.756930 
# 
# 
# High freq. dielectric constant tensor:
#      x y z
#    x 1.689010 0.000000 0.000000 
#    y 0.000000 1.693820 0.000000 
#    z 0.000000 0.000000 1.614800 
# 
# From -- ./inp_files/32242.got.cif
#   From: 2010.03.12/outbox.cif.g09.slc.cpg/sg51_17_cif.got.tgz:32242.got - 2010.04.16 13:43:02.
