data_PCOD8210783
_publ_section_title
;
Structure prediction by ZEFSAII (Michael W. Deem and Ramdas Pophale) SiO2 
 PCOD8210783
Probable space group: P M M A
;
_chemical_formula_sum "Si O2"
_cell_formula_units_Z 64
_cell_length_a 29.538192
_cell_length_b 8.910049
_cell_length_c 12.906427
_cell_angle_alpha 90.000000
_cell_angle_beta 90.000000
_cell_angle_gamma 90.000000
_cell_volume 3396.800423
_symmetry_space_group_name_H-M "P M M A"
_symmetry_group_IT_number 51
_symmetry_cell_setting 'orthorhombic'
loop_
_space_group_symop_operation_xyz
x,y,z
1/2-x,-y,z
1/2+x,-y,-z
-x,y,-z
-x,-y,-z
1/2+x,y,-z
1/2-x,y,z
x,-y,z
loop_
_atom_site_type_symbol
_atom_site_label
_atom_site_fract_x
_atom_site_fract_y
_atom_site_fract_z
Si Si1 0.133085 0.823759 0.098909
Si Si2 0.024015 0.663887 0.292629
Si Si3 0.802226 0.174013 0.086458
Si Si4 0.543360 0.333129 0.944472
Si Si5 0.461305 0.176288 0.576517
Si Si6 0.303327 0.673570 0.702575
Si Si7 0.361341 0.178736 0.525269
Si Si8 0.875908 0.678962 0.682462
O O1 0.086346 0.774709 0.044549
O O2 0.142484 0.740572 0.207770
O O3 0.132008 0.000000 0.121119
O O4 0.172059 0.777832 0.018019
O O5 0.014535 0.500000 0.341555
O O6 0.029459 0.647719 0.172360
O O7 0.071786 0.729351 0.335753
O O8 0.980904 0.771674 0.312658
O O9 0.750000 0.210220 0.065475
O O10 0.820193 0.266504 0.185757
O O11 0.810559 0.000000 0.111776
O O12 0.554261 0.500000 0.990161
O O13 0.500000 0.259077 0.000000
O O14 0.500000 0.243429 0.500000
O O15 0.411235 0.239706 0.557036
O O16 0.459322 0.000000 0.568864
O O17 0.250000 0.699579 0.691746
O O18 0.316747 0.500000 0.692834
O O19 0.326270 0.766161 0.610746
O O20 0.348103 0.249377 0.413362
O O21 0.359256 0.000000 0.517341
O O22 0.870784 0.500000 0.684278
#
# Coordination Sequence:
#
# PCOD8210783 Si02
#       8
#     8   8   8   8   8   8   8   8
#     4  10  20  34  56  83 109 141 183 229 278 330
#     4   9  18  31  49  72 100 140 182 220 265 316
#     4   9  19  38  62  86 113 143 178 223 276 334
#     4   9  19  35  51  71 104 144 181 219 269 326
#     4  10  20  33  49  74 107 140 177 223 266 312
#     4  10  22  40  61  85 112 143 182 229 280 331
#     4  11  22  36  57  83 113 150 189 229 280 334
#     4  10  20  35  54  78 110 148 187 226 272 326
#
# _framework density 18.841258
#
# number of rings (size 3 to 8) (size 9 to 14) (size 15 to 20)
#    0.000    2.250    1.250    2.250    0.000    6.250 
#    0.000    3.125    0.000    2.250    0.000    0.000 
#    0.000    0.000    0.000    0.000    0.000    0.000 
#
# Total GULP energy -793380.938809 kJ/mol
# GULP energy per Si atom -12396.577169 kJ/mol
# Density = 1.879837 g / cm^3
# Si number density = 18.841258 Si / 1000 Ang^3
#
#
#
# Elastic Constant Matrix: (Units=GPa)
#
#
# Indices 1 2 3 4 5 6 
#
# 1 68.5221 37.5751 60.0624 0.0000 0.0000 0.0000
# 2 37.5751 79.0126 55.6365 0.0000 0.0000 0.0000
# 3 60.0624 55.6365 107.3963 0.0000 0.0000 0.0000
# 4 0.0000 0.0000 0.0000 33.6047 0.0000 0.0000
# 5 0.0000 0.0000 0.0000 0.0000 34.1771 0.0000
# 6 0.0000 0.0000 0.0000 0.0000 0.0000 27.5098
#
#
#
# Elastic Compliance Matrix: (Units=1/GPa)
#
#
# Indices 1 2 3 4 5 6 
#
# 1 0.029325 -0.003774 -0.014445 0.000000 0.000000 0.000000
# 2 -0.003774 0.020410 -0.008463 0.000000 0.000000 0.000000
# 3 -0.014445 -0.008463 0.021774 0.000000 0.000000 0.000000
# 4 0.000000 0.000000 0.000000 0.029758 0.000000 0.000000
# 5 0.000000 0.000000 0.000000 0.000000 0.029259 0.000000
# 6 0.000000 0.000000 0.000000 0.000000 0.000000 0.036351
#
#
# Mechanical properties :
#
#
# Convention : Reuss Voigt Hill
#
# Bulk Modulus (GPa) = 55.11123 62.38656 58.74889
# Shear Modulus (GPa) = 22.09559 25.83546 23.96553
#
# Velocity S-wave (km/s) = 3.42822 3.70701 3.57034
# Velocity P-wave (km/s) = 6.70702 7.17678 6.94587
#
# Compressibility (1/GPa) = 0.01814512
#
# Stress axis : x y z
#
# Youngs Moduli (GPa) = 34.10019 48.99560 45.92656
#
# Poissons Ratio (x) = 0.18493 0.66342
# Poissons Ratio (y) = 0.12871 0.38865
# Poissons Ratio (z) = 0.49258 0.41463
#
# Static dielectric constant tensor:
#      x y z
#    x 3.857470 0.000000 0.000000 
#    y 0.000000 3.457860 0.000000 
#    z 0.000000 0.000000 3.589700 
# 
# 
# High freq. dielectric constant tensor:
#      x y z
#    x 1.714010 0.000000 0.000000 
#    y 0.000000 1.733900 0.000000 
#    z 0.000000 0.000000 1.736650 
# 
# From -- ./inp_files/19575.got.cif
#   From: 2010.03.12/outbox.cif.g09.slc.cpg/sg51_10_cif.got.tgz:19575.got - 2010.04.16 13:43:02.
