data_PCOD8210901
_publ_section_title
;
Structure prediction by ZEFSAII (Michael W. Deem and Ramdas Pophale) SiO2 
 PCOD8210901
Probable space group: P M M A
;
_chemical_formula_sum "Si O2"
_cell_formula_units_Z 64
_cell_length_a 15.528324
_cell_length_b 9.219176
_cell_length_c 23.352566
_cell_angle_alpha 90.000000
_cell_angle_beta 90.000000
_cell_angle_gamma 90.000000
_cell_volume 3343.114862
_symmetry_space_group_name_H-M "P M M A"
_symmetry_group_IT_number 51
_symmetry_cell_setting 'orthorhombic'
loop_
_space_group_symop_operation_xyz
x,y,z
1/2-x,-y,z
1/2+x,-y,-z
-x,y,-z
-x,-y,-z
1/2+x,y,-z
1/2-x,y,z
x,-y,z
loop_
_atom_site_type_symbol
_atom_site_label
_atom_site_fract_x
_atom_site_fract_y
_atom_site_fract_z
Si Si1 0.653660 0.835406 0.178068
Si Si2 0.347300 0.667644 0.561793
Si Si3 0.347989 0.162282 0.032588
Si Si4 0.597860 0.337039 0.072544
Si Si5 0.348659 0.829778 0.445314
Si Si6 0.413158 0.339599 0.128887
Si Si7 0.490949 0.331108 0.761208
Si Si8 0.014817 0.668064 0.368996
O O1 0.750000 0.831883 0.202930
O O2 0.654071 0.754116 0.117278
O O3 0.594170 0.759694 0.225191
O O4 0.621924 0.000000 0.168172
O O5 0.250000 0.702228 0.584260
O O6 0.354282 0.500000 0.543672
O O7 0.370191 0.762748 0.506798
O O8 0.417853 0.706224 0.610076
O O9 0.250000 0.159864 0.011940
O O10 0.351214 0.226140 0.097253
O O11 0.386678 0.000000 0.032898
O O12 0.401401 0.262205 0.989387
O O13 0.635344 0.500000 0.067224
O O14 0.501145 0.341452 0.093891
O O15 0.250000 0.794880 0.427709
O O16 0.412754 0.763233 0.399065
O O17 0.365220 0.000000 0.449106
O O18 0.371010 0.500000 0.128462
O O19 0.432473 0.290598 0.194329
O O20 0.466508 0.500000 0.768209
O O21 0.522045 0.293845 0.697779
O O22 0.035229 0.500000 0.380874
#
# Coordination Sequence:
#
# PCOD8210901 Si02
#       8
#     8   8   8   8   8   8   8   8
#     4  10  20  33  50  75 107 140 173 210 254 307
#     4   9  18  33  54  82 115 147 178 215 262 318
#     4  11  23  35  49  74 103 128 160 204 254 309
#     4  10  20  34  54  78 101 128 165 207 253 308
#     4  10  21  36  54  79 111 146 183 223 270 321
#     4   9  19  36  54  72  96 128 166 205 248 301
#     4   9  20  37  55  76 102 134 176 220 259 306
#     4  10  20  35  57  83 109 141 182 226 271 317
#
# _framework density 19.143823000000001
#
# number of rings (size 3 to 8) (size 9 to 14) (size 15 to 20)
#    0.000    2.250    0.000    3.375    0.000   11.250 
#    0.000    1.875    0.000    5.250    0.000    0.000 
#    0.000    0.000    0.000    0.000    0.000    0.000 
#
# Total GULP energy -793598.443896 kJ/mol
# GULP energy per Si atom -12399.975686 kJ/mol
# Density = 1.910025 g / cm^3
# Si number density = 19.143823 Si / 1000 Ang^3
#
#
#
# Elastic Constant Matrix: (Units=GPa)
#
#
# Indices 1 2 3 4 5 6 
#
# 1 56.7085 32.2667 39.7956 0.0000 0.0000 0.0000
# 2 32.2667 109.4095 55.5443 0.0000 0.0000 0.0000
# 3 39.7956 55.5443 127.9370 0.0000 0.0000 0.0000
# 4 0.0000 0.0000 0.0000 9.7851 0.0000 0.0000
# 5 0.0000 0.0000 0.0000 0.0000 17.9611 0.0000
# 6 0.0000 0.0000 0.0000 0.0000 0.0000 -119.7154
#
#
#
# Elastic Compliance Matrix: (Units=1/GPa)
#
#
# Indices 1 2 3 4 5 6 
#
# 1 0.023983 -0.004215 -0.005630 0.000000 0.000000 0.000000
# 2 -0.004215 0.012465 -0.004101 0.000000 0.000000 0.000000
# 3 -0.005630 -0.004101 0.011348 0.000000 0.000000 0.000000
# 4 0.000000 0.000000 0.000000 0.102197 0.000000 0.000000
# 5 0.000000 0.000000 0.000000 0.000000 0.055676 0.000000
# 6 0.000000 0.000000 0.000000 0.000000 0.000000 -0.008353
#
#
# Mechanical properties :
#
#
# Convention : Reuss Voigt Hill
#
# Bulk Modulus (GPa) = 50.23926 61.02981 55.63453
# Shear Modulus (GPa) = 21.56646 -7.29728 7.13459
#
# Velocity S-wave (km/s) = 3.36005 -1.95451 1.93260
# Velocity P-wave (km/s) = 6.43065 5.18222 5.83989
#
# Compressibility (1/GPa) = 0.01990475
#
# Stress axis : x y z
#
# Youngs Moduli (GPa) = 41.69564 80.22643 88.12142
#
# Poissons Ratio (x) = 0.33813 0.49615
# Poissons Ratio (y) = 0.17574 0.36135
# Poissons Ratio (z) = 0.23476 0.32898
#
# Static dielectric constant tensor:
#      x y z
#    x 3.398190 0.000000 0.000000 
#    y 0.000000 3.648130 0.000000 
#    z 0.000000 0.000000 3.523180 
# 
# 
# High freq. dielectric constant tensor:
#      x y z
#    x 1.734900 0.000000 0.000000 
#    y 0.000000 1.749510 0.000000 
#    z 0.000000 0.000000 1.734600 
# 
# From -- ./inp_files/35769.got.cif
#   From: 2010.03.12/outbox.cif.g09.slc.cpg/sg51_18_cif.got.tgz:35769.got - 2010.04.16 13:43:02.
