data_PCOD8210745
_publ_section_title
;
Structure prediction by ZEFSAII (Michael W. Deem and Ramdas Pophale) SiO2 
 PCOD8210745
Probable space group: P M M A
;
_chemical_formula_sum "Si O2"
_cell_formula_units_Z 56
_cell_length_a 14.625981
_cell_length_b 9.450995
_cell_length_c 21.821186
_cell_angle_alpha 90.000000
_cell_angle_beta 90.000000
_cell_angle_gamma 90.000000
_cell_volume 3016.344140
_symmetry_space_group_name_H-M "P M M A"
_symmetry_group_IT_number 51
_symmetry_cell_setting 'orthorhombic'
loop_
_space_group_symop_operation_xyz
x,y,z
1/2-x,-y,z
1/2+x,-y,-z
-x,y,-z
-x,-y,-z
1/2+x,y,-z
1/2-x,y,z
x,-y,z
loop_
_atom_site_type_symbol
_atom_site_label
_atom_site_fract_x
_atom_site_fract_y
_atom_site_fract_z
Si Si1 0.499319 0.164446 0.777903
Si Si2 0.351205 0.168541 0.682283
Si Si3 0.352669 0.667425 0.999565
Si Si4 0.999403 0.667505 0.902760
Si Si5 0.140890 0.659516 0.435886
Si Si6 0.141070 0.157801 0.547750
Si Si7 0.854683 0.161744 0.678620
O O1 0.417574 0.223547 0.735410
O O2 0.501571 0.254278 0.838850
O O3 0.593171 0.190365 0.741777
O O4 0.485320 0.000000 0.794290
O O5 0.250000 0.229497 0.695660
O O6 0.387059 0.217149 0.615059
O O7 0.348963 0.000000 0.681330
O O8 0.250000 0.734081 0.999386
O O9 0.345639 0.500000 0.999972
O O10 0.409062 0.714515 0.939298
O O11 0.409173 0.715773 0.059580
O O12 0.998703 0.500000 0.892001
O O13 0.250000 0.662564 0.437476
O O14 0.103276 0.500000 0.434831
O O15 0.100996 0.738082 0.495908
O O16 0.105741 0.740346 0.375406
O O17 0.250000 0.151870 0.544470
O O18 0.101794 0.000000 0.536534
O O19 0.750000 0.197713 0.692604
O O20 0.867938 0.000000 0.656920
#
# Coordination Sequence:
#
# PCOD8210745 Si02
#       7
#     8   8   8   8   8   8   8
#     4  10  20  33  49  70  98 129 158 192 234 276
#     4   8  15  29  48  68  90 120 159 197 233 281
#     4   8  15  31  54  76  99 128 160 191 223 266
#     4   9  18  32  51  75  99 125 159 194 227 268
#     4   9  16  26  43  67  91 115 149 198 251 291
#     4   8  13  24  44  65  84 112 151 193 238 288
#     4   9  18  32  47  63  88 125 164 195 228 279
#
# _framework density 18.565519999999999
#
# number of rings (size 3 to 8) (size 9 to 14) (size 15 to 20)
#    0.000    3.286    0.000    2.143    0.000    3.429 
#    0.000    2.857    0.000    6.000    0.000    0.000 
#    0.000    0.000    0.000    0.000    0.000    0.000 
#
# Total GULP energy -694127.197790 kJ/mol
# GULP energy per Si atom -12395.128532 kJ/mol
# Density = 1.852326 g / cm^3
# Si number density = 18.565520 Si / 1000 Ang^3
#
#
#
# Elastic Constant Matrix: (Units=GPa)
#
#
# Indices 1 2 3 4 5 6 
#
# 1 101.6735 32.8021 66.0596 0.0000 0.0000 0.0000
# 2 32.8021 73.8085 71.1973 0.0000 0.0000 0.0000
# 3 66.0596 71.1973 180.5985 0.0000 0.0000 0.0000
# 4 0.0000 0.0000 0.0000 -23.6821 0.0000 0.0000
# 5 0.0000 0.0000 0.0000 0.0000 104.0679 0.0000
# 6 0.0000 0.0000 0.0000 0.0000 0.0000 11.8958
#
#
#
# Elastic Compliance Matrix: (Units=1/GPa)
#
#
# Indices 1 2 3 4 5 6 
#
# 1 0.013070 -0.001931 -0.004019 0.000000 0.000000 0.000000
# 2 -0.001931 0.022148 -0.008025 0.000000 0.000000 0.000000
# 3 -0.004019 -0.008025 0.010171 0.000000 0.000000 0.000000
# 4 0.000000 0.000000 0.000000 -0.042226 0.000000 0.000000
# 5 0.000000 0.000000 0.000000 0.000000 0.009609 0.000000
# 6 0.000000 0.000000 0.000000 0.000000 0.000000 0.084063
#
#
# Mechanical properties :
#
#
# Convention : Reuss Voigt Hill
#
# Bulk Modulus (GPa) = 57.34742 77.35537 67.35140
# Shear Modulus (GPa) = 38.28511 30.85777 34.57144
#
# Velocity S-wave (km/s) = 4.54603 4.08131 4.31992
# Velocity P-wave (km/s) = 7.64928 7.99788 7.82552
#
# Compressibility (1/GPa) = 0.01743757
#
# Stress axis : x y z
#
# Youngs Moduli (GPa) = 76.51127 45.15101 98.31899
#
# Poissons Ratio (x) = 0.08721 0.39518
# Poissons Ratio (y) = 0.14778 0.78900
# Poissons Ratio (z) = 0.30752 0.36233
#
# Static dielectric constant tensor:
#      x y z
#    x 3.675300 0.000000 0.000000 
#    y 0.000000 3.149590 0.000000 
#    z 0.000000 0.000000 3.414620 
# 
# 
# High freq. dielectric constant tensor:
#      x y z
#    x 1.717560 0.000000 0.000000 
#    y 0.000000 1.682200 0.000000 
#    z 0.000000 0.000000 1.719370 
# 
# From -- ./inp_files/33432.got.cif
#   From: 2010.03.12/outbox.cif.g09.slc.cpg/sg51_17_cif.got.tgz:33432.got - 2010.04.16 13:43:02.
