data_PCOD8210986
_publ_section_title
;
Structure prediction by ZEFSAII (Michael W. Deem and Ramdas Pophale) SiO2 
 PCOD8210986
Probable space group: P M M A
;
_chemical_formula_sum "Si O2"
_cell_formula_units_Z 64
_cell_length_a 9.260953
_cell_length_b 18.382682
_cell_length_c 20.599392
_cell_angle_alpha 90.000000
_cell_angle_beta 90.000000
_cell_angle_gamma 90.000000
_cell_volume 3506.864266
_symmetry_space_group_name_H-M "P M M A"
_symmetry_group_IT_number 51
_symmetry_cell_setting 'orthorhombic'
loop_
_space_group_symop_operation_xyz
x,y,z
1/2-x,-y,z
1/2+x,-y,-z
-x,y,-z
-x,-y,-z
1/2+x,y,-z
1/2-x,y,z
x,-y,z
loop_
_atom_site_type_symbol
_atom_site_label
_atom_site_fract_x
_atom_site_fract_y
_atom_site_fract_z
Si Si1 0.918364 0.583659 0.563971
Si Si2 0.419299 0.085001 0.809023
Si Si3 0.083964 0.667964 0.309453
Si Si4 0.914016 0.086440 0.937707
Si Si5 0.578324 0.582124 0.201728
Si Si6 0.591480 0.413863 0.058515
Si Si7 0.583198 0.161158 0.693685
Si Si8 0.082183 0.083887 0.437194
O O1 0.750000 0.594619 0.551087
O O2 0.956790 0.500000 0.579492
O O3 0.972612 0.632161 0.623985
O O4 0.000000 0.611111 0.500000
O O5 0.250000 0.101262 0.817353
O O6 0.501481 0.111914 0.873496
O O7 0.481686 0.130382 0.749524
O O8 0.447785 0.000000 0.796111
O O9 0.250000 0.646329 0.298042
O O10 0.061513 0.753420 0.312834
O O11 0.991539 0.638523 0.250266
O O12 0.750000 0.117092 0.936829
O O13 0.910382 0.000000 0.941321
O O14 0.000000 0.117666 0.000000
O O15 0.750000 0.587894 0.204892
O O16 0.529123 0.500000 0.219018
O O17 0.524187 0.603482 0.129241
O O18 0.750000 0.379081 0.053372
O O19 0.601948 0.500000 0.050106
O O20 0.500000 0.378720 0.000000
O O21 0.750000 0.140507 0.708323
O O22 0.530705 0.127019 0.626074
O O23 0.250000 0.095674 0.450225
O O24 0.000000 0.115075 0.500000
O O25 0.042358 0.000000 0.425676
#
# Coordination Sequence:
#
# PCOD8210986 Si02
#       8
#     8   8   8   8   8   8   8   8
#     4   9  18  33  52  74 100 129 163 204 248 295
#     4  10  20  33  51  76 103 132 170 214 257 303
#     4  10  21  35  51  73 101 133 170 210 248 292
#     4   9  16  27  46  73 104 135 167 207 255 304
#     4   9  18  32  50  73 101 132 166 205 250 300
#     4   8  14  25  42  67  97 125 156 197 243 290
#     4  10  21  36  52  72 101 136 171 207 251 302
#     4   9  18  33  53  75  99 128 162 201 246 297
#
# _framework density 18.249922999999999
#
# number of rings (size 3 to 8) (size 9 to 14) (size 15 to 20)
#    0.000    2.750    0.000    2.250    0.000    6.000 
#    0.000    3.750    0.000    0.750    0.000    1.750 
#    0.000    0.000    0.000    0.000    0.000    0.000 
#
# Total GULP energy -793578.578453 kJ/mol
# GULP energy per Si atom -12399.665288 kJ/mol
# Density = 1.820839 g / cm^3
# Si number density = 18.249923 Si / 1000 Ang^3
#
#
#
# Elastic Constant Matrix: (Units=GPa)
#
#
# Indices 1 2 3 4 5 6 
#
# 1 82.0788 31.8380 73.2996 0.0000 0.0000 0.0000
# 2 31.8380 51.9948 54.2601 0.0000 0.0000 0.0000
# 3 73.2996 54.2601 174.9343 0.0000 0.0000 0.0000
# 4 0.0000 0.0000 0.0000 1.1294 0.0000 0.0000
# 5 0.0000 0.0000 0.0000 0.0000 39.5176 0.0000
# 6 0.0000 0.0000 0.0000 0.0000 0.0000 19.7508
#
#
#
# Elastic Compliance Matrix: (Units=1/GPa)
#
#
# Indices 1 2 3 4 5 6 
#
# 1 0.020404 -0.005282 -0.006911 0.000000 0.000000 0.000000
# 2 -0.005282 0.029805 -0.007032 0.000000 0.000000 0.000000
# 3 -0.006911 -0.007032 0.010793 0.000000 0.000000 0.000000
# 4 0.000000 0.000000 0.000000 0.885447 0.000000 0.000000
# 5 0.000000 0.000000 0.000000 0.000000 0.025305 0.000000
# 6 0.000000 0.000000 0.000000 0.000000 0.000000 0.050631
#
#
# Mechanical properties :
#
#
# Convention : Reuss Voigt Hill
#
# Bulk Modulus (GPa) = 44.33966 69.75593 57.04779
# Shear Modulus (GPa) = 4.68010 22.05356 13.36683
#
# Velocity S-wave (km/s) = 1.60313 3.48000 2.70928
# Velocity P-wave (km/s) = 5.27022 7.37921 6.41202
#
# Compressibility (1/GPa) = 0.02255317
#
# Stress axis : x y z
#
# Youngs Moduli (GPa) = 49.00917 33.55165 92.64897
#
# Poissons Ratio (x) = 0.17721 0.64034
# Poissons Ratio (y) = 0.25885 0.65147
# Poissons Ratio (z) = 0.33872 0.23592
#
# Static dielectric constant tensor:
#      x y z
#    x 3.392350 0.000000 0.000000 
#    y 0.000000 3.038430 0.000000 
#    z 0.000000 0.000000 3.582290 
# 
# 
# High freq. dielectric constant tensor:
#      x y z
#    x 1.704970 0.000000 0.000000 
#    y 0.000000 1.672260 0.000000 
#    z 0.000000 0.000000 1.722820 
# 
# From -- ./inp_files/32308.got.cif
#   From: 2010.03.12/outbox.cif.g09.slc.cpg/sg51_17_cif.got.tgz:32308.got - 2010.04.16 13:43:02.
