data_PCOD8210838
_publ_section_title
;
Structure prediction by ZEFSAII (Michael W. Deem and Ramdas Pophale) SiO2 
 PCOD8210838
Probable space group: P M M A
;
_chemical_formula_sum "Si O2"
_cell_formula_units_Z 48
_cell_length_a 9.237518
_cell_length_b 13.638246
_cell_length_c 19.594136
_cell_angle_alpha 90.000000
_cell_angle_beta 90.000000
_cell_angle_gamma 90.000000
_cell_volume 2468.538674
_symmetry_space_group_name_H-M "P M M A"
_symmetry_group_IT_number 51
_symmetry_cell_setting 'orthorhombic'
loop_
_space_group_symop_operation_xyz
x,y,z
1/2-x,-y,z
1/2+x,-y,-z
-x,y,-z
-x,-y,-z
1/2+x,y,-z
1/2-x,y,z
x,-y,z
loop_
_atom_site_type_symbol
_atom_site_label
_atom_site_fract_x
_atom_site_fract_y
_atom_site_fract_z
Si Si1 0.087914 0.616818 0.564562
Si Si2 0.589555 0.613819 0.690112
Si Si3 0.420708 0.721234 0.796860
Si Si4 0.089873 0.116554 0.435794
Si Si5 0.921991 0.111564 0.717348
Si Si6 0.581973 0.388911 0.067645
O O1 0.250000 0.660293 0.564571
O O2 0.095406 0.500000 0.567383
O O3 0.000000 0.654730 0.500000
O O4 0.997359 0.661274 0.627263
O O5 0.750000 0.662484 0.695919
O O6 0.609025 0.500000 0.677745
O O7 0.493373 0.631765 0.756336
O O8 0.250000 0.726247 0.782086
O O9 0.496335 0.822164 0.773504
O O10 0.453026 0.692906 0.875137
O O11 0.250000 0.160108 0.443923
O O12 0.029990 0.143588 0.359725
O O13 0.000000 0.160375 0.500000
O O14 0.093980 0.000000 0.440588
O O15 0.750000 0.122956 0.725554
O O16 0.969036 0.000000 0.731847
O O17 0.750000 0.388586 0.050389
O O18 0.534764 0.500000 0.089626
O O19 0.500000 0.354714 0.000000
#
# Coordination Sequence:
#
# PCOD8210838 Si02
#       6
#     8   8   8   8   8   8
#     4   9  16  27  44  65  92 129 172 217 264 313
#     4  10  20  33  50  73 101 135 175 216 260 314
#     4  11  22  35  54  81 111 140 173 217 267 319
#     4   8  14  26  46  71  98 130 170 219 274 325
#     4   9  19  36  55  76 106 144 185 229 276 326
#     4   9  19  36  58  85 116 146 174 208 255 313
#
# _framework density 19.444700999999998
#
# number of rings (size 3 to 8) (size 9 to 14) (size 15 to 20)
#    0.000    2.667    0.000    3.000    0.000    6.000 
#    0.000    4.167    0.000    2.500    0.000    0.000 
#    0.000    0.000    0.000    0.000    0.000    0.000 
#
# Total GULP energy -594848.252400 kJ/mol
# GULP energy per Si atom -12392.671925 kJ/mol
# Density = 1.940044 g / cm^3
# Si number density = 19.444701 Si / 1000 Ang^3
#
#
#
# Elastic Constant Matrix: (Units=GPa)
#
#
# Indices 1 2 3 4 5 6 
#
# 1 120.5615 39.0801 82.0870 0.0000 0.0000 0.0000
# 2 39.0801 73.7037 45.7792 0.0000 0.0000 0.0000
# 3 82.0870 45.7792 152.8437 0.0000 0.0000 0.0000
# 4 0.0000 0.0000 0.0000 38.7189 0.0000 0.0000
# 5 0.0000 0.0000 0.0000 0.0000 36.8844 0.0000
# 6 0.0000 0.0000 0.0000 0.0000 0.0000 21.0819
#
#
#
# Elastic Compliance Matrix: (Units=1/GPa)
#
#
# Indices 1 2 3 4 5 6 
#
# 1 0.013704 -0.003311 -0.006368 0.000000 0.000000 0.000000
# 2 -0.003311 0.017469 -0.003454 0.000000 0.000000 0.000000
# 3 -0.006368 -0.003454 0.010997 0.000000 0.000000 0.000000
# 4 0.000000 0.000000 0.000000 0.025827 0.000000 0.000000
# 5 0.000000 0.000000 0.000000 0.000000 0.027112 0.000000
# 6 0.000000 0.000000 0.000000 0.000000 0.000000 0.047434
#
#
# Mechanical properties :
#
#
# Convention : Reuss Voigt Hill
#
# Bulk Modulus (GPa) = 62.87827 75.66684 69.27255
# Shear Modulus (GPa) = 28.71756 31.34789 30.03273
#
# Velocity S-wave (km/s) = 3.84719 4.01952 3.93430
# Velocity P-wave (km/s) = 7.22092 7.78077 7.50607
#
# Compressibility (1/GPa) = 0.01590375
#
# Stress axis : x y z
#
# Youngs Moduli (GPa) = 72.97382 57.24522 90.93164
#
# Poissons Ratio (x) = 0.18952 0.57906
# Poissons Ratio (y) = 0.24159 0.31409
# Poissons Ratio (z) = 0.46470 0.19773
#
# Static dielectric constant tensor:
#      x y z
#    x 3.745960 0.000000 0.000000 
#    y 0.000000 3.329840 0.000000 
#    z 0.000000 0.000000 3.492270 
# 
# 
# High freq. dielectric constant tensor:
#      x y z
#    x 1.762450 0.000000 0.000000 
#    y 0.000000 1.749330 0.000000 
#    z 0.000000 0.000000 1.739090 
# 
# From -- ./inp_files/27511.got.cif
#   From: 2010.03.12/outbox.cif.g09.slc.cpg/sg51_14_cif.got.tgz:27511.got - 2010.04.16 13:43:02.
