data_PCOD8210188
_publ_section_title
;
Structure prediction by ZEFSAII (Michael W. Deem and Ramdas Pophale) SiO2 
 PCOD8210188
Probable space group: P M M A
;
_chemical_formula_sum "Si O2"
_cell_formula_units_Z 64
_cell_length_a 9.106551
_cell_length_b 15.115096
_cell_length_c 29.689506
_cell_angle_alpha 90.000000
_cell_angle_beta 90.000000
_cell_angle_gamma 90.000000
_cell_volume 4086.653399
_symmetry_space_group_name_H-M "P M M A"
_symmetry_group_IT_number 51
_symmetry_cell_setting 'orthorhombic'
loop_
_space_group_symop_operation_xyz
x,y,z
1/2-x,-y,z
1/2+x,-y,-z
-x,y,-z
-x,-y,-z
1/2+x,y,-z
1/2-x,y,z
x,-y,z
loop_
_atom_site_type_symbol
_atom_site_label
_atom_site_fract_x
_atom_site_fract_y
_atom_site_fract_z
Si Si1 0.914986 0.097347 0.784524
Si Si2 0.584063 0.605260 0.368357
Si Si3 0.917973 0.732479 0.108658
Si Si4 0.921294 0.396691 0.721124
Si Si5 0.579038 0.397063 0.954597
Si Si6 0.083806 0.605501 0.455957
Si Si7 0.418081 0.732208 0.784679
Si Si8 0.085067 0.902700 0.108471
O O1 0.750000 0.117103 0.767271
O O2 0.916708 0.097576 0.838027
O O3 0.023386 0.173243 0.766260
O O4 0.966429 0.000000 0.767275
O O5 0.750000 0.642217 0.368104
O O6 0.584493 0.500000 0.369907
O O7 0.500317 0.638488 0.323921
O O8 0.499571 0.642630 0.412018
O O9 0.750000 0.722881 0.093652
O O10 0.936563 0.725385 0.161986
O O11 0.012447 0.653876 0.087744
O O12 0.976405 0.827013 0.090188
O O13 0.750000 0.376120 0.716577
O O14 0.951322 0.500000 0.728706
O O15 0.987341 0.346713 0.763899
O O16 0.750000 0.375570 0.959036
O O17 0.549218 0.500000 0.945959
O O18 0.500000 0.364682 0.000000
O O19 0.250000 0.641806 0.456169
O O20 0.084269 0.500000 0.455636
O O21 0.000000 0.641331 0.500000
O O22 0.250000 0.722386 0.769689
O O23 0.250000 0.882833 0.091216
O O24 0.033691 0.000000 0.091183
#
# Coordination Sequence:
#
# PCOD8210188 Si02
#       8
#     8   8   8   8   8   8   8   8
#     4   8  14  26  44  64  86 112 141 174 211 250
#     4   9  16  26  39  53  71  98 133 173 217 262
#     4  10  20  32  48  71  96 119 143 174 211 251
#     4  10  20  32  44  57  77 110 150 187 220 257
#     4  10  21  37  56  74  91 113 142 176 214 256
#     4   9  15  22  33  50  71  94 125 168 215 258
#     4  10  20  31  44  65  91 117 145 178 214 251
#     4   8  14  26  45  68  93 120 147 173 203 242
#
# _framework density 15.660736
#
# number of rings (size 3 to 8) (size 9 to 14) (size 15 to 20)
#    0.000    2.750    0.000    3.000    0.000    7.000 
#    0.000    5.000    0.000    0.375    0.000    0.000 
#    0.000    0.000    0.000    0.000    0.000    0.625 
#
# Total GULP energy -793458.987401 kJ/mol
# GULP energy per Si atom -12397.796678 kJ/mol
# Density = 1.562509 g / cm^3
# Si number density = 15.660736 Si / 1000 Ang^3
#
#
#
# Elastic Constant Matrix: (Units=GPa)
#
#
# Indices 1 2 3 4 5 6 
#
# 1 127.2326 51.6023 42.7532 0.0000 0.0000 0.0000
# 2 51.6023 65.0879 33.0507 0.0000 0.0000 0.0000
# 3 42.7532 33.0507 48.0364 0.0000 0.0000 0.0000
# 4 0.0000 0.0000 0.0000 1.3735 0.0000 0.0000
# 5 0.0000 0.0000 0.0000 0.0000 28.2394 0.0000
# 6 0.0000 0.0000 0.0000 0.0000 0.0000 23.1618
#
#
#
# Elastic Compliance Matrix: (Units=1/GPa)
#
#
# Indices 1 2 3 4 5 6 
#
# 1 0.012894 -0.006755 -0.006828 0.000000 0.000000 0.000000
# 2 -0.006755 0.027153 -0.012670 0.000000 0.000000 0.000000
# 3 -0.006828 -0.012670 0.035612 0.000000 0.000000 0.000000
# 4 0.000000 0.000000 0.000000 0.728078 0.000000 0.000000
# 5 0.000000 0.000000 0.000000 0.000000 0.035411 0.000000
# 6 0.000000 0.000000 0.000000 0.000000 0.000000 0.043175
#
#
# Mechanical properties :
#
#
# Convention : Reuss Voigt Hill
#
# Bulk Modulus (GPa) = 43.19176 55.01880 49.10528
# Shear Modulus (GPa) = 5.30478 18.08499 11.69489
#
# Velocity S-wave (km/s) = 1.84246 3.40192 2.73566
# Velocity P-wave (km/s) = 5.67149 7.11609 6.43446
#
# Compressibility (1/GPa) = 0.02315256
#
# Stress axis : x y z
#
# Youngs Moduli (GPa) = 77.55773 36.82828 28.08058
#
# Poissons Ratio (x) = 0.24878 0.19173
# Poissons Ratio (y) = 0.52391 0.35578
# Poissons Ratio (z) = 0.52955 0.46662
#
# Static dielectric constant tensor:
#      x y z
#    x 3.208370 0.000000 0.000000 
#    y 0.000000 2.912570 0.000000 
#    z 0.000000 0.000000 2.792610 
# 
# 
# High freq. dielectric constant tensor:
#      x y z
#    x 1.618570 0.000000 0.000000 
#    y 0.000000 1.568140 0.000000 
#    z 0.000000 0.000000 1.572660 
# 
# From -- ./inp_files/37537.got.cif
#   From: 2010.03.12/outbox.cif.g09.slc.cpg/sg51_19_cif.got.tgz:37537.got - 2010.04.16 13:43:02.
