data_PCOD8210697
_publ_section_title
;
Structure prediction by ZEFSAII (Michael W. Deem and Ramdas Pophale) SiO2 
 PCOD8210697
Probable space group: P M M A
;
_chemical_formula_sum "Si O2"
_cell_formula_units_Z 48
_cell_length_a 9.028598
_cell_length_b 13.851244
_cell_length_c 19.605812
_cell_angle_alpha 90.000000
_cell_angle_beta 90.000000
_cell_angle_gamma 90.000000
_cell_volume 2451.850185
_symmetry_space_group_name_H-M "P M M A"
_symmetry_group_IT_number 51
_symmetry_cell_setting 'orthorhombic'
loop_
_space_group_symop_operation_xyz
x,y,z
1/2-x,-y,z
1/2+x,-y,-z
-x,y,-z
-x,-y,-z
1/2+x,y,-z
1/2-x,y,z
x,-y,z
loop_
_atom_site_type_symbol
_atom_site_label
_atom_site_fract_x
_atom_site_fract_y
_atom_site_fract_z
Si Si1 0.425696 0.214037 0.692307
Si Si2 0.926232 0.392184 0.216077
Si Si3 0.075952 0.110231 0.427652
Si Si4 0.413848 0.613874 0.934705
Si Si5 0.084495 0.885457 0.934313
Si Si6 0.585697 0.887412 0.805787
O O1 0.250000 0.209549 0.682942
O O2 0.478367 0.316128 0.725763
O O3 0.503951 0.192048 0.620531
O O4 0.481448 0.129030 0.741197
O O5 0.750000 0.393272 0.211974
O O6 0.983546 0.500000 0.235982
O O7 0.985637 0.362227 0.140190
O O8 0.250000 0.130653 0.433684
O O9 0.000000 0.124451 0.500000
O O10 0.048196 0.000000 0.401324
O O11 0.250000 0.658797 0.938085
O O12 0.406190 0.500000 0.942173
O O13 0.500000 0.658404 0.000000
O O14 0.250000 0.843564 0.933158
O O15 0.995782 0.840646 0.870777
O O16 0.088324 0.000000 0.932268
O O17 0.000000 0.846605 0.000000
O O18 0.750000 0.841951 0.795866
O O19 0.602717 0.000000 0.818201
#
# Coordination Sequence:
#
# PCOD8210697 Si02
#       6
#     8   8   8   8   8   8
#     4  11  21  33  54  81 107 137 174 216 261 311
#     4   8  16  32  52  74 103 141 182 222 268 321
#     4  10  21  38  60  86 116 146 173 205 250 307
#     4   8  13  24  44  68  94 126 167 216 267 316
#     4   9  16  27  44  65  90 124 168 215 261 310
#     4  10  20  33  48  68  98 135 172 212 259 310
#
# _framework density 19.577051999999998
#
# number of rings (size 3 to 8) (size 9 to 14) (size 15 to 20)
#    0.000    2.667    0.000    3.500    0.000    6.000 
#    0.000    2.500    0.000    6.500    0.000    0.000 
#    0.000    0.000    0.000    0.000    0.000    0.000 
#
# Total GULP energy -594756.230640 kJ/mol
# GULP energy per Si atom -12390.754805 kJ/mol
# Density = 1.953249 g / cm^3
# Si number density = 19.577052 Si / 1000 Ang^3
#
#
#
# Elastic Constant Matrix: (Units=GPa)
#
#
# Indices 1 2 3 4 5 6 
#
# 1 110.7695 36.6760 61.1161 0.0000 0.0000 0.0000
# 2 36.6760 83.2534 49.6869 0.0000 0.0000 0.0000
# 3 61.1161 49.6869 139.2554 0.0000 0.0000 0.0000
# 4 0.0000 0.0000 0.0000 78.1167 0.0000 0.0000
# 5 0.0000 0.0000 0.0000 0.0000 38.6976 0.0000
# 6 0.0000 0.0000 0.0000 0.0000 0.0000 5.7225
#
#
#
# Elastic Compliance Matrix: (Units=1/GPa)
#
#
# Indices 1 2 3 4 5 6 
#
# 1 0.012411 -0.002816 -0.004442 0.000000 0.000000 0.000000
# 2 -0.002816 0.015901 -0.004437 0.000000 0.000000 0.000000
# 3 -0.004442 -0.004437 0.010714 0.000000 0.000000 0.000000
# 4 0.000000 0.000000 0.000000 0.012801 0.000000 0.000000
# 5 0.000000 0.000000 0.000000 0.000000 0.025841 0.000000
# 6 0.000000 0.000000 0.000000 0.000000 0.000000 0.174750
#
#
# Mechanical properties :
#
#
# Convention : Reuss Voigt Hill
#
# Bulk Modulus (GPa) = 63.96366 69.80403 66.88385
# Shear Modulus (GPa) = 17.79223 36.89397 27.34310
#
# Velocity S-wave (km/s) = 3.01795 4.34585 3.74129
# Velocity P-wave (km/s) = 6.69983 7.80483 7.27335
#
# Compressibility (1/GPa) = 0.01563388
#
# Stress axis : x y z
#
# Youngs Moduli (GPa) = 80.57267 62.89100 93.33741
#
# Poissons Ratio (x) = 0.17713 0.41461
# Poissons Ratio (y) = 0.22693 0.41417
# Poissons Ratio (z) = 0.35791 0.27907
#
# Static dielectric constant tensor:
#      x y z
#    x 3.750800 0.000000 0.000000 
#    y 0.000000 3.497340 0.000000 
#    z 0.000000 0.000000 3.671370 
# 
# 
# High freq. dielectric constant tensor:
#      x y z
#    x 1.754840 0.000000 0.000000 
#    y 0.000000 1.751130 0.000000 
#    z 0.000000 0.000000 1.752180 
# 
# From -- ./inp_files/27535.got.cif
#   From: 2010.03.12/outbox.cif.g09.slc.cpg/sg51_14_cif.got.tgz:27535.got - 2010.04.16 13:43:02.
