data_PCOD8210814
_publ_section_title
;
Structure prediction by ZEFSAII (Michael W. Deem and Ramdas Pophale) SiO2 
 PCOD8210814
Probable space group: P M M A
;
_chemical_formula_sum "Si O2"
_cell_formula_units_Z 48
_cell_length_a 9.315442
_cell_length_b 9.406955
_cell_length_c 30.910551
_cell_angle_alpha 90.000000
_cell_angle_beta 90.000000
_cell_angle_gamma 90.000000
_cell_volume 2708.689844
_symmetry_space_group_name_H-M "P M M A"
_symmetry_group_IT_number 51
_symmetry_cell_setting 'orthorhombic'
loop_
_space_group_symop_operation_xyz
x,y,z
1/2-x,-y,z
1/2+x,-y,-z
-x,y,-z
-x,-y,-z
1/2+x,y,-z
1/2-x,y,z
x,-y,z
loop_
_atom_site_type_symbol
_atom_site_label
_atom_site_fract_x
_atom_site_fract_y
_atom_site_fract_z
Si Si1 0.083791 0.832156 0.792550
Si Si2 0.412450 0.169011 0.290974
Si Si3 0.417813 0.665196 0.135379
Si Si4 0.907609 0.331759 0.961201
Si Si5 0.416935 0.335938 0.542065
Si Si6 0.916147 0.833900 0.374173
O O1 0.250000 0.789543 0.788025
O O2 0.000086 0.774677 0.750388
O O3 0.016260 0.759327 0.834189
O O4 0.065012 0.000000 0.797671
O O5 0.250000 0.228573 0.289331
O O6 0.490683 0.224485 0.334158
O O7 0.412841 0.000000 0.290975
O O8 0.250000 0.702364 0.141756
O O9 0.444464 0.500000 0.145543
O O10 0.468472 0.702912 0.086518
O O11 0.750000 0.264939 0.965620
O O12 0.898853 0.500000 0.966779
O O13 0.000000 0.263291 0.000000
O O14 0.500000 0.279573 0.500000
O O15 0.250000 0.310693 0.533428
O O16 0.452961 0.500000 0.551097
O O17 0.470173 0.247162 0.583262
O O18 0.750000 0.800742 0.364116
O O19 0.941417 0.000000 0.381943
#
# Coordination Sequence:
#
# PCOD8210814 Si02
#       6
#     8   8   8   8   8   8
#     4  10  20  33  50  72  97 127 163 199 236 284
#     4   9  17  30  49  71  93 120 155 193 233 278
#     4   9  18  32  49  71  99 127 157 197 242 285
#     4   8  14  25  42  65  92 121 153 190 233 281
#     4   9  18  32  48  66  91 123 154 183 220 268
#     4   9  17  30  48  69  92 117 148 189 232 270
#
# _framework density 17.720745000000001
#
# number of rings (size 3 to 8) (size 9 to 14) (size 15 to 20)
#    0.000    3.000    0.000    2.000    0.000    5.000 
#    0.000    2.500    0.000    3.500    0.000    0.000 
#    0.000    0.000    0.000    0.000    0.000    0.000 
#
# Total GULP energy -595099.562233 kJ/mol
# GULP energy per Si atom -12397.907547 kJ/mol
# Density = 1.768041 g / cm^3
# Si number density = 17.720745 Si / 1000 Ang^3
#
#
#
# Elastic Constant Matrix: (Units=GPa)
#
#
# Indices 1 2 3 4 5 6 
#
# 1 111.6582 32.7074 93.2593 0.0000 0.0000 0.0000
# 2 32.7074 28.3952 43.4399 0.0000 0.0000 0.0000
# 3 93.2593 43.4399 181.3958 0.0000 0.0000 0.0000
# 4 0.0000 0.0000 0.0000 32.0429 0.0000 0.0000
# 5 0.0000 0.0000 0.0000 0.0000 41.2330 0.0000
# 6 0.0000 0.0000 0.0000 0.0000 0.0000 20.4285
#
#
#
# Elastic Compliance Matrix: (Units=1/GPa)
#
#
# Indices 1 2 3 4 5 6 
#
# 1 0.017322 -0.009988 -0.006514 0.000000 0.000000 0.000000
# 2 -0.009988 0.061338 -0.009554 0.000000 0.000000 0.000000
# 3 -0.006514 -0.009554 0.011150 0.000000 0.000000 0.000000
# 4 0.000000 0.000000 0.000000 0.031208 0.000000 0.000000
# 5 0.000000 0.000000 0.000000 0.000000 0.024252 0.000000
# 6 0.000000 0.000000 0.000000 0.000000 0.000000 0.048951
#
#
# Mechanical properties :
#
#
# Convention : Reuss Voigt Hill
#
# Bulk Modulus (GPa) = 26.52629 73.36247 49.94438
# Shear Modulus (GPa) = 19.31263 28.87707 24.09485
#
# Velocity S-wave (km/s) = 3.30484 4.04116 3.69141
# Velocity P-wave (km/s) = 5.43730 7.95385 6.81278
#
# Compressibility (1/GPa) = 0.03769845
#
# Stress axis : x y z
#
# Youngs Moduli (GPa) = 57.73021 16.30320 89.68887
#
# Poissons Ratio (x) = 0.16283 0.58422
# Poissons Ratio (y) = 0.57658 0.85690
# Poissons Ratio (z) = 0.37604 0.15576
#
# Static dielectric constant tensor:
#      x y z
#    x 3.453690 0.000000 0.000000 
#    y 0.000000 2.883580 0.000000 
#    z 0.000000 0.000000 3.495930 
# 
# 
# High freq. dielectric constant tensor:
#      x y z
#    x 1.687100 0.000000 0.000000 
#    y 0.000000 1.641110 0.000000 
#    z 0.000000 0.000000 1.700240 
# 
# From -- ./inp_files/35304.got.cif
#   From: 2010.03.12/outbox.cif.g09.slc.cpg/sg51_18_cif.got.tgz:35304.got - 2010.04.16 13:43:02.
