data_PCOD8210390
_publ_section_title
;
Structure prediction by ZEFSAII (Michael W. Deem and Ramdas Pophale) SiO2 
 PCOD8210390
Probable space group: P M M A
;
_chemical_formula_sum "Si O2"
_cell_formula_units_Z 64
_cell_length_a 29.333624
_cell_length_b 8.829754
_cell_length_c 15.160654
_cell_angle_alpha 90.000000
_cell_angle_beta 90.000000
_cell_angle_gamma 90.000000
_cell_volume 3926.741039
_symmetry_space_group_name_H-M "P M M A"
_symmetry_group_IT_number 51
_symmetry_cell_setting 'orthorhombic'
loop_
_space_group_symop_operation_xyz
x,y,z
1/2-x,-y,z
1/2+x,-y,-z
-x,y,-z
-x,-y,-z
1/2+x,y,-z
1/2-x,y,z
x,-y,z
loop_
_atom_site_type_symbol
_atom_site_label
_atom_site_fract_x
_atom_site_fract_y
_atom_site_fract_z
Si Si1 0.883796 0.676056 0.216898
Si Si2 0.397209 0.676598 0.460768
Si Si3 0.801455 0.827726 0.288334
Si Si4 0.543238 0.178601 0.685149
Si Si5 0.800575 0.326857 0.472120
Si Si6 0.965026 0.320816 0.870180
Si Si7 0.439927 0.323492 0.943931
Si Si8 0.557755 0.178753 0.367997
O O1 0.892572 0.500000 0.237976
O O2 0.831077 0.718316 0.226794
O O3 0.896181 0.715893 0.115505
O O4 0.913452 0.776888 0.282571
O O5 0.407869 0.500000 0.454400
O O6 0.416445 0.758283 0.375100
O O7 0.342365 0.707426 0.461628
O O8 0.421789 0.738268 0.547678
O O9 0.750000 0.807613 0.255799
O O10 0.806958 0.783201 0.389864
O O11 0.818132 0.000000 0.278613
O O12 0.552474 0.237707 0.783365
O O13 0.494320 0.232091 0.647059
O O14 0.546005 0.000000 0.685849
O O15 0.750000 0.299672 0.515328
O O16 0.804278 0.500000 0.438337
O O17 0.962804 0.500000 0.852350
O O18 0.015730 0.260282 0.892937
O O19 0.934294 0.267358 0.954835
O O20 0.449212 0.500000 0.951840
O O21 0.560669 0.000000 0.383704
#
# Coordination Sequence:
#
# PCOD8210390 Si02
#       8
#     8   8   8   8   8   8   8   8
#     4  11  19  30  50  74  98 128 165 201 241 289
#     4  11  22  34  51  72  93 129 170 203 242 291
#     4  10  20  32  47  69  98 131 162 195 242 294
#     4  11  23  35  47  68 100 135 167 205 246 284
#     4   9  18  33  51  71  94 120 157 204 247 288
#     4   9  16  32  52  70  94 125 162 201 239 284
#     4   8  16  29  50  74  95 122 158 200 242 282
#     4  11  22  34  46  66 100 136 167 201 239 283
#
# _framework density 16.298501999999999
#
# number of rings (size 3 to 8) (size 9 to 14) (size 15 to 20)
#    0.000    2.000    2.500    3.000    0.000    4.250 
#    0.000    2.500    0.000    0.000    0.000    0.875 
#    0.000    3.000    0.000    0.000    0.000    0.000 
#
# Total GULP energy -793340.752775 kJ/mol
# GULP energy per Si atom -12395.949262 kJ/mol
# Density = 1.626141 g / cm^3
# Si number density = 16.298502 Si / 1000 Ang^3
#
#
#
# Elastic Constant Matrix: (Units=GPa)
#
#
# Indices 1 2 3 4 5 6 
#
# 1 101.2763 28.2190 57.9564 0.0000 0.0000 0.0000
# 2 28.2190 42.6691 28.4103 0.0000 0.0000 0.0000
# 3 57.9564 28.4103 110.3348 0.0000 0.0000 0.0000
# 4 0.0000 0.0000 0.0000 -4.9037 0.0000 0.0000
# 5 0.0000 0.0000 0.0000 0.0000 23.0042 0.0000
# 6 0.0000 0.0000 0.0000 0.0000 0.0000 22.1924
#
#
#
# Elastic Compliance Matrix: (Units=1/GPa)
#
#
# Indices 1 2 3 4 5 6 
#
# 1 0.015190 -0.005713 -0.006508 0.000000 0.000000 0.000000
# 2 -0.005713 0.030434 -0.004836 0.000000 0.000000 0.000000
# 3 -0.006508 -0.004836 0.013727 0.000000 0.000000 0.000000
# 4 0.000000 0.000000 0.000000 -0.203927 0.000000 0.000000
# 5 0.000000 0.000000 0.000000 0.000000 0.043470 0.000000
# 6 0.000000 0.000000 0.000000 0.000000 0.000000 0.045060
#
#
# Mechanical properties :
#
#
# Convention : Reuss Voigt Hill
#
# Bulk Modulus (GPa) = 39.62253 53.71684 46.66968
# Shear Modulus (GPa) = -369.82022 17.37155 -176.22433
#
# Velocity S-wave (km/s) = -15.07969 3.26826 -10.40950
# Velocity P-wave (km/s) = 16.69828 6.87544 10.76013
#
# Compressibility (1/GPa) = 0.02523817
#
# Stress axis : x y z
#
# Youngs Moduli (GPa) = 65.83296 32.85799 72.84909
#
# Poissons Ratio (x) = 0.18770 0.47410
# Poissons Ratio (y) = 0.37608 0.35228
# Poissons Ratio (z) = 0.42844 0.15890
#
# Static dielectric constant tensor:
#      x y z
#    x 3.249010 0.000000 0.000000 
#    y 0.000000 3.071470 0.000000 
#    z 0.000000 0.000000 3.099010 
# 
# 
# High freq. dielectric constant tensor:
#      x y z
#    x 1.616270 0.000000 0.000000 
#    y 0.000000 1.628680 0.000000 
#    z 0.000000 0.000000 1.608660 
# 
# From -- ./inp_files/26596.got.cif
#   From: 2010.03.12/outbox.cif.g09.slc.cpg/sg51_14_cif.got.tgz:26596.got - 2010.04.16 13:43:02.
