data_PCOD8210787
_publ_section_title
;
Structure prediction by ZEFSAII (Michael W. Deem and Ramdas Pophale) SiO2 
 PCOD8210787
Probable space group: P M M A
;
_chemical_formula_sum "Si O2"
_cell_formula_units_Z 52
_cell_length_a 9.118069
_cell_length_b 15.092623
_cell_length_c 23.133395
_cell_angle_alpha 90.000000
_cell_angle_beta 90.000000
_cell_angle_gamma 90.000000
_cell_volume 3183.515522
_symmetry_space_group_name_H-M "P M M A"
_symmetry_group_IT_number 51
_symmetry_cell_setting 'orthorhombic'
loop_
_space_group_symop_operation_xyz
x,y,z
1/2-x,-y,z
1/2+x,-y,-z
-x,y,-z
-x,-y,-z
1/2+x,y,-z
1/2-x,y,z
x,-y,z
loop_
_atom_site_type_symbol
_atom_site_label
_atom_site_fract_x
_atom_site_fract_y
_atom_site_fract_z
Si Si1 0.419071 0.220866 0.778642
Si Si2 0.414011 0.894872 0.444971
Si Si3 0.583397 0.402436 0.171081
Si Si4 0.421230 0.000000 0.939941
Si Si5 0.079729 0.898668 0.670018
Si Si6 0.417776 0.656201 0.058585
Si Si7 0.916700 0.158415 0.887626
O O1 0.250000 0.197965 0.795177
O O2 0.443015 0.328014 0.778966
O O3 0.460033 0.173258 0.718851
O O4 0.536111 0.185532 0.823931
O O5 0.500000 0.854762 0.500000
O O6 0.250000 0.855824 0.444994
O O7 0.492535 0.866298 0.386020
O O8 0.410819 0.000000 0.449731
O O9 0.750000 0.394651 0.148932
O O10 0.552168 0.500000 0.197988
O O11 0.484151 0.391295 0.114515
O O12 0.466798 0.085517 0.904851
O O13 0.250000 0.000000 0.950756
O O14 0.500000 0.000000 0.000000
O O15 0.250000 0.895576 0.654275
O O16 0.036778 0.000000 0.688601
O O17 0.250000 0.625771 0.052812
O O18 0.429837 0.761656 0.067056
O O19 0.500000 0.628007 0.000000
O O20 0.750000 0.122154 0.886201
#
# Coordination Sequence:
#
# PCOD8210787 Si02
#       7
#     8   8   8   4   8   8   8
#     4   9  18  32  49  69  93 122 155 191 230 274
#     4   9  16  26  41  62  90 125 162 195 227 260
#     4   9  18  33  51  69  90 117 149 186 230 278
#     4  12  24  36  50  66  86 114 151 190 229 274
#     4   9  17  28  43  65  94 126 159 191 224 266
#     4  10  20  33  50  69  90 113 141 179 228 283
#     4  10  21  35  49  67  89 116 149 188 231 274
#
# _framework density 16.334143000000001
#
# number of rings (size 3 to 8) (size 9 to 14) (size 15 to 20)
#    0.000    2.462    0.000    2.538    1.077    6.154 
#    0.000    0.000    0.000    0.000    0.000    0.000 
#    0.000    0.615    0.000    1.077    0.000    1.538 
#
# Total GULP energy -644564.049577 kJ/mol
# GULP energy per Si atom -12395.462492 kJ/mol
# Density = 1.629697 g / cm^3
# Si number density = 16.334143 Si / 1000 Ang^3
#
#
#
# Elastic Constant Matrix: (Units=GPa)
#
#
# Indices 1 2 3 4 5 6 
#
# 1 100.4210 37.8963 49.4562 0.0000 0.0000 0.0000
# 2 37.8963 89.7314 48.0599 0.0000 0.0000 0.0000
# 3 49.4562 48.0599 105.6142 0.0000 0.0000 0.0000
# 4 0.0000 0.0000 0.0000 11.0443 0.0000 0.0000
# 5 0.0000 0.0000 0.0000 0.0000 27.9751 0.0000
# 6 0.0000 0.0000 0.0000 0.0000 0.0000 15.0399
#
#
#
# Elastic Compliance Matrix: (Units=1/GPa)
#
#
# Indices 1 2 3 4 5 6 
#
# 1 0.013555 -0.003074 -0.004949 0.000000 0.000000 0.000000
# 2 -0.003074 0.015433 -0.005583 0.000000 0.000000 0.000000
# 3 -0.004949 -0.005583 0.014326 0.000000 0.000000 0.000000
# 4 0.000000 0.000000 0.000000 0.090544 0.000000 0.000000
# 5 0.000000 0.000000 0.000000 0.000000 0.035746 0.000000
# 6 0.000000 0.000000 0.000000 0.000000 0.000000 0.066490
#
#
# Mechanical properties :
#
#
# Convention : Reuss Voigt Hill
#
# Bulk Modulus (GPa) = 62.10231 62.95462 62.52847
# Shear Modulus (GPa) = 18.60982 21.50214 20.05598
#
# Velocity S-wave (km/s) = 3.37904 3.63215 3.50788
# Velocity P-wave (km/s) = 7.30249 7.49769 7.40074
#
# Compressibility (1/GPa) = 0.01610246
#
# Stress axis : x y z
#
# Youngs Moduli (GPa) = 73.77127 64.79555 69.80130
#
# Poissons Ratio (x) = 0.19921 0.34542
# Poissons Ratio (y) = 0.22680 0.38972
# Poissons Ratio (z) = 0.36507 0.36177
#
# Static dielectric constant tensor:
#      x y z
#    x 3.194630 0.000000 0.000000 
#    y 0.000000 3.073210 0.000000 
#    z 0.000000 0.000000 2.953330 
# 
# 
# High freq. dielectric constant tensor:
#      x y z
#    x 1.641690 0.000000 0.000000 
#    y 0.000000 1.605770 0.000000 
#    z 0.000000 0.000000 1.606600 
# 
# From -- ./inp_files/31767.got.cif
#   From: 2010.03.12/outbox.cif.g09.slc.cpg/sg51_16_cif.got.tgz:31767.got - 2010.04.16 13:43:02.
