data_PCOD8210881
_publ_section_title
;
Structure prediction by ZEFSAII (Michael W. Deem and Ramdas Pophale) SiO2 
 PCOD8210881
Probable space group: P M M A
;
_chemical_formula_sum "Si O2"
_cell_formula_units_Z 40
_cell_length_a 9.054115
_cell_length_b 9.115941
_cell_length_c 25.913345
_cell_angle_alpha 90.000000
_cell_angle_beta 90.000000
_cell_angle_gamma 90.000000
_cell_volume 2138.804007
_symmetry_space_group_name_H-M "P M M A"
_symmetry_group_IT_number 51
_symmetry_cell_setting 'orthorhombic'
loop_
_space_group_symop_operation_xyz
x,y,z
1/2-x,-y,z
1/2+x,-y,-z
-x,y,-z
-x,-y,-z
1/2+x,y,-z
1/2-x,y,z
x,-y,z
loop_
_atom_site_type_symbol
_atom_site_label
_atom_site_fract_x
_atom_site_fract_y
_atom_site_fract_z
Si Si1 0.579197 0.172462 0.745802
Si Si2 0.074416 0.665211 0.152018
Si Si3 0.423611 0.669206 0.653350
Si Si4 0.083663 0.674471 0.449992
Si Si5 0.576662 0.830778 0.948328
O O1 0.750000 0.213704 0.735754
O O2 0.518991 0.246045 0.798163
O O3 0.481315 0.231719 0.699480
O O4 0.557321 0.000000 0.751251
O O5 0.250000 0.668045 0.150421
O O6 0.013007 0.500000 0.155175
O O7 0.012682 0.740905 0.100234
O O8 0.250000 0.689687 0.646994
O O9 0.465435 0.500000 0.664250
O O10 0.499315 0.727114 0.601128
O O11 0.250000 0.736814 0.448968
O O12 0.084956 0.500000 0.452780
O O13 0.000000 0.738939 0.500000
O O14 0.750000 0.807206 0.954702
O O15 0.536312 0.000000 0.938947
O O16 0.500000 0.770508 0.000000
#
# Coordination Sequence:
#
# PCOD8210881 Si02
#       5
#     8   8   8   8   8
#     4  10  20  34  53  75  98 128 168 211 255 306
#     4   9  17  30  50  74  98 126 163 207 252 298
#     4  10  20  33  50  74 104 136 170 209 253 301
#     4   9  16  27  46  73 104 136 170 209 252 298
#     4   9  17  30  48  70  97 129 164 201 243 294
#
# _framework density 18.702041000000001
#
# number of rings (size 3 to 8) (size 9 to 14) (size 15 to 20)
#    0.000    2.600    0.000    2.400    0.000    7.600 
#    0.000    1.000    0.000    4.200    0.000    0.000 
#    0.000    0.000    0.000    0.000    0.000    0.000 
#
# Total GULP energy -496056.665502 kJ/mol
# GULP energy per Si atom -12401.416638 kJ/mol
# Density = 1.865947 g / cm^3
# Si number density = 18.702041 Si / 1000 Ang^3
#
#
#
# Elastic Constant Matrix: (Units=GPa)
#
#
# Indices 1 2 3 4 5 6 
#
# 1 72.8576 32.7270 59.1869 0.0000 0.0000 0.0000
# 2 32.7270 77.4068 65.3107 0.0000 0.0000 0.0000
# 3 59.1869 65.3107 190.3312 0.0000 0.0000 0.0000
# 4 0.0000 0.0000 0.0000 13.3487 0.0000 0.0000
# 5 0.0000 0.0000 0.0000 0.0000 34.6651 0.0000
# 6 0.0000 0.0000 0.0000 0.0000 0.0000 18.0308
#
#
#
# Elastic Compliance Matrix: (Units=1/GPa)
#
#
# Indices 1 2 3 4 5 6 
#
# 1 0.019362 -0.004372 -0.004521 0.000000 0.000000 0.000000
# 2 -0.004372 0.019170 -0.005219 0.000000 0.000000 0.000000
# 3 -0.004521 -0.005219 0.008451 0.000000 0.000000 0.000000
# 4 0.000000 0.000000 0.000000 0.074914 0.000000 0.000000
# 5 0.000000 0.000000 0.000000 0.000000 0.028847 0.000000
# 6 0.000000 0.000000 0.000000 0.000000 0.000000 0.055461
#
#
# Mechanical properties :
#
#
# Convention : Reuss Voigt Hill
#
# Bulk Modulus (GPa) = 53.30415 72.78276 63.04345
# Shear Modulus (GPa) = 20.77451 25.43366 23.10408
#
# Velocity S-wave (km/s) = 3.33650 3.69174 3.51861
# Velocity P-wave (km/s) = 6.58837 7.56131 7.09155
#
# Compressibility (1/GPa) = 0.01876027
#
# Stress axis : x y z
#
# Youngs Moduli (GPa) = 51.64870 52.16422 118.33535
#
# Poissons Ratio (x) = 0.22804 0.53496
# Poissons Ratio (y) = 0.22579 0.61756
# Poissons Ratio (z) = 0.23349 0.27223
#
# Static dielectric constant tensor:
#      x y z
#    x 3.283070 0.000000 0.000000 
#    y 0.000000 3.252760 0.000000 
#    z 0.000000 0.000000 3.676280 
# 
# 
# High freq. dielectric constant tensor:
#      x y z
#    x 1.704660 0.000000 0.000000 
#    y 0.000000 1.702170 0.000000 
#    z 0.000000 0.000000 1.744590 
# 
# From -- ./inp_files/34319.got.cif
#   From: 2010.03.12/outbox.cif.g09.slc.cpg/sg51_18_cif.got.tgz:34319.got - 2010.04.16 13:43:02.
