data_PCOD8210853
_publ_section_title
;
Structure prediction by ZEFSAII (Michael W. Deem and Ramdas Pophale) SiO2 
 PCOD8210853
Probable space group: P M M A
;
_chemical_formula_sum "Si O2"
_cell_formula_units_Z 48
_cell_length_a 9.063612
_cell_length_b 19.055895
_cell_length_c 15.553076
_cell_angle_alpha 90.000000
_cell_angle_beta 90.000000
_cell_angle_gamma 90.000000
_cell_volume 2686.253232
_symmetry_space_group_name_H-M "P M M A"
_symmetry_group_IT_number 51
_symmetry_cell_setting 'orthorhombic'
loop_
_space_group_symop_operation_xyz
x,y,z
1/2-x,-y,z
1/2+x,-y,-z
-x,y,-z
-x,-y,-z
1/2+x,y,-z
1/2-x,y,z
x,-y,z
loop_
_atom_site_type_symbol
_atom_site_label
_atom_site_fract_x
_atom_site_fract_y
_atom_site_fract_z
Si Si1 0.076389 0.842988 0.588608
Si Si2 0.917389 0.916429 0.084630
Si Si3 0.926246 0.421667 0.267120
Si Si4 0.912081 0.416766 0.079744
Si Si5 0.077633 0.681303 0.586891
Si Si6 0.081509 0.083324 0.255180
O O1 0.250000 0.857734 0.581501
O O2 0.041840 0.761806 0.608370
O O3 0.000000 0.866351 0.500000
O O4 0.008543 0.888488 0.664220
O O5 0.750000 0.887488 0.086505
O O6 0.004296 0.888724 0.168299
O O7 0.916382 0.000000 0.083204
O O8 0.000000 0.887387 0.000000
O O9 0.750000 0.421142 0.262927
O O10 0.981515 0.500000 0.291609
O O11 0.986340 0.399467 0.172422
O O12 0.986994 0.366382 0.336363
O O13 0.750000 0.383166 0.075556
O O14 0.902136 0.500000 0.069706
O O15 0.000000 0.383110 0.000000
O O16 0.250000 0.668584 0.574691
O O17 0.000000 0.656650 0.500000
O O18 0.250000 0.110465 0.257513
O O19 0.076405 0.000000 0.258506
#
# Coordination Sequence:
#
# PCOD8210853 Si02
#       6
#     8   8   8   8   8   8
#     4  10  20  34  51  69  91 122 158 194 235 286
#     4   9  16  27  45  70 100 131 160 191 230 277
#     4   8  14  26  45  68  93 121 152 186 227 273
#     4   8  13  22  38  60  86 116 147 179 217 261
#     4   9  18  32  49  68  90 120 156 190 227 275
#     4  10  20  33  50  73  98 123 155 197 241 282
#
# _framework density 17.868753000000002
#
# number of rings (size 3 to 8) (size 9 to 14) (size 15 to 20)
#    0.000    3.000    0.000    2.500    0.000    4.333 
#    0.000    0.833    0.000    2.000    0.000    2.333 
#    0.000    0.000    0.000    0.000    0.000    0.000 
#
# Total GULP energy -595018.977846 kJ/mol
# GULP energy per Si atom -12396.228705 kJ/mol
# Density = 1.782808 g / cm^3
# Si number density = 17.868753 Si / 1000 Ang^3
#
#
#
# Elastic Constant Matrix: (Units=GPa)
#
#
# Indices 1 2 3 4 5 6 
#
# 1 95.0649 20.4219 64.8698 0.0000 0.0000 0.0000
# 2 20.4219 22.7220 34.1473 0.0000 0.0000 0.0000
# 3 64.8698 34.1473 163.1770 0.0000 0.0000 0.0000
# 4 0.0000 0.0000 0.0000 0.9063 0.0000 0.0000
# 5 0.0000 0.0000 0.0000 0.0000 36.9127 0.0000
# 6 0.0000 0.0000 0.0000 0.0000 0.0000 11.8266
#
#
#
# Elastic Compliance Matrix: (Units=1/GPa)
#
#
# Indices 1 2 3 4 5 6 
#
# 1 0.015091 -0.006633 -0.004611 0.000000 0.000000 0.000000
# 2 -0.006633 0.067116 -0.011408 0.000000 0.000000 0.000000
# 3 -0.004611 -0.011408 0.010349 0.000000 0.000000 0.000000
# 4 0.000000 0.000000 0.000000 1.103332 0.000000 0.000000
# 5 0.000000 0.000000 0.000000 0.000000 0.027091 0.000000
# 6 0.000000 0.000000 0.000000 0.000000 0.000000 0.084555
#
#
# Mechanical properties :
#
#
# Convention : Reuss Voigt Hill
#
# Bulk Modulus (GPa) = 21.16368 57.76020 39.46194
# Shear Modulus (GPa) = 3.65340 20.69746 12.17543
#
# Velocity S-wave (km/s) = 1.43144 3.40708 2.61316
# Velocity P-wave (km/s) = 3.82122 6.91899 5.58901
#
# Compressibility (1/GPa) = 0.04725075
#
# Stress axis : x y z
#
# Youngs Moduli (GPa) = 66.26672 14.89947 96.63061
#
# Poissons Ratio (x) = 0.09883 0.44556
# Poissons Ratio (y) = 0.43958 1.10237
# Poissons Ratio (z) = 0.30555 0.16997
#
# Static dielectric constant tensor:
#      x y z
#    x 3.348100 0.000000 0.000000 
#    y 0.000000 2.971240 0.000000 
#    z 0.000000 0.000000 3.625180 
# 
# 
# High freq. dielectric constant tensor:
#      x y z
#    x 1.682390 0.000000 0.000000 
#    y 0.000000 1.644470 0.000000 
#    z 0.000000 0.000000 1.709660 
# 
# From -- ./inp_files/14441.got.cif
#   From: 2010.03.12/outbox.cif.g09.slc.cpg/sg51_8_cif.got.tgz:14441.got - 2010.04.16 13:43:02.
