data_PCOD8210524
_publ_section_title
;
Structure prediction by ZEFSAII (Michael W. Deem and Ramdas Pophale) SiO2 
 PCOD8210524
Probable space group: P M M A
;
_chemical_formula_sum "Si O2"
_cell_formula_units_Z 56
_cell_length_a 19.218695
_cell_length_b 9.286086
_cell_length_c 16.366615
_cell_angle_alpha 90.000000
_cell_angle_beta 90.000000
_cell_angle_gamma 90.000000
_cell_volume 2920.891752
_symmetry_space_group_name_H-M "P M M A"
_symmetry_group_IT_number 51
_symmetry_cell_setting 'orthorhombic'
loop_
_space_group_symop_operation_xyz
x,y,z
1/2-x,-y,z
1/2+x,-y,-z
-x,y,-z
-x,-y,-z
1/2+x,y,-z
1/2-x,y,z
x,-y,z
loop_
_atom_site_type_symbol
_atom_site_label
_atom_site_fract_x
_atom_site_fract_y
_atom_site_fract_z
Si Si1 0.827589 0.664892 0.970611
Si Si2 0.169649 0.168424 0.649272
Si Si3 0.555328 0.332216 0.254095
Si Si4 0.670644 0.335257 0.513815
Si Si5 0.455038 0.334142 0.926940
Si Si6 0.591531 0.664958 0.676490
Si Si7 0.331404 0.166458 0.185713
O O1 0.750000 0.716525 0.993503
O O2 0.828600 0.500000 0.941452
O O3 0.859020 0.756442 0.895979
O O4 0.873909 0.686932 0.051058
O O5 0.250000 0.199095 0.671706
O O6 0.121942 0.243616 0.716750
O O7 0.151492 0.232488 0.560870
O O8 0.153162 0.000000 0.647353
O O9 0.576442 0.500000 0.247972
O O10 0.533293 0.271113 0.164091
O O11 0.491271 0.309533 0.316391
O O12 0.750000 0.308850 0.543951
O O13 0.661149 0.500000 0.484904
O O14 0.616692 0.297425 0.585506
O O15 0.478012 0.500000 0.923625
O O16 0.500000 0.259271 0.000000
O O17 0.610457 0.500000 0.698547
O O18 0.630859 0.770718 0.736307
O O19 0.250000 0.195545 0.196297
O O20 0.349725 0.000000 0.178364
#
# Coordination Sequence:
#
# PCOD8210524 Si02
#       7
#     8   8   8   8   8   8   8
#     4   9  17  30  49  71  95 128 173 222 268 315
#     4  10  22  40  59  79 107 143 181 221 267 319
#     4  10  21  36  57  84 110 139 176 221 271 319
#     4   9  18  34  57  82 107 139 179 220 261 309
#     4   9  17  31  52  77 104 134 172 218 266 315
#     4  10  20  34  54  81 111 142 178 219 265 319
#     4  10  20  32  48  74 108 144 180 219 266 319
#
# _framework density 19.172225999999998
#
# number of rings (size 3 to 8) (size 9 to 14) (size 15 to 20)
#    0.000    2.429    0.000    2.143    0.000    6.857 
#    0.000    6.429    0.000    3.429    0.000    0.000 
#    0.000    0.000    0.000    0.000    0.000    0.000 
#
# Total GULP energy -694378.925986 kJ/mol
# GULP energy per Si atom -12399.623678 kJ/mol
# Density = 1.912859 g / cm^3
# Si number density = 19.172226 Si / 1000 Ang^3
#
#
#
# Elastic Constant Matrix: (Units=GPa)
#
#
# Indices 1 2 3 4 5 6 
#
# 1 84.9742 39.2000 69.6457 0.0000 0.0000 0.0000
# 2 39.2000 70.0688 43.1510 0.0000 0.0000 0.0000
# 3 69.6457 43.1510 125.8495 0.0000 0.0000 0.0000
# 4 0.0000 0.0000 0.0000 3.5255 0.0000 0.0000
# 5 0.0000 0.0000 0.0000 0.0000 35.0078 0.0000
# 6 0.0000 0.0000 0.0000 0.0000 0.0000 23.2686
#
#
#
# Elastic Compliance Matrix: (Units=1/GPa)
#
#
# Indices 1 2 3 4 5 6 
#
# 1 0.023705 -0.006570 -0.010866 0.000000 0.000000 0.000000
# 2 -0.006570 0.019913 -0.003192 0.000000 0.000000 0.000000
# 3 -0.010866 -0.003192 0.015053 0.000000 0.000000 0.000000
# 4 0.000000 0.000000 0.000000 0.283650 0.000000 0.000000
# 5 0.000000 0.000000 0.000000 0.000000 0.028565 0.000000
# 6 0.000000 0.000000 0.000000 0.000000 0.000000 0.042976
#
#
# Mechanical properties :
#
#
# Convention : Reuss Voigt Hill
#
# Bulk Modulus (GPa) = 57.41790 64.98732 61.20261
# Shear Modulus (GPa) = 10.84781 20.95342 15.90062
#
# Velocity S-wave (km/s) = 2.38125 3.30950 2.88298
# Velocity P-wave (km/s) = 6.12976 6.96950 6.56307
#
# Compressibility (1/GPa) = 0.01741617
#
# Stress axis : x y z
#
# Youngs Moduli (GPa) = 42.18566 50.21847 66.43008
#
# Poissons Ratio (x) = 0.32995 0.72180
# Poissons Ratio (y) = 0.27717 0.21203
# Poissons Ratio (z) = 0.45837 0.16028
#
# Static dielectric constant tensor:
#      x y z
#    x 3.576100 0.000000 0.000000 
#    y 0.000000 3.330650 0.000000 
#    z 0.000000 0.000000 3.514520 
# 
# 
# High freq. dielectric constant tensor:
#      x y z
#    x 1.750330 0.000000 0.000000 
#    y 0.000000 1.721630 0.000000 
#    z 0.000000 0.000000 1.743150 
# 
# From -- ./inp_files/25725.got.cif
#   From: 2010.03.12/outbox.cif.g09.slc.cpg/sg51_13_cif.got.tgz:25725.got - 2010.04.16 13:43:02.
