data_PCOD8210260
_publ_section_title
;
Structure prediction by ZEFSAII (Michael W. Deem and Ramdas Pophale) SiO2 
 PCOD8210260
Probable space group: P M M A
;
_chemical_formula_sum "Si O2"
_cell_formula_units_Z 52
_cell_length_a 9.064887
_cell_length_b 17.893176
_cell_length_c 18.406695
_cell_angle_alpha 90.000000
_cell_angle_beta 90.000000
_cell_angle_gamma 90.000000
_cell_volume 2985.558907
_symmetry_space_group_name_H-M "P M M A"
_symmetry_group_IT_number 51
_symmetry_cell_setting 'orthorhombic'
loop_
_space_group_symop_operation_xyz
x,y,z
1/2-x,-y,z
1/2+x,-y,-z
-x,y,-z
-x,-y,-z
1/2+x,y,-z
1/2-x,y,z
x,-y,z
loop_
_atom_site_type_symbol
_atom_site_label
_atom_site_fract_x
_atom_site_fract_y
_atom_site_fract_z
Si Si1 0.925792 0.135152 0.928463
Si Si2 0.074248 0.500000 0.422477
Si Si3 0.912747 0.769227 0.280004
Si Si4 0.922211 0.630527 0.681675
Si Si5 0.084796 0.720812 0.885972
Si Si6 0.421765 0.083302 0.785911
Si Si7 0.420902 0.415480 0.157123
O O1 0.750000 0.130431 0.932893
O O2 0.978887 0.221131 0.926441
O O3 0.981620 0.090171 0.858427
O O4 0.000000 0.098165 0.000000
O O5 0.250000 0.500000 0.429410
O O6 0.019319 0.574031 0.379949
O O7 0.000000 0.500000 0.500000
O O8 0.750000 0.767949 0.314480
O O9 0.911427 0.739850 0.198381
O O10 0.971882 0.855442 0.274982
O O11 0.011095 0.713920 0.328880
O O12 0.750000 0.640685 0.674433
O O13 0.966066 0.595124 0.758861
O O14 0.250000 0.723398 0.919166
O O15 0.016674 0.638045 0.894959
O O16 0.250000 0.098841 0.806119
O O17 0.443353 0.000000 0.753736
O O18 0.250000 0.395197 0.146932
O O19 0.455088 0.500000 0.133764
#
# Coordination Sequence:
#
# PCOD8210260 Si02
#       7
#     8   4   8   8   8   8   8
#     4  11  21  33  48  64  84 114 151 187 224 274
#     4  10  20  32  44  64  96 134 169 198 227 260
#     4   8  15  27  44  66  89 115 149 186 224 267
#     4   9  16  28  44  62  89 124 159 191 224 265
#     4   9  17  29  43  62  86 110 142 185 229 274
#     4   9  18  33  50  69  96 123 146 181 229 277
#     4   9  15  25  43  65  87 112 144 184 228 273
#
# _framework density 17.417173999999999
#
# number of rings (size 3 to 8) (size 9 to 14) (size 15 to 20)
#    0.000    2.769    0.769    2.769    0.000    5.231 
#    0.000    0.000    0.000    0.462    0.000    0.000 
#    0.000    0.615    0.000    1.385    0.000    2.154 
#
# Total GULP energy -644476.664245 kJ/mol
# GULP energy per Si atom -12393.782005 kJ/mol
# Density = 1.737753 g / cm^3
# Si number density = 17.417174 Si / 1000 Ang^3
#
#
#
# Elastic Constant Matrix: (Units=GPa)
#
#
# Indices 1 2 3 4 5 6 
#
# 1 72.9424 38.6575 18.8483 0.0000 0.0000 0.0000
# 2 38.6575 141.4795 27.7143 0.0000 0.0000 0.0000
# 3 18.8483 27.7143 35.9039 0.0000 0.0000 0.0000
# 4 0.0000 0.0000 0.0000 10.8414 0.0000 0.0000
# 5 0.0000 0.0000 0.0000 0.0000 19.4068 0.0000
# 6 0.0000 0.0000 0.0000 0.0000 0.0000 27.0845
#
#
#
# Elastic Compliance Matrix: (Units=1/GPa)
#
#
# Indices 1 2 3 4 5 6 
#
# 1 0.017180 -0.003449 -0.006357 0.000000 0.000000 0.000000
# 2 -0.003449 0.009020 -0.005152 0.000000 0.000000 0.000000
# 3 -0.006357 -0.005152 0.035166 0.000000 0.000000 0.000000
# 4 0.000000 0.000000 0.000000 0.092239 0.000000 0.000000
# 5 0.000000 0.000000 0.000000 0.000000 0.051528 0.000000
# 6 0.000000 0.000000 0.000000 0.000000 0.000000 0.036922
#
#
# Mechanical properties :
#
#
# Convention : Reuss Voigt Hill
#
# Bulk Modulus (GPa) = 31.79574 46.75178 39.27376
# Shear Modulus (GPa) = 17.70208 22.47357 20.08783
#
# Velocity S-wave (km/s) = 3.19150 3.59599 3.39976
# Velocity P-wave (km/s) = 5.64587 6.64395 6.16514
#
# Compressibility (1/GPa) = 0.03145076
#
# Stress axis : x y z
#
# Youngs Moduli (GPa) = 58.20772 110.86811 28.43672
#
# Poissons Ratio (x) = 0.38238 0.18076
# Poissons Ratio (y) = 0.20076 0.14650
# Poissons Ratio (z) = 0.37000 0.57116
#
# Static dielectric constant tensor:
#      x y z
#    x 3.282600 0.000000 0.000000 
#    y 0.000000 3.584260 0.000000 
#    z 0.000000 0.000000 2.797520 
# 
# 
# High freq. dielectric constant tensor:
#      x y z
#    x 1.671190 0.000000 0.000000 
#    y 0.000000 1.683420 0.000000 
#    z 0.000000 0.000000 1.607700 
# 
# From -- ./inp_files/27965.got.cif
#   From: 2010.03.12/outbox.cif.g09.slc.cpg/sg51_14_cif.got.tgz:27965.got - 2010.04.16 13:43:02.
