data_PCOD8210282
_publ_section_title
;
Structure prediction by ZEFSAII (Michael W. Deem and Ramdas Pophale) SiO2 
 PCOD8210282
Probable space group: P M M A
;
_chemical_formula_sum "Si O2"
_cell_formula_units_Z 56
_cell_length_a 18.516973
_cell_length_b 8.861441
_cell_length_c 19.489704
_cell_angle_alpha 90.000000
_cell_angle_beta 90.000000
_cell_angle_gamma 90.000000
_cell_volume 3198.008302
_symmetry_space_group_name_H-M "P M M A"
_symmetry_group_IT_number 51
_symmetry_cell_setting 'orthorhombic'
loop_
_space_group_symop_operation_xyz
x,y,z
1/2-x,-y,z
1/2+x,-y,-z
-x,y,-z
-x,-y,-z
1/2+x,y,-z
1/2-x,y,z
x,-y,z
loop_
_atom_site_type_symbol
_atom_site_label
_atom_site_fract_x
_atom_site_fract_y
_atom_site_fract_z
Si Si1 0.334088 0.828018 0.367888
Si Si2 0.333712 0.320999 0.062321
Si Si3 0.437157 0.664593 0.946083
Si Si4 0.952093 0.322239 0.706291
Si Si5 0.529205 0.674161 0.428472
Si Si6 0.829606 0.326847 0.492872
Si Si7 0.540744 0.822718 0.849861
O O1 0.250000 0.809385 0.356602
O O2 0.369748 0.722700 0.310076
O O3 0.356724 0.772054 0.443309
O O4 0.359566 0.000000 0.359154
O O5 0.250000 0.265419 0.068336
O O6 0.338246 0.500000 0.072405
O O7 0.384925 0.247719 0.120356
O O8 0.365534 0.276776 0.986759
O O9 0.421203 0.500000 0.911826
O O10 0.467103 0.783721 0.891087
O O11 0.500000 0.640248 0.000000
O O12 0.961240 0.500000 0.717105
O O13 0.976200 0.238223 0.774513
O O14 0.998612 0.255088 0.641839
O O15 0.500000 0.746480 0.500000
O O16 0.505266 0.500000 0.427493
O O17 0.616087 0.695991 0.429075
O O18 0.750000 0.277039 0.468173
O O19 0.830290 0.500000 0.517842
O O20 0.551753 0.000000 0.849389
#
# Coordination Sequence:
#
# PCOD8210282 Si02
#       7
#     8   8   8   8   8   8   8
#     4  10  20  32  45  66  97 126 155 196 246 301
#     4   9  18  34  57  83 108 135 169 206 244 291
#     4   8  15  31  54  77 101 131 168 205 241 285
#     4  11  21  34  52  69  94 133 172 211 257 302
#     4   9  16  29  49  74  96 117 161 220 259 293
#     4   9  16  29  50  71  91 119 155 197 249 305
#     4  11  22  34  49  73 107 140 172 207 248 301
#
# _framework density 17.510899999999999
#
# number of rings (size 3 to 8) (size 9 to 14) (size 15 to 20)
#    0.000    2.429    1.429    3.000    0.000    4.286 
#    0.000    2.143    0.000    0.857    0.000    4.000 
#    0.000    0.000    0.000    0.000    0.000    0.000 
#
# Total GULP energy -693921.996504 kJ/mol
# GULP energy per Si atom -12391.464223 kJ/mol
# Density = 1.747104 g / cm^3
# Si number density = 17.510900 Si / 1000 Ang^3
#
#
#
# Elastic Constant Matrix: (Units=GPa)
#
#
# Indices 1 2 3 4 5 6 
#
# 1 69.9762 25.2021 56.9835 0.0000 0.0000 0.0000
# 2 25.2021 59.5377 40.3283 0.0000 0.0000 0.0000
# 3 56.9835 40.3283 116.5530 0.0000 0.0000 0.0000
# 4 0.0000 0.0000 0.0000 -8.9811 0.0000 0.0000
# 5 0.0000 0.0000 0.0000 0.0000 23.0662 0.0000
# 6 0.0000 0.0000 0.0000 0.0000 0.0000 16.8148
#
#
#
# Elastic Compliance Matrix: (Units=1/GPa)
#
#
# Indices 1 2 3 4 5 6 
#
# 1 0.024122 -0.002903 -0.010789 0.000000 0.000000 0.000000
# 2 -0.002903 0.022287 -0.006292 0.000000 0.000000 0.000000
# 3 -0.010789 -0.006292 0.016032 0.000000 0.000000 0.000000
# 4 0.000000 0.000000 0.000000 -0.111345 0.000000 0.000000
# 5 0.000000 0.000000 0.000000 0.000000 0.043354 0.000000
# 6 0.000000 0.000000 0.000000 0.000000 0.000000 0.059471
#
#
# Mechanical properties :
#
#
# Convention : Reuss Voigt Hill
#
# Bulk Modulus (GPa) = 44.49875 54.56609 49.53242
# Shear Modulus (GPa) = 49.31971 14.41683 31.86827
#
# Velocity S-wave (km/s) = 5.31284 2.87244 4.27067
# Velocity P-wave (km/s) = 7.94369 6.49847 7.25715
#
# Compressibility (1/GPa) = 0.02247254
#
# Stress axis : x y z
#
# Youngs Moduli (GPa) = 41.45649 44.86935 62.37621
#
# Poissons Ratio (x) = 0.13024 0.67297
# Poissons Ratio (y) = 0.12034 0.39249
# Poissons Ratio (z) = 0.44727 0.28233
#
# Static dielectric constant tensor:
#      x y z
#    x 3.531360 0.000000 0.000000 
#    y 0.000000 3.180750 0.000000 
#    z 0.000000 0.000000 3.230000 
# 
# 
# High freq. dielectric constant tensor:
#      x y z
#    x 1.673110 0.000000 0.000000 
#    y 0.000000 1.662070 0.000000 
#    z 0.000000 0.000000 1.654530 
# 
# From -- ./inp_files/30365.got.cif
#   From: 2010.03.12/outbox.cif.g09.slc.cpg/sg51_16_cif.got.tgz:30365.got - 2010.04.16 13:43:02.
