data_PCOD8210507
_publ_section_title
;
Structure prediction by ZEFSAII (Michael W. Deem and Ramdas Pophale) SiO2 
 PCOD8210507
Probable space group: P M M A
;
_chemical_formula_sum "Si O2"
_cell_formula_units_Z 64
_cell_length_a 29.286056
_cell_length_b 8.656107
_cell_length_c 14.873766
_cell_angle_alpha 90.000000
_cell_angle_beta 90.000000
_cell_angle_gamma 90.000000
_cell_volume 3770.547788
_symmetry_space_group_name_H-M "P M M A"
_symmetry_group_IT_number 51
_symmetry_cell_setting 'orthorhombic'
loop_
_space_group_symop_operation_xyz
x,y,z
1/2-x,-y,z
1/2+x,-y,-z
-x,y,-z
-x,-y,-z
1/2+x,y,-z
1/2-x,y,z
x,-y,z
loop_
_atom_site_type_symbol
_atom_site_label
_atom_site_fract_x
_atom_site_fract_y
_atom_site_fract_z
Si Si1 0.028598 0.681266 0.876905
Si Si2 0.699359 0.323407 0.524634
Si Si3 0.562614 0.819542 0.952202
Si Si4 0.698250 0.824338 0.713987
Si Si5 0.895684 0.321249 0.451933
Si Si6 0.553792 0.319140 0.635516
Si Si7 0.616157 0.321033 0.802130
Si Si8 0.539611 0.820206 0.312742
O O1 0.018874 0.500000 0.881496
O O2 0.046529 0.725779 0.778970
O O3 0.981889 0.771032 0.896138
O O4 0.065354 0.730027 0.952602
O O5 0.750000 0.297913 0.481159
O O6 0.694014 0.500000 0.558601
O O7 0.692970 0.213414 0.609307
O O8 0.658944 0.287596 0.453823
O O9 0.606130 0.775022 0.892350
O O10 0.561666 0.000000 0.972336
O O11 0.750000 0.799043 0.745726
O O12 0.667981 0.711876 0.774600
O O13 0.682334 0.000000 0.728273
O O14 0.905794 0.500000 0.430217
O O15 0.917544 0.274963 0.547512
O O16 0.916895 0.215613 0.374755
O O17 0.542772 0.500000 0.638752
O O18 0.582772 0.267012 0.721973
O O19 0.506101 0.228805 0.634550
O O20 0.609445 0.500000 0.823196
O O21 0.537898 0.000000 0.290159
#
# Coordination Sequence:
#
# PCOD8210507 Si02
#       8
#     8   8   8   8   8   8   8   8
#     4  11  21  36  54  73  99 134 171 209 249 299
#     4   9  17  32  53  74  97 129 171 214 257 307
#     4  11  21  34  53  78 104 130 163 209 255 301
#     4  10  20  32  48  73 105 137 169 212 262 305
#     4  10  20  35  51  71  99 136 174 212 256 305
#     4  10  20  34  50  70 100 138 176 212 249 299
#     4  11  20  33  53  76 102 138 176 210 251 306
#     4  12  24  35  49  72 101 137 176 218 258 299
#
# _framework density 16.973662000000001
#
# number of rings (size 3 to 8) (size 9 to 14) (size 15 to 20)
#    0.000    1.500    2.500    5.250    0.000    3.750 
#    0.000    0.000    0.000    0.000    0.000    0.875 
#    0.000    5.000    0.000    0.000    0.000    0.000 
#
# Total GULP energy -793770.929316 kJ/mol
# GULP energy per Si atom -12402.670771 kJ/mol
# Density = 1.693503 g / cm^3
# Si number density = 16.973662 Si / 1000 Ang^3
#
#
#
# Elastic Constant Matrix: (Units=GPa)
#
#
# Indices 1 2 3 4 5 6 
#
# 1 97.4340 23.8113 36.1157 0.0000 0.0000 0.0000
# 2 23.8113 58.9133 20.2848 0.0000 0.0000 0.0000
# 3 36.1157 20.2848 75.4271 0.0000 0.0000 0.0000
# 4 0.0000 0.0000 0.0000 25.4208 0.0000 0.0000
# 5 0.0000 0.0000 0.0000 0.0000 21.2637 0.0000
# 6 0.0000 0.0000 0.0000 0.0000 0.0000 22.6542
#
#
#
# Elastic Compliance Matrix: (Units=1/GPa)
#
#
# Indices 1 2 3 4 5 6 
#
# 1 0.013085 -0.003451 -0.005337 0.000000 0.000000 0.000000
# 2 -0.003451 0.019616 -0.003623 0.000000 0.000000 0.000000
# 3 -0.005337 -0.003623 0.016788 0.000000 0.000000 0.000000
# 4 0.000000 0.000000 0.000000 0.039338 0.000000 0.000000
# 5 0.000000 0.000000 0.000000 0.000000 0.047029 0.000000
# 6 0.000000 0.000000 0.000000 0.000000 0.000000 0.044142
#
#
# Mechanical properties :
#
#
# Convention : Reuss Voigt Hill
#
# Bulk Modulus (GPa) = 40.54071 43.57756 42.05914
# Shear Modulus (GPa) = 23.46949 23.97190 23.72070
#
# Velocity S-wave (km/s) = 3.72250 3.76213 3.74237
# Velocity P-wave (km/s) = 6.51248 6.67839 6.59596
#
# Compressibility (1/GPa) = 0.02466656
#
# Stress axis : x y z
#
# Youngs Moduli (GPa) = 76.42294 50.97777 59.56713
#
# Poissons Ratio (x) = 0.17592 0.31793
# Poissons Ratio (y) = 0.26373 0.21582
# Poissons Ratio (z) = 0.40789 0.18470
#
# Static dielectric constant tensor:
#      x y z
#    x 3.199970 0.000000 0.000000 
#    y 0.000000 3.221710 0.000000 
#    z 0.000000 0.000000 3.127200 
# 
# 
# High freq. dielectric constant tensor:
#      x y z
#    x 1.640000 0.000000 0.000000 
#    y 0.000000 1.663570 0.000000 
#    z 0.000000 0.000000 1.634110 
# 
# From -- ./inp_files/26641.got.cif
#   From: 2010.03.12/outbox.cif.g09.slc.cpg/sg51_14_cif.got.tgz:26641.got - 2010.04.16 13:43:02.
