data_PCOD8210450
_publ_section_title
;
Structure prediction by ZEFSAII (Michael W. Deem and Ramdas Pophale) SiO2 
 PCOD8210450
Probable space group: P M M A
;
_chemical_formula_sum "Si O2"
_cell_formula_units_Z 52
_cell_length_a 8.756292
_cell_length_b 26.950944
_cell_length_c 13.683710
_cell_angle_alpha 90.000000
_cell_angle_beta 90.000000
_cell_angle_gamma 90.000000
_cell_volume 3229.223312
_symmetry_space_group_name_H-M "P M M A"
_symmetry_group_IT_number 51
_symmetry_cell_setting 'orthorhombic'
loop_
_space_group_symop_operation_xyz
x,y,z
1/2-x,-y,z
1/2+x,-y,-z
-x,y,-z
-x,-y,-z
1/2+x,y,-z
1/2-x,y,z
x,-y,z
loop_
_atom_site_type_symbol
_atom_site_label
_atom_site_fract_x
_atom_site_fract_y
_atom_site_fract_z
Si Si1 0.571696 0.895302 0.896328
Si Si2 0.430438 0.848824 0.605058
Si Si3 0.572536 0.500000 0.894988
Si Si4 0.930875 0.295042 0.107897
Si Si5 0.926602 0.944682 0.280258
Si Si6 0.930821 0.202956 0.785142
Si Si7 0.930514 0.394005 0.892786
O O1 0.750000 0.898998 0.908232
O O2 0.518988 0.936538 0.819269
O O3 0.521884 0.840906 0.859224
O O4 0.500000 0.907073 0.000000
O O5 0.500000 0.838577 0.500000
O O6 0.250000 0.840755 0.602988
O O7 0.475192 0.904847 0.637625
O O8 0.506052 0.809358 0.677980
O O9 0.750000 0.500000 0.916399
O O10 0.531873 0.552379 0.839838
O O11 0.500000 0.500000 0.000000
O O12 0.750000 0.293836 0.099855
O O13 0.988070 0.252358 0.178921
O O14 0.987064 0.346985 0.157660
O O15 0.000000 0.287963 0.000000
O O16 0.750000 0.937910 0.253847
O O17 0.961998 0.000000 0.320204
O O18 0.750000 0.210494 0.780579
O O19 0.750000 0.383774 0.896998
O O20 0.000000 0.397314 0.000000
#
# Coordination Sequence:
#
# PCOD8210450 Si02
#       7
#     8   8   4   8   8   8   8
#     4  10  20  32  48  68  90 118 150 182 218 260
#     4  10  20  35  54  74  94 116 143 176 217 266
#     4   8  14  22  34  50  72 106 149 192 229 262
#     4  11  20  29  42  63  90 121 155 190 228 269
#     4   9  19  35  52  70  93 119 147 179 214 254
#     4  10  20  34  50  68  89 115 148 186 226 267
#     4   9  15  24  36  53  78 111 151 192 229 264
#
# _framework density 16.102943
#
# number of rings (size 3 to 8) (size 9 to 14) (size 15 to 20)
#    0.000    2.308    0.000    4.615    0.000    5.231 
#    0.000    0.000    0.000    0.000    0.000    0.000 
#    0.000    0.000    0.000    0.692    0.000    8.846 
#
# Total GULP energy -644460.923435 kJ/mol
# GULP energy per Si atom -12393.479297 kJ/mol
# Density = 1.606629 g / cm^3
# Si number density = 16.102943 Si / 1000 Ang^3
#
#
#
# Elastic Constant Matrix: (Units=GPa)
#
#
# Indices 1 2 3 4 5 6 
#
# 1 77.5935 45.2923 29.0043 0.0000 0.0000 0.0000
# 2 45.2923 135.7831 36.2135 0.0000 0.0000 0.0000
# 3 29.0043 36.2135 72.6085 0.0000 0.0000 0.0000
# 4 0.0000 0.0000 0.0000 16.5580 0.0000 0.0000
# 5 0.0000 0.0000 0.0000 0.0000 21.7251 0.0000
# 6 0.0000 0.0000 0.0000 0.0000 0.0000 21.7698
#
#
#
# Elastic Compliance Matrix: (Units=1/GPa)
#
#
# Indices 1 2 3 4 5 6 
#
# 1 0.017261 -0.004520 -0.004641 0.000000 0.000000 0.000000
# 2 -0.004520 0.009678 -0.003021 0.000000 0.000000 0.000000
# 3 -0.004641 -0.003021 0.017133 0.000000 0.000000 0.000000
# 4 0.000000 0.000000 0.000000 0.060394 0.000000 0.000000
# 5 0.000000 0.000000 0.000000 0.000000 0.046030 0.000000
# 6 0.000000 0.000000 0.000000 0.000000 0.000000 0.045935
#
#
# Mechanical properties :
#
#
# Convention : Reuss Voigt Hill
#
# Bulk Modulus (GPa) = 50.74081 56.33394 53.53737
# Shear Modulus (GPa) = 21.99116 23.70891 22.85004
#
# Velocity S-wave (km/s) = 3.69949 3.84126 3.77105
# Velocity P-wave (km/s) = 7.05883 7.39820 7.23050
#
# Compressibility (1/GPa) = 0.01970800
#
# Stress axis : x y z
#
# Youngs Moduli (GPa) = 57.93517 103.32521 58.36612
#
# Poissons Ratio (x) = 0.46702 0.27086
# Poissons Ratio (y) = 0.26186 0.17635
# Poissons Ratio (z) = 0.26886 0.31219
#
# Static dielectric constant tensor:
#      x y z
#    x 3.077420 0.000000 0.000000 
#    y 0.000000 3.709340 0.000000 
#    z 0.000000 0.000000 2.328470 
# 
# 
# High freq. dielectric constant tensor:
#      x y z
#    x 1.636830 0.000000 0.000000 
#    y 0.000000 1.630270 0.000000 
#    z 0.000000 0.000000 1.566530 
# 
# From -- ./inp_files/14608.got.cif
#   From: 2010.03.12/outbox.cif.g09.slc.cpg/sg51_8_cif.got.tgz:14608.got - 2010.04.16 13:43:02.
