data_PCOD8210483
_publ_section_title
;
Structure prediction by ZEFSAII (Michael W. Deem and Ramdas Pophale) SiO2 
 PCOD8210483
Probable space group: P M M A
;
_chemical_formula_sum "Si O2"
_cell_formula_units_Z 48
_cell_length_a 9.203650
_cell_length_b 8.840983
_cell_length_c 31.219779
_cell_angle_alpha 90.000000
_cell_angle_beta 90.000000
_cell_angle_gamma 90.000000
_cell_volume 2540.331975
_symmetry_space_group_name_H-M "P M M A"
_symmetry_group_IT_number 51
_symmetry_cell_setting 'orthorhombic'
loop_
_space_group_symop_operation_xyz
x,y,z
1/2-x,-y,z
1/2+x,-y,-z
-x,y,-z
-x,-y,-z
1/2+x,y,-z
1/2-x,y,z
x,-y,z
loop_
_atom_site_type_symbol
_atom_site_label
_atom_site_fract_x
_atom_site_fract_y
_atom_site_fract_z
Si Si1 0.086617 0.319439 0.876268
Si Si2 0.086913 0.320154 0.298946
Si Si3 0.586800 0.679875 0.795600
Si Si4 0.914230 0.319673 0.958689
Si Si5 0.586591 0.320323 0.379714
Si Si6 0.918655 0.823366 0.542852
O O1 0.250000 0.257476 0.880427
O O2 0.085496 0.500000 0.876005
O O3 0.018707 0.254368 0.832187
O O4 0.993405 0.258056 0.916189
O O5 0.250000 0.260073 0.308089
O O6 0.087933 0.500000 0.300319
O O7 0.034909 0.265697 0.251680
O O8 0.978545 0.256037 0.335087
O O9 0.750000 0.738312 0.804431
O O10 0.585293 0.500000 0.797389
O O11 0.750000 0.257115 0.959668
O O12 0.913620 0.500000 0.958878
O O13 0.000000 0.257567 0.000000
O O14 0.750000 0.256681 0.385068
O O15 0.587357 0.500000 0.379330
O O16 0.485541 0.266795 0.417960
O O17 0.750000 0.781339 0.538212
O O18 0.000000 0.770484 0.500000
O O19 0.942380 0.000000 0.551130
#
# Coordination Sequence:
#
# PCOD8210483 Si02
#       6
#     8   8   8   8   8   8
#     4   9  15  20  26  37  52  71  98 133 175 225
#     4   8  14  25  40  57  79 107 136 167 205 248
#     4   8  13  21  32  45  62  86 115 146 184 231
#     4   9  15  21  27  33  43  61  88 126 173 224
#     4  10  20  32  48  72  99 125 153 185 223 267
#     4  10  21  37  56  75  95 122 155 189 226 267
#
# _framework density 18.895168000000002
#
# number of rings (size 3 to 8) (size 9 to 14) (size 15 to 20)
#    0.000    3.000    0.000    3.000    0.000    7.000 
#    0.000    3.333    0.000    0.000    0.000    0.000 
#    0.000    0.000    0.000    0.000    0.000    0.000 
#
# Total GULP energy -595000.406663 kJ/mol
# GULP energy per Si atom -12395.841805 kJ/mol
# Density = 1.885216 g / cm^3
# Si number density = 18.895168 Si / 1000 Ang^3
#
#
#
# Elastic Constant Matrix: (Units=GPa)
#
#
# Indices 1 2 3 4 5 6 
#
# 1 163.7854 10.6328 101.1225 0.0000 0.0000 0.0000
# 2 10.6328 4.4006 11.3971 0.0000 0.0000 0.0000
# 3 101.1225 11.3971 183.5042 0.0000 0.0000 0.0000
# 4 0.0000 0.0000 0.0000 -3.2633 0.0000 0.0000
# 5 0.0000 0.0000 0.0000 0.0000 45.2599 0.0000
# 6 0.0000 0.0000 0.0000 0.0000 0.0000 10.0740
#
#
#
# Elastic Compliance Matrix: (Units=1/GPa)
#
#
# Indices 1 2 3 4 5 6 
#
# 1 0.009715 -0.011450 -0.004643 0.000000 0.000000 0.000000
# 2 -0.011450 0.284297 -0.011347 0.000000 0.000000 0.000000
# 3 -0.004643 -0.011347 0.008713 0.000000 0.000000 0.000000
# 4 0.000000 0.000000 0.000000 -0.306443 0.000000 0.000000
# 5 0.000000 0.000000 0.000000 0.000000 0.022095 0.000000
# 6 0.000000 0.000000 0.000000 0.000000 0.000000 0.099265
#
#
# Mechanical properties :
#
#
# Convention : Reuss Voigt Hill
#
# Bulk Modulus (GPa) = 4.03479 66.44387 35.23933
# Shear Modulus (GPa) = 19.59735 25.65000 22.62368
#
# Velocity S-wave (km/s) = 3.22399 3.68841 3.46399
# Velocity P-wave (km/s) = 3.99986 7.30616 5.88977
#
# Compressibility (1/GPa) = 0.24784413
#
# Stress axis : x y z
#
# Youngs Moduli (GPa) = 102.93086 3.51745 114.77683
#
# Poissons Ratio (x) = 0.04028 0.53286
# Poissons Ratio (y) = 1.17860 1.30239
# Poissons Ratio (z) = 0.47786 0.03991
#
# Static dielectric constant tensor:
#      x y z
#    x 3.747620 0.000000 0.000000 
#    y 0.000000 2.640740 0.000000 
#    z 0.000000 0.000000 3.834680 
# 
# 
# High freq. dielectric constant tensor:
#      x y z
#    x 1.744610 0.000000 0.000000 
#    y 0.000000 1.645760 0.000000 
#    z 0.000000 0.000000 1.755210 
# 
# From -- ./inp_files/37059.got.cif
#   From: 2010.03.12/outbox.cif.g09.slc.cpg/sg51_19_cif.got.tgz:37059.got - 2010.04.16 13:43:02.
