data_PCOD8210947
_publ_section_title
;
Structure prediction by ZEFSAII (Michael W. Deem and Ramdas Pophale) SiO2 
 PCOD8210947
Probable space group: P M M A
;
_chemical_formula_sum "Si O2"
_cell_formula_units_Z 48
_cell_length_a 9.053584
_cell_length_b 9.312436
_cell_length_c 31.019111
_cell_angle_alpha 90.000000
_cell_angle_beta 90.000000
_cell_angle_gamma 90.000000
_cell_volume 2615.249835
_symmetry_space_group_name_H-M "P M M A"
_symmetry_group_IT_number 51
_symmetry_cell_setting 'orthorhombic'
loop_
_space_group_symop_operation_xyz
x,y,z
1/2-x,-y,z
1/2+x,-y,-z
-x,y,-z
-x,-y,-z
1/2+x,y,-z
1/2-x,y,z
x,-y,z
loop_
_atom_site_type_symbol
_atom_site_label
_atom_site_fract_x
_atom_site_fract_y
_atom_site_fract_z
Si Si1 0.425749 0.340108 0.134108
Si Si2 0.921499 0.168547 0.783412
Si Si3 0.420628 0.331941 0.380061
Si Si4 0.078972 0.168211 0.543670
Si Si5 0.913086 0.329029 0.959504
Si Si6 0.422570 0.334372 0.708014
O O1 0.250000 0.344589 0.130701
O O2 0.485002 0.500000 0.145399
O O3 0.478228 0.230968 0.171002
O O4 0.486135 0.288945 0.087056
O O5 0.750000 0.207767 0.775544
O O6 0.019993 0.236673 0.746403
O O7 0.947996 0.000000 0.783947
O O8 0.250000 0.285755 0.379749
O O9 0.440117 0.500000 0.388564
O O10 0.505425 0.249120 0.417017
O O11 0.491667 0.286879 0.334792
O O12 0.250000 0.210686 0.540495
O O13 0.000000 0.218921 0.500000
O O14 0.056726 0.000000 0.551245
O O15 0.750000 0.262937 0.962379
O O16 0.907115 0.500000 0.962940
O O17 0.000000 0.262108 0.000000
O O18 0.250000 0.306909 0.700597
O O19 0.455619 0.500000 0.719239
#
# Coordination Sequence:
#
# PCOD8210947 Si02
#       6
#     8   8   8   8   8   8
#     4   8  14  26  45  67  92 124 160 199 245 294
#     4  10  20  33  51  75 100 129 167 208 250 298
#     4  10  21  37  58  83 108 136 172 214 259 305
#     4  10  21  37  57  81 110 145 182 218 257 301
#     4   8  13  22  38  61  87 115 150 194 242 288
#     4  10  21  37  56  77 102 133 168 207 254 306
#
# _framework density 18.353888000000001
#
# number of rings (size 3 to 8) (size 9 to 14) (size 15 to 20)
#    0.000    2.667    0.000    3.000    0.000    5.000 
#    0.000    0.833    0.000    3.500    0.000    0.000 
#    0.000    0.000    0.000    0.000    0.000    0.000 
#
# Total GULP energy -595110.068194 kJ/mol
# GULP energy per Si atom -12398.126421 kJ/mol
# Density = 1.831211 g / cm^3
# Si number density = 18.353888 Si / 1000 Ang^3
#
#
#
# Elastic Constant Matrix: (Units=GPa)
#
#
# Indices 1 2 3 4 5 6 
#
# 1 96.5841 38.7484 72.2327 0.0000 0.0000 0.0000
# 2 38.7484 56.6159 61.7300 0.0000 0.0000 0.0000
# 3 72.2327 61.7300 175.0587 0.0000 0.0000 0.0000
# 4 0.0000 0.0000 0.0000 -117.0955 0.0000 0.0000
# 5 0.0000 0.0000 0.0000 0.0000 35.0722 0.0000
# 6 0.0000 0.0000 0.0000 0.0000 0.0000 23.3842
#
#
#
# Elastic Compliance Matrix: (Units=1/GPa)
#
#
# Indices 1 2 3 4 5 6 
#
# 1 0.016202 -0.006173 -0.004508 0.000000 0.000000 0.000000
# 2 -0.006173 0.031048 -0.008401 0.000000 0.000000 0.000000
# 3 -0.004508 -0.008401 0.010535 0.000000 0.000000 0.000000
# 4 0.000000 0.000000 0.000000 -0.008540 0.000000 0.000000
# 5 0.000000 0.000000 0.000000 0.000000 0.028513 0.000000
# 6 0.000000 0.000000 0.000000 0.000000 0.000000 0.042764
#
#
# Mechanical properties :
#
#
# Convention : Reuss Voigt Hill
#
# Bulk Modulus (GPa) = 50.96947 74.85343 62.91145
# Shear Modulus (GPa) = 30.26147 -1.35799 14.45174
#
# Velocity S-wave (km/s) = 4.06492 -0.86110 2.80910
# Velocity P-wave (km/s) = 7.06131 6.31532 6.69871
#
# Compressibility (1/GPa) = 0.01961959
#
# Stress axis : x y z
#
# Youngs Moduli (GPa) = 61.72067 32.20845 94.92086
#
# Poissons Ratio (x) = 0.19882 0.42795
# Poissons Ratio (y) = 0.38101 0.79744
# Poissons Ratio (z) = 0.27827 0.27059
#
# Static dielectric constant tensor:
#      x y z
#    x 3.257460 0.000000 0.000000 
#    y 0.000000 3.158530 0.000000 
#    z 0.000000 0.000000 3.803850 
# 
# 
# High freq. dielectric constant tensor:
#      x y z
#    x 1.698710 0.000000 0.000000 
#    y 0.000000 1.685030 0.000000 
#    z 0.000000 0.000000 1.731140 
# 
# From -- ./inp_files/36985.got.cif
#   From: 2010.03.12/outbox.cif.g09.slc.cpg/sg51_19_cif.got.tgz:36985.got - 2010.04.16 13:43:02.
