data_PCOD8210655
_publ_section_title
;
Structure prediction by ZEFSAII (Michael W. Deem and Ramdas Pophale) SiO2 
 PCOD8210655
Probable space group: P M M A
;
_chemical_formula_sum "Si O2"
_cell_formula_units_Z 64
_cell_length_a 29.871552
_cell_length_b 9.464234
_cell_length_c 11.877265
_cell_angle_alpha 90.000000
_cell_angle_beta 90.000000
_cell_angle_gamma 90.000000
_cell_volume 3357.837718
_symmetry_space_group_name_H-M "P M M A"
_symmetry_group_IT_number 51
_symmetry_cell_setting 'orthorhombic'
loop_
_space_group_symop_operation_xyz
x,y,z
1/2-x,-y,z
1/2+x,-y,-z
-x,y,-z
-x,-y,-z
1/2+x,y,-z
1/2-x,y,z
x,-y,z
loop_
_atom_site_type_symbol
_atom_site_label
_atom_site_fract_x
_atom_site_fract_y
_atom_site_fract_z
Si Si1 0.200817 0.844675 0.906552
Si Si2 0.037818 0.834448 0.589250
Si Si3 0.700155 0.832706 0.668802
Si Si4 0.528525 0.662428 0.178845
Si Si5 0.199790 0.335652 0.694200
Si Si6 0.934881 0.338630 0.943199
Si Si7 0.354675 0.161648 0.123377
Si Si8 0.361270 0.835368 0.534383
O O1 0.250000 0.842798 0.962861
O O2 0.196881 0.716088 0.821418
O O3 0.193193 0.000000 0.849459
O O4 0.164276 0.818954 0.999981
O O5 0.034839 0.755844 0.709287
O O6 0.085780 0.802884 0.531021
O O7 0.000000 0.782592 0.500000
O O8 0.031752 0.000000 0.614612
O O9 0.750000 0.767898 0.647227
O O10 0.681377 0.778140 0.787968
O O11 0.663583 0.782015 0.577967
O O12 0.704388 0.000000 0.667581
O O13 0.538463 0.500000 0.211572
O O14 0.479348 0.678569 0.129240
O O15 0.560324 0.711562 0.074302
O O16 0.250000 0.304880 0.646037
O O17 0.188573 0.500000 0.689416
O O18 0.161088 0.251526 0.633269
O O19 0.919066 0.500000 0.944605
O O20 0.900223 0.247361 0.872173
O O21 0.365913 0.000000 0.153365
O O22 0.352408 0.000000 0.555787
#
# Coordination Sequence:
#
# PCOD8210655 Si02
#       8
#     8   8   8   8   8   8   8   8
#     4   9  18  33  52  77 112 147 178 218 270 328
#     4  10  23  39  58  86 120 148 181 237 291 333
#     4   9  18  34  57  83 111 146 189 233 276 331
#     4   9  20  40  61  80 109 150 191 226 274 340
#     4  10  21  36  55  81 112 146 187 234 278 324
#     4   9  20  38  58  82 112 146 184 229 277 334
#     4  10  20  32  55  86 112 140 183 230 277 331
#     4  10  21  37  58  83 111 148 189 227 279 341
#
# _framework density 19.059885000000001
#
# number of rings (size 3 to 8) (size 9 to 14) (size 15 to 20)
#    0.000    2.500    0.000    1.875    3.500    5.000 
#    0.000    1.875    0.000    1.875    0.000    0.000 
#    0.000    0.000    0.000    0.000    0.000    0.000 
#
# Total GULP energy -793221.263267 kJ/mol
# GULP energy per Si atom -12394.082239 kJ/mol
# Density = 1.901650 g / cm^3
# Si number density = 19.059885 Si / 1000 Ang^3
#
#
#
# Elastic Constant Matrix: (Units=GPa)
#
#
# Indices 1 2 3 4 5 6 
#
# 1 120.0585 46.1041 56.2841 0.0000 0.0000 0.0000
# 2 46.1041 55.5191 37.4665 0.0000 0.0000 0.0000
# 3 56.2841 37.4665 96.3197 0.0000 0.0000 0.0000
# 4 0.0000 0.0000 0.0000 19.2073 0.0000 0.0000
# 5 0.0000 0.0000 0.0000 0.0000 28.7653 0.0000
# 6 0.0000 0.0000 0.0000 0.0000 0.0000 12.5949
#
#
#
# Elastic Compliance Matrix: (Units=1/GPa)
#
#
# Indices 1 2 3 4 5 6 
#
# 1 0.013726 -0.008116 -0.004864 0.000000 0.000000 0.000000
# 2 -0.008116 0.029222 -0.006624 0.000000 0.000000 0.000000
# 3 -0.004864 -0.006624 0.015801 0.000000 0.000000 0.000000
# 4 0.000000 0.000000 0.000000 0.052064 0.000000 0.000000
# 5 0.000000 0.000000 0.000000 0.000000 0.034764 0.000000
# 6 0.000000 0.000000 0.000000 0.000000 0.000000 0.079398
#
#
# Mechanical properties :
#
#
# Convention : Reuss Voigt Hill
#
# Bulk Modulus (GPa) = 51.17508 61.28965 56.23237
# Shear Modulus (GPa) = 18.47093 20.91634 19.69363
#
# Velocity S-wave (km/s) = 3.11641 3.31630 3.21791
# Velocity P-wave (km/s) = 6.31326 6.84762 6.58587
#
# Compressibility (1/GPa) = 0.01954076
#
# Stress axis : x y z
#
# Youngs Moduli (GPa) = 72.85353 34.22099 63.28766
#
# Poissons Ratio (x) = 0.27774 0.30782
# Poissons Ratio (y) = 0.59129 0.41922
# Poissons Ratio (z) = 0.35434 0.22668
#
# Static dielectric constant tensor:
#      x y z
#    x 3.648460 0.000000 0.000000 
#    y 0.000000 3.317800 0.000000 
#    z 0.000000 0.000000 3.480440 
# 
# 
# High freq. dielectric constant tensor:
#      x y z
#    x 1.751920 0.000000 0.000000 
#    y 0.000000 1.719020 0.000000 
#    z 0.000000 0.000000 1.739250 
# 
# From -- ./inp_files/19522.got.cif
#   From: 2010.03.12/outbox.cif.g09.slc.cpg/sg51_10_cif.got.tgz:19522.got - 2010.04.16 13:43:02.
