data_PCOD8210442
_publ_section_title
;
Structure prediction by ZEFSAII (Michael W. Deem and Ramdas Pophale) SiO2 
 PCOD8210442
Probable space group: P M M A
;
_chemical_formula_sum "Si O2"
_cell_formula_units_Z 56
_cell_length_a 17.941291
_cell_length_b 9.026269
_cell_length_c 18.929545
_cell_angle_alpha 90.000000
_cell_angle_beta 90.000000
_cell_angle_gamma 90.000000
_cell_volume 3065.505768
_symmetry_space_group_name_H-M "P M M A"
_symmetry_group_IT_number 51
_symmetry_cell_setting 'orthorhombic'
loop_
_space_group_symop_operation_xyz
x,y,z
1/2-x,-y,z
1/2+x,-y,-z
-x,y,-z
-x,-y,-z
1/2+x,y,-z
1/2-x,y,z
x,-y,z
loop_
_atom_site_type_symbol
_atom_site_label
_atom_site_fract_x
_atom_site_fract_y
_atom_site_fract_z
Si Si1 0.163428 0.325850 0.532375
Si Si2 0.168067 0.832035 0.134804
Si Si3 0.030713 0.324861 0.075014
Si Si4 0.411032 0.827009 0.402593
Si Si5 0.077683 0.171907 0.649688
Si Si6 0.534680 0.336422 0.218452
Si Si7 0.867356 0.335577 0.729867
O O1 0.250000 0.289069 0.518476
O O2 0.148082 0.500000 0.528622
O O3 0.110160 0.243674 0.477074
O O4 0.140425 0.265524 0.609250
O O5 0.250000 0.827390 0.099271
O O6 0.110990 0.749761 0.083534
O O7 0.175942 0.754637 0.210669
O O8 0.140494 0.000000 0.146282
O O9 0.043130 0.500000 0.078333
O O10 0.972945 0.277254 0.137462
O O11 0.000000 0.271264 0.000000
O O12 0.497822 0.798036 0.386487
O O13 0.359047 0.750874 0.343761
O O14 0.393030 0.000000 0.404551
O O15 0.080090 0.223781 0.731861
O O16 0.098604 0.000000 0.647491
O O17 0.572236 0.500000 0.219782
O O18 0.452545 0.348905 0.248909
O O19 0.832639 0.500000 0.721547
#
# Coordination Sequence:
#
# PCOD8210442 Si02
#       7
#     8   8   8   8   8   8   8
#     4  11  24  38  51  70  97 131 171 214 261 308
#     4  10  20  32  47  71 104 140 174 207 249 302
#     4   9  18  33  54  80 107 135 170 210 251 297
#     4  10  20  34  53  77 103 131 166 208 255 307
#     4  10  20  34  54  77  99 127 166 209 252 301
#     4   8  15  29  50  75 100 125 156 197 242 289
#     4   9  17  30  49  72  98 130 166 202 242 291
#
# _framework density 18.267785
#
# number of rings (size 3 to 8) (size 9 to 14) (size 15 to 20)
#    0.000    2.429    0.000    3.429    0.000   10.000 
#    0.000    0.000    0.000    0.857    0.000    2.000 
#    0.000    0.000    0.000    0.000    0.000    0.000 
#
# Total GULP energy -694287.075031 kJ/mol
# GULP energy per Si atom -12397.983483 kJ/mol
# Density = 1.822621 g / cm^3
# Si number density = 18.267785 Si / 1000 Ang^3
#
#
#
# Elastic Constant Matrix: (Units=GPa)
#
#
# Indices 1 2 3 4 5 6 
#
# 1 41.6577 34.1533 30.7554 0.0000 0.0000 0.0000
# 2 34.1533 101.2693 48.6987 0.0000 0.0000 0.0000
# 3 30.7554 48.6987 128.1483 0.0000 0.0000 0.0000
# 4 0.0000 0.0000 0.0000 22.5390 0.0000 0.0000
# 5 0.0000 0.0000 0.0000 0.0000 11.5588 0.0000
# 6 0.0000 0.0000 0.0000 0.0000 0.0000 22.4293
#
#
#
# Elastic Compliance Matrix: (Units=1/GPa)
#
#
# Indices 1 2 3 4 5 6 
#
# 1 0.035488 -0.009633 -0.004856 0.000000 0.000000 0.000000
# 2 -0.009633 0.014698 -0.003273 0.000000 0.000000 0.000000
# 3 -0.004856 -0.003273 0.010213 0.000000 0.000000 0.000000
# 4 0.000000 0.000000 0.000000 0.044367 0.000000 0.000000
# 5 0.000000 0.000000 0.000000 0.000000 0.086514 0.000000
# 6 0.000000 0.000000 0.000000 0.000000 0.000000 0.044585
#
#
# Mechanical properties :
#
#
# Convention : Reuss Voigt Hill
#
# Bulk Modulus (GPa) = 40.20428 55.36559 47.78494
# Shear Modulus (GPa) = 17.87746 21.80329 19.84037
#
# Velocity S-wave (km/s) = 3.13170 3.45851 3.29916
# Velocity P-wave (km/s) = 5.92730 6.80602 6.38180
#
# Compressibility (1/GPa) = 0.02487297
#
# Stress axis : x y z
#
# Youngs Moduli (GPa) = 28.17826 68.03835 97.91499
#
# Poissons Ratio (x) = 0.65543 0.47551
# Poissons Ratio (y) = 0.27145 0.32052
# Poissons Ratio (z) = 0.13684 0.22272
#
# Static dielectric constant tensor:
#      x y z
#    x 3.054440 0.000000 0.000000 
#    y 0.000000 3.507250 0.000000 
#    z 0.000000 0.000000 3.540580 
# 
# 
# High freq. dielectric constant tensor:
#      x y z
#    x 1.674060 0.000000 0.000000 
#    y 0.000000 1.719920 0.000000 
#    z 0.000000 0.000000 1.701430 
# 
# From -- ./inp_files/33740.got.cif
#   From: 2010.03.12/outbox.cif.g09.slc.cpg/sg51_17_cif.got.tgz:33740.got - 2010.04.16 13:43:02.
