data_PCOD8210213
_publ_section_title
;
Structure prediction by ZEFSAII (Michael W. Deem and Ramdas Pophale) SiO2 
 PCOD8210213
Probable space group: P M M A
;
_chemical_formula_sum "Si O2"
_cell_formula_units_Z 52
_cell_length_a 9.592402
_cell_length_b 8.381176
_cell_length_c 35.138315
_cell_angle_alpha 90.000000
_cell_angle_beta 90.000000
_cell_angle_gamma 90.000000
_cell_volume 2824.966249
_symmetry_space_group_name_H-M "P M M A"
_symmetry_group_IT_number 51
_symmetry_cell_setting 'orthorhombic'
loop_
_space_group_symop_operation_xyz
x,y,z
1/2-x,-y,z
1/2+x,-y,-z
-x,y,-z
-x,-y,-z
1/2+x,y,-z
1/2-x,y,z
x,-y,z
loop_
_atom_site_type_symbol
_atom_site_label
_atom_site_fract_x
_atom_site_fract_y
_atom_site_fract_z
Si Si1 0.594098 0.815221 0.733865
Si Si2 0.910123 0.314949 0.811366
Si Si3 0.415080 0.321580 0.583188
Si Si4 0.412581 0.182760 0.111512
Si Si5 0.594195 0.312845 0.966469
Si Si6 0.083222 0.000000 0.538843
Si Si7 0.408285 0.683129 0.669172
O O1 0.750000 0.745311 0.726777
O O2 0.521317 0.735711 0.771124
O O3 0.502845 0.786773 0.696700
O O4 0.602098 0.000000 0.742413
O O5 0.750000 0.258301 0.808674
O O6 0.926423 0.500000 0.817657
O O7 0.982942 0.234518 0.848367
O O8 0.250000 0.327784 0.582762
O O9 0.468187 0.500000 0.568598
O O10 0.465308 0.165358 0.559625
O O11 0.466606 0.296316 0.626372
O O12 0.250000 0.225518 0.114763
O O13 0.473845 0.274973 0.074809
O O14 0.442986 0.000000 0.104215
O O15 0.750000 0.237972 0.969124
O O16 0.602799 0.500000 0.972067
O O17 0.500000 0.237074 0.000000
O O18 0.000000 0.000000 0.500000
O O19 0.250000 0.000000 0.532597
O O20 0.250000 0.746537 0.671672
O O21 0.416125 0.500000 0.681943
#
# Coordination Sequence:
#
# PCOD8210213 Si02
#       7
#     8   8   8   8   8   4   8
#     4  10  20  31  45  71 104 133 160 197 247 297
#     4   9  16  27  44  64  89 123 159 193 232 280
#     4   8  16  32  53  76 101 132 173 214 250 298
#     4   9  16  26  42  64  88 114 147 188 228 270
#     4   9  17  29  45  65  88 113 143 179 220 268
#     4  10  20  34  54  78 104 136 170 210 258 304
#     4   9  18  33  53  75  97 127 171 214 247 288
#
# _framework density 18.407298999999998
#
# number of rings (size 3 to 8) (size 9 to 14) (size 15 to 20)
#    0.000    2.923    0.000    2.308    1.077    5.538 
#    0.000    0.769    0.000    1.846    0.000    2.154 
#    0.000    0.000    0.000    0.000    0.000    0.000 
#
# Total GULP energy -644316.460235 kJ/mol
# GULP energy per Si atom -12390.701158 kJ/mol
# Density = 1.836540 g / cm^3
# Si number density = 18.407299 Si / 1000 Ang^3
#
#
#
# Elastic Constant Matrix: (Units=GPa)
#
#
# Indices 1 2 3 4 5 6 
#
# 1 33.7414 16.2647 35.3217 0.0000 0.0000 0.0000
# 2 16.2647 72.4519 51.9026 0.0000 0.0000 0.0000
# 3 35.3217 51.9026 141.1757 0.0000 0.0000 0.0000
# 4 0.0000 0.0000 0.0000 32.4561 0.0000 0.0000
# 5 0.0000 0.0000 0.0000 0.0000 24.8020 0.0000
# 6 0.0000 0.0000 0.0000 0.0000 0.0000 14.4058
#
#
#
# Elastic Compliance Matrix: (Units=1/GPa)
#
#
# Indices 1 2 3 4 5 6 
#
# 1 0.040482 -0.002487 -0.009214 0.000000 0.000000 0.000000
# 2 -0.002487 0.018890 -0.006323 0.000000 0.000000 0.000000
# 3 -0.009214 -0.006323 0.011713 0.000000 0.000000 0.000000
# 4 0.000000 0.000000 0.000000 0.030811 0.000000 0.000000
# 5 0.000000 0.000000 0.000000 0.000000 0.040319 0.000000
# 6 0.000000 0.000000 0.000000 0.000000 0.000000 0.069416
#
#
# Mechanical properties :
#
#
# Convention : Reuss Voigt Hill
#
# Bulk Modulus (GPa) = 28.54092 50.48299 39.51196
# Shear Modulus (GPa) = 19.27843 23.92480 21.60162
#
# Velocity S-wave (km/s) = 3.23975 3.60911 3.42941
# Velocity P-wave (km/s) = 5.43448 6.69721 6.09861
#
# Compressibility (1/GPa) = 0.03503741
#
# Stress axis : x y z
#
# Youngs Moduli (GPa) = 24.70262 52.93843 85.37435
#
# Poissons Ratio (x) = 0.13166 0.78664
# Poissons Ratio (y) = 0.06144 0.53978
# Poissons Ratio (z) = 0.22761 0.33470
#
# Static dielectric constant tensor:
#      x y z
#    x 2.947870 0.000000 0.000000 
#    y 0.000000 3.499230 0.000000 
#    z 0.000000 0.000000 3.598980 
# 
# 
# High freq. dielectric constant tensor:
#      x y z
#    x 1.645710 0.000000 0.000000 
#    y 0.000000 1.720510 0.000000 
#    z 0.000000 0.000000 1.727740 
# 
# From -- ./inp_files/37694.got.cif
#   From: 2010.03.12/outbox.cif.g09.slc.cpg/sg51_19_cif.got.tgz:37694.got - 2010.04.16 13:43:02.
