data_PCOD8210268
_publ_section_title
;
Structure prediction by ZEFSAII (Michael W. Deem and Ramdas Pophale) SiO2 
 PCOD8210268
Probable space group: P M M A
;
_chemical_formula_sum "Si O2"
_cell_formula_units_Z 64
_cell_length_a 24.962273
_cell_length_b 9.071403
_cell_length_c 17.829723
_cell_angle_alpha 90.000000
_cell_angle_beta 90.000000
_cell_angle_gamma 90.000000
_cell_volume 4037.413080
_symmetry_space_group_name_H-M "P M M A"
_symmetry_group_IT_number 51
_symmetry_cell_setting 'orthorhombic'
loop_
_space_group_symop_operation_xyz
x,y,z
1/2-x,-y,z
1/2+x,-y,-z
-x,y,-z
-x,-y,-z
1/2+x,y,-z
1/2-x,y,z
x,-y,z
loop_
_atom_site_type_symbol
_atom_site_label
_atom_site_fract_x
_atom_site_fract_y
_atom_site_fract_z
Si Si1 0.895623 0.329183 0.091614
Si Si2 0.392373 0.328997 0.084762
Si Si3 0.812080 0.174844 0.194524
Si Si4 0.687032 0.829153 0.810131
Si Si5 0.186227 0.334574 0.338510
Si Si6 0.813479 0.836465 0.356576
Si Si7 0.186307 0.167725 0.482247
Si Si8 0.001574 0.833411 0.089147
O O1 0.900876 0.500000 0.112029
O O2 0.844548 0.259824 0.131576
O O3 0.949131 0.248281 0.120756
O O4 0.887264 0.304874 0.003651
O O5 0.394374 0.500000 0.106200
O O6 0.340837 0.253845 0.121360
O O7 0.445923 0.252864 0.117164
O O8 0.750000 0.211514 0.180595
O O9 0.831334 0.236188 0.277251
O O10 0.822140 0.000000 0.189048
O O11 0.750000 0.804804 0.820277
O O12 0.666459 0.761552 0.731752
O O13 0.671420 0.000000 0.811367
O O14 0.250000 0.334749 0.341967
O O15 0.163891 0.500000 0.330085
O O16 0.161996 0.265191 0.414983
O O17 0.750000 0.847140 0.353679
O O18 0.830976 0.761571 0.436115
O O19 0.837700 0.000000 0.359138
O O20 0.250000 0.167502 0.476112
O O21 0.165340 0.000000 0.474392
O O22 0.002963 0.000000 0.120330
O O23 0.000000 0.831958 0.000000
#
# Coordination Sequence:
#
# PCOD8210268 Si02
#       8
#     8   8   8   8   8   8   8   8
#     4  10  20  32  46  65  89 116 145 179 222 267
#     4  10  20  33  48  65  87 114 143 179 224 268
#     4   9  17  29  44  62  87 120 155 187 218 255
#     4  10  20  32  45  62  86 117 152 185 215 253
#     4   9  16  25  37  55  81 111 141 174 214 257
#     4   7  11  21  37  56  78 107 143 180 215 250
#     4   8  12  20  36  55  75 103 140 177 211 250
#     4   9  17  31  51  70  85 104 137 181 223 261
#
# _framework density 15.851734
#
# number of rings (size 3 to 8) (size 9 to 14) (size 15 to 20)
#    0.000    3.000    0.000    3.375    0.000    6.000 
#    0.000    3.125    0.000    2.250    0.000    0.000 
#    0.000    1.000    0.000   10.750    0.000    7.750 
#
# Total GULP energy -793040.573494 kJ/mol
# GULP energy per Si atom -12391.258961 kJ/mol
# Density = 1.581565 g / cm^3
# Si number density = 15.851734 Si / 1000 Ang^3
#
#
#
# Elastic Constant Matrix: (Units=GPa)
#
#
# Indices 1 2 3 4 5 6 
#
# 1 52.6753 44.1944 40.4700 0.0000 0.0000 0.0000
# 2 44.1944 112.9033 55.1570 0.0000 0.0000 0.0000
# 3 40.4700 55.1570 75.4868 0.0000 0.0000 0.0000
# 4 0.0000 0.0000 0.0000 18.8188 0.0000 0.0000
# 5 0.0000 0.0000 0.0000 0.0000 1.2718 0.0000
# 6 0.0000 0.0000 0.0000 0.0000 0.0000 22.5477
#
#
#
# Elastic Compliance Matrix: (Units=1/GPa)
#
#
# Indices 1 2 3 4 5 6 
#
# 1 0.035672 -0.007185 -0.013875 0.000000 0.000000 0.000000
# 2 -0.007185 0.015221 -0.007270 0.000000 0.000000 0.000000
# 3 -0.013875 -0.007270 0.025998 0.000000 0.000000 0.000000
# 4 0.000000 0.000000 0.000000 0.053138 0.000000 0.000000
# 5 0.000000 0.000000 0.000000 0.000000 0.786278 0.000000
# 6 0.000000 0.000000 0.000000 0.000000 0.000000 0.044350
#
#
# Mechanical properties :
#
#
# Convention : Reuss Voigt Hill
#
# Bulk Modulus (GPa) = 49.42623 57.85645 53.64134
# Shear Modulus (GPa) = 4.88252 15.27726 10.07989
#
# Velocity S-wave (km/s) = 1.75693 3.10782 2.52441
# Velocity P-wave (km/s) = 5.94674 7.03248 6.51228
#
# Compressibility (1/GPa) = 0.02023217
#
# Stress axis : x y z
#
# Youngs Moduli (GPa) = 28.03289 65.69783 38.46505
#
# Poissons Ratio (x) = 0.47206 0.53368
# Poissons Ratio (y) = 0.20142 0.27963
# Poissons Ratio (z) = 0.38894 0.47760
#
# Static dielectric constant tensor:
#      x y z
#    x 2.658980 0.000000 0.000000 
#    y 0.000000 3.069900 0.000000 
#    z 0.000000 0.000000 3.218790 
# 
# 
# High freq. dielectric constant tensor:
#      x y z
#    x 1.558010 0.000000 0.000000 
#    y 0.000000 1.608470 0.000000 
#    z 0.000000 0.000000 1.608220 
# 
# From -- ./inp_files/30908.got.cif
#   From: 2010.03.12/outbox.cif.g09.slc.cpg/sg51_16_cif.got.tgz:30908.got - 2010.04.16 13:43:02.
