data_PCOD8210374
_publ_section_title
;
Structure prediction by ZEFSAII (Michael W. Deem and Ramdas Pophale) SiO2 
 PCOD8210374
Probable space group: P M M A
;
_chemical_formula_sum "Si O2"
_cell_formula_units_Z 64
_cell_length_a 9.369042
_cell_length_b 17.672644
_cell_length_c 22.343105
_cell_angle_alpha 90.000000
_cell_angle_beta 90.000000
_cell_angle_gamma 90.000000
_cell_volume 3699.476231
_symmetry_space_group_name_H-M "P M M A"
_symmetry_group_IT_number 51
_symmetry_cell_setting 'orthorhombic'
loop_
_space_group_symop_operation_xyz
x,y,z
1/2-x,-y,z
1/2+x,-y,-z
-x,y,-z
-x,-y,-z
1/2+x,y,-z
1/2-x,y,z
x,-y,z
loop_
_atom_site_type_symbol
_atom_site_label
_atom_site_fract_x
_atom_site_fract_y
_atom_site_fract_z
Si Si1 0.922378 0.699118 0.937782
Si Si2 0.094170 0.199926 0.165396
Si Si3 0.579699 0.913945 0.741459
Si Si4 0.410706 0.413300 0.361238
Si Si5 0.406959 0.195161 0.666951
Si Si6 0.581875 0.699101 0.439038
Si Si7 0.997264 0.322134 0.749862
Si Si8 0.589206 0.586852 0.139840
O O1 0.750000 0.695887 0.943707
O O2 0.977229 0.769351 0.895763
O O3 0.978415 0.621988 0.907736
O O4 0.000000 0.712469 0.000000
O O5 0.250000 0.171513 0.147470
O O6 0.018358 0.128629 0.198600
O O7 0.110008 0.270053 0.211648
O O8 0.750000 0.908145 0.738228
O O9 0.517941 0.870987 0.683596
O O10 0.526216 0.000000 0.742681
O O11 0.250000 0.406212 0.386660
O O12 0.457502 0.500000 0.354109
O O13 0.519610 0.375760 0.407707
O O14 0.411948 0.374829 0.295994
O O15 0.250000 0.158547 0.665595
O O16 0.448862 0.227616 0.602035
O O17 0.400738 0.265255 0.713338
O O18 0.500000 0.714994 0.500000
O O19 0.750000 0.686816 0.449893
O O20 0.087091 0.373910 0.795184
O O21 0.750000 0.594638 0.114289
O O22 0.544607 0.500000 0.147772
#
# Coordination Sequence:
#
# PCOD8210374 Si02
#       8
#     8   8   8   8   8   8   8   8
#     4  10  20  34  51  68  89 122 163 205 244 283
#     4   8  15  28  47  71  96 122 154 190 228 273
#     4   9  17  30  51  79 107 131 153 181 224 280
#     4  10  20  32  48  71  98 129 165 206 252 299
#     4   9  18  31  49  74 100 126 157 193 235 283
#     4  10  21  36  53  71  93 126 168 210 250 290
#     4   9  16  29  48  70  96 125 158 196 240 289
#     4  10  20  32  47  68  94 124 158 200 249 296
#
# _framework density 17.299747
#
# number of rings (size 3 to 8) (size 9 to 14) (size 15 to 20)
#    0.000    2.625    0.000    1.875    0.000    5.750 
#    0.000    0.625    0.000    0.750    0.000    0.000 
#    0.000    0.000    0.000    0.000    0.000    0.375 
#
# Total GULP energy -793056.566344 kJ/mol
# GULP energy per Si atom -12391.508849 kJ/mol
# Density = 1.726037 g / cm^3
# Si number density = 17.299747 Si / 1000 Ang^3
#
#
#
# Elastic Constant Matrix: (Units=GPa)
#
#
# Indices 1 2 3 4 5 6 
#
# 1 78.7676 42.4588 44.3955 0.0000 0.0000 0.0000
# 2 42.4588 127.4984 58.7519 0.0000 0.0000 0.0000
# 3 44.3955 58.7519 124.8398 0.0000 0.0000 0.0000
# 4 0.0000 0.0000 0.0000 15.4058 0.0000 0.0000
# 5 0.0000 0.0000 0.0000 0.0000 25.5421 0.0000
# 6 0.0000 0.0000 0.0000 0.0000 0.0000 21.1580
#
#
#
# Elastic Compliance Matrix: (Units=1/GPa)
#
#
# Indices 1 2 3 4 5 6 
#
# 1 0.017146 -0.003703 -0.004355 0.000000 0.000000 0.000000
# 2 -0.003703 0.010815 -0.003773 0.000000 0.000000 0.000000
# 3 -0.004355 -0.003773 0.011334 0.000000 0.000000 0.000000
# 4 0.000000 0.000000 0.000000 0.064911 0.000000 0.000000
# 5 0.000000 0.000000 0.000000 0.000000 0.039151 0.000000
# 6 0.000000 0.000000 0.000000 0.000000 0.000000 0.047263
#
#
# Mechanical properties :
#
#
# Convention : Reuss Voigt Hill
#
# Bulk Modulus (GPa) = 63.96265 69.14647 66.55456
# Shear Modulus (GPa) = 22.77970 24.78783 23.78377
#
# Velocity S-wave (km/s) = 3.63266 3.78940 3.71186
# Velocity P-wave (km/s) = 7.39246 7.69431 7.54490
#
# Compressibility (1/GPa) = 0.01563413
#
# Stress axis : x y z
#
# Youngs Moduli (GPa) = 58.32194 92.46427 88.22684
#
# Poissons Ratio (x) = 0.34242 0.38420
# Poissons Ratio (y) = 0.21598 0.33286
# Poissons Ratio (z) = 0.25397 0.34885
#
# Static dielectric constant tensor:
#      x y z
#    x 3.137370 0.000000 0.000000 
#    y 0.000000 3.188980 0.000000 
#    z 0.000000 0.000000 3.250050 
# 
# 
# High freq. dielectric constant tensor:
#      x y z
#    x 1.662250 0.000000 0.000000 
#    y 0.000000 1.651810 0.000000 
#    z 0.000000 0.000000 1.661790 
# 
# From -- ./inp_files/32410.got.cif
#   From: 2010.03.12/outbox.cif.g09.slc.cpg/sg51_17_cif.got.tgz:32410.got - 2010.04.16 13:43:02.
