data_PCOD8210598
_publ_section_title
;
Structure prediction by ZEFSAII (Michael W. Deem and Ramdas Pophale) SiO2 
 PCOD8210598
Probable space group: P M M A
;
_chemical_formula_sum "Si O2"
_cell_formula_units_Z 44
_cell_length_a 9.404193
_cell_length_b 14.074310
_cell_length_c 18.942629
_cell_angle_alpha 90.000000
_cell_angle_beta 90.000000
_cell_angle_gamma 90.000000
_cell_volume 2507.199540
_symmetry_space_group_name_H-M "P M M A"
_symmetry_group_IT_number 51
_symmetry_cell_setting 'orthorhombic'
loop_
_space_group_symop_operation_xyz
x,y,z
1/2-x,-y,z
1/2+x,-y,-z
-x,y,-z
-x,-y,-z
1/2+x,y,-z
1/2-x,y,z
x,-y,z
loop_
_atom_site_type_symbol
_atom_site_label
_atom_site_fract_x
_atom_site_fract_y
_atom_site_fract_z
Si Si1 0.085910 0.890786 0.201816
Si Si2 0.911532 0.767812 0.930317
Si Si3 0.917931 0.731487 0.280199
Si Si4 0.410924 0.000000 0.568689
Si Si5 0.413294 0.793786 0.571014
Si Si6 0.584451 0.608987 0.822714
O O1 0.250000 0.876485 0.224976
O O2 0.066939 0.857843 0.120866
O O3 0.985383 0.828693 0.251397
O O4 0.038657 0.000000 0.208247
O O5 0.750000 0.757123 0.954612
O O6 0.960866 0.671704 0.890158
O O7 0.000000 0.784920 0.000000
O O8 0.750000 0.732521 0.264215
O O9 0.947744 0.722612 0.364532
O O10 0.991314 0.640255 0.244591
O O11 0.500000 0.000000 0.500000
O O12 0.445308 0.100904 0.605991
O O13 0.250000 0.000000 0.543945
O O14 0.500000 0.770193 0.500000
O O15 0.250000 0.785447 0.548061
O O16 0.750000 0.626703 0.804501
O O17 0.552257 0.500000 0.840633
#
# Coordination Sequence:
#
# PCOD8210598 Si02
#       6
#     8   8   8   4   8   8
#     4   9  19  35  51  69  98 139 179 208 238 287
#     4   9  18  32  50  74 103 130 162 203 246 294
#     4  10  20  32  50  77 104 129 162 211 259 296
#     4   8  14  26  40  58  88 124 157 188 225 274
#     4   9  18  30  46  68  98 132 165 202 246 291
#     4   9  19  37  57  74  97 131 166 201 247 304
#
# _framework density 17.54946
#
# number of rings (size 3 to 8) (size 9 to 14) (size 15 to 20)
#    0.000    2.909    0.000    1.636    1.273    5.818 
#    0.000    0.000    0.000    0.545    0.000    0.000 
#    0.000    0.000    0.000    0.000    0.000    0.000 
#
# Total GULP energy -545209.059371 kJ/mol
# GULP energy per Si atom -12391.114986 kJ/mol
# Density = 1.750952 g / cm^3
# Si number density = 17.549460 Si / 1000 Ang^3
#
#
#
# Elastic Constant Matrix: (Units=GPa)
#
#
# Indices 1 2 3 4 5 6 
#
# 1 58.2759 12.2711 34.1304 0.0000 0.0000 0.0000
# 2 12.2711 62.4578 1.9179 0.0000 0.0000 0.0000
# 3 34.1304 1.9179 75.4616 0.0000 0.0000 0.0000
# 4 0.0000 0.0000 0.0000 15.1510 0.0000 0.0000
# 5 0.0000 0.0000 0.0000 0.0000 32.5555 0.0000
# 6 0.0000 0.0000 0.0000 0.0000 0.0000 23.7457
#
#
#
# Elastic Compliance Matrix: (Units=1/GPa)
#
#
# Indices 1 2 3 4 5 6 
#
# 1 0.024537 -0.004483 -0.010984 0.000000 0.000000 0.000000
# 2 -0.004483 0.016843 0.001600 0.000000 0.000000 0.000000
# 3 -0.010984 0.001600 0.018179 0.000000 0.000000 0.000000
# 4 0.000000 0.000000 0.000000 0.066002 0.000000 0.000000
# 5 0.000000 0.000000 0.000000 0.000000 0.030717 0.000000
# 6 0.000000 0.000000 0.000000 0.000000 0.000000 0.042113
#
#
# Mechanical properties :
#
#
# Convention : Reuss Voigt Hill
#
# Bulk Modulus (GPa) = 31.42351 32.53714 31.98032
# Shear Modulus (GPa) = 21.12087 24.14884 22.63485
#
# Velocity S-wave (km/s) = 3.47292 3.71353 3.59524
# Velocity P-wave (km/s) = 5.83319 6.08010 5.95792
#
# Compressibility (1/GPa) = 0.03182331
#
# Stress axis : x y z
#
# Youngs Moduli (GPa) = 40.75535 59.37348 55.00875
#
# Poissons Ratio (x) = 0.26620 0.60420
# Poissons Ratio (y) = 0.18272 -0.08800
# Poissons Ratio (z) = 0.44764 -0.09498
#
# Static dielectric constant tensor:
#      x y z
#    x 3.260460 0.000000 0.000000 
#    y 0.000000 3.129640 0.000000 
#    z 0.000000 0.000000 3.055630 
# 
# 
# High freq. dielectric constant tensor:
#      x y z
#    x 1.680690 0.000000 0.000000 
#    y 0.000000 1.664360 0.000000 
#    z 0.000000 0.000000 1.668170 
# 
# From -- ./inp_files/27342.got.cif
#   From: 2010.03.12/outbox.cif.g09.slc.cpg/sg51_14_cif.got.tgz:27342.got - 2010.04.16 13:43:02.
