data_PCOD8210204
_publ_section_title
;
Structure prediction by ZEFSAII (Michael W. Deem and Ramdas Pophale) SiO2 
 PCOD8210204
Probable space group: P M M A
;
_chemical_formula_sum "Si O2"
_cell_formula_units_Z 52
_cell_length_a 8.857430
_cell_length_b 15.249741
_cell_length_c 22.656125
_cell_angle_alpha 90.000000
_cell_angle_beta 90.000000
_cell_angle_gamma 90.000000
_cell_volume 3060.242404
_symmetry_space_group_name_H-M "P M M A"
_symmetry_group_IT_number 51
_symmetry_cell_setting 'orthorhombic'
loop_
_space_group_symop_operation_xyz
x,y,z
1/2-x,-y,z
1/2+x,-y,-z
-x,y,-z
-x,-y,-z
1/2+x,y,-z
1/2-x,y,z
x,-y,z
loop_
_atom_site_type_symbol
_atom_site_label
_atom_site_fract_x
_atom_site_fract_y
_atom_site_fract_z
Si Si1 0.418692 0.395893 0.057802
Si Si2 0.419548 0.329971 0.398457
Si Si3 0.925167 0.902231 0.677108
Si Si4 0.082666 0.269898 0.265401
Si Si5 0.927702 0.500000 0.436496
Si Si6 0.429656 0.159208 0.559642
Si Si7 0.427594 0.400411 0.821886
O O1 0.250000 0.357703 0.060298
O O2 0.416632 0.500000 0.053384
O O3 0.505267 0.366325 0.116520
O O4 0.500000 0.356178 0.000000
O O5 0.250000 0.342883 0.424188
O O6 0.410751 0.305956 0.330757
O O7 0.517118 0.416931 0.400407
O O8 0.505496 0.257285 0.436450
O O9 0.750000 0.883399 0.660942
O O10 0.975616 0.831417 0.727427
O O11 0.020739 0.895469 0.617055
O O12 0.947601 0.000000 0.703180
O O13 0.250000 0.273029 0.236573
O O14 0.971895 0.330471 0.227798
O O15 0.750000 0.500000 0.441666
O O16 0.000000 0.500000 0.500000
O O17 0.500000 0.116475 0.500000
O O18 0.250000 0.159687 0.555464
O O19 0.250000 0.401246 0.828241
O O20 0.484971 0.500000 0.806857
#
# Coordination Sequence:
#
# PCOD8210204 Si02
#       7
#     8   8   8   8   4   8   8
#     4   9  16  27  44  66  95 132 171 209 245 282
#     4  10  21  37  52  68  91 122 158 198 244 291
#     4   9  19  37  57  75  96 123 156 197 247 302
#     4   9  19  34  52  72  95 125 159 198 243 289
#     4  12  24  36  50  68  90 118 157 200 243 290
#     4  11  21  34  52  73  96 121 150 189 239 296
#     4  10  20  31  45  69 101 137 173 207 239 278
#
# _framework density 16.992118000000001
#
# number of rings (size 3 to 8) (size 9 to 14) (size 15 to 20)
#    0.000    2.154    0.000    4.846    1.077    6.462 
#    0.000    0.000    0.000    0.000    0.000    0.000 
#    0.000    0.615    0.000    1.692    0.000    2.462 
#
# Total GULP energy -644650.315218 kJ/mol
# GULP energy per Si atom -12397.121447 kJ/mol
# Density = 1.695344 g / cm^3
# Si number density = 16.992118 Si / 1000 Ang^3
#
#
#
# Elastic Constant Matrix: (Units=GPa)
#
#
# Indices 1 2 3 4 5 6 
#
# 1 117.3992 34.2209 36.4140 0.0000 0.0000 0.0000
# 2 34.2209 98.2996 30.1782 0.0000 0.0000 0.0000
# 3 36.4140 30.1782 72.5972 0.0000 0.0000 0.0000
# 4 0.0000 0.0000 0.0000 9.9296 0.0000 0.0000
# 5 0.0000 0.0000 0.0000 0.0000 31.3857 0.0000
# 6 0.0000 0.0000 0.0000 0.0000 0.0000 18.4259
#
#
#
# Elastic Compliance Matrix: (Units=1/GPa)
#
#
# Indices 1 2 3 4 5 6 
#
# 1 0.010539 -0.002345 -0.004311 0.000000 0.000000 0.000000
# 2 -0.002345 0.012183 -0.003888 0.000000 0.000000 0.000000
# 3 -0.004311 -0.003888 0.017553 0.000000 0.000000 0.000000
# 4 0.000000 0.000000 0.000000 0.100709 0.000000 0.000000
# 5 0.000000 0.000000 0.000000 0.000000 0.031862 0.000000
# 6 0.000000 0.000000 0.000000 0.000000 0.000000 0.054271
#
#
# Mechanical properties :
#
#
# Convention : Reuss Voigt Hill
#
# Bulk Modulus (GPa) = 52.12115 54.43580 53.27847
# Shear Modulus (GPa) = 19.63848 24.44710 22.04279
#
# Velocity S-wave (km/s) = 3.40331 3.79718 3.60562
# Velocity P-wave (km/s) = 6.79585 7.16451 6.98262
#
# Compressibility (1/GPa) = 0.01918607
#
# Stress axis : x y z
#
# Youngs Moduli (GPa) = 94.88739 82.08099 56.96919
#
# Poissons Ratio (x) = 0.19250 0.24561
# Poissons Ratio (y) = 0.22254 0.22150
# Poissons Ratio (z) = 0.40908 0.31914
#
# Static dielectric constant tensor:
#      x y z
#    x 3.002950 0.000000 0.000000 
#    y 0.000000 3.133680 0.000000 
#    z 0.000000 0.000000 3.111110 
# 
# 
# High freq. dielectric constant tensor:
#      x y z
#    x 1.667790 0.000000 0.000000 
#    y 0.000000 1.633470 0.000000 
#    z 0.000000 0.000000 1.633910 
# 
# From -- ./inp_files/34728.got.cif
#   From: 2010.03.12/outbox.cif.g09.slc.cpg/sg51_18_cif.got.tgz:34728.got - 2010.04.16 13:43:02.
