data_PCOD8210542
_publ_section_title
;
Structure prediction by ZEFSAII (Michael W. Deem and Ramdas Pophale) SiO2 
 PCOD8210542
Probable space group: P M M A
;
_chemical_formula_sum "Si O2"
_cell_formula_units_Z 64
_cell_length_a 14.598580
_cell_length_b 9.309784
_cell_length_c 24.494776
_cell_angle_alpha 90.000000
_cell_angle_beta 90.000000
_cell_angle_gamma 90.000000
_cell_volume 3329.075858
_symmetry_space_group_name_H-M "P M M A"
_symmetry_group_IT_number 51
_symmetry_cell_setting 'orthorhombic'
loop_
_space_group_symop_operation_xyz
x,y,z
1/2-x,-y,z
1/2+x,-y,-z
-x,y,-z
-x,-y,-z
1/2+x,y,-z
1/2-x,y,z
x,-y,z
loop_
_atom_site_type_symbol
_atom_site_label
_atom_site_fract_x
_atom_site_fract_y
_atom_site_fract_z
Si Si1 0.144683 0.831881 0.769652
Si Si2 0.986459 0.670507 0.584074
Si Si3 0.144281 0.333493 0.200881
Si Si4 0.147223 0.670934 0.508348
Si Si5 0.504575 0.330982 0.706254
Si Si6 0.858631 0.159318 0.108838
Si Si7 0.140757 0.338340 0.992207
Si Si8 0.858867 0.837465 0.904381
O O1 0.250000 0.791163 0.760351
O O2 0.087781 0.742845 0.726210
O O3 0.112966 0.787307 0.830855
O O4 0.128296 0.000000 0.760828
O O5 0.985456 0.500000 0.583208
O O6 0.901233 0.726116 0.547500
O O7 0.083954 0.723187 0.559020
O O8 0.974177 0.728043 0.645601
O O9 0.250000 0.298519 0.212846
O O10 0.130675 0.500000 0.185636
O O11 0.106090 0.239998 0.150480
O O12 0.089424 0.289526 0.255076
O O13 0.250000 0.736418 0.513109
O O14 0.153106 0.500000 0.507832
O O15 0.487129 0.500000 0.705801
O O16 0.750000 0.150955 0.105435
O O17 0.897817 0.267977 0.063538
O O18 0.898549 0.000000 0.097507
O O19 0.250000 0.337984 0.992191
O O20 0.102777 0.500000 0.996267
O O21 0.102372 0.247695 0.043284
O O22 0.750000 0.835215 0.905981
O O23 0.896418 0.000000 0.905334
#
# Coordination Sequence:
#
# PCOD8210542 Si02
#       8
#     8   8   8   8   8   8   8   8
#     4   9  19  35  52  70  96 132 170 206 248 300
#     4   8  15  26  39  64  99 128 161 201 240 287
#     4   9  18  32  47  65  94 130 165 203 250 302
#     4   8  13  23  41  64  95 134 166 196 238 284
#     4  10  20  32  49  74 102 132 166 208 254 294
#     4   8  14  26  43  62  86 118 157 198 239 290
#     4   9  15  22  37  64  94 121 151 193 248 304
#     4   9  16  26  42  64  89 120 161 205 247 296
#
# _framework density 19.224556
#
# number of rings (size 3 to 8) (size 9 to 14) (size 15 to 20)
#    0.000    3.250    0.000    2.250    0.000    5.250 
#    0.000    5.000    0.000    0.750    0.000    7.000 
#    0.000    1.000    0.000    0.000    0.000    0.000 
#
# Total GULP energy -793312.722760 kJ/mol
# GULP energy per Si atom -12395.511293 kJ/mol
# Density = 1.918080 g / cm^3
# Si number density = 19.224556 Si / 1000 Ang^3
#
#
#
# Elastic Constant Matrix: (Units=GPa)
#
#
# Indices 1 2 3 4 5 6 
#
# 1 39.3902 -7.0443 -8.3344 0.0000 0.0000 0.0000
# 2 -7.0443 51.7578 20.8756 0.0000 0.0000 0.0000
# 3 -8.3344 20.8756 102.0285 0.0000 0.0000 0.0000
# 4 0.0000 0.0000 0.0000 279.1794 0.0000 0.0000
# 5 0.0000 0.0000 0.0000 0.0000 67.3417 0.0000
# 6 0.0000 0.0000 0.0000 0.0000 0.0000 7.6715
#
#
#
# Elastic Compliance Matrix: (Units=1/GPa)
#
#
# Indices 1 2 3 4 5 6 
#
# 1 0.026240 0.002950 0.001540 0.000000 0.000000 0.000000
# 2 0.002950 0.021390 -0.004136 0.000000 0.000000 0.000000
# 3 0.001540 -0.004136 0.010773 0.000000 0.000000 0.000000
# 4 0.000000 0.000000 0.000000 0.003582 0.000000 0.000000
# 5 0.000000 0.000000 0.000000 0.000000 0.014850 0.000000
# 6 0.000000 0.000000 0.000000 0.000000 0.000000 0.130352
#
#
# Mechanical properties :
#
#
# Convention : Reuss Voigt Hill
#
# Bulk Modulus (GPa) = 16.91677 22.68561 19.80119
# Shear Modulus (GPa) = 22.10602 83.35050 52.72826
#
# Velocity S-wave (km/s) = 3.39467 6.59169 5.24281
# Velocity P-wave (km/s) = 4.91770 8.35223 6.85360
#
# Compressibility (1/GPa) = 0.05911295
#
# Stress axis : x y z
#
# Youngs Moduli (GPa) = 38.10911 46.75016 92.82356
#
# Poissons Ratio (x) = -0.13793 -0.14294
# Poissons Ratio (y) = -0.11243 0.38388
# Poissons Ratio (z) = -0.05868 0.19334
#
# Static dielectric constant tensor:
#      x y z
#    x 3.371470 0.000000 0.000000 
#    y 0.000000 3.273500 0.000000 
#    z 0.000000 0.000000 3.777470 
# 
# 
# High freq. dielectric constant tensor:
#      x y z
#    x 1.739760 0.000000 0.000000 
#    y 0.000000 1.712270 0.000000 
#    z 0.000000 0.000000 1.748770 
# 
# From -- ./inp_files/35699.got.cif
#   From: 2010.03.12/outbox.cif.g09.slc.cpg/sg51_18_cif.got.tgz:35699.got - 2010.04.16 13:43:02.
