data_PCOD8210599
_publ_section_title
;
Structure prediction by ZEFSAII (Michael W. Deem and Ramdas Pophale) SiO2 
 PCOD8210599
Probable space group: P M M A
;
_chemical_formula_sum "Si O2"
_cell_formula_units_Z 64
_cell_length_a 19.780972
_cell_length_b 8.729161
_cell_length_c 19.331221
_cell_angle_alpha 90.000000
_cell_angle_beta 90.000000
_cell_angle_gamma 90.000000
_cell_volume 3337.946854
_symmetry_space_group_name_H-M "P M M A"
_symmetry_group_IT_number 51
_symmetry_cell_setting 'orthorhombic'
loop_
_space_group_symop_operation_xyz
x,y,z
1/2-x,-y,z
1/2+x,-y,-z
-x,y,-z
-x,-y,-z
1/2+x,y,-z
1/2-x,y,z
x,-y,z
loop_
_atom_site_type_symbol
_atom_site_label
_atom_site_fract_x
_atom_site_fract_y
_atom_site_fract_z
Si Si1 0.827703 0.820840 0.918416
Si Si2 0.943806 0.823167 0.182946
Si Si3 0.427631 0.826213 0.966921
Si Si4 0.452893 0.182394 0.296190
Si Si5 0.678003 0.327735 0.408255
Si Si6 0.672524 0.319329 0.771368
Si Si7 0.675966 0.668528 0.245280
Si Si8 0.969358 0.318808 0.426329
O O1 0.750000 0.791128 0.937655
O O2 0.848036 0.736527 0.847827
O O3 0.843629 0.000000 0.907149
O O4 0.872543 0.750722 0.981273
O O5 0.935237 0.742468 0.107675
O O6 0.873088 0.802642 0.221509
O O7 0.003345 0.753903 0.230863
O O8 0.960622 0.000000 0.171722
O O9 0.403335 0.000000 0.954598
O O10 0.500000 0.817933 0.000000
O O11 0.376402 0.242769 0.285857
O O12 0.484953 0.243644 0.367091
O O13 0.453218 0.000000 0.299488
O O14 0.750000 0.250470 0.434237
O O15 0.677089 0.500000 0.437961
O O16 0.680099 0.329346 0.326660
O O17 0.607189 0.247645 0.429594
O O18 0.750000 0.270503 0.754880
O O19 0.663821 0.500000 0.767474
O O20 0.750000 0.700664 0.213494
O O21 0.650057 0.500000 0.221117
O O22 0.966721 0.500000 0.411452
O O23 0.000000 0.278085 0.500000
#
# Coordination Sequence:
#
# PCOD8210599 Si02
#       8
#     8   8   8   8   8   8   8   8
#     4   9  17  31  52  75 100 135 177 218 267 324
#     4  10  20  32  50  77 104 136 179 222 266 312
#     4   9  17  30  47  68  98 134 173 217 261 313
#     4  11  22  36  56  81 110 143 177 219 274 331
#     4   8  14  28  51  75 102 139 178 212 251 306
#     4  10  21  37  58  82 106 136 178 227 273 320
#     4   9  17  30  49  72  99 135 174 211 257 309
#     4  10  20  35  57  84 112 145 186 229 274 323
#
# _framework density 19.173463999999999
#
# number of rings (size 3 to 8) (size 9 to 14) (size 15 to 20)
#    0.000    2.500    1.250    2.250    0.000    4.250 
#    0.000    2.500    0.000    5.625    0.000    0.000 
#    0.000    0.000    0.000    0.000    0.000    0.000 
#
# Total GULP energy -792955.061620 kJ/mol
# GULP energy per Si atom -12389.922838 kJ/mol
# Density = 1.912982 g / cm^3
# Si number density = 19.173464 Si / 1000 Ang^3
#
#
#
# Elastic Constant Matrix: (Units=GPa)
#
#
# Indices 1 2 3 4 5 6 
#
# 1 148.1053 29.2991 79.9639 0.0000 0.0000 0.0000
# 2 29.2991 33.7516 30.6426 0.0000 0.0000 0.0000
# 3 79.9639 30.6426 107.5345 0.0000 0.0000 0.0000
# 4 0.0000 0.0000 0.0000 12.6878 0.0000 0.0000
# 5 0.0000 0.0000 0.0000 0.0000 23.9547 0.0000
# 6 0.0000 0.0000 0.0000 0.0000 0.0000 35.8084
#
#
#
# Elastic Compliance Matrix: (Units=1/GPa)
#
#
# Indices 1 2 3 4 5 6 
#
# 1 0.011501 -0.002994 -0.007699 0.000000 0.000000 0.000000
# 2 -0.002994 0.040748 -0.009385 0.000000 0.000000 0.000000
# 3 -0.007699 -0.009385 0.017699 0.000000 0.000000 0.000000
# 4 0.000000 0.000000 0.000000 0.078816 0.000000 0.000000
# 5 0.000000 0.000000 0.000000 0.000000 0.041745 0.000000
# 6 0.000000 0.000000 0.000000 0.000000 0.000000 0.027926
#
#
# Mechanical properties :
#
#
# Convention : Reuss Voigt Hill
#
# Bulk Modulus (GPa) = 33.56672 63.24474 48.40573
# Shear Modulus (GPa) = 18.62045 24.45591 21.53818
#
# Velocity S-wave (km/s) = 3.11972 3.57530 3.35525
# Velocity P-wave (km/s) = 5.52465 7.07820 6.34912
#
# Compressibility (1/GPa) = 0.02979142
#
# Stress axis : x y z
#
# Youngs Moduli (GPa) = 86.94779 24.54130 56.50056
#
# Poissons Ratio (x) = 0.07347 0.43501
# Poissons Ratio (y) = 0.26031 0.53026
# Poissons Ratio (z) = 0.66944 0.23032
#
# Static dielectric constant tensor:
#      x y z
#    x 3.861730 0.000000 0.000000 
#    y 0.000000 3.228260 0.000000 
#    z 0.000000 0.000000 3.459960 
# 
# 
# High freq. dielectric constant tensor:
#      x y z
#    x 1.765730 0.000000 0.000000 
#    y 0.000000 1.704310 0.000000 
#    z 0.000000 0.000000 1.730690 
# 
# From -- ./inp_files/33931.got.cif
#   From: 2010.03.12/outbox.cif.g09.slc.cpg/sg51_17_cif.got.tgz:33931.got - 2010.04.16 13:43:02.
