data_PCOD8210809
_publ_section_title
;
Structure prediction by ZEFSAII (Michael W. Deem and Ramdas Pophale) SiO2 
 PCOD8210809
Probable space group: P M M A
;
_chemical_formula_sum "Si O2"
_cell_formula_units_Z 40
_cell_length_a 9.664470
_cell_length_b 9.124728
_cell_length_c 25.665658
_cell_angle_alpha 90.000000
_cell_angle_beta 90.000000
_cell_angle_gamma 90.000000
_cell_volume 2263.342990
_symmetry_space_group_name_H-M "P M M A"
_symmetry_group_IT_number 51
_symmetry_cell_setting 'orthorhombic'
loop_
_space_group_symop_operation_xyz
x,y,z
1/2-x,-y,z
1/2+x,-y,-z
-x,y,-z
-x,-y,-z
1/2+x,y,-z
1/2-x,y,z
x,-y,z
loop_
_atom_site_type_symbol
_atom_site_label
_atom_site_fract_x
_atom_site_fract_y
_atom_site_fract_z
Si Si1 0.910163 0.171846 0.253927
Si Si2 0.414368 0.665052 0.848764
Si Si3 0.597701 0.673542 0.544409
Si Si4 0.409811 0.171126 0.951052
Si Si5 0.912626 0.331135 0.661385
O O1 0.750000 0.212405 0.263897
O O2 0.968295 0.249575 0.201995
O O3 0.999497 0.225709 0.302278
O O4 0.930229 0.000000 0.246480
O O5 0.250000 0.667769 0.849153
O O6 0.472497 0.500000 0.847251
O O7 0.468594 0.743999 0.900826
O O8 0.500000 0.743388 0.500000
O O9 0.750000 0.741140 0.536256
O O10 0.605630 0.500000 0.537975
O O11 0.543846 0.710453 0.602357
O O12 0.250000 0.209785 0.962363
O O13 0.429067 0.000000 0.939930
O O14 0.500000 0.223332 0.000000
O O15 0.750000 0.303689 0.669837
O O16 0.949460 0.500000 0.673496
#
# Coordination Sequence:
#
# PCOD8210809 Si02
#       5
#     8   8   8   8   8
#     4  10  20  33  50  72  96 124 162 204 242 286
#     4   9  17  30  49  71  94 122 157 197 240 283
#     4   8  14  25  42  66  95 124 154 190 233 281
#     4   9  17  30  48  69  94 124 156 190 230 278
#     4   9  18  32  49  71 100 130 159 195 241 290
#
# _framework density 17.672972999999999
#
# number of rings (size 3 to 8) (size 9 to 14) (size 15 to 20)
#    0.000    3.000    0.000    2.400    0.000    5.200 
#    0.000    3.000    0.000    4.200    0.000    0.000 
#    0.000    0.000    0.000    0.000    0.000    0.000 
#
# Total GULP energy -495925.233637 kJ/mol
# GULP energy per Si atom -12398.130841 kJ/mol
# Density = 1.763275 g / cm^3
# Si number density = 17.672973 Si / 1000 Ang^3
#
#
#
# Elastic Constant Matrix: (Units=GPa)
#
#
# Indices 1 2 3 4 5 6 
#
# 1 53.0018 32.2248 61.3638 0.0000 0.0000 0.0000
# 2 32.2248 73.4781 61.4705 0.0000 0.0000 0.0000
# 3 61.3638 61.4705 164.9821 0.0000 0.0000 0.0000
# 4 0.0000 0.0000 0.0000 19.7329 0.0000 0.0000
# 5 0.0000 0.0000 0.0000 0.0000 31.4319 0.0000
# 6 0.0000 0.0000 0.0000 0.0000 0.0000 19.8054
#
#
#
# Elastic Compliance Matrix: (Units=1/GPa)
#
#
# Indices 1 2 3 4 5 6 
#
# 1 0.035155 -0.006507 -0.010651 0.000000 0.000000 0.000000
# 2 -0.006507 0.020977 -0.005396 0.000000 0.000000 0.000000
# 3 -0.010651 -0.005396 0.012033 0.000000 0.000000 0.000000
# 4 0.000000 0.000000 0.000000 0.050677 0.000000 0.000000
# 5 0.000000 0.000000 0.000000 0.000000 0.031815 0.000000
# 6 0.000000 0.000000 0.000000 0.000000 0.000000 0.050491
#
#
# Mechanical properties :
#
#
# Convention : Reuss Voigt Hill
#
# Bulk Modulus (GPa) = 43.36948 66.84225 55.10587
# Shear Modulus (GPa) = 19.68951 23.28756 21.48853
#
# Velocity S-wave (km/s) = 3.34144 3.63394 3.49076
# Velocity P-wave (km/s) = 6.28333 7.45059 6.89171
#
# Compressibility (1/GPa) = 0.02305769
#
# Stress axis : x y z
#
# Youngs Moduli (GPa) = 28.44525 47.67090 83.10327
#
# Poissons Ratio (x) = 0.31020 0.88515
# Poissons Ratio (y) = 0.18510 0.44839
# Poissons Ratio (z) = 0.30298 0.25721
#
# Static dielectric constant tensor:
#      x y z
#    x 3.264460 0.000000 0.000000 
#    y 0.000000 3.104980 0.000000 
#    z 0.000000 0.000000 3.463830 
# 
# 
# High freq. dielectric constant tensor:
#      x y z
#    x 1.657290 0.000000 0.000000 
#    y 0.000000 1.664180 0.000000 
#    z 0.000000 0.000000 1.697190 
# 
# From -- ./inp_files/28797.got.cif
#   From: 2010.03.12/outbox.cif.g09.slc.cpg/sg51_15_cif.got.tgz:28797.got - 2010.04.16 13:43:02.
