data_PCOD8210073
_publ_section_title
;
Structure prediction by ZEFSAII (Michael W. Deem and Ramdas Pophale) SiO2 
 PCOD8210073
Probable space group: P M M A
;
_chemical_formula_sum "Si O2"
_cell_formula_units_Z 48
_cell_length_a 9.179542
_cell_length_b 15.078712
_cell_length_c 18.956948
_cell_angle_alpha 90.000000
_cell_angle_beta 90.000000
_cell_angle_gamma 90.000000
_cell_volume 2623.938661
_symmetry_space_group_name_H-M "P M M A"
_symmetry_group_IT_number 51
_symmetry_cell_setting 'orthorhombic'
loop_
_space_group_symop_operation_xyz
x,y,z
1/2-x,-y,z
1/2+x,-y,-z
-x,y,-z
-x,-y,-z
1/2+x,y,-z
1/2-x,y,z
x,-y,z
loop_
_atom_site_type_symbol
_atom_site_label
_atom_site_fract_x
_atom_site_fract_y
_atom_site_fract_z
Si Si1 0.579701 0.000000 0.926382
Si Si2 0.423137 0.901177 0.325314
Si Si3 0.420200 0.500000 0.926316
Si Si4 0.920339 0.252701 0.573419
Si Si5 0.922072 0.838455 0.827450
Si Si6 0.083039 0.601945 0.313486
Si Si7 0.077870 0.340628 0.825491
O O1 0.533248 0.086299 0.882665
O O2 0.750000 0.000000 0.940924
O O3 0.500000 0.000000 0.000000
O O4 0.250000 0.903023 0.323317
O O5 0.479331 0.834342 0.385517
O O6 0.478956 0.867448 0.249592
O O7 0.484388 0.000000 0.340644
O O8 0.250000 0.500000 0.941331
O O9 0.467546 0.586148 0.882492
O O10 0.500000 0.500000 0.000000
O O11 0.750000 0.243811 0.558888
O O12 0.956920 0.340045 0.618446
O O13 0.000000 0.261246 0.500000
O O14 0.750000 0.821014 0.826830
O O15 0.004378 0.749985 0.851000
O O16 0.250000 0.620051 0.290364
O O17 0.057493 0.500000 0.334115
O O18 0.978997 0.629762 0.250432
O O19 0.250000 0.328658 0.820519
#
# Coordination Sequence:
#
# PCOD8210073 Si02
#       7
#     4   8   4   8   8   8   8
#     4  10  22  38  60  86 119 154 190 237 292 343
#     4   9  16  31  57  82 105 140 189 234 270 323
#     4  10  24  42  58  82 117 152 187 230 285 338
#     4  10  21  36  54  81 115 147 184 231 280 333
#     4  10  19  36  61  86 109 149 199 234 275 340
#     4  10  20  36  60  85 108 145 195 234 272 338
#     4  11  22  37  58  87 119 148 184 238 292 336
#
# _framework density 18.293111
#
# number of rings (size 3 to 8) (size 9 to 14) (size 15 to 20)
#    0.000    2.000    3.333    0.500    0.000    4.000 
#    0.000    3.333    0.000    1.000    0.000    0.000 
#    0.000    0.000    0.000    0.000    0.000    0.000 
#
# Total GULP energy -595311.134522 kJ/mol
# GULP energy per Si atom -12402.315303 kJ/mol
# Density = 1.825147 g / cm^3
# Si number density = 18.293111 Si / 1000 Ang^3
#
#
#
# Elastic Constant Matrix: (Units=GPa)
#
#
# Indices 1 2 3 4 5 6 
#
# 1 50.3563 56.6015 57.4217 0.0000 0.0000 0.0000
# 2 56.6015 189.8752 88.9316 0.0000 0.0000 0.0000
# 3 57.4217 88.9316 161.5256 0.0000 0.0000 0.0000
# 4 0.0000 0.0000 0.0000 28.7243 0.0000 0.0000
# 5 0.0000 0.0000 0.0000 0.0000 35.5070 0.0000
# 6 0.0000 0.0000 0.0000 0.0000 0.0000 18.8411
#
#
#
# Elastic Compliance Matrix: (Units=1/GPa)
#
#
# Indices 1 2 3 4 5 6 
#
# 1 0.039197 -0.006950 -0.010108 0.000000 0.000000 0.000000
# 2 -0.006950 0.008329 -0.002115 0.000000 0.000000 0.000000
# 3 -0.010108 -0.002115 0.010949 0.000000 0.000000 0.000000
# 4 0.000000 0.000000 0.000000 0.034814 0.000000 0.000000
# 5 0.000000 0.000000 0.000000 0.000000 0.028163 0.000000
# 6 0.000000 0.000000 0.000000 0.000000 0.000000 0.053075
#
#
# Mechanical properties :
#
#
# Convention : Reuss Voigt Hill
#
# Bulk Modulus (GPa) = 49.68072 89.74074 69.71073
# Shear Modulus (GPa) = 22.77052 29.86794 26.31923
#
# Velocity S-wave (km/s) = 3.53194 4.04510 3.79720
# Velocity P-wave (km/s) = 6.62193 8.42501 7.57729
#
# Compressibility (1/GPa) = 0.02012853
#
# Stress axis : x y z
#
# Youngs Moduli (GPa) = 25.51243 120.06117 91.33600
#
# Poissons Ratio (x) = 0.83447 0.92318
# Poissons Ratio (y) = 0.17732 0.19317
# Poissons Ratio (z) = 0.25787 0.25392
#
# Static dielectric constant tensor:
#      x y z
#    x 3.296330 0.000000 0.000000 
#    y 0.000000 6.322010 0.000000 
#    z 0.000000 0.000000 3.288400 
# 
# 
# High freq. dielectric constant tensor:
#      x y z
#    x 1.685560 0.000000 0.000000 
#    y 0.000000 1.731290 0.000000 
#    z 0.000000 0.000000 1.706810 
# 
# From -- ./inp_files/27604.got.cif
#   From: 2010.03.12/outbox.cif.g09.slc.cpg/sg51_14_cif.got.tgz:27604.got - 2010.04.16 13:43:02.
