data_PCOD8210827
_publ_section_title
;
Structure prediction by ZEFSAII (Michael W. Deem and Ramdas Pophale) SiO2 
 PCOD8210827
Probable space group: P M M A
;
_chemical_formula_sum "Si O2"
_cell_formula_units_Z 64
_cell_length_a 9.261510
_cell_length_b 20.195009
_cell_length_c 18.474157
_cell_angle_alpha 90.000000
_cell_angle_beta 90.000000
_cell_angle_gamma 90.000000
_cell_volume 3455.337561
_symmetry_space_group_name_H-M "P M M A"
_symmetry_group_IT_number 51
_symmetry_cell_setting 'orthorhombic'
loop_
_space_group_symop_operation_xyz
x,y,z
1/2-x,-y,z
1/2+x,-y,-z
-x,y,-z
-x,-y,-z
1/2+x,y,-z
1/2-x,y,z
x,-y,z
loop_
_atom_site_type_symbol
_atom_site_label
_atom_site_fract_x
_atom_site_fract_y
_atom_site_fract_z
Si Si1 0.582350 0.691293 0.823500
Si Si2 0.418138 0.424900 0.571191
Si Si3 0.916444 0.922738 0.157807
Si Si4 0.421503 0.072948 0.679314
Si Si5 0.080378 0.186115 0.073416
Si Si6 0.581569 0.575223 0.926741
Si Si7 0.918067 0.310412 0.324991
Si Si8 0.920352 0.812109 0.424361
O O1 0.750000 0.685546 0.805692
O O2 0.547068 0.755059 0.871250
O O3 0.528291 0.624811 0.864109
O O4 0.500717 0.699498 0.748880
O O5 0.500000 0.399737 0.500000
O O6 0.250000 0.417567 0.553911
O O7 0.461803 0.500000 0.590466
O O8 0.462301 0.380434 0.639581
O O9 0.750000 0.900777 0.147745
O O10 0.970531 0.907929 0.239562
O O11 0.017751 0.882461 0.103709
O O12 0.933885 0.000000 0.139690
O O13 0.250000 0.071758 0.678915
O O14 0.480401 0.125765 0.621817
O O15 0.481288 0.000000 0.658404
O O16 0.250000 0.177623 0.058791
O O17 0.000000 0.205174 0.000000
O O18 0.750000 0.585567 0.942474
O O19 0.547076 0.500000 0.902182
O O20 0.500000 0.593598 0.000000
O O21 0.750000 0.306784 0.306732
O O22 0.962180 0.253748 0.381310
O O23 0.750000 0.817258 0.437821
O O24 0.000000 0.811519 0.500000
#
# Coordination Sequence:
#
# PCOD8210827 Si02
#       8
#     8   8   8   8   8   8   8   8
#     4  10  22  37  53  77 106 135 171 215 260 306
#     4   9  18  33  52  75 103 134 170 211 255 306
#     4   9  18  35  59  82 104 135 174 213 255 305
#     4   8  15  30  52  75  99 129 164 201 243 294
#     4  11  23  37  54  77 106 138 172 213 258 306
#     4   9  18  34  55  78 105 136 170 209 253 303
#     4  10  21  35  52  74 100 133 171 211 255 304
#     4  10  20  33  50  73 100 130 166 206 247 294
#
# _framework density 18.522068000000001
#
# number of rings (size 3 to 8) (size 9 to 14) (size 15 to 20)
#    0.000    2.500    0.000    2.625    0.000    4.750 
#    0.000    0.625    0.000    0.750    0.000    0.000 
#    0.000    0.000    0.000    0.000    0.000    0.000 
#
# Total GULP energy -793686.203456 kJ/mol
# GULP energy per Si atom -12401.346929 kJ/mol
# Density = 1.847991 g / cm^3
# Si number density = 18.522068 Si / 1000 Ang^3
#
#
#
# Elastic Constant Matrix: (Units=GPa)
#
#
# Indices 1 2 3 4 5 6 
#
# 1 57.8194 43.2908 57.6057 0.0000 0.0000 0.0000
# 2 43.2908 101.7696 59.9015 0.0000 0.0000 0.0000
# 3 57.6057 59.9015 127.4456 0.0000 0.0000 0.0000
# 4 0.0000 0.0000 0.0000 29.8502 0.0000 0.0000
# 5 0.0000 0.0000 0.0000 0.0000 35.6576 0.0000
# 6 0.0000 0.0000 0.0000 0.0000 0.0000 19.1716
#
#
#
# Elastic Compliance Matrix: (Units=1/GPa)
#
#
# Indices 1 2 3 4 5 6 
#
# 1 0.035449 -0.007808 -0.012353 0.000000 0.000000 0.000000
# 2 -0.007808 0.015304 -0.003664 0.000000 0.000000 0.000000
# 3 -0.012353 -0.003664 0.015152 0.000000 0.000000 0.000000
# 4 0.000000 0.000000 0.000000 0.033501 0.000000 0.000000
# 5 0.000000 0.000000 0.000000 0.000000 0.028045 0.000000
# 6 0.000000 0.000000 0.000000 0.000000 0.000000 0.052161
#
#
# Mechanical properties :
#
#
# Convention : Reuss Voigt Hill
#
# Bulk Modulus (GPa) = 54.77972 67.62562 61.20267
# Shear Modulus (GPa) = 21.42745 25.35164 23.38955
#
# Velocity S-wave (km/s) = 3.40495 3.70364 3.55744
# Velocity P-wave (km/s) = 6.71550 7.40806 7.07026
#
# Compressibility (1/GPa) = 0.01825493
#
# Stress axis : x y z
#
# Youngs Moduli (GPa) = 28.20976 65.34172 65.99761
#
# Poissons Ratio (x) = 0.51021 0.81526
# Poissons Ratio (y) = 0.22027 0.24180
# Poissons Ratio (z) = 0.34847 0.23940
#
# Static dielectric constant tensor:
#      x y z
#    x 3.227480 0.000000 0.000000 
#    y 0.000000 3.742870 0.000000 
#    z 0.000000 0.000000 3.358660 
# 
# 
# High freq. dielectric constant tensor:
#      x y z
#    x 1.699620 0.000000 0.000000 
#    y 0.000000 1.734590 0.000000 
#    z 0.000000 0.000000 1.718790 
# 
# From -- ./inp_files/28475.got.cif
#   From: 2010.03.12/outbox.cif.g09.slc.cpg/sg51_15_cif.got.tgz:28475.got - 2010.04.16 13:43:02.
