data_PCOD8210398
_publ_section_title
;
Structure prediction by ZEFSAII (Michael W. Deem and Ramdas Pophale) SiO2 
 PCOD8210398
Probable space group: P M M A
;
_chemical_formula_sum "Si O2"
_cell_formula_units_Z 40
_cell_length_a 24.962716
_cell_length_b 16.478175
_cell_length_c 5.139949
_cell_angle_alpha 90.000000
_cell_angle_beta 90.000000
_cell_angle_gamma 90.000000
_cell_volume 2114.266636
_symmetry_space_group_name_H-M "P M M A"
_symmetry_group_IT_number 51
_symmetry_cell_setting 'orthorhombic'
loop_
_space_group_symop_operation_xyz
x,y,z
1/2-x,-y,z
1/2+x,-y,-z
-x,y,-z
-x,-y,-z
1/2+x,y,-z
1/2-x,y,z
x,-y,z
loop_
_atom_site_type_symbol
_atom_site_label
_atom_site_fract_x
_atom_site_fract_y
_atom_site_fract_z
Si Si1 0.975403 0.408812 0.249001
Si Si2 0.688820 0.594476 0.581166
Si Si3 0.868565 0.349155 0.101230
Si Si4 0.936327 0.811491 0.997162
Si Si5 0.063083 0.089689 0.503869
O O1 0.998571 0.500000 0.256153
O O2 0.911604 0.410318 0.231569
O O3 0.000000 0.362131 0.500000
O O4 0.000000 0.362467 0.000000
O O5 0.750000 0.611137 0.660221
O O6 0.679831 0.500000 0.512032
O O7 0.676702 0.650469 0.326491
O O8 0.652698 0.618536 0.827292
O O9 0.899107 0.265325 0.055882
O O10 0.917950 0.849616 0.723422
O O11 0.920048 0.875812 0.217479
O O12 0.000000 0.791038 0.000000
O O13 0.000000 0.080846 0.500000
O O14 0.088839 0.000000 0.466493
#
# Coordination Sequence:
#
# PCOD8210398 Si02
#       5
#     8   8   8   8   8
#     4  10  20  32  47  70 101 138 174 202 240 307
#     4  11  24  41  59  77  99 135 186 238 283 324
#     4  12  22  36  56  78 108 138 174 224 280 321
#     4  10  20  32  50  80 114 145 175 210 257 314
#     4   9  17  31  50  73 108 151 184 208 241 297
#
# _framework density 18.919091000000002
#
# number of rings (size 3 to 8) (size 9 to 14) (size 15 to 20)
#    0.000    1.600    0.000    6.000    0.000    8.000 
#    0.000    0.000    0.000    0.000    0.000    0.000 
#    0.000   56.000    0.000    0.000    0.000    0.000 
#
# Total GULP energy -495734.869507 kJ/mol
# GULP energy per Si atom -12393.371738 kJ/mol
# Density = 1.887603 g / cm^3
# Si number density = 18.919091 Si / 1000 Ang^3
#
#
#
# Elastic Constant Matrix: (Units=GPa)
#
#
# Indices 1 2 3 4 5 6 
#
# 1 68.9796 38.3802 31.8775 0.0000 0.0000 0.0000
# 2 38.3802 95.7412 42.7197 0.0000 0.0000 0.0000
# 3 31.8775 42.7197 149.6091 0.0000 0.0000 0.0000
# 4 0.0000 0.0000 0.0000 100.1029 0.0000 0.0000
# 5 0.0000 0.0000 0.0000 0.0000 32.8262 0.0000
# 6 0.0000 0.0000 0.0000 0.0000 0.0000 -8.6514
#
#
#
# Elastic Compliance Matrix: (Units=1/GPa)
#
#
# Indices 1 2 3 4 5 6 
#
# 1 0.019258 -0.006749 -0.002176 0.000000 0.000000 0.000000
# 2 -0.006749 0.014335 -0.002655 0.000000 0.000000 0.000000
# 3 -0.002176 -0.002655 0.007906 0.000000 0.000000 0.000000
# 4 0.000000 0.000000 0.000000 0.009990 0.000000 0.000000
# 5 0.000000 0.000000 0.000000 0.000000 0.030463 0.000000
# 6 0.000000 0.000000 0.000000 0.000000 0.000000 -0.115588
#
#
# Mechanical properties :
#
#
# Convention : Reuss Voigt Hill
#
# Bulk Modulus (GPa) = 54.53137 60.03162 57.28149
# Shear Modulus (GPa) = -1146.03108 38.27905 -553.87601
#
# Velocity S-wave (km/s) = -24.63877 4.50299 -17.12880
# Velocity P-wave (km/s) = 27.93813 7.67043 18.99610
#
# Compressibility (1/GPa) = 0.01833807
#
# Stress axis : x y z
#
# Youngs Moduli (GPa) = 51.92694 69.75895 126.48688
#
# Poissons Ratio (x) = 0.47080 0.27526
# Poissons Ratio (y) = 0.35045 0.33585
# Poissons Ratio (z) = 0.11300 0.18523
#
# Static dielectric constant tensor:
#      x y z
#    x 3.298530 0.000000 0.000000 
#    y 0.000000 3.433060 0.000000 
#    z 0.000000 0.000000 5.334870 
# 
# 
# High freq. dielectric constant tensor:
#      x y z
#    x 1.693120 0.000000 0.000000 
#    y 0.000000 1.723220 0.000000 
#    z 0.000000 0.000000 1.764290 
# 
# From -- ./inp_files/3009.got.cif
#   From: 2010.03.12/outbox.cif.g09.slc.cpg/sg51_2_cif.got.tgz:3009.got - 2010.04.16 13:43:02.
