data_PCOD8210019
_publ_section_title
;
Structure prediction by ZEFSAII (Michael W. Deem and Ramdas Pophale) SiO2 
 PCOD8210019
Probable space group: P M M A
;
_chemical_formula_sum "Si O2"
_cell_formula_units_Z 48
_cell_length_a 20.004215
_cell_length_b 9.096523
_cell_length_c 13.460841
_cell_angle_alpha 90.000000
_cell_angle_beta 90.000000
_cell_angle_gamma 90.000000
_cell_volume 2449.453109
_symmetry_space_group_name_H-M "P M M A"
_symmetry_group_IT_number 51
_symmetry_cell_setting 'orthorhombic'
loop_
_space_group_symop_operation_xyz
x,y,z
1/2-x,-y,z
1/2+x,-y,-z
-x,y,-z
-x,-y,-z
1/2+x,y,-z
1/2-x,y,z
x,-y,z
loop_
_atom_site_type_symbol
_atom_site_label
_atom_site_fract_x
_atom_site_fract_y
_atom_site_fract_z
Si Si1 0.499758 0.674660 0.389207
Si Si2 0.640488 0.328551 0.311786
Si Si3 0.426456 0.329706 0.028585
Si Si4 0.750000 0.825378 0.681365
Si Si5 0.380859 0.671251 0.250136
Si Si6 0.750000 0.331234 0.473310
Si Si7 0.174379 0.832348 0.886521
O O1 0.500000 0.741732 0.500000
O O2 0.501555 0.500000 0.394332
O O3 0.565586 0.729033 0.331457
O O4 0.433663 0.727732 0.332174
O O5 0.642306 0.500000 0.284334
O O6 0.684014 0.297558 0.409704
O O7 0.670655 0.241329 0.220603
O O8 0.419559 0.500000 0.000565
O O9 0.414400 0.300671 0.144127
O O10 0.500000 0.271966 0.000000
O O11 0.372066 0.243872 0.966361
O O12 0.685688 0.765992 0.739722
O O13 0.750000 0.773221 0.567965
O O14 0.750000 0.000000 0.684885
O O15 0.363320 0.500000 0.265650
O O16 0.750000 0.500000 0.509987
O O17 0.250000 0.819175 0.925943
O O18 0.151819 0.000000 0.875452
#
# Coordination Sequence:
#
# PCOD8210019 Si02
#       7
#     8   8   8   4   8   4   8
#     4   9  17  32  59  91 120 148 188 245 300 348
#     4  10  19  35  62  92 118 152 199 249 297 349
#     4  10  22  41  66  92 117 150 198 256 306 353
#     4  12  26  40  57  82 119 162 201 244 290 350
#     4  10  21  39  62  88 118 154 197 245 296 353
#     4  10  20  36  61  90 119 156 201 248 298 350
#     4  11  24  39  57  86 125 164 197 240 298 362
#
# _framework density 19.596211
#
# number of rings (size 3 to 8) (size 9 to 14) (size 15 to 20)
#    0.000    1.833    0.833    3.250    1.167    8.000 
#    0.000    2.500    0.000    2.000    0.000    0.000 
#    0.000    0.000    0.000    0.000    0.000    0.000 
#
# Total GULP energy -595383.300780 kJ/mol
# GULP energy per Si atom -12403.818766 kJ/mol
# Density = 1.955161 g / cm^3
# Si number density = 19.596211 Si / 1000 Ang^3
#
#
#
# Elastic Constant Matrix: (Units=GPa)
#
#
# Indices 1 2 3 4 5 6 
#
# 1 152.8879 55.7348 57.0544 0.0000 0.0000 0.0000
# 2 55.7348 81.9642 54.1875 0.0000 0.0000 0.0000
# 3 57.0544 54.1875 113.5078 0.0000 0.0000 0.0000
# 4 0.0000 0.0000 0.0000 12.6047 0.0000 0.0000
# 5 0.0000 0.0000 0.0000 0.0000 33.5781 0.0000
# 6 0.0000 0.0000 0.0000 0.0000 0.0000 33.8275
#
#
#
# Elastic Compliance Matrix: (Units=1/GPa)
#
#
# Indices 1 2 3 4 5 6 
#
# 1 0.009113 -0.004630 -0.002371 0.000000 0.000000 0.000000
# 2 -0.004630 0.020179 -0.007306 0.000000 0.000000 0.000000
# 3 -0.002371 -0.007306 0.013489 0.000000 0.000000 0.000000
# 4 0.000000 0.000000 0.000000 0.079335 0.000000 0.000000
# 5 0.000000 0.000000 0.000000 0.000000 0.029781 0.000000
# 6 0.000000 0.000000 0.000000 0.000000 0.000000 0.029562
#
#
# Mechanical properties :
#
#
# Convention : Reuss Voigt Hill
#
# Bulk Modulus (GPa) = 70.57802 75.81258 73.19530
# Shear Modulus (GPa) = 23.27806 28.09430 25.68618
#
# Velocity S-wave (km/s) = 3.45031 3.79048 3.62439
# Velocity P-wave (km/s) = 7.20883 7.61107 7.41268
#
# Compressibility (1/GPa) = 0.01416872
#
# Stress axis : x y z
#
# Youngs Moduli (GPa) = 109.73243 49.55740 74.13272
#
# Poissons Ratio (x) = 0.22943 0.17573
# Poissons Ratio (y) = 0.50802 0.54161
# Poissons Ratio (z) = 0.26012 0.36207
#
# Static dielectric constant tensor:
#      x y z
#    x 3.799790 0.000000 0.000000 
#    y 0.000000 3.320490 0.000000 
#    z 0.000000 0.000000 3.676120 
# 
# 
# High freq. dielectric constant tensor:
#      x y z
#    x 1.783410 0.000000 0.000000 
#    y 0.000000 1.731450 0.000000 
#    z 0.000000 0.000000 1.774490 
# 
# From -- ./inp_files/24925.got.cif
#   From: 2010.03.12/outbox.cif.g09.slc.cpg/sg51_13_cif.got.tgz:24925.got - 2010.04.16 13:43:02.
