data_PCOD8210056
_publ_section_title
;
Structure prediction by ZEFSAII (Michael W. Deem and Ramdas Pophale) SiO2 
 PCOD8210056
Probable space group: P M M A
;
_chemical_formula_sum "Si O2"
_cell_formula_units_Z 56
_cell_length_a 21.709889
_cell_length_b 9.074490
_cell_length_c 14.492004
_cell_angle_alpha 90.000000
_cell_angle_beta 90.000000
_cell_angle_gamma 90.000000
_cell_volume 2855.014213
_symmetry_space_group_name_H-M "P M M A"
_symmetry_group_IT_number 51
_symmetry_cell_setting 'orthorhombic'
loop_
_space_group_symop_operation_xyz
x,y,z
1/2-x,-y,z
1/2+x,-y,-z
-x,y,-z
-x,-y,-z
1/2+x,y,-z
1/2-x,y,z
x,-y,z
loop_
_atom_site_type_symbol
_atom_site_label
_atom_site_fract_x
_atom_site_fract_y
_atom_site_fract_z
Si Si1 0.081986 0.328251 0.768721
Si Si2 0.452143 0.671852 0.312564
Si Si3 0.250000 0.673465 0.184517
Si Si4 0.250000 0.325381 0.386441
Si Si5 0.368961 0.831040 0.453598
Si Si6 0.381150 0.326549 0.128889
Si Si7 0.066532 0.162412 0.958758
Si Si8 0.321711 0.167636 0.651461
O O1 0.089710 0.500000 0.790116
O O2 0.065122 0.247470 0.862819
O O3 0.146757 0.269201 0.729026
O O4 0.025237 0.301549 0.697887
O O5 0.436604 0.500000 0.328099
O O6 0.428673 0.761138 0.402873
O O7 0.417895 0.730000 0.219570
O O8 0.250000 0.500000 0.197310
O O9 0.250000 0.742968 0.285157
O O10 0.189283 0.725130 0.133033
O O11 0.250000 0.500000 0.392242
O O12 0.189550 0.266193 0.432705
O O13 0.368551 0.822090 0.564524
O O14 0.362226 0.000000 0.420853
O O15 0.391272 0.500000 0.121807
O O16 0.397771 0.256515 0.032864
O O17 0.096167 0.000000 0.944460
O O18 0.000000 0.142326 0.000000
O O19 0.250000 0.217559 0.632310
O O20 0.320511 0.000000 0.687120
#
# Coordination Sequence:
#
# PCOD8210056 Si02
#       8
#     8   8   4   4   8   8   8   8
#     4  11  24  42  65  92 120 155 206 257 304 360
#     4  10  21  37  60  92 127 160 196 248 306 359
#     4   9  18  33  55  84 117 156 195 239 294 356
#     4  11  19  33  57  86 121 162 205 247 298 354
#     4  11  22  37  60  91 124 160 204 246 299 365
#     4  10  19  36  59  85 121 160 200 245 300 360
#     4  11  23  39  62  90 118 155 202 247 304 369
#     4  10  23  45  66  86 121 164 206 252 303 360
#
# _framework density 19.614614
#
# number of rings (size 3 to 8) (size 9 to 14) (size 15 to 20)
#    0.000    1.571    3.571    1.500    0.000    4.286 
#    1.286    3.214    0.000    0.000    0.000    0.000 
#    0.000    0.000    0.000    0.000    0.000    0.000 
#
# Total GULP energy -694030.011882 kJ/mol
# GULP energy per Si atom -12393.393069 kJ/mol
# Density = 1.956997 g / cm^3
# Si number density = 19.614614 Si / 1000 Ang^3
#
#
#
# Elastic Constant Matrix: (Units=GPa)
#
#
# Indices 1 2 3 4 5 6 
#
# 1 86.4866 29.2288 27.1275 0.0000 0.0000 0.0000
# 2 29.2288 79.4843 39.6295 0.0000 0.0000 0.0000
# 3 27.1275 39.6295 80.8861 0.0000 0.0000 0.0000
# 4 0.0000 0.0000 0.0000 37.7773 0.0000 0.0000
# 5 0.0000 0.0000 0.0000 0.0000 19.3955 0.0000
# 6 0.0000 0.0000 0.0000 0.0000 0.0000 26.3201
#
#
#
# Elastic Compliance Matrix: (Units=1/GPa)
#
#
# Indices 1 2 3 4 5 6 
#
# 1 0.013669 -0.003627 -0.002807 0.000000 0.000000 0.000000
# 2 -0.003627 0.017610 -0.007412 0.000000 0.000000 0.000000
# 3 -0.002807 -0.007412 0.016936 0.000000 0.000000 0.000000
# 4 0.000000 0.000000 0.000000 0.026471 0.000000 0.000000
# 5 0.000000 0.000000 0.000000 0.000000 0.051558 0.000000
# 6 0.000000 0.000000 0.000000 0.000000 0.000000 0.037994
#
#
# Mechanical properties :
#
#
# Convention : Reuss Voigt Hill
#
# Bulk Modulus (GPa) = 48.72497 48.75872 48.74184
# Shear Modulus (GPa) = 25.15472 26.75666 25.95569
#
# Velocity S-wave (km/s) = 3.58501 3.69740 3.64164
# Velocity P-wave (km/s) = 6.48317 6.56811 6.52578
#
# Compressibility (1/GPa) = 0.02052336
#
# Stress axis : x y z
#
# Youngs Moduli (GPa) = 73.15979 56.78580 59.04645
#
# Poissons Ratio (x) = 0.20595 0.16576
# Poissons Ratio (y) = 0.26533 0.43763
# Poissons Ratio (z) = 0.20538 0.42087
#
# Static dielectric constant tensor:
#      x y z
#    x 3.649210 0.000000 0.000000 
#    y 0.000000 3.577660 0.000000 
#    z 0.000000 0.000000 0.861530 
# 
# 
# High freq. dielectric constant tensor:
#      x y z
#    x 1.764140 0.000000 0.000000 
#    y 0.000000 1.761730 0.000000 
#    z 0.000000 0.000000 1.761150 
# 
# From -- ./inp_files/25920.got.cif
#   From: 2010.03.12/outbox.cif.g09.slc.cpg/sg51_13_cif.got.tgz:25920.got - 2010.04.16 13:43:02.
