data_PCOD8210708
_publ_section_title
;
Structure prediction by ZEFSAII (Michael W. Deem and Ramdas Pophale) SiO2 
 PCOD8210708
Probable space group: P M M A
;
_chemical_formula_sum "Si O2"
_cell_formula_units_Z 56
_cell_length_a 13.804690
_cell_length_b 8.886447
_cell_length_c 23.665491
_cell_angle_alpha 90.000000
_cell_angle_beta 90.000000
_cell_angle_gamma 90.000000
_cell_volume 2903.155732
_symmetry_space_group_name_H-M "P M M A"
_symmetry_group_IT_number 51
_symmetry_cell_setting 'orthorhombic'
loop_
_space_group_symop_operation_xyz
x,y,z
1/2-x,-y,z
1/2+x,-y,-z
-x,y,-z
-x,-y,-z
1/2+x,y,-z
1/2-x,y,z
x,-y,z
loop_
_atom_site_type_symbol
_atom_site_label
_atom_site_fract_x
_atom_site_fract_y
_atom_site_fract_z
Si Si1 0.956572 0.821913 0.588089
Si Si2 0.356321 0.821759 0.854928
Si Si3 0.139983 0.677816 0.305546
Si Si4 0.135004 0.668562 0.088199
Si Si5 0.947712 0.823344 0.804267
Si Si6 0.856455 0.178495 0.474624
Si Si7 0.135437 0.167416 0.978636
O O1 0.926436 0.740904 0.644929
O O2 0.887896 0.766759 0.536948
O O3 0.066500 0.770847 0.572862
O O4 0.949603 0.000000 0.597131
O O5 0.250000 0.758507 0.836395
O O6 0.438096 0.778897 0.809121
O O7 0.387897 0.759589 0.916948
O O8 0.348974 0.000000 0.861675
O O9 0.250000 0.736626 0.312608
O O10 0.136623 0.500000 0.306986
O O11 0.098102 0.731733 0.246470
O O12 0.250000 0.665066 0.084842
O O13 0.094744 0.500000 0.098655
O O14 0.105591 0.779570 0.138347
O O15 0.090883 0.731780 0.029196
O O16 0.934098 0.000000 0.793223
O O17 0.750000 0.244672 0.460246
O O18 0.854532 0.000000 0.476067
O O19 0.250000 0.159125 0.985392
O O20 0.091170 0.000000 0.984080
#
# Coordination Sequence:
#
# PCOD8210708 Si02
#       7
#     8   8   8   8   8   8   8
#     4   9  17  31  55  84 110 142 183 218 250 295
#     4   8  16  33  55  77  99 123 158 208 260 306
#     4  11  24  40  55  73 103 140 173 211 260 307
#     4  10  20  33  48  70 104 138 164 200 253 307
#     4  11  22  35  55  78  97 126 171 216 255 301
#     4   8  14  27  51  85 120 146 172 214 261 297
#     4   8  14  28  51  74  96 125 161 201 247 304
#
# _framework density 19.289352999999998
#
# number of rings (size 3 to 8) (size 9 to 14) (size 15 to 20)
#    0.000    2.714    0.000    3.857    0.000    4.857 
#    0.000    6.429    0.000    9.000    0.000    0.000 
#    0.000    0.000    0.000    0.000    0.000    0.000 
#
# Total GULP energy -694130.765930 kJ/mol
# GULP energy per Si atom -12395.192249 kJ/mol
# Density = 1.924545 g / cm^3
# Si number density = 19.289353 Si / 1000 Ang^3
#
#
#
# Elastic Constant Matrix: (Units=GPa)
#
#
# Indices 1 2 3 4 5 6 
#
# 1 111.1656 22.8775 50.0171 0.0000 0.0000 0.0000
# 2 22.8775 38.1114 15.6779 0.0000 0.0000 0.0000
# 3 50.0171 15.6779 85.9037 0.0000 0.0000 0.0000
# 4 0.0000 0.0000 0.0000 -54.4417 0.0000 0.0000
# 5 0.0000 0.0000 0.0000 0.0000 28.6890 0.0000
# 6 0.0000 0.0000 0.0000 0.0000 0.0000 13.7676
#
#
#
# Elastic Compliance Matrix: (Units=1/GPa)
#
#
# Indices 1 2 3 4 5 6 
#
# 1 0.013041 -0.005087 -0.006665 0.000000 0.000000 0.000000
# 2 -0.005087 0.030353 -0.002578 0.000000 0.000000 0.000000
# 3 -0.006665 -0.002578 0.015992 0.000000 0.000000 0.000000
# 4 0.000000 0.000000 0.000000 -0.018368 0.000000 0.000000
# 5 0.000000 0.000000 0.000000 0.000000 0.034857 0.000000
# 6 0.000000 0.000000 0.000000 0.000000 0.000000 0.072634
#
#
# Mechanical properties :
#
#
# Convention : Reuss Voigt Hill
#
# Bulk Modulus (GPa) = 32.54446 45.81396 39.17921
# Shear Modulus (GPa) = 26.67961 7.37688 17.02825
#
# Velocity S-wave (km/s) = 3.72308 1.95771 2.97438
# Velocity P-wave (km/s) = 5.94896 5.37705 5.67022
#
# Compressibility (1/GPa) = 0.03072720
#
# Stress axis : x y z
#
# Youngs Moduli (GPa) = 76.68061 32.94602 62.53136
#
# Poissons Ratio (x) = 0.16758 0.41676
# Poissons Ratio (y) = 0.39004 0.16120
# Poissons Ratio (z) = 0.51106 0.08493
#
# Static dielectric constant tensor:
#      x y z
#    x 3.983880 0.000000 0.000000 
#    y 0.000000 3.340500 0.000000 
#    z 0.000000 0.000000 3.436700 
# 
# 
# High freq. dielectric constant tensor:
#      x y z
#    x 1.762910 0.000000 0.000000 
#    y 0.000000 1.718710 0.000000 
#    z 0.000000 0.000000 1.737880 
# 
# From -- ./inp_files/33410.got.cif
#   From: 2010.03.12/outbox.cif.g09.slc.cpg/sg51_17_cif.got.tgz:33410.got - 2010.04.16 13:43:02.
