data_PCOD8210394
_publ_section_title
;
Structure prediction by ZEFSAII (Michael W. Deem and Ramdas Pophale) SiO2 
 PCOD8210394
Probable space group: P M M A
;
_chemical_formula_sum "Si O2"
_cell_formula_units_Z 64
_cell_length_a 14.172227
_cell_length_b 9.152187
_cell_length_c 27.963167
_cell_angle_alpha 90.000000
_cell_angle_beta 90.000000
_cell_angle_gamma 90.000000
_cell_volume 3627.014915
_symmetry_space_group_name_H-M "P M M A"
_symmetry_group_IT_number 51
_symmetry_cell_setting 'orthorhombic'
loop_
_space_group_symop_operation_xyz
x,y,z
1/2-x,-y,z
1/2+x,-y,-z
-x,y,-z
-x,-y,-z
1/2+x,y,-z
1/2-x,y,z
x,-y,z
loop_
_atom_site_type_symbol
_atom_site_label
_atom_site_fract_x
_atom_site_fract_y
_atom_site_fract_z
Si Si1 0.142628 0.669290 0.802970
Si Si2 0.138484 0.665754 0.969191
Si Si3 0.356341 0.832121 0.063636
Si Si4 0.471485 0.172393 0.613268
Si Si5 0.539605 0.169408 0.116252
Si Si6 0.142913 0.669680 0.423982
Si Si7 0.639143 0.664859 0.466589
Si Si8 0.641357 0.332356 0.307561
O O1 0.250000 0.718333 0.814361
O O2 0.130738 0.500000 0.816164
O O3 0.068126 0.761685 0.833247
O O4 0.119089 0.697206 0.747738
O O5 0.250000 0.672723 0.964361
O O6 0.101252 0.500000 0.967171
O O7 0.096983 0.756414 0.925927
O O8 0.106844 0.735008 0.019547
O O9 0.250000 0.788051 0.079542
O O10 0.427304 0.806452 0.107995
O O11 0.359389 0.000000 0.046661
O O12 0.577031 0.236343 0.610728
O O13 0.412730 0.221473 0.567164
O O14 0.423937 0.226947 0.661810
O O15 0.476663 0.000000 0.614379
O O16 0.566097 0.000000 0.116974
O O17 0.250000 0.722186 0.416151
O O18 0.132899 0.500000 0.411067
O O19 0.111306 0.696856 0.478715
O O20 0.750000 0.683249 0.459366
O O21 0.608365 0.500000 0.452640
O O22 0.750000 0.296543 0.318979
O O23 0.619745 0.500000 0.320966
#
# Coordination Sequence:
#
# PCOD8210394 Si02
#       8
#     8   8   8   8   8   8   8   8
#     4   9  19  36  56  77 100 126 158 199 246 291
#     4  10  20  32  47  70 100 132 165 201 241 285
#     4   9  19  35  50  66  95 133 169 203 238 280
#     4  12  23  31  47  77 108 135 163 201 253 306
#     4  11  21  31  49  75  99 128 164 199 243 298
#     4   9  19  36  55  72  94 132 179 217 246 284
#     4   9  18  33  52  73  99 134 175 212 244 287
#     4   9  19  37  58  76  97 129 167 204 243 292
#
# _framework density 17.645365000000002
#
# number of rings (size 3 to 8) (size 9 to 14) (size 15 to 20)
#    0.000    2.250    0.000    4.875    0.000    9.750 
#    0.000    2.500    0.000    0.750    0.000    3.500 
#    0.000    0.000    0.000    0.000    0.000    0.000 
#
# Total GULP energy -793707.279903 kJ/mol
# GULP energy per Si atom -12401.676248 kJ/mol
# Density = 1.760520 g / cm^3
# Si number density = 17.645365 Si / 1000 Ang^3
#
#
#
# Elastic Constant Matrix: (Units=GPa)
#
#
# Indices 1 2 3 4 5 6 
#
# 1 63.8253 52.3948 59.3351 0.0000 0.0000 0.0000
# 2 52.3948 111.7926 62.0833 0.0000 0.0000 0.0000
# 3 59.3351 62.0833 89.4823 0.0000 0.0000 0.0000
# 4 0.0000 0.0000 0.0000 5.1418 0.0000 0.0000
# 5 0.0000 0.0000 0.0000 0.0000 30.5511 0.0000
# 6 0.0000 0.0000 0.0000 0.0000 0.0000 20.3255
#
#
#
# Elastic Compliance Matrix: (Units=1/GPa)
#
#
# Indices 1 2 3 4 5 6 
#
# 1 0.044158 -0.007215 -0.024275 0.000000 0.000000 0.000000
# 2 -0.007215 0.015731 -0.006130 0.000000 0.000000 0.000000
# 3 -0.024275 -0.006130 0.031525 0.000000 0.000000 0.000000
# 4 0.000000 0.000000 0.000000 0.194484 0.000000 0.000000
# 5 0.000000 0.000000 0.000000 0.000000 0.032732 0.000000
# 6 0.000000 0.000000 0.000000 0.000000 0.000000 0.049199
#
#
# Mechanical properties :
#
#
# Convention : Reuss Voigt Hill
#
# Bulk Modulus (GPa) = 61.82813 68.08072 64.95442
# Shear Modulus (GPa) = 11.14927 17.28950 14.21939
#
# Velocity S-wave (km/s) = 2.51640 3.13362 2.84182
# Velocity P-wave (km/s) = 6.59988 7.19440 6.90354
#
# Compressibility (1/GPa) = 0.01617387
#
# Stress axis : x y z
#
# Youngs Moduli (GPa) = 22.64619 63.56946 31.72087
#
# Poissons Ratio (x) = 0.45864 0.77002
# Poissons Ratio (y) = 0.16339 0.19445
# Poissons Ratio (z) = 0.54973 0.38968
#
# Static dielectric constant tensor:
#      x y z
#    x 3.396170 0.000000 0.000000 
#    y 0.000000 3.268780 0.000000 
#    z 0.000000 0.000000 3.124750 
# 
# 
# High freq. dielectric constant tensor:
#      x y z
#    x 1.686140 0.000000 0.000000 
#    y 0.000000 1.680540 0.000000 
#    z 0.000000 0.000000 1.663700 
# 
# From -- ./inp_files/35594.got.cif
#   From: 2010.03.12/outbox.cif.g09.slc.cpg/sg51_18_cif.got.tgz:35594.got - 2010.04.16 13:43:02.
