data_PCOD8210760
_publ_section_title
;
Structure prediction by ZEFSAII (Michael W. Deem and Ramdas Pophale) SiO2 
 PCOD8210760
Probable space group: P M M A
;
_chemical_formula_sum "Si O2"
_cell_formula_units_Z 64
_cell_length_a 27.160040
_cell_length_b 8.983590
_cell_length_c 14.539785
_cell_angle_alpha 90.000000
_cell_angle_beta 90.000000
_cell_angle_gamma 90.000000
_cell_volume 3547.629952
_symmetry_space_group_name_H-M "P M M A"
_symmetry_group_IT_number 51
_symmetry_cell_setting 'orthorhombic'
loop_
_space_group_symop_operation_xyz
x,y,z
1/2-x,-y,z
1/2+x,-y,-z
-x,y,-z
-x,-y,-z
1/2+x,y,-z
1/2-x,y,z
x,-y,z
loop_
_atom_site_type_symbol
_atom_site_label
_atom_site_fract_x
_atom_site_fract_y
_atom_site_fract_z
Si Si1 0.307755 0.828373 0.844597
Si Si2 0.391510 0.326889 0.523159
Si Si3 0.080151 0.830192 0.350531
Si Si4 0.881508 0.673081 0.024279
Si Si5 0.534243 0.827304 0.345486
Si Si6 0.028713 0.673300 0.841340
Si Si7 0.926144 0.175051 0.857565
Si Si8 0.194103 0.671672 0.658839
O O1 0.250000 0.803365 0.858465
O O2 0.334285 0.738525 0.924805
O O3 0.324355 0.767923 0.745100
O O4 0.322930 0.000000 0.850506
O O5 0.404588 0.500000 0.529282
O O6 0.388040 0.275865 0.417039
O O7 0.434779 0.233090 0.569613
O O8 0.339521 0.291031 0.571228
O O9 0.092877 0.790009 0.245281
O O10 0.022646 0.801594 0.368663
O O11 0.094099 0.000000 0.372359
O O12 0.872563 0.500000 0.006657
O O13 0.930532 0.702835 0.082172
O O14 0.886596 0.755372 0.926748
O O15 0.549368 0.738719 0.253877
O O16 0.545701 0.000000 0.328835
O O17 0.017397 0.500000 0.828174
O O18 0.979432 0.753626 0.874711
O O19 0.931471 0.000000 0.873627
O O20 0.250000 0.712243 0.631391
O O21 0.189239 0.500000 0.688158
#
# Coordination Sequence:
#
# PCOD8210760 Si02
#       8
#     8   8   8   8   8   8   8   8
#     4  10  21  36  55  80 106 132 166 207 250 299
#     4  11  21  31  50  77  99 128 170 210 250 297
#     4   9  20  36  50  68  98 135 170 205 249 296
#     4  11  22  34  52  77 104 136 171 207 252 304
#     4  10  20  33  49  71 102 138 170 203 248 300
#     4  10  20  33  49  74 107 137 169 209 250 298
#     4  10  21  36  53  73 100 136 175 213 253 297
#     4   9  19  36  54  74 104 135 161 197 248 302
#
# _framework density 18.040215
#
# number of rings (size 3 to 8) (size 9 to 14) (size 15 to 20)
#    0.000    2.000    0.000    4.500    0.000   12.750 
#    0.000    0.000    0.000    0.750    0.000    3.500 
#    0.000    0.000    0.000    0.000    0.000    0.000 
#
# Total GULP energy -793896.483509 kJ/mol
# GULP energy per Si atom -12404.632555 kJ/mol
# Density = 1.799915 g / cm^3
# Si number density = 18.040215 Si / 1000 Ang^3
#
#
#
# Elastic Constant Matrix: (Units=GPa)
#
#
# Indices 1 2 3 4 5 6 
#
# 1 59.5837 47.4689 55.0773 0.0000 0.0000 0.0000
# 2 47.4689 103.1923 65.0603 0.0000 0.0000 0.0000
# 3 55.0773 65.0603 123.3728 0.0000 0.0000 0.0000
# 4 0.0000 0.0000 0.0000 36.9067 0.0000 0.0000
# 5 0.0000 0.0000 0.0000 0.0000 27.6087 0.0000
# 6 0.0000 0.0000 0.0000 0.0000 0.0000 23.5706
#
#
#
# Elastic Compliance Matrix: (Units=1/GPa)
#
#
# Indices 1 2 3 4 5 6 
#
# 1 0.033258 -0.008896 -0.010156 0.000000 0.000000 0.000000
# 2 -0.008896 0.016897 -0.004939 0.000000 0.000000 0.000000
# 3 -0.010156 -0.004939 0.015244 0.000000 0.000000 0.000000
# 4 0.000000 0.000000 0.000000 0.027095 0.000000 0.000000
# 5 0.000000 0.000000 0.000000 0.000000 0.036220 0.000000
# 6 0.000000 0.000000 0.000000 0.000000 0.000000 0.042426
#
#
# Mechanical properties :
#
#
# Convention : Reuss Voigt Hill
#
# Bulk Modulus (GPa) = 57.41539 69.04021 63.22780
# Shear Modulus (GPa) = 22.22925 25.52002 23.87464
#
# Velocity S-wave (km/s) = 3.51409 3.76522 3.64182
# Velocity P-wave (km/s) = 6.95417 7.56675 7.26692
#
# Compressibility (1/GPa) = 0.01741693
#
# Stress axis : x y z
#
# Youngs Moduli (GPa) = 30.06765 59.18324 65.59815
#
# Poissons Ratio (x) = 0.52647 0.66625
# Poissons Ratio (y) = 0.26747 0.32400
# Poissons Ratio (z) = 0.30538 0.29232
#
# Static dielectric constant tensor:
#      x y z
#    x 3.144170 0.000000 0.000000 
#    y 0.000000 3.463970 0.000000 
#    z 0.000000 0.000000 3.415400 
# 
# 
# High freq. dielectric constant tensor:
#      x y z
#    x 1.674300 0.000000 0.000000 
#    y 0.000000 1.712900 0.000000 
#    z 0.000000 0.000000 1.700600 
# 
# From -- ./inp_files/26250.got.cif
#   From: 2010.03.12/outbox.cif.g09.slc.cpg/sg51_14_cif.got.tgz:26250.got - 2010.04.16 13:43:02.
