data_PCOD8210061
_publ_section_title
;
Structure prediction by ZEFSAII (Michael W. Deem and Ramdas Pophale) SiO2 
 PCOD8210061
Probable space group: P M M A
;
_chemical_formula_sum "Si O2"
_cell_formula_units_Z 56
_cell_length_a 19.036723
_cell_length_b 9.005168
_cell_length_c 16.581858
_cell_angle_alpha 90.000000
_cell_angle_beta 90.000000
_cell_angle_gamma 90.000000
_cell_volume 2842.609491
_symmetry_space_group_name_H-M "P M M A"
_symmetry_group_IT_number 51
_symmetry_cell_setting 'orthorhombic'
loop_
_space_group_symop_operation_xyz
x,y,z
1/2-x,-y,z
1/2+x,-y,-z
-x,y,-z
-x,-y,-z
1/2+x,y,-z
1/2-x,y,z
x,-y,z
loop_
_atom_site_type_symbol
_atom_site_label
_atom_site_fract_x
_atom_site_fract_y
_atom_site_fract_z
Si Si1 0.082569 0.175526 0.675396
Si Si2 0.331385 0.829282 0.971081
Si Si3 0.671407 0.674792 0.640023
Si Si4 0.081195 0.325216 0.512144
Si Si5 0.058568 0.672270 0.065359
Si Si6 0.451968 0.327173 0.249857
Si Si7 0.832958 0.332860 0.189938
O O1 0.108913 0.240137 0.590604
O O2 0.138173 0.228386 0.740996
O O3 0.005302 0.233708 0.696516
O O4 0.081623 0.000000 0.671823
O O5 0.250000 0.805199 0.989513
O O6 0.357265 0.732352 0.895473
O O7 0.348902 0.000000 0.953230
O O8 0.372795 0.770783 0.048836
O O9 0.750000 0.746180 0.644646
O O10 0.679406 0.500000 0.632285
O O11 0.628185 0.733165 0.562431
O O12 0.627022 0.714725 0.720920
O O13 0.090459 0.500000 0.525478
O O14 0.000000 0.282995 0.500000
O O15 0.078654 0.500000 0.058094
O O16 0.034934 0.710789 0.156133
O O17 0.000000 0.717550 0.000000
O O18 0.466523 0.500000 0.267726
O O19 0.750000 0.333185 0.196812
O O20 0.863687 0.500000 0.197216
#
# Coordination Sequence:
#
# PCOD8210061 Si02
#       7
#     8   8   8   8   8   8   8
#     4  12  24  36  57  87 120 152 188 232 288 356
#     4  10  21  37  57  82 116 155 191 233 292 356
#     4   9  18  34  58  86 111 142 192 249 296 338
#     4  10  19  36  60  82 109 148 192 238 286 342
#     4  10  21  35  55  84 115 150 197 248 289 338
#     4  10  20  37  59  83 114 152 196 243 290 342
#     4  10  21  38  60  84 112 149 195 243 290 342
#
# _framework density 19.700208
#
# number of rings (size 3 to 8) (size 9 to 14) (size 15 to 20)
#    0.000    1.857    1.429    3.000    0.000    5.143 
#    0.000    2.857    0.000    1.286    0.000    0.000 
#    0.000    0.000    0.000    0.000    0.000    0.000 
#
# Total GULP energy -694497.497308 kJ/mol
# GULP energy per Si atom -12401.741023 kJ/mol
# Density = 1.965537 g / cm^3
# Si number density = 19.700208 Si / 1000 Ang^3
#
#
#
# Elastic Constant Matrix: (Units=GPa)
#
#
# Indices 1 2 3 4 5 6 
#
# 1 73.5341 28.0846 45.9308 0.0000 0.0000 0.0000
# 2 28.0846 62.0257 29.8423 0.0000 0.0000 0.0000
# 3 45.9308 29.8423 106.9967 0.0000 0.0000 0.0000
# 4 0.0000 0.0000 0.0000 1.7235 0.0000 0.0000
# 5 0.0000 0.0000 0.0000 0.0000 34.1907 0.0000
# 6 0.0000 0.0000 0.0000 0.0000 0.0000 24.7696
#
#
#
# Elastic Compliance Matrix: (Units=1/GPa)
#
#
# Indices 1 2 3 4 5 6 
#
# 1 0.020213 -0.005749 -0.007073 0.000000 0.000000 0.000000
# 2 -0.005749 0.020256 -0.003182 0.000000 0.000000 0.000000
# 3 -0.007073 -0.003182 0.013270 0.000000 0.000000 0.000000
# 4 0.000000 0.000000 0.000000 0.580231 0.000000 0.000000
# 5 0.000000 0.000000 0.000000 0.000000 0.029248 0.000000
# 6 0.000000 0.000000 0.000000 0.000000 0.000000 0.040372
#
#
# Mechanical properties :
#
#
# Convention : Reuss Voigt Hill
#
# Bulk Modulus (GPa) = 46.01764 50.03023 48.02394
# Shear Modulus (GPa) = 6.73091 21.38334 14.05712
#
# Velocity S-wave (km/s) = 1.85043 3.29817 2.67414
# Velocity P-wave (km/s) = 5.28915 6.32098 5.82795
#
# Compressibility (1/GPa) = 0.02173080
#
# Stress axis : x y z
#
# Youngs Moduli (GPa) = 49.47295 49.36745 75.35820
#
# Poissons Ratio (x) = 0.28381 0.53304
# Poissons Ratio (y) = 0.28442 0.23977
# Poissons Ratio (z) = 0.34995 0.15708
#
# Static dielectric constant tensor:
#      x y z
#    x 3.675670 0.000000 0.000000 
#    y 0.000000 3.391960 0.000000 
#    z 0.000000 0.000000 3.697800 
# 
# 
# High freq. dielectric constant tensor:
#      x y z
#    x 1.769910 0.000000 0.000000 
#    y 0.000000 1.745600 0.000000 
#    z 0.000000 0.000000 1.774750 
# 
# From -- ./inp_files/25751.got.cif
#   From: 2010.03.12/outbox.cif.g09.slc.cpg/sg51_13_cif.got.tgz:25751.got - 2010.04.16 13:43:02.
