data_PCOD8210294
_publ_section_title
;
Structure prediction by ZEFSAII (Michael W. Deem and Ramdas Pophale) SiO2 
 PCOD8210294
Probable space group: P M M A
;
_chemical_formula_sum "Si O2"
_cell_formula_units_Z 64
_cell_length_a 9.370203
_cell_length_b 14.423152
_cell_length_c 28.493683
_cell_angle_alpha 90.000000
_cell_angle_beta 90.000000
_cell_angle_gamma 90.000000
_cell_volume 3850.860342
_symmetry_space_group_name_H-M "P M M A"
_symmetry_group_IT_number 51
_symmetry_cell_setting 'orthorhombic'
loop_
_space_group_symop_operation_xyz
x,y,z
1/2-x,-y,z
1/2+x,-y,-z
-x,y,-z
-x,-y,-z
1/2+x,y,-z
1/2-x,y,z
x,-y,z
loop_
_atom_site_type_symbol
_atom_site_label
_atom_site_fract_x
_atom_site_fract_y
_atom_site_fract_z
Si Si1 0.093906 0.390720 0.458513
Si Si2 0.584613 0.221238 0.954245
Si Si3 0.918550 0.392994 0.646814
Si Si4 0.580492 0.271934 0.278563
Si Si5 0.084640 0.605978 0.810273
Si Si6 0.416804 0.891666 0.237676
Si Si7 0.414271 0.396543 0.099530
Si Si8 0.080571 0.102449 0.132484
O O1 0.250000 0.345683 0.463105
O O2 0.105150 0.500000 0.466028
O O3 0.033416 0.370875 0.406573
O O4 0.000000 0.345400 0.500000
O O5 0.750000 0.197378 0.962427
O O6 0.559391 0.330551 0.945160
O O7 0.522575 0.169261 0.908347
O O8 0.500000 0.188734 0.000000
O O9 0.750000 0.374856 0.653804
O O10 0.953982 0.500000 0.659435
O O11 0.012315 0.323743 0.677419
O O12 0.750000 0.263141 0.285577
O O13 0.538647 0.331686 0.233211
O O14 0.510984 0.170061 0.273142
O O15 0.250000 0.616317 0.821942
O O16 0.043894 0.500000 0.798259
O O17 0.000606 0.640821 0.855879
O O18 0.250000 0.868234 0.244514
O O19 0.468592 0.867101 0.184591
O O20 0.444808 0.000000 0.248375
O O21 0.250000 0.393382 0.114799
O O22 0.462945 0.500000 0.085041
O O23 0.250000 0.101883 0.132395
O O24 0.021383 0.000000 0.121469
#
# Coordination Sequence:
#
# PCOD8210294 Si02
#       8
#     8   8   8   8   8   8   8   8
#     4   8  14  25  41  61  86 120 163 207 245 277
#     4  10  20  32  46  65  88 110 134 168 209 256
#     4   9  18  31  45  64  94 132 172 207 235 271
#     4  11  21  30  44  68  99 129 153 186 235 284
#     4   9  18  31  45  64  91 120 149 181 219 265
#     4   9  18  34  55  73  88 114 154 193 228 272
#     4   9  18  32  48  64  81 106 144 183 213 247
#     4   8  15  30  51  70  86 107 137 173 213 259
#
# _framework density 16.619662000000002
#
# number of rings (size 3 to 8) (size 9 to 14) (size 15 to 20)
#    0.000    2.875    0.000    3.000    0.000    4.500 
#    0.000    3.125    0.000    0.750    0.000    0.000 
#    0.000    0.500    0.000    1.625    0.000    2.000 
#
# Total GULP energy -793329.169238 kJ/mol
# GULP energy per Si atom -12395.768269 kJ/mol
# Density = 1.658184 g / cm^3
# Si number density = 16.619662 Si / 1000 Ang^3
#
#
#
# Elastic Constant Matrix: (Units=GPa)
#
#
# Indices 1 2 3 4 5 6 
#
# 1 57.5267 37.0795 48.4067 0.0000 0.0000 0.0000
# 2 37.0795 74.2540 49.7236 0.0000 0.0000 0.0000
# 3 48.4067 49.7236 98.9352 0.0000 0.0000 0.0000
# 4 0.0000 0.0000 0.0000 17.6798 0.0000 0.0000
# 5 0.0000 0.0000 0.0000 0.0000 29.7668 0.0000
# 6 0.0000 0.0000 0.0000 0.0000 0.0000 18.0305
#
#
#
# Elastic Compliance Matrix: (Units=1/GPa)
#
#
# Indices 1 2 3 4 5 6 
#
# 1 0.032742 -0.008475 -0.011761 0.000000 0.000000 0.000000
# 2 -0.008475 0.022492 -0.007158 0.000000 0.000000 0.000000
# 3 -0.011761 -0.007158 0.019459 0.000000 0.000000 0.000000
# 4 0.000000 0.000000 0.000000 0.056562 0.000000 0.000000
# 5 0.000000 0.000000 0.000000 0.000000 0.033594 0.000000
# 6 0.000000 0.000000 0.000000 0.000000 0.000000 0.055462
#
#
# Mechanical properties :
#
#
# Convention : Reuss Voigt Hill
#
# Bulk Modulus (GPa) = 50.23301 55.68172 52.95737
# Shear Modulus (GPa) = 17.74729 19.46249 18.60489
#
# Velocity S-wave (km/s) = 3.27134 3.42578 3.34945
# Velocity P-wave (km/s) = 6.67529 7.01599 6.84776
#
# Compressibility (1/GPa) = 0.01990723
#
# Stress axis : x y z
#
# Youngs Moduli (GPa) = 30.54212 44.45935 51.38927
#
# Poissons Ratio (x) = 0.37677 0.60437
# Poissons Ratio (y) = 0.25883 0.36785
# Poissons Ratio (z) = 0.35919 0.31824
#
# Static dielectric constant tensor:
#      x y z
#    x 3.043370 0.000000 0.000000 
#    y 0.000000 3.097890 0.000000 
#    z 0.000000 0.000000 3.084310 
# 
# 
# High freq. dielectric constant tensor:
#      x y z
#    x 1.627450 0.000000 0.000000 
#    y 0.000000 1.622910 0.000000 
#    z 0.000000 0.000000 1.627360 
# 
# From -- ./inp_files/37676.got.cif
#   From: 2010.03.12/outbox.cif.g09.slc.cpg/sg51_19_cif.got.tgz:37676.got - 2010.04.16 13:43:02.
