data_PCOD8210081
_publ_section_title
;
Structure prediction by ZEFSAII (Michael W. Deem and Ramdas Pophale) SiO2 
 PCOD8210081
Probable space group: P M M A
;
_chemical_formula_sum "Si O2"
_cell_formula_units_Z 48
_cell_length_a 17.209872
_cell_length_b 19.289160
_cell_length_c 7.366131
_cell_angle_alpha 90.000000
_cell_angle_beta 90.000000
_cell_angle_gamma 90.000000
_cell_volume 2445.290124
_symmetry_space_group_name_H-M "P M M A"
_symmetry_group_IT_number 51
_symmetry_cell_setting 'orthorhombic'
loop_
_space_group_symop_operation_xyz
x,y,z
1/2-x,-y,z
1/2+x,-y,-z
-x,y,-z
-x,-y,-z
1/2+x,y,-z
1/2-x,y,z
x,-y,z
loop_
_atom_site_type_symbol
_atom_site_label
_atom_site_fract_x
_atom_site_fract_y
_atom_site_fract_z
Si Si1 0.659905 0.648886 0.423042
Si Si2 0.337736 0.500000 0.422777
Si Si3 0.410648 0.500000 0.049203
Si Si4 0.341975 0.103667 0.245790
Si Si5 0.341353 0.740985 0.244137
Si Si6 0.410329 0.352020 0.946361
Si Si7 0.341444 0.000000 0.931783
Si Si8 0.408666 0.000000 0.525750
O O1 0.750000 0.665350 0.378964
O O2 0.648244 0.567488 0.456938
O O3 0.628194 0.694601 0.589428
O O4 0.603447 0.670342 0.259915
O O5 0.250000 0.500000 0.341132
O O6 0.400944 0.500000 0.264844
O O7 0.372849 0.429036 0.972898
O O8 0.500000 0.500000 0.000000
O O9 0.250000 0.101617 0.265811
O O10 0.376296 0.181514 0.245615
O O11 0.375336 0.067608 0.425748
O O12 0.365164 0.066520 0.055560
O O13 0.250000 0.746210 0.253955
O O14 0.364364 0.704123 0.060006
O O15 0.500000 0.351210 0.000000
O O16 0.387390 0.000000 0.740718
O O17 0.250000 0.000000 0.886931
O O18 0.500000 0.000000 0.500000
#
# Coordination Sequence:
#
# PCOD8210081 Si02
#       8
#     8   4   4   8   8   8   4   4
#     4  10  21  37  60  86 113 151 200 250 297 348
#     4  10  19  36  62  86 111 150 202 260 302 342
#     4  10  21  38  56  82 115 154 200 245 302 352
#     4   9  20  39  62  89 118 153 200 246 284 343
#     4  10  21  40  61  85 119 156 198 249 296 346
#     4  11  23  39  55  86 117 159 200 242 302 361
#     4   9  18  37  66  89 112 153 200 240 280 337
#     4  11  22  38  59  93 123 159 189 235 294 348
#
# _framework density 19.629570999999999
#
# number of rings (size 3 to 8) (size 9 to 14) (size 15 to 20)
#    0.000    2.000    1.667    2.250    0.000    4.000 
#    6.000    6.667    0.000    0.000    0.000    0.000 
#    0.000    0.000    0.000    0.000    0.000    0.000 
#
# Total GULP energy -595097.209833 kJ/mol
# GULP energy per Si atom -12397.858538 kJ/mol
# Density = 1.958489 g / cm^3
# Si number density = 19.629571 Si / 1000 Ang^3
#
#
#
# Elastic Constant Matrix: (Units=GPa)
#
#
# Indices 1 2 3 4 5 6 
#
# 1 40.1842 18.3085 46.5599 0.0000 0.0000 0.0000
# 2 18.3085 170.6631 66.1782 0.0000 0.0000 0.0000
# 3 46.5599 66.1782 164.4073 0.0000 0.0000 0.0000
# 4 0.0000 0.0000 0.0000 26.0993 0.0000 0.0000
# 5 0.0000 0.0000 0.0000 0.0000 33.3001 0.0000
# 6 0.0000 0.0000 0.0000 0.0000 0.0000 14.2148
#
#
#
# Elastic Compliance Matrix: (Units=1/GPa)
#
#
# Indices 1 2 3 4 5 6 
#
# 1 0.037041 0.000111 -0.010535 0.000000 0.000000 0.000000
# 2 0.000111 0.006944 -0.002827 0.000000 0.000000 0.000000
# 3 -0.010535 -0.002827 0.010204 0.000000 0.000000 0.000000
# 4 0.000000 0.000000 0.000000 0.038315 0.000000 0.000000
# 5 0.000000 0.000000 0.000000 0.000000 0.030030 0.000000
# 6 0.000000 0.000000 0.000000 0.000000 0.000000 0.070349
#
#
# Mechanical properties :
#
#
# Convention : Reuss Voigt Hill
#
# Bulk Modulus (GPa) = 36.11633 70.81643 53.46638
# Shear Modulus (GPa) = 21.87117 31.00339 26.43728
#
# Velocity S-wave (km/s) = 3.34158 3.97851 3.67387
# Velocity P-wave (km/s) = 5.77296 7.56699 6.73002
#
# Compressibility (1/GPa) = 0.02768831
#
# Stress axis : x y z
#
# Youngs Moduli (GPa) = 26.99721 144.01774 98.00441
#
# Poissons Ratio (x) = -0.01604 1.03245
# Poissons Ratio (y) = -0.00301 0.27701
# Poissons Ratio (z) = 0.28441 0.40707
#
# Static dielectric constant tensor:
#      x y z
#    x 3.339200 0.000000 0.000000 
#    y 0.000000 4.098240 0.000000 
#    z 0.000000 0.000000 3.526900 
# 
# 
# High freq. dielectric constant tensor:
#      x y z
#    x 1.743970 0.000000 0.000000 
#    y 0.000000 1.771860 0.000000 
#    z 0.000000 0.000000 1.770070 
# 
# From -- ./inp_files/2560.got.cif
#   From: 2010.03.12/outbox.cif.g09.slc.cpg/sg51_2_cif.got.tgz:2560.got - 2010.04.16 13:43:02.
