data_PCOD8210855
_publ_section_title
;
Structure prediction by ZEFSAII (Michael W. Deem and Ramdas Pophale) SiO2 
 PCOD8210855
Probable space group: P M M A
;
_chemical_formula_sum "Si O2"
_cell_formula_units_Z 64
_cell_length_a 13.956538
_cell_length_b 9.192206
_cell_length_c 25.942285
_cell_angle_alpha 90.000000
_cell_angle_beta 90.000000
_cell_angle_gamma 90.000000
_cell_volume 3328.171344
_symmetry_space_group_name_H-M "P M M A"
_symmetry_group_IT_number 51
_symmetry_cell_setting 'orthorhombic'
loop_
_space_group_symop_operation_xyz
x,y,z
1/2-x,-y,z
1/2+x,-y,-z
-x,y,-z
-x,-y,-z
1/2+x,y,-z
1/2-x,y,z
x,-y,z
loop_
_atom_site_type_symbol
_atom_site_label
_atom_site_fract_x
_atom_site_fract_y
_atom_site_fract_z
Si Si1 0.397924 0.340481 0.476363
Si Si2 0.143839 0.827579 0.974154
Si Si3 0.358372 0.332795 0.667120
Si Si4 0.049860 0.331815 0.282300
Si Si5 0.545926 0.827705 0.921312
Si Si6 0.144022 0.157700 0.570981
Si Si7 0.862922 0.833119 0.623494
Si Si8 0.360498 0.329199 0.174178
O O1 0.500000 0.366893 0.500000
O O2 0.348853 0.500000 0.468220
O O3 0.342409 0.241848 0.517253
O O4 0.411081 0.255676 0.422983
O O5 0.250000 0.763413 0.961332
O O6 0.064495 0.778217 0.932127
O O7 0.147622 0.000000 0.974424
O O8 0.111512 0.775858 0.030898
O O9 0.250000 0.285139 0.683859
O O10 0.356623 0.500000 0.650129
O O11 0.434396 0.306509 0.713348
O O12 0.403535 0.248754 0.617572
O O13 0.075758 0.500000 0.292915
O O14 0.107318 0.234243 0.322351
O O15 0.084848 0.283745 0.226169
O O16 0.583843 0.750794 0.870861
O O17 0.552221 0.000000 0.913670
O O18 0.250000 0.129333 0.591580
O O19 0.092120 0.000000 0.563289
O O20 0.750000 0.819530 0.616607
O O21 0.896858 0.000000 0.621189
O O22 0.250000 0.277850 0.177023
O O23 0.366785 0.500000 0.164320
#
# Coordination Sequence:
#
# PCOD8210855 Si02
#       8
#     8   8   8   8   8   8   8   8
#     4  11  23  36  51  73 100 131 167 204 246 304
#     4   8  14  27  49  78 112 146 179 218 264 310
#     4   9  18  34  56  79 101 128 166 210 254 305
#     4  10  21  38  58  77 100 135 176 213 255 311
#     4   9  17  30  52  80 106 139 184 225 259 304
#     4  10  20  33  50  73  99 125 155 195 245 300
#     4  11  24  39  55  78 106 134 168 214 265 310
#     4  10  21  36  53  75 106 141 175 217 268 313
#
# _framework density 19.229780999999999
#
# number of rings (size 3 to 8) (size 9 to 14) (size 15 to 20)
#    0.000    2.250    0.000    3.750    0.000    9.500 
#    0.000    1.875    0.000    1.875    0.000    0.000 
#    0.000    0.000    0.000    0.000    0.000    0.000 
#
# Total GULP energy -793176.313903 kJ/mol
# GULP energy per Si atom -12393.379905 kJ/mol
# Density = 1.918601 g / cm^3
# Si number density = 19.229781 Si / 1000 Ang^3
#
#
#
# Elastic Constant Matrix: (Units=GPa)
#
#
# Indices 1 2 3 4 5 6 
#
# 1 114.7278 38.7936 69.9399 0.0000 0.0000 0.0000
# 2 38.7936 90.9439 63.1548 0.0000 0.0000 0.0000
# 3 69.9399 63.1548 152.2733 0.0000 0.0000 0.0000
# 4 0.0000 0.0000 0.0000 25.6455 0.0000 0.0000
# 5 0.0000 0.0000 0.0000 0.0000 30.8173 0.0000
# 6 0.0000 0.0000 0.0000 0.0000 0.0000 28.4859
#
#
#
# Elastic Compliance Matrix: (Units=1/GPa)
#
#
# Indices 1 2 3 4 5 6 
#
# 1 0.012327 -0.001863 -0.004889 0.000000 0.000000 0.000000
# 2 -0.001863 0.015725 -0.005666 0.000000 0.000000 0.000000
# 3 -0.004889 -0.005666 0.011163 0.000000 0.000000 0.000000
# 4 0.000000 0.000000 0.000000 0.038993 0.000000 0.000000
# 5 0.000000 0.000000 0.000000 0.000000 0.032449 0.000000
# 6 0.000000 0.000000 0.000000 0.000000 0.000000 0.035105
#
#
# Mechanical properties :
#
#
# Convention : Reuss Voigt Hill
#
# Bulk Modulus (GPa) = 69.55038 77.96908 73.75973
# Shear Modulus (GPa) = 28.50756 29.39351 28.95054
#
# Velocity S-wave (km/s) = 3.85446 3.91390 3.88429
# Velocity P-wave (km/s) = 7.48704 7.81401 7.65227
#
# Compressibility (1/GPa) = 0.01437807
#
# Stress axis : x y z
#
# Youngs Moduli (GPa) = 81.12503 63.59122 89.58329
#
# Poissons Ratio (x) = 0.11847 0.43797
# Poissons Ratio (y) = 0.15114 0.50761
# Poissons Ratio (z) = 0.39662 0.36033
#
# Static dielectric constant tensor:
#      x y z
#    x 3.841710 0.000000 0.000000 
#    y 0.000000 3.643420 0.000000 
#    z 0.000000 0.000000 3.338150 
# 
# 
# High freq. dielectric constant tensor:
#      x y z
#    x 1.763880 0.000000 0.000000 
#    y 0.000000 1.737460 0.000000 
#    z 0.000000 0.000000 1.726030 
# 
# From -- ./inp_files/35612.got.cif
#   From: 2010.03.12/outbox.cif.g09.slc.cpg/sg51_18_cif.got.tgz:35612.got - 2010.04.16 13:43:02.
