data_PCOD8210494
_publ_section_title
;
Structure prediction by ZEFSAII (Michael W. Deem and Ramdas Pophale) SiO2 
 PCOD8210494
Probable space group: P M M A
;
_chemical_formula_sum "Si O2"
_cell_formula_units_Z 48
_cell_length_a 20.845377
_cell_length_b 9.109558
_cell_length_c 14.098408
_cell_angle_alpha 90.000000
_cell_angle_beta 90.000000
_cell_angle_gamma 90.000000
_cell_volume 2677.177300
_symmetry_space_group_name_H-M "P M M A"
_symmetry_group_IT_number 51
_symmetry_cell_setting 'orthorhombic'
loop_
_space_group_symop_operation_xyz
x,y,z
1/2-x,-y,z
1/2+x,-y,-z
-x,y,-z
-x,-y,-z
1/2+x,y,-z
1/2-x,y,z
x,-y,z
loop_
_atom_site_type_symbol
_atom_site_label
_atom_site_fract_x
_atom_site_fract_y
_atom_site_fract_z
Si Si1 0.927403 0.338860 0.465194
Si Si2 0.603781 0.173132 0.640828
Si Si3 0.323336 0.168522 0.031882
Si Si4 0.518965 0.326755 0.272950
Si Si5 0.175722 0.661307 0.214537
Si Si6 0.051176 0.169460 0.919038
O O1 0.895596 0.500000 0.477931
O O2 0.890877 0.221058 0.530541
O O3 0.927259 0.292546 0.354146
O O4 0.000000 0.346224 0.500000
O O5 0.545514 0.243838 0.698646
O O6 0.665871 0.234630 0.694464
O O7 0.599148 0.000000 0.645533
O O8 0.250000 0.211463 0.000593
O O9 0.350569 0.262776 0.119420
O O10 0.324608 0.000000 0.064789
O O11 0.374698 0.195123 0.948706
O O12 0.505461 0.500000 0.268905
O O13 0.542704 0.270650 0.172237
O O14 0.250000 0.640807 0.200575
O O15 0.143319 0.500000 0.227122
O O16 0.039225 0.000000 0.891762
O O17 0.000000 0.216209 0.000000
#
# Coordination Sequence:
#
# PCOD8210494 Si02
#       6
#     8   8   8   8   8   8
#     4   8  16  31  48  68  95 125 157 193 237 290
#     4  11  20  30  49  74 100 129 160 198 245 296
#     4   9  18  33  51  71  99 134 167 201 247 301
#     4  10  20  33  50  72  99 130 163 202 247 293
#     4  10  20  33  50  72  98 129 164 202 244 292
#     4  10  20  32  48  73 102 130 165 210 254 293
#
# _framework density 17.929331000000001
#
# number of rings (size 3 to 8) (size 9 to 14) (size 15 to 20)
#    0.000    2.333    0.000    4.500    0.000    7.000 
#    0.000    0.000    0.000    1.000    0.000    4.667 
#    0.000    0.000    0.000    0.000    0.000    0.000 
#
# Total GULP energy -594898.736046 kJ/mol
# GULP energy per Si atom -12393.723668 kJ/mol
# Density = 1.788852 g / cm^3
# Si number density = 17.929331 Si / 1000 Ang^3
#
#
#
# Elastic Constant Matrix: (Units=GPa)
#
#
# Indices 1 2 3 4 5 6 
#
# 1 45.7260 21.7115 29.0894 0.0000 0.0000 0.0000
# 2 21.7115 122.6261 68.0086 0.0000 0.0000 0.0000
# 3 29.0894 68.0086 129.9802 0.0000 0.0000 0.0000
# 4 0.0000 0.0000 0.0000 32.4210 0.0000 0.0000
# 5 0.0000 0.0000 0.0000 0.0000 21.8788 0.0000
# 6 0.0000 0.0000 0.0000 0.0000 0.0000 18.4243
#
#
#
# Elastic Compliance Matrix: (Units=1/GPa)
#
#
# Indices 1 2 3 4 5 6 
#
# 1 0.025819 -0.001925 -0.004771 0.000000 0.000000 0.000000
# 2 -0.001925 0.011632 -0.005655 0.000000 0.000000 0.000000
# 3 -0.004771 -0.005655 0.011720 0.000000 0.000000 0.000000
# 4 0.000000 0.000000 0.000000 0.030844 0.000000 0.000000
# 5 0.000000 0.000000 0.000000 0.000000 0.045706 0.000000
# 6 0.000000 0.000000 0.000000 0.000000 0.000000 0.054276
#
#
# Mechanical properties :
#
#
# Convention : Reuss Voigt Hill
#
# Bulk Modulus (GPa) = 40.86975 59.55017 50.20996
# Shear Modulus (GPa) = 23.48998 26.51301 25.00149
#
# Velocity S-wave (km/s) = 3.62352 3.84962 3.73828
# Velocity P-wave (km/s) = 6.35223 7.28323 6.83360
#
# Compressibility (1/GPa) = 0.02446797
#
# Stress axis : x y z
#
# Youngs Moduli (GPa) = 38.73175 85.96799 85.32303
#
# Poissons Ratio (x) = 0.16553 0.40705
# Poissons Ratio (y) = 0.07458 0.48253
# Poissons Ratio (z) = 0.18478 0.48618
#
# Static dielectric constant tensor:
#      x y z
#    x 3.152480 0.000000 0.000000 
#    y 0.000000 3.586460 0.000000 
#    z 0.000000 0.000000 3.509150 
# 
# 
# High freq. dielectric constant tensor:
#      x y z
#    x 1.661760 0.000000 0.000000 
#    y 0.000000 1.702440 0.000000 
#    z 0.000000 0.000000 1.692620 
# 
# From -- ./inp_files/18535.got.cif
#   From: 2010.03.12/outbox.cif.g09.slc.cpg/sg51_10_cif.got.tgz:18535.got - 2010.04.16 13:43:02.
