data_PCOD8210492
_publ_section_title
;
Structure prediction by ZEFSAII (Michael W. Deem and Ramdas Pophale) SiO2 
 PCOD8210492
Probable space group: P M M A
;
_chemical_formula_sum "Si O2"
_cell_formula_units_Z 40
_cell_length_a 9.342087
_cell_length_b 18.422288
_cell_length_c 13.679430
_cell_angle_alpha 90.000000
_cell_angle_beta 90.000000
_cell_angle_gamma 90.000000
_cell_volume 2354.265705
_symmetry_space_group_name_H-M "P M M A"
_symmetry_group_IT_number 51
_symmetry_cell_setting 'orthorhombic'
loop_
_space_group_symop_operation_xyz
x,y,z
1/2-x,-y,z
1/2+x,-y,-z
-x,y,-z
-x,-y,-z
1/2+x,y,-z
1/2-x,y,z
x,-y,z
loop_
_atom_site_type_symbol
_atom_site_label
_atom_site_fract_x
_atom_site_fract_y
_atom_site_fract_z
Si Si1 0.915489 0.915910 0.598030
Si Si2 0.415694 0.658517 0.597702
Si Si3 0.413878 0.196133 0.710619
Si Si4 0.579575 0.580592 0.210855
Si Si5 0.582779 0.282229 0.096117
O O1 0.750000 0.895223 0.582764
O O2 0.000000 0.895486 0.500000
O O3 0.981277 0.870585 0.687579
O O4 0.934265 0.000000 0.624651
O O5 0.500000 0.641105 0.500000
O O6 0.250000 0.644310 0.576651
O O7 0.441464 0.740823 0.631847
O O8 0.473954 0.604428 0.681787
O O9 0.250000 0.169518 0.705026
O O10 0.449577 0.224321 0.819031
O O11 0.750000 0.583248 0.212353
O O12 0.521485 0.500000 0.185784
O O13 0.525863 0.638135 0.129843
O O14 0.750000 0.285103 0.072397
O O15 0.500000 0.257023 0.000000
#
# Coordination Sequence:
#
# PCOD8210492 Si02
#       5
#     8   8   8   8   8
#     4  10  20  32  48  73 102 129 156 186 222 266
#     4   9  17  28  43  64  89 119 155 190 224 267
#     4   9  18  32  48  67  93 124 157 192 230 274
#     4   8  15  29  46  63  88 122 154 185 228 280
#     4   9  18  32  50  71  92 117 153 195 238 282
#
# _framework density 16.990435999999999
#
# number of rings (size 3 to 8) (size 9 to 14) (size 15 to 20)
#    0.000    3.000    0.000    3.600    0.000    5.200 
#    0.000    3.000    0.000    1.800    0.000    0.000 
#    0.000    0.000    0.000    0.000    0.000    0.000 
#
# Total GULP energy -495925.501634 kJ/mol
# GULP energy per Si atom -12398.137541 kJ/mol
# Density = 1.695176 g / cm^3
# Si number density = 16.990436 Si / 1000 Ang^3
#
#
#
# Elastic Constant Matrix: (Units=GPa)
#
#
# Indices 1 2 3 4 5 6 
#
# 1 73.9793 48.8912 51.0993 0.0000 0.0000 0.0000
# 2 48.8912 86.5682 43.1946 0.0000 0.0000 0.0000
# 3 51.0993 43.1946 106.6388 0.0000 0.0000 0.0000
# 4 0.0000 0.0000 0.0000 17.3023 0.0000 0.0000
# 5 0.0000 0.0000 0.0000 0.0000 33.1085 0.0000
# 6 0.0000 0.0000 0.0000 0.0000 0.0000 21.1242
#
#
#
# Elastic Compliance Matrix: (Units=1/GPa)
#
#
# Indices 1 2 3 4 5 6 
#
# 1 0.026326 -0.010745 -0.008262 0.000000 0.000000 0.000000
# 2 -0.010745 0.018864 -0.002492 0.000000 0.000000 0.000000
# 3 -0.008262 -0.002492 0.014346 0.000000 0.000000 0.000000
# 4 0.000000 0.000000 0.000000 0.057796 0.000000 0.000000
# 5 0.000000 0.000000 0.000000 0.000000 0.030204 0.000000
# 6 0.000000 0.000000 0.000000 0.000000 0.000000 0.047339
#
#
# Mechanical properties :
#
#
# Convention : Reuss Voigt Hill
#
# Bulk Modulus (GPa) = 60.47340 61.50630 60.98985
# Shear Modulus (GPa) = 20.54361 22.57375 21.55868
#
# Velocity S-wave (km/s) = 3.48102 3.64897 3.56599
# Velocity P-wave (km/s) = 7.19907 7.35068 7.27527
#
# Compressibility (1/GPa) = 0.01653620
#
# Stress axis : x y z
#
# Youngs Moduli (GPa) = 37.98583 53.01225 69.70630
#
# Poissons Ratio (x) = 0.56963 0.57593
# Poissons Ratio (y) = 0.40817 0.17370
# Poissons Ratio (z) = 0.31385 0.13210
#
# Static dielectric constant tensor:
#      x y z
#    x 2.949440 0.000000 0.000000 
#    y 0.000000 3.204430 0.000000 
#    z 0.000000 0.000000 3.028100 
# 
# 
# High freq. dielectric constant tensor:
#      x y z
#    x 1.636500 0.000000 0.000000 
#    y 0.000000 1.649360 0.000000 
#    z 0.000000 0.000000 1.646980 
# 
# From -- ./inp_files/14234.got.cif
#   From: 2010.03.12/outbox.cif.g09.slc.cpg/sg51_8_cif.got.tgz:14234.got - 2010.04.16 13:43:02.
