data_PCOD8210286
_publ_section_title
;
Structure prediction by ZEFSAII (Michael W. Deem and Ramdas Pophale) SiO2 
 PCOD8210286
Probable space group: P M M A
;
_chemical_formula_sum "Si O2"
_cell_formula_units_Z 64
_cell_length_a 9.529534
_cell_length_b 13.928781
_cell_length_c 30.983159
_cell_angle_alpha 90.000000
_cell_angle_beta 90.000000
_cell_angle_gamma 90.000000
_cell_volume 4112.543169
_symmetry_space_group_name_H-M "P M M A"
_symmetry_group_IT_number 51
_symmetry_cell_setting 'orthorhombic'
loop_
_space_group_symop_operation_xyz
x,y,z
1/2-x,-y,z
1/2+x,-y,-z
-x,y,-z
-x,-y,-z
1/2+x,y,-z
1/2-x,y,z
x,-y,z
loop_
_atom_site_type_symbol
_atom_site_label
_atom_site_fract_x
_atom_site_fract_y
_atom_site_fract_z
Si Si1 0.590988 0.385347 0.212331
Si Si2 0.593648 0.895607 0.383286
Si Si3 0.907013 0.614176 0.961794
Si Si4 0.407324 0.387603 0.291424
Si Si5 0.090524 0.311080 0.634079
Si Si6 0.411699 0.389254 0.541194
Si Si7 0.408003 0.385880 0.133586
Si Si8 0.597067 0.109934 0.535709
O O1 0.750000 0.345355 0.214505
O O2 0.593152 0.500000 0.212656
O O3 0.502698 0.344563 0.252918
O O4 0.516463 0.345438 0.168977
O O5 0.750000 0.892547 0.404473
O O6 0.578628 0.802218 0.352805
O O7 0.474709 0.884084 0.418381
O O8 0.574366 0.000000 0.359444
O O9 0.750000 0.651289 0.969360
O O10 0.912486 0.500000 0.964238
O O11 0.958720 0.647427 0.914181
O O12 0.000000 0.660169 0.000000
O O13 0.250000 0.342385 0.290695
O O14 0.393633 0.500000 0.284512
O O15 0.482054 0.368841 0.336880
O O16 0.250000 0.348401 0.642155
O O17 0.049937 0.326898 0.583745
O O18 0.500000 0.352754 0.500000
O O19 0.250000 0.376108 0.528926
O O20 0.447297 0.500000 0.551806
O O21 0.250000 0.347898 0.143009
O O22 0.405314 0.500000 0.135746
O O23 0.500000 0.162669 0.500000
O O24 0.750000 0.160344 0.537726
O O25 0.617719 0.000000 0.521594
#
# Coordination Sequence:
#
# PCOD8210286 Si02
#       8
#     8   8   8   8   8   8   8   8
#     4   9  16  25  38  55  73  94 120 151 189 234
#     4   9  18  32  47  63  84 107 130 157 190 227
#     4   8  13  19  26  37  55  81 113 150 190 229
#     4  10  20  32  46  64  84 104 126 156 195 237
#     4  10  20  33  49  67  85 106 131 159 192 229
#     4   9  18  32  48  64  82 104 129 157 188 222
#     4   8  13  21  31  43  62  88 117 150 190 234
#     4   9  16  26  41  59  78 101 127 153 180 209
#
# _framework density 15.562147
#
# number of rings (size 3 to 8) (size 9 to 14) (size 15 to 20)
#    0.000    3.000    0.000    2.250    0.000    6.250 
#    0.000    5.000    0.000    0.000    0.000    0.000 
#    0.000    0.000    0.000    0.000    0.000    0.000 
#
# Total GULP energy -792979.084532 kJ/mol
# GULP energy per Si atom -12390.298196 kJ/mol
# Density = 1.552673 g / cm^3
# Si number density = 15.562147 Si / 1000 Ang^3
#
#
#
# Elastic Constant Matrix: (Units=GPa)
#
#
# Indices 1 2 3 4 5 6 
#
# 1 116.5662 8.0114 62.0913 0.0000 0.0000 0.0000
# 2 8.0114 27.9543 6.1905 0.0000 0.0000 0.0000
# 3 62.0913 6.1905 102.8036 0.0000 0.0000 0.0000
# 4 0.0000 0.0000 0.0000 1.5611 0.0000 0.0000
# 5 0.0000 0.0000 0.0000 0.0000 29.1830 0.0000
# 6 0.0000 0.0000 0.0000 0.0000 0.0000 7.5862
#
#
#
# Elastic Compliance Matrix: (Units=1/GPa)
#
#
# Indices 1 2 3 4 5 6 
#
# 1 0.012755 -0.001976 -0.007585 0.000000 0.000000 0.000000
# 2 -0.001976 0.036562 -0.001008 0.000000 0.000000 0.000000
# 3 -0.007585 -0.001008 0.014369 0.000000 0.000000 0.000000
# 4 0.000000 0.000000 0.000000 0.640591 0.000000 0.000000
# 5 0.000000 0.000000 0.000000 0.000000 0.034267 0.000000
# 6 0.000000 0.000000 0.000000 0.000000 0.000000 0.131818
#
#
# Mechanical properties :
#
#
# Convention : Reuss Voigt Hill
#
# Bulk Modulus (GPa) = 23.50263 44.43451 33.96857
# Shear Modulus (GPa) = 5.52070 19.06812 12.29441
#
# Velocity S-wave (km/s) = 1.88553 3.50421 2.81378
# Velocity P-wave (km/s) = 4.45820 6.70728 5.69487
#
# Compressibility (1/GPa) = 0.04254842
#
# Stress axis : x y z
#
# Youngs Moduli (GPa) = 78.40251 27.35066 69.59456
#
# Poissons Ratio (x) = 0.05404 0.52785
# Poissons Ratio (y) = 0.15490 0.07018
# Poissons Ratio (z) = 0.59465 0.02758
#
# Static dielectric constant tensor:
#      x y z
#    x 3.258650 0.000000 0.000000 
#    y 0.000000 2.623440 0.000000 
#    z 0.000000 0.000000 2.963980 
# 
# 
# High freq. dielectric constant tensor:
#      x y z
#    x 1.612640 0.000000 0.000000 
#    y 0.000000 1.532000 0.000000 
#    z 0.000000 0.000000 1.577210 
# 
# From -- ./inp_files/37647.got.cif
#   From: 2010.03.12/outbox.cif.g09.slc.cpg/sg51_19_cif.got.tgz:37647.got - 2010.04.16 13:43:02.
