data_PCOD8210256
_publ_section_title
;
Structure prediction by ZEFSAII (Michael W. Deem and Ramdas Pophale) SiO2 
 PCOD8210256
Probable space group: P M M A
;
_chemical_formula_sum "Si O2"
_cell_formula_units_Z 44
_cell_length_a 9.286155
_cell_length_b 16.875051
_cell_length_c 15.701604
_cell_angle_alpha 90.000000
_cell_angle_beta 90.000000
_cell_angle_gamma 90.000000
_cell_volume 2460.509479
_symmetry_space_group_name_H-M "P M M A"
_symmetry_group_IT_number 51
_symmetry_cell_setting 'orthorhombic'
loop_
_space_group_symop_operation_xyz
x,y,z
1/2-x,-y,z
1/2+x,-y,-z
-x,y,-z
-x,-y,-z
1/2+x,y,-z
1/2-x,y,z
x,-y,z
loop_
_atom_site_type_symbol
_atom_site_label
_atom_site_fract_x
_atom_site_fract_y
_atom_site_fract_z
Si Si1 0.087865 0.410286 0.113099
Si Si2 0.589057 0.640736 0.698026
Si Si3 0.918697 0.908568 0.415027
Si Si4 0.919862 0.500000 0.585612
Si Si5 0.920832 0.253667 0.080771
Si Si6 0.080833 0.208327 0.732557
O O1 0.250000 0.391301 0.079087
O O2 0.041792 0.500000 0.086096
O O3 0.088019 0.405917 0.213999
O O4 0.973594 0.345463 0.080005
O O5 0.750000 0.670467 0.676794
O O6 0.527346 0.578978 0.631317
O O7 0.484462 0.714487 0.690495
O O8 0.750000 0.895329 0.431037
O O9 0.968567 0.865254 0.327029
O O10 0.000000 0.876655 0.500000
O O11 0.957747 0.000000 0.400213
O O12 0.750000 0.500000 0.575863
O O13 0.000000 0.500000 0.500000
O O14 0.750000 0.251504 0.068245
O O15 0.967682 0.205967 0.167198
O O16 0.000000 0.211666 0.000000
O O17 0.250000 0.216987 0.730497
#
# Coordination Sequence:
#
# PCOD8210256 Si02
#       6
#     8   8   8   4   8   8
#     4   9  16  29  49  67  86 118 160 207 253 295
#     4   9  17  31  48  65  89 124 165 205 245 289
#     4   9  18  34  56  81 108 134 160 196 244 298
#     4  10  20  32  44  62  89 124 165 206 247 292
#     4  10  20  33  48  69  97 129 166 207 248 294
#     4   9  19  34  52  75 101 130 165 203 246 296
#
# _framework density 17.882476
#
# number of rings (size 3 to 8) (size 9 to 14) (size 15 to 20)
#    0.000    2.727    0.909    0.545    0.000    3.636 
#    0.000    3.636    0.000    0.545    0.000    0.000 
#    0.000    0.000    0.000    0.000    0.000    0.545 
#
# Total GULP energy -545176.697936 kJ/mol
# GULP energy per Si atom -12390.379499 kJ/mol
# Density = 1.784177 g / cm^3
# Si number density = 17.882476 Si / 1000 Ang^3
#
#
#
# Elastic Constant Matrix: (Units=GPa)
#
#
# Indices 1 2 3 4 5 6 
#
# 1 36.9228 27.3099 48.9850 0.0000 0.0000 0.0000
# 2 27.3099 73.1243 63.2402 0.0000 0.0000 0.0000
# 3 48.9850 63.2402 145.7804 0.0000 0.0000 0.0000
# 4 0.0000 0.0000 0.0000 31.5392 0.0000 0.0000
# 5 0.0000 0.0000 0.0000 0.0000 32.0319 0.0000
# 6 0.0000 0.0000 0.0000 0.0000 0.0000 20.6393
#
#
#
# Elastic Compliance Matrix: (Units=1/GPa)
#
#
# Indices 1 2 3 4 5 6 
#
# 1 0.050867 -0.006747 -0.014166 0.000000 0.000000 0.000000
# 2 -0.006747 0.022781 -0.007616 0.000000 0.000000 0.000000
# 3 -0.014166 -0.007616 0.014923 0.000000 0.000000 0.000000
# 4 0.000000 0.000000 0.000000 0.031707 0.000000 0.000000
# 5 0.000000 0.000000 0.000000 0.000000 0.031219 0.000000
# 6 0.000000 0.000000 0.000000 0.000000 0.000000 0.048451
#
#
# Mechanical properties :
#
#
# Convention : Reuss Voigt Hill
#
# Bulk Modulus (GPa) = 31.73001 59.43310 45.58155
# Shear Modulus (GPa) = 18.69095 24.59490 21.64292
#
# Velocity S-wave (km/s) = 3.23648 3.71261 3.48269
# Velocity P-wave (km/s) = 5.63458 7.18926 6.45887
#
# Compressibility (1/GPa) = 0.03151591
#
# Stress axis : x y z
#
# Youngs Moduli (GPa) = 19.65908 43.89579 67.00949
#
# Poissons Ratio (x) = 0.29615 0.94923
# Poissons Ratio (y) = 0.13263 0.51032
# Poissons Ratio (z) = 0.27848 0.33429
#
# Static dielectric constant tensor:
#      x y z
#    x 3.304510 0.000000 0.000000 
#    y 0.000000 3.151370 0.000000 
#    z 0.000000 0.000000 3.669690 
# 
# 
# High freq. dielectric constant tensor:
#      x y z
#    x 1.688290 0.000000 0.000000 
#    y 0.000000 1.660640 0.000000 
#    z 0.000000 0.000000 1.704920 
# 
# From -- ./inp_files/20869.got.cif
#   From: 2010.03.12/outbox.cif.g09.slc.cpg/sg51_11_cif.got.tgz:20869.got - 2010.04.16 13:43:02.
