data_PCOD8210250
_publ_section_title
;
Structure prediction by ZEFSAII (Michael W. Deem and Ramdas Pophale) SiO2 
 PCOD8210250
Probable space group: P M M A
;
_chemical_formula_sum "Si O2"
_cell_formula_units_Z 40
_cell_length_a 9.016614
_cell_length_b 13.166549
_cell_length_c 19.801263
_cell_angle_alpha 90.000000
_cell_angle_beta 90.000000
_cell_angle_gamma 90.000000
_cell_volume 2350.760203
_symmetry_space_group_name_H-M "P M M A"
_symmetry_group_IT_number 51
_symmetry_cell_setting 'orthorhombic'
loop_
_space_group_symop_operation_xyz
x,y,z
1/2-x,-y,z
1/2+x,-y,-z
-x,y,-z
-x,-y,-z
1/2+x,y,-z
1/2-x,y,z
x,-y,z
loop_
_atom_site_type_symbol
_atom_site_label
_atom_site_fract_x
_atom_site_fract_y
_atom_site_fract_z
Si Si1 0.425041 0.288377 0.827049
Si Si2 0.925523 0.382361 0.703029
Si Si3 0.911999 0.384303 0.938858
Si Si4 0.076681 0.115020 0.930228
Si Si5 0.083375 0.379884 0.565345
O O1 0.250000 0.297092 0.817329
O O2 0.502765 0.301807 0.754849
O O3 0.488083 0.380107 0.872072
O O4 0.472807 0.185312 0.866761
O O5 0.750000 0.368495 0.702987
O O6 0.967765 0.500000 0.719841
O O7 0.989082 0.349586 0.630780
O O8 0.750000 0.332253 0.928885
O O9 0.885481 0.500000 0.958330
O O10 0.000000 0.329042 0.000000
O O11 0.250000 0.126977 0.942457
O O12 0.032474 0.000000 0.910814
O O13 0.000000 0.148277 0.000000
O O14 0.250000 0.334628 0.570249
O O15 0.092916 0.500000 0.558161
O O16 0.000000 0.333738 0.500000
#
# Coordination Sequence:
#
# PCOD8210250 Si02
#       5
#     8   8   8   8   8
#     4  11  21  31  46  66  88 115 146 183 227 272
#     4  10  20  32  45  64  93 127 159 190 224 263
#     4  10  20  32  44  59  82 113 147 181 216 257
#     4   9  19  35  52  69  88 111 143 185 233 282
#     4   9  16  27  44  65  90 122 159 194 225 259
#
# _framework density 17.015772999999999
#
# number of rings (size 3 to 8) (size 9 to 14) (size 15 to 20)
#    0.000    2.200    0.000    3.600    0.000   10.400 
#    0.000    0.000    0.000    0.000    0.000    0.000 
#    0.000    0.800    0.000    2.200    0.000    3.200 
#
# Total GULP energy -495775.411074 kJ/mol
# GULP energy per Si atom -12394.385277 kJ/mol
# Density = 1.697704 g / cm^3
# Si number density = 17.015773 Si / 1000 Ang^3
#
#
#
# Elastic Constant Matrix: (Units=GPa)
#
#
# Indices 1 2 3 4 5 6 
#
# 1 112.0311 36.1502 68.4122 0.0000 0.0000 0.0000
# 2 36.1502 58.2052 41.5507 0.0000 0.0000 0.0000
# 3 68.4122 41.5507 152.5216 0.0000 0.0000 0.0000
# 4 0.0000 0.0000 0.0000 27.1358 0.0000 0.0000
# 5 0.0000 0.0000 0.0000 0.0000 37.2354 0.0000
# 6 0.0000 0.0000 0.0000 0.0000 0.0000 10.2174
#
#
#
# Elastic Compliance Matrix: (Units=1/GPa)
#
#
# Indices 1 2 3 4 5 6 
#
# 1 0.013368 -0.004993 -0.004636 0.000000 0.000000 0.000000
# 2 -0.004993 0.023194 -0.004079 0.000000 0.000000 0.000000
# 3 -0.004636 -0.004079 0.009747 0.000000 0.000000 0.000000
# 4 0.000000 0.000000 0.000000 0.036852 0.000000 0.000000
# 5 0.000000 0.000000 0.000000 0.000000 0.026856 0.000000
# 6 0.000000 0.000000 0.000000 0.000000 0.000000 0.097872
#
#
# Mechanical properties :
#
#
# Convention : Reuss Voigt Hill
#
# Bulk Modulus (GPa) = 52.93034 68.33155 60.63094
# Shear Modulus (GPa) = 20.69516 26.69406 23.69461
#
# Velocity S-wave (km/s) = 3.49124 3.96508 3.73568
# Velocity P-wave (km/s) = 6.88664 7.82352 7.36998
#
# Compressibility (1/GPa) = 0.01889276
#
# Stress axis : x y z
#
# Youngs Moduli (GPa) = 74.80385 43.11538 102.59560
#
# Poissons Ratio (x) = 0.21529 0.47562
# Poissons Ratio (y) = 0.37352 0.41846
# Poissons Ratio (z) = 0.34678 0.17586
#
# Static dielectric constant tensor:
#      x y z
#    x 3.487310 0.000000 0.000000 
#    y 0.000000 2.911030 0.000000 
#    z 0.000000 0.000000 3.237380 
# 
# 
# High freq. dielectric constant tensor:
#      x y z
#    x 1.677350 0.000000 0.000000 
#    y 0.000000 1.605420 0.000000 
#    z 0.000000 0.000000 1.652180 
# 
# From -- ./inp_files/27221.got.cif
#   From: 2010.03.12/outbox.cif.g09.slc.cpg/sg51_14_cif.got.tgz:27221.got - 2010.04.16 13:43:02.
