data_PCOD8210762
_publ_section_title
;
Structure prediction by ZEFSAII (Michael W. Deem and Ramdas Pophale) SiO2 
 PCOD8210762
Probable space group: P M M A
;
_chemical_formula_sum "Si O2"
_cell_formula_units_Z 64
_cell_length_a 8.866110
_cell_length_b 28.015411
_cell_length_c 14.817434
_cell_angle_alpha 90.000000
_cell_angle_beta 90.000000
_cell_angle_gamma 90.000000
_cell_volume 3680.468583
_symmetry_space_group_name_H-M "P M M A"
_symmetry_group_IT_number 51
_symmetry_cell_setting 'orthorhombic'
loop_
_space_group_symop_operation_xyz
x,y,z
1/2-x,-y,z
1/2+x,-y,-z
-x,y,-z
-x,-y,-z
1/2+x,y,-z
1/2-x,y,z
x,-y,z
loop_
_atom_site_type_symbol
_atom_site_label
_atom_site_fract_x
_atom_site_fract_y
_atom_site_fract_z
Si Si1 0.076357 0.191891 0.092619
Si Si2 0.570912 0.738473 0.226351
Si Si3 0.072174 0.653796 0.902175
Si Si4 0.573529 0.876426 0.592095
Si Si5 0.426702 0.449671 0.903482
Si Si6 0.422905 0.946474 0.729392
Si Si7 0.076334 0.920592 0.092184
Si Si8 0.428200 0.233413 0.405973
O O1 0.250000 0.208208 0.091871
O O2 0.059970 0.135803 0.105135
O O3 0.990267 0.214560 0.176919
O O4 0.000000 0.209589 0.000000
O O5 0.750000 0.741123 0.234884
O O6 0.515047 0.692505 0.169849
O O7 0.499198 0.735238 0.325799
O O8 0.250000 0.658387 0.915581
O O9 0.025845 0.601393 0.860096
O O10 0.000000 0.663082 0.000000
O O11 0.500000 0.894901 0.500000
O O12 0.750000 0.882127 0.581793
O O13 0.519095 0.909328 0.672659
O O14 0.528311 0.821782 0.611640
O O15 0.250000 0.448746 0.918260
O O16 0.471184 0.500000 0.851354
O O17 0.500000 0.451699 0.000000
O O18 0.250000 0.929605 0.730237
O O19 0.487275 0.947454 0.829870
O O20 0.437508 0.000000 0.689344
O O21 0.250000 0.936430 0.092752
O O22 0.000000 0.937452 0.000000
O O23 0.500000 0.250974 0.500000
O O24 0.250000 0.241240 0.409413
#
# Coordination Sequence:
#
# PCOD8210762 Si02
#       8
#     8   8   8   8   8   8   8   8
#     4  10  20  33  49  71  97 126 162 198 233 277
#     4  11  21  31  46  69  99 132 161 194 238 285
#     4   9  18  29  41  63  95 130 168 205 241 283
#     4  10  21  38  60  82 102 125 153 188 230 278
#     4   8  13  23  39  57  81 118 163 207 245 279
#     4  11  24  39  55  77 103 129 157 190 230 277
#     4  10  21  37  56  75  96 125 161 200 237 275
#     4  10  21  37  56  77  98 122 156 194 233 280
#
# _framework density 17.389088999999998
#
# number of rings (size 3 to 8) (size 9 to 14) (size 15 to 20)
#    0.000    2.125    0.000    3.375    0.000    9.500 
#    0.000    0.000    0.000    0.000    0.000    0.000 
#    0.000    0.500    0.000    0.875    0.000    1.500 
#
# Total GULP energy -793368.511777 kJ/mol
# GULP energy per Si atom -12396.382997 kJ/mol
# Density = 1.734951 g / cm^3
# Si number density = 17.389089 Si / 1000 Ang^3
#
#
#
# Elastic Constant Matrix: (Units=GPa)
#
#
# Indices 1 2 3 4 5 6 
#
# 1 63.7795 27.6050 31.9036 0.0000 0.0000 0.0000
# 2 27.6050 71.3128 41.3299 0.0000 0.0000 0.0000
# 3 31.9036 41.3299 106.0762 0.0000 0.0000 0.0000
# 4 0.0000 0.0000 0.0000 12.4777 0.0000 0.0000
# 5 0.0000 0.0000 0.0000 0.0000 33.5725 0.0000
# 6 0.0000 0.0000 0.0000 0.0000 0.0000 14.1767
#
#
#
# Elastic Compliance Matrix: (Units=1/GPa)
#
#
# Indices 1 2 3 4 5 6 
#
# 1 0.019995 -0.005496 -0.003872 0.000000 0.000000 0.000000
# 2 -0.005496 0.019623 -0.005993 0.000000 0.000000 0.000000
# 3 -0.003872 -0.005993 0.012927 0.000000 0.000000 0.000000
# 4 0.000000 0.000000 0.000000 0.080143 0.000000 0.000000
# 5 0.000000 0.000000 0.000000 0.000000 0.029786 0.000000
# 6 0.000000 0.000000 0.000000 0.000000 0.000000 0.070538
#
#
# Mechanical properties :
#
#
# Convention : Reuss Voigt Hill
#
# Bulk Modulus (GPa) = 45.82313 49.20507 47.51410
# Shear Modulus (GPa) = 18.44963 21.40072 19.92517
#
# Velocity S-wave (km/s) = 3.26082 3.51194 3.38870
# Velocity P-wave (km/s) = 6.37072 6.69350 6.53410
#
# Compressibility (1/GPa) = 0.02182304
#
# Stress axis : x y z
#
# Youngs Moduli (GPa) = 50.01337 50.95992 77.35859
#
# Poissons Ratio (x) = 0.28006 0.29956
# Poissons Ratio (y) = 0.27485 0.46360
# Poissons Ratio (z) = 0.19367 0.30540
#
# Static dielectric constant tensor:
#      x y z
#    x 3.313620 0.000000 0.000000 
#    y 0.000000 3.617120 0.000000 
#    z 0.000000 0.000000 3.132980 
# 
# 
# High freq. dielectric constant tensor:
#      x y z
#    x 1.685540 0.000000 0.000000 
#    y 0.000000 1.664660 0.000000 
#    z 0.000000 0.000000 1.649190 
# 
# From -- ./inp_files/22590.got.cif
#   From: 2010.03.12/outbox.cif.g09.slc.cpg/sg51_12_cif.got.tgz:22590.got - 2010.04.16 13:43:02.
