data_PCOD8210264
_publ_section_title
;
Structure prediction by ZEFSAII (Michael W. Deem and Ramdas Pophale) SiO2 
 PCOD8210264
Probable space group: P M M A
;
_chemical_formula_sum "Si O2"
_cell_formula_units_Z 64
_cell_length_a 13.699368
_cell_length_b 14.291407
_cell_length_c 21.190169
_cell_angle_alpha 90.000000
_cell_angle_beta 90.000000
_cell_angle_gamma 90.000000
_cell_volume 4148.680022
_symmetry_space_group_name_H-M "P M M A"
_symmetry_group_IT_number 51
_symmetry_cell_setting 'orthorhombic'
loop_
_space_group_symop_operation_xyz
x,y,z
1/2-x,-y,z
1/2+x,-y,-z
-x,y,-z
-x,-y,-z
1/2+x,y,-z
1/2-x,y,z
x,-y,z
loop_
_atom_site_type_symbol
_atom_site_label
_atom_site_fract_x
_atom_site_fract_y
_atom_site_fract_z
Si Si1 0.136231 0.712027 0.413802
Si Si2 0.857051 0.611335 0.966652
Si Si3 0.634563 0.395263 0.461221
Si Si4 0.635080 0.105996 0.378656
Si Si5 0.449918 0.611152 0.904932
Si Si6 0.864367 0.899186 0.519577
Si Si7 0.452415 0.290315 0.656623
Si Si8 0.637990 0.611137 0.225101
O O1 0.250000 0.698152 0.396407
O O2 0.101883 0.644543 0.470715
O O3 0.108985 0.817946 0.432358
O O4 0.069062 0.693367 0.352642
O O5 0.750000 0.650758 0.948036
O O6 0.855810 0.500000 0.968354
O O7 0.937838 0.644849 0.915675
O O8 0.884914 0.647922 0.036603
O O9 0.750000 0.396195 0.459263
O O10 0.592185 0.500000 0.453306
O O11 0.601148 0.329106 0.405126
O O12 0.750000 0.129040 0.375977
O O13 0.590874 0.116886 0.449775
O O14 0.577731 0.181249 0.335394
O O15 0.616082 0.000000 0.354099
O O16 0.444915 0.500000 0.902736
O O17 0.407632 0.651607 0.839742
O O18 0.750000 0.900900 0.507591
O O19 0.899411 0.000000 0.546958
O O20 0.423270 0.346648 0.718148
O O21 0.750000 0.643453 0.229789
O O22 0.629701 0.500000 0.228627
#
# Coordination Sequence:
#
# PCOD8210264 Si02
#       8
#     8   8   8   8   8   8   8   8
#     4  10  21  34  44  58  80 103 132 174 219 256
#     4   8  12  20  38  62  86 111 139 171 204 238
#     4  10  20  33  47  61  77  98 130 175 219 254
#     4   9  17  29  46  68  89 103 122 162 215 267
#     4   8  14  24  38  59  85 112 142 172 203 237
#     4   8  14  27  46  64  82 100 119 155 211 268
#     4  12  21  30  46  63  79 107 142 171 205 255
#     4  10  20  32  45  61  83 111 143 178 209 241
#
# _framework density 15.426591999999999
#
# number of rings (size 3 to 8) (size 9 to 14) (size 15 to 20)
#    0.000    2.625    1.250    3.750    0.000    4.500 
#    0.000    1.875    0.000    0.750    0.000    0.000 
#    0.000    0.000    0.000    2.250    0.000    4.250 
#
# Total GULP energy -793187.007112 kJ/mol
# GULP energy per Si atom -12393.546986 kJ/mol
# Density = 1.539148 g / cm^3
# Si number density = 15.426592 Si / 1000 Ang^3
#
#
#
# Elastic Constant Matrix: (Units=GPa)
#
#
# Indices 1 2 3 4 5 6 
#
# 1 68.1325 20.6013 55.1159 0.0000 0.0000 0.0000
# 2 20.6013 53.1410 18.3331 0.0000 0.0000 0.0000
# 3 55.1159 18.3331 70.0512 0.0000 0.0000 0.0000
# 4 0.0000 0.0000 0.0000 -1.5324 0.0000 0.0000
# 5 0.0000 0.0000 0.0000 0.0000 21.2690 0.0000
# 6 0.0000 0.0000 0.0000 0.0000 0.0000 11.8293
#
#
#
# Elastic Compliance Matrix: (Units=1/GPa)
#
#
# Indices 1 2 3 4 5 6 
#
# 1 0.041704 -0.005329 -0.031418 0.000000 0.000000 0.000000
# 2 -0.005329 0.021366 -0.001399 0.000000 0.000000 0.000000
# 3 -0.031418 -0.001399 0.039361 0.000000 0.000000 0.000000
# 4 0.000000 0.000000 0.000000 -0.652553 0.000000 0.000000
# 5 0.000000 0.000000 0.000000 0.000000 0.047017 0.000000
# 6 0.000000 0.000000 0.000000 0.000000 0.000000 0.084536
#
#
# Mechanical properties :
#
#
# Convention : Reuss Voigt Hill
#
# Bulk Modulus (GPa) = 38.25603 42.15836 40.20719
# Shear Modulus (GPa) = -14.98966 12.79813 -1.09577
#
# Velocity S-wave (km/s) = -3.12055 2.88343 -0.84371
# Velocity P-wave (km/s) = 3.44511 6.20268 5.01707
#
# Compressibility (1/GPa) = 0.02613967
#
# Stress axis : x y z
#
# Youngs Moduli (GPa) = 23.97839 46.80252 25.40584
#
# Poissons Ratio (x) = 0.24940 0.79820
# Poissons Ratio (y) = 0.12777 0.03555
# Poissons Ratio (z) = 0.75335 0.06549
#
# Static dielectric constant tensor:
#      x y z
#    x 3.179240 0.000000 0.000000 
#    y 0.000000 0.369960 0.000000 
#    z 0.000000 0.000000 2.741230 
# 
# 
# High freq. dielectric constant tensor:
#      x y z
#    x 1.609320 0.000000 0.000000 
#    y 0.000000 1.561730 0.000000 
#    z 0.000000 0.000000 1.545990 
# 
# From -- ./inp_files/29971.got.cif
#   From: 2010.03.12/outbox.cif.g09.slc.cpg/sg51_15_cif.got.tgz:29971.got - 2010.04.16 13:43:02.
