data_PCOD8210094
_publ_section_title
;
Structure prediction by ZEFSAII (Michael W. Deem and Ramdas Pophale) SiO2 
 PCOD8210094
Probable space group: P M M A
;
_chemical_formula_sum "Si O2"
_cell_formula_units_Z 64
_cell_length_a 14.693765
_cell_length_b 22.190769
_cell_length_c 9.792748
_cell_angle_alpha 90.000000
_cell_angle_beta 90.000000
_cell_angle_gamma 90.000000
_cell_volume 3193.081629
_symmetry_space_group_name_H-M "P M M A"
_symmetry_group_IT_number 51
_symmetry_cell_setting 'orthorhombic'
loop_
_space_group_symop_operation_xyz
x,y,z
1/2-x,-y,z
1/2+x,-y,-z
-x,y,-z
-x,-y,-z
1/2+x,y,-z
1/2-x,y,z
x,-y,z
loop_
_atom_site_type_symbol
_atom_site_label
_atom_site_fract_x
_atom_site_fract_y
_atom_site_fract_z
Si Si1 0.641635 0.931870 0.245359
Si Si2 0.351375 0.569566 0.958723
Si Si3 0.397914 0.158278 0.532629
Si Si4 0.019675 0.312576 0.345403
Si Si5 0.849318 0.744893 0.246628
Si Si6 0.147662 0.794743 0.256830
Si Si7 0.353588 0.840689 0.976132
Si Si8 0.474612 0.430208 0.210565
O O1 0.750000 0.927708 0.245552
O O2 0.607269 0.906187 0.391562
O O3 0.600941 0.893704 0.116482
O O4 0.606249 0.000000 0.231697
O O5 0.250000 0.600529 0.941223
O O6 0.333348 0.500000 0.977939
O O7 0.419644 0.579330 0.831758
O O8 0.405050 0.591286 0.093053
O O9 0.500000 0.177343 0.500000
O O10 0.352998 0.206806 0.631834
O O11 0.348433 0.159480 0.385565
O O12 0.095240 0.266863 0.289728
O O13 0.047801 0.383003 0.332024
O O14 0.000000 0.296250 0.500000
O O15 0.926970 0.304972 0.258661
O O16 0.750000 0.713604 0.253340
O O17 0.861901 0.777658 0.102437
O O18 0.250000 0.775846 0.216740
O O19 0.101592 0.829715 0.126426
O O20 0.250000 0.860402 0.999490
O O21 0.458245 0.500000 0.255070
#
# Coordination Sequence:
#
# PCOD8210094 Si02
#       8
#     8   8   8   8   8   8   8   8
#     4   9  18  35  58  83 115 159 199 228 274 345
#     4   8  15  33  59  81 104 140 182 222 272 336
#     4  11  19  35  57  83 112 149 192 234 283 339
#     4  12  24  37  54  83 108 147 196 234 285 346
#     4  10  19  37  57  78 108 145 191 236 285 343
#     4  11  21  37  57  83 114 144 186 245 299 337
#     4   8  18  33  55  83 110 144 184 233 291 335
#     4   9  20  36  55  82 115 147 183 231 287 347
#
# _framework density 20.043334000000002
#
# number of rings (size 3 to 8) (size 9 to 14) (size 15 to 20)
#    0.000    2.250    2.500    2.625    0.000    4.000 
#    0.000    1.875    0.000    3.000    0.000    5.250 
#    0.000    0.000    0.000    0.000    0.000    0.000 
#
# Total GULP energy -792914.144013 kJ/mol
# GULP energy per Si atom -12389.283500 kJ/mol
# Density = 1.999771 g / cm^3
# Si number density = 20.043334 Si / 1000 Ang^3
#
#
#
# Elastic Constant Matrix: (Units=GPa)
#
#
# Indices 1 2 3 4 5 6 
#
# 1 84.6604 21.0951 14.3553 0.0000 0.0000 0.0000
# 2 21.0951 117.0852 56.0637 0.0000 0.0000 0.0000
# 3 14.3553 56.0637 131.8296 0.0000 0.0000 0.0000
# 4 0.0000 0.0000 0.0000 18.7991 0.0000 0.0000
# 5 0.0000 0.0000 0.0000 0.0000 12.6341 0.0000
# 6 0.0000 0.0000 0.0000 0.0000 0.0000 16.8471
#
#
#
# Elastic Compliance Matrix: (Units=1/GPa)
#
#
# Indices 1 2 3 4 5 6 
#
# 1 0.012394 -0.001992 -0.000502 0.000000 0.000000 0.000000
# 2 -0.001992 0.011045 -0.004480 0.000000 0.000000 0.000000
# 3 -0.000502 -0.004480 0.009546 0.000000 0.000000 0.000000
# 4 0.000000 0.000000 0.000000 0.053194 0.000000 0.000000
# 5 0.000000 0.000000 0.000000 0.000000 0.079151 0.000000
# 6 0.000000 0.000000 0.000000 0.000000 0.000000 0.059357
#
#
# Mechanical properties :
#
#
# Convention : Reuss Voigt Hill
#
# Bulk Modulus (GPa) = 52.53663 57.40039 54.96851
# Shear Modulus (GPa) = 20.40975 25.79346 23.10161
#
# Velocity S-wave (km/s) = 3.19451 3.59121 3.39865
# Velocity P-wave (km/s) = 6.31466 6.77466 6.54870
#
# Compressibility (1/GPa) = 0.01903434
#
# Stress axis : x y z
#
# Youngs Moduli (GPa) = 80.68735 90.53857 104.76082
#
# Poissons Ratio (x) = 0.18039 0.05261
# Poissons Ratio (y) = 0.16077 0.46935
# Poissons Ratio (z) = 0.04052 0.40563
#
# Static dielectric constant tensor:
#      x y z
#    x 3.002960 0.000000 0.000000 
#    y 0.000000 3.475290 0.000000 
#    z 0.000000 0.000000 3.914940 
# 
# 
# High freq. dielectric constant tensor:
#      x y z
#    x 1.778670 0.000000 0.000000 
#    y 0.000000 1.759870 0.000000 
#    z 0.000000 0.000000 1.775740 
# 
# From -- ./inp_files/8759.got.cif
#   From: 2010.03.12/outbox.cif.g09.slc.cpg/sg51_5_cif.got.tgz:8759.got - 2010.04.16 13:43:02.
