data_PCOD8210594
_publ_section_title
;
Structure prediction by ZEFSAII (Michael W. Deem and Ramdas Pophale) SiO2 
 PCOD8210594
Probable space group: P M M A
;
_chemical_formula_sum "Si O2"
_cell_formula_units_Z 40
_cell_length_a 8.653499
_cell_length_b 25.377091
_cell_length_c 9.936064
_cell_angle_alpha 90.000000
_cell_angle_beta 90.000000
_cell_angle_gamma 90.000000
_cell_volume 2181.965930
_symmetry_space_group_name_H-M "P M M A"
_symmetry_group_IT_number 51
_symmetry_cell_setting 'orthorhombic'
loop_
_space_group_symop_operation_xyz
x,y,z
1/2-x,-y,z
1/2+x,-y,-z
-x,y,-z
-x,-y,-z
1/2+x,y,-z
1/2-x,y,z
x,-y,z
loop_
_atom_site_type_symbol
_atom_site_label
_atom_site_fract_x
_atom_site_fract_y
_atom_site_fract_z
Si Si1 0.566802 0.251299 0.355095
Si Si2 0.430967 0.056951 0.147472
Si Si3 0.567903 0.162350 0.148658
Si Si4 0.567807 0.362786 0.643526
Si Si5 0.428384 0.561669 0.857878
O O1 0.500000 0.235246 0.500000
O O2 0.750000 0.253873 0.365959
O O3 0.510622 0.209047 0.245209
O O4 0.503449 0.307643 0.306845
O O5 0.250000 0.067879 0.138060
O O6 0.510982 0.107298 0.217950
O O7 0.463366 0.000000 0.219985
O O8 0.500000 0.053764 0.000000
O O9 0.750000 0.161451 0.136795
O O10 0.500000 0.170817 0.000000
O O11 0.500000 0.379186 0.500000
O O12 0.750000 0.356546 0.631576
O O13 0.525285 0.408655 0.745551
O O14 0.250000 0.578913 0.853860
O O15 0.447957 0.500000 0.830530
O O16 0.500000 0.577891 0.000000
#
# Coordination Sequence:
#
# PCOD8210594 Si02
#       5
#     8   8   8   8   8
#     4  10  21  37  55  76 103 136 175 215 260 312
#     4   9  16  26  43  68  98 131 165 204 251 301
#     4  10  20  32  50  76 103 132 168 211 255 304
#     4  11  22  37  58  81 107 140 178 220 263 309
#     4  10  21  38  59  83 112 144 177 215 261 312
#
# _framework density 18.332091999999999
#
# number of rings (size 3 to 8) (size 9 to 14) (size 15 to 20)
#    0.000    2.000    0.000    6.600    0.000    6.800 
#    0.000    2.000    0.000    0.600    0.000    0.000 
#    0.000    0.000    0.000    0.000    0.000    0.000 
#
# Total GULP energy -495893.092922 kJ/mol
# GULP energy per Si atom -12397.327323 kJ/mol
# Density = 1.829037 g / cm^3
# Si number density = 18.332092 Si / 1000 Ang^3
#
#
#
# Elastic Constant Matrix: (Units=GPa)
#
#
# Indices 1 2 3 4 5 6 
#
# 1 92.2545 39.3379 34.8780 0.0000 0.0000 0.0000
# 2 39.3379 103.8867 67.7685 0.0000 0.0000 0.0000
# 3 34.8780 67.7685 82.7380 0.0000 0.0000 0.0000
# 4 0.0000 0.0000 0.0000 -265.0303 0.0000 0.0000
# 5 0.0000 0.0000 0.0000 0.0000 27.7337 0.0000
# 6 0.0000 0.0000 0.0000 0.0000 0.0000 30.6067
#
#
#
# Elastic Compliance Matrix: (Units=1/GPa)
#
#
# Indices 1 2 3 4 5 6 
#
# 1 0.013306 -0.002962 -0.003183 0.000000 0.000000 0.000000
# 2 -0.002962 0.021329 -0.016222 0.000000 0.000000 0.000000
# 3 -0.003183 -0.016222 0.026715 0.000000 0.000000 0.000000
# 4 0.000000 0.000000 0.000000 -0.003773 0.000000 0.000000
# 5 0.000000 0.000000 0.000000 0.000000 0.036057 0.000000
# 6 0.000000 0.000000 0.000000 0.000000 0.000000 0.032673
#
#
# Mechanical properties :
#
#
# Convention : Reuss Voigt Hill
#
# Bulk Modulus (GPa) = 60.18006 62.53868 61.35937
# Shear Modulus (GPa) = 28.31590 -32.21167 -1.94789
#
# Velocity S-wave (km/s) = 3.93441 -4.19635 -1.03192
# Velocity P-wave (km/s) = 7.31700 3.27250 5.66779
#
# Compressibility (1/GPa) = 0.01661680
#
# Stress axis : x y z
#
# Youngs Moduli (GPa) = 75.15403 46.88356 37.43242
#
# Poissons Ratio (x) = 0.13888 0.11914
# Poissons Ratio (y) = 0.22262 0.60722
# Poissons Ratio (z) = 0.23920 0.76053
#
# Static dielectric constant tensor:
#      x y z
#    x 3.516300 0.000000 0.000000 
#    y 0.000000 3.904650 0.000000 
#    z 0.000000 0.000000 3.010170 
# 
# 
# High freq. dielectric constant tensor:
#      x y z
#    x 1.731710 0.000000 0.000000 
#    y 0.000000 1.726870 0.000000 
#    z 0.000000 0.000000 1.679990 
# 
# From -- ./inp_files/5507.got.cif
#   From: 2010.03.12/outbox.cif.g09.slc.cpg/sg51_3_cif.got.tgz:5507.got - 2010.04.16 13:43:02.
