data_PCOD8210874
_publ_section_title
;
Structure prediction by ZEFSAII (Michael W. Deem and Ramdas Pophale) SiO2 
 PCOD8210874
Probable space group: P M M A
;
_chemical_formula_sum "Si O2"
_cell_formula_units_Z 48
_cell_length_a 9.286818
_cell_length_b 9.058486
_cell_length_c 30.900978
_cell_angle_alpha 90.000000
_cell_angle_beta 90.000000
_cell_angle_gamma 90.000000
_cell_volume 2599.529659
_symmetry_space_group_name_H-M "P M M A"
_symmetry_group_IT_number 51
_symmetry_cell_setting 'orthorhombic'
loop_
_space_group_symop_operation_xyz
x,y,z
1/2-x,-y,z
1/2+x,-y,-z
-x,y,-z
-x,-y,-z
1/2+x,y,-z
1/2-x,y,z
x,-y,z
loop_
_atom_site_type_symbol
_atom_site_label
_atom_site_fract_x
_atom_site_fract_y
_atom_site_fract_z
Si Si1 0.091566 0.674986 0.539169
Si Si2 0.579082 0.332129 0.364998
Si Si3 0.415747 0.173901 0.119316
Si Si4 0.078956 0.666236 0.205513
Si Si5 0.416452 0.172164 0.290675
Si Si6 0.081869 0.670615 0.956177
O O1 0.250000 0.744428 0.535273
O O2 0.100825 0.500000 0.534146
O O3 0.026542 0.711707 0.586548
O O4 0.000000 0.745131 0.500000
O O5 0.750000 0.315956 0.361839
O O6 0.532844 0.500000 0.354079
O O7 0.504293 0.220513 0.332488
O O8 0.250000 0.220027 0.110180
O O9 0.475115 0.247196 0.163257
O O10 0.516524 0.228085 0.080915
O O11 0.430240 0.000000 0.124432
O O12 0.250000 0.668786 0.206489
O O13 0.018360 0.500000 0.203927
O O14 0.019924 0.744860 0.248643
O O15 0.250000 0.212793 0.298147
O O16 0.438059 0.000000 0.282722
O O17 0.250000 0.706517 0.962102
O O18 0.056582 0.500000 0.943940
O O19 0.000000 0.711981 0.000000
#
# Coordination Sequence:
#
# PCOD8210874 Si02
#       6
#     8   8   8   8   8   8
#     4   8  14  25  42  66  95 124 156 198 247 296
#     4   9  18  32  49  71 100 132 166 205 250 301
#     4  10  20  34  54  80 109 140 172 208 254 306
#     4   9  17  31  53  78 103 133 169 209 253 300
#     4  10  20  33  50  74 103 133 168 210 252 297
#     4  10  21  37  57  80 106 138 177 219 260 302
#
# _framework density 18.464879
#
# number of rings (size 3 to 8) (size 9 to 14) (size 15 to 20)
#    0.000    2.667    0.000    3.000    0.000    6.333 
#    0.000    2.500    0.000    5.500    0.000    0.000 
#    0.000    0.000    0.000    0.000    0.000    0.000 
#
# Total GULP energy -595163.405248 kJ/mol
# GULP energy per Si atom -12399.237609 kJ/mol
# Density = 1.842285 g / cm^3
# Si number density = 18.464879 Si / 1000 Ang^3
#
#
#
# Elastic Constant Matrix: (Units=GPa)
#
#
# Indices 1 2 3 4 5 6 
#
# 1 59.4719 31.9485 54.0080 0.0000 0.0000 0.0000
# 2 31.9485 79.2962 59.8723 0.0000 0.0000 0.0000
# 3 54.0080 59.8723 158.0694 0.0000 0.0000 0.0000
# 4 0.0000 0.0000 0.0000 11.3085 0.0000 0.0000
# 5 0.0000 0.0000 0.0000 0.0000 27.6461 0.0000
# 6 0.0000 0.0000 0.0000 0.0000 0.0000 23.1790
#
#
#
# Elastic Compliance Matrix: (Units=1/GPa)
#
#
# Indices 1 2 3 4 5 6 
#
# 1 0.025849 -0.005247 -0.006845 0.000000 0.000000 0.000000
# 2 -0.005247 0.018727 -0.005301 0.000000 0.000000 0.000000
# 3 -0.006845 -0.005301 0.010673 0.000000 0.000000 0.000000
# 4 0.000000 0.000000 0.000000 0.088429 0.000000 0.000000
# 5 0.000000 0.000000 0.000000 0.000000 0.036171 0.000000
# 6 0.000000 0.000000 0.000000 0.000000 0.000000 0.043142
#
#
# Mechanical properties :
#
#
# Convention : Reuss Voigt Hill
#
# Bulk Modulus (GPa) = 48.86398 65.38835 57.12616
# Shear Modulus (GPa) = 18.89667 22.49398 20.69532
#
# Velocity S-wave (km/s) = 3.20251 3.49406 3.35146
# Velocity P-wave (km/s) = 6.33998 7.19494 6.78095
#
# Compressibility (1/GPa) = 0.02046497
#
# Stress axis : x y z
#
# Youngs Moduli (GPa) = 38.68638 53.39868 93.69688
#
# Poissons Ratio (x) = 0.28016 0.64132
# Poissons Ratio (y) = 0.20297 0.49666
# Poissons Ratio (z) = 0.26479 0.28305
#
# Static dielectric constant tensor:
#      x y z
#    x 3.255220 0.000000 0.000000 
#    y 0.000000 3.238110 0.000000 
#    z 0.000000 0.000000 3.604640 
# 
# 
# High freq. dielectric constant tensor:
#      x y z
#    x 1.691530 0.000000 0.000000 
#    y 0.000000 1.700970 0.000000 
#    z 0.000000 0.000000 1.732700 
# 
# From -- ./inp_files/36914.got.cif
#   From: 2010.03.12/outbox.cif.g09.slc.cpg/sg51_19_cif.got.tgz:36914.got - 2010.04.16 13:43:02.
