data_PCOD8210610
_publ_section_title
;
Structure prediction by ZEFSAII (Michael W. Deem and Ramdas Pophale) SiO2 
 PCOD8210610
Probable space group: P M M A
;
_chemical_formula_sum "Si O2"
_cell_formula_units_Z 64
_cell_length_a 18.645253
_cell_length_b 13.287824
_cell_length_c 15.189587
_cell_angle_alpha 90.000000
_cell_angle_beta 90.000000
_cell_angle_gamma 90.000000
_cell_volume 3763.293701
_symmetry_space_group_name_H-M "P M M A"
_symmetry_group_IT_number 51
_symmetry_cell_setting 'orthorhombic'
loop_
_space_group_symop_operation_xyz
x,y,z
1/2-x,-y,z
1/2+x,-y,-z
-x,y,-z
-x,-y,-z
1/2+x,y,-z
1/2-x,y,z
x,-y,z
loop_
_atom_site_type_symbol
_atom_site_label
_atom_site_fract_x
_atom_site_fract_y
_atom_site_fract_z
Si Si1 0.915701 0.203350 0.779154
Si Si2 0.165171 0.390996 0.962812
Si Si3 0.665051 0.813734 0.117944
Si Si4 0.424826 0.119009 0.532465
Si Si5 0.671502 0.881797 0.621249
Si Si6 0.425435 0.114343 0.035954
Si Si7 0.434224 0.881373 0.731723
Si Si8 0.833274 0.384346 0.836848
O O1 0.875653 0.137858 0.706681
O O2 0.896093 0.166975 0.876779
O O3 0.885982 0.317974 0.774704
O O4 0.000346 0.189425 0.762651
O O5 0.250000 0.396530 0.963786
O O6 0.134527 0.500000 0.930865
O O7 0.139621 0.302062 0.898000
O O8 0.140239 0.369484 0.062528
O O9 0.750000 0.824559 0.122075
O O10 0.633779 0.855894 0.208486
O O11 0.636098 0.880199 0.037480
O O12 0.500000 0.165287 0.500000
O O13 0.364100 0.163833 0.467649
O O14 0.410685 0.148941 0.633333
O O15 0.427094 0.000000 0.521924
O O16 0.750000 0.832264 0.631600
O O17 0.678610 0.000000 0.610289
O O18 0.441682 0.000000 0.061516
O O19 0.500000 0.163221 0.000000
O O20 0.454855 0.000000 0.738711
O O21 0.750000 0.350817 0.825833
O O22 0.842196 0.500000 0.807820
#
# Coordination Sequence:
#
# PCOD8210610 Si02
#       8
#     8   8   8   8   8   8   8   8
#     4  12  20  32  53  76 104 137 177 213 256 315
#     4   8  15  31  52  70  93 130 174 220 267 306
#     4  11  22  35  51  75 104 139 183 224 261 307
#     4   9  17  33  54  72  95 135 176 208 255 312
#     4  10  20  32  50  80 109 129 164 219 265 309
#     4  11  22  34  48  68 104 150 184 208 248 309
#     4  11  22  35  53  75 105 146 181 213 257 314
#     4   9  18  33  52  75 104 137 174 219 269 314
#
# _framework density 17.006378999999999
#
# number of rings (size 3 to 8) (size 9 to 14) (size 15 to 20)
#    0.000    1.875    3.750    2.625    0.000    2.000 
#    0.000    1.875    0.000    2.250    0.000    2.625 
#    0.000    2.000    0.000    0.000    0.000    0.000 
#
# Total GULP energy -793328.864484 kJ/mol
# GULP energy per Si atom -12395.763508 kJ/mol
# Density = 1.696767 g / cm^3
# Si number density = 17.006379 Si / 1000 Ang^3
#
#
#
# Elastic Constant Matrix: (Units=GPa)
#
#
# Indices 1 2 3 4 5 6 
#
# 1 96.4606 23.9563 46.7694 0.0000 0.0000 0.0000
# 2 23.9563 61.2835 22.0343 0.0000 0.0000 0.0000
# 3 46.7694 22.0343 113.4933 0.0000 0.0000 0.0000
# 4 0.0000 0.0000 0.0000 6.5503 0.0000 0.0000
# 5 0.0000 0.0000 0.0000 0.0000 24.6315 0.0000
# 6 0.0000 0.0000 0.0000 0.0000 0.0000 22.1479
#
#
#
# Elastic Compliance Matrix: (Units=1/GPa)
#
#
# Indices 1 2 3 4 5 6 
#
# 1 0.013642 -0.003560 -0.004930 0.000000 0.000000 0.000000
# 2 -0.003560 0.018471 -0.002119 0.000000 0.000000 0.000000
# 3 -0.004930 -0.002119 0.011254 0.000000 0.000000 0.000000
# 4 0.000000 0.000000 0.000000 0.152664 0.000000 0.000000
# 5 0.000000 0.000000 0.000000 0.000000 0.040598 0.000000
# 6 0.000000 0.000000 0.000000 0.000000 0.000000 0.045151
#
#
# Mechanical properties :
#
#
# Convention : Reuss Voigt Hill
#
# Bulk Modulus (GPa) = 45.15049 50.75083 47.95066
# Shear Modulus (GPa) = 16.10920 22.56444 19.33682
#
# Velocity S-wave (km/s) = 3.08107 3.64651 3.37565
# Velocity P-wave (km/s) = 6.26611 6.90191 6.59168
#
# Compressibility (1/GPa) = 0.02214815
#
# Stress axis : x y z
#
# Youngs Moduli (GPa) = 73.30535 54.13851 88.85518
#
# Poissons Ratio (x) = 0.19273 0.43809
# Poissons Ratio (y) = 0.26096 0.18829
# Poissons Ratio (z) = 0.36142 0.11472
#
# Static dielectric constant tensor:
#      x y z
#    x 3.231260 0.000000 0.000000 
#    y 0.000000 3.244540 0.000000 
#    z 0.000000 0.000000 3.196790 
# 
# 
# High freq. dielectric constant tensor:
#      x y z
#    x 1.653390 0.000000 0.000000 
#    y 0.000000 1.627130 0.000000 
#    z 0.000000 0.000000 1.648710 
# 
# From -- ./inp_files/25389.got.cif
#   From: 2010.03.12/outbox.cif.g09.slc.cpg/sg51_13_cif.got.tgz:25389.got - 2010.04.16 13:43:02.
