data_PCOD8210037
_publ_section_title
;
Structure prediction by ZEFSAII (Michael W. Deem and Ramdas Pophale) SiO2 
 PCOD8210037
Probable space group: P M M A
;
_chemical_formula_sum "Si O2"
_cell_formula_units_Z 48
_cell_length_a 30.283000
_cell_length_b 8.626787
_cell_length_c 9.478874
_cell_angle_alpha 90.000000
_cell_angle_beta 90.000000
_cell_angle_gamma 90.000000
_cell_volume 2476.308350
_symmetry_space_group_name_H-M "P M M A"
_symmetry_group_IT_number 51
_symmetry_cell_setting 'orthorhombic'
loop_
_space_group_symop_operation_xyz
x,y,z
1/2-x,-y,z
1/2+x,-y,-z
-x,y,-z
-x,-y,-z
1/2+x,y,-z
1/2-x,y,z
x,-y,z
loop_
_atom_site_type_symbol
_atom_site_label
_atom_site_fract_x
_atom_site_fract_y
_atom_site_fract_z
Si Si1 0.998075 0.320574 0.337881
Si Si2 0.825139 0.181134 0.843283
Si Si3 0.328014 0.182518 0.837513
Si Si4 0.250000 0.183911 0.648728
Si Si5 0.750000 0.679758 0.657468
Si Si6 0.081182 0.679915 0.150243
Si Si7 0.426074 0.818007 0.856278
O O1 0.985153 0.500000 0.320155
O O2 0.045337 0.284980 0.269889
O O3 0.000000 0.270433 0.500000
O O4 0.960682 0.217960 0.265228
O O5 0.793795 0.278849 0.742832
O O6 0.875868 0.220691 0.809735
O O7 0.816936 0.000000 0.816184
O O8 0.813889 0.228511 0.003859
O O9 0.293391 0.254961 0.726325
O O10 0.377680 0.241956 0.806402
O O11 0.327328 0.000000 0.822027
O O12 0.250000 0.227012 0.486947
O O13 0.250000 0.000000 0.663901
O O14 0.750000 0.500000 0.621702
O O15 0.093999 0.500000 0.144655
O O16 0.060653 0.730875 0.000284
O O17 0.424996 0.000000 0.889248
#
# Coordination Sequence:
#
# PCOD8210037 Si02
#       7
#     8   8   8   4   4   8   8
#     4  10  22  38  54  76 110 150 186 224 277 333
#     4  10  20  38  62  85 108 140 183 228 274 323
#     4   8  17  34  58  84 106 134 179 231 275 318
#     4  10  19  36  58  78 106 144 181 218 266 320
#     4  12  25  38  52  80 118 150 181 218 266 322
#     4  10  20  36  58  83 110 141 180 227 277 328
#     4  10  20  35  56  83 111 141 184 232 275 326
#
# _framework density 19.383690999999999
#
# number of rings (size 3 to 8) (size 9 to 14) (size 15 to 20)
#    0.000    2.167    0.000    4.250    0.000    6.333 
#    0.000    9.167    0.000    0.000    0.000    0.000 
#    0.000    0.000    0.000    0.000    0.000    0.000 
#
# Total GULP energy -595295.199160 kJ/mol
# GULP energy per Si atom -12401.983316 kJ/mol
# Density = 1.933957 g / cm^3
# Si number density = 19.383691 Si / 1000 Ang^3
#
#
#
# Elastic Constant Matrix: (Units=GPa)
#
#
# Indices 1 2 3 4 5 6 
#
# 1 91.2544 17.7984 57.1439 0.0000 0.0000 0.0000
# 2 17.7984 34.8367 9.4210 0.0000 0.0000 0.0000
# 3 57.1439 9.4210 109.8290 0.0000 0.0000 0.0000
# 4 0.0000 0.0000 0.0000 23.9946 0.0000 0.0000
# 5 0.0000 0.0000 0.0000 0.0000 9.2753 0.0000
# 6 0.0000 0.0000 0.0000 0.0000 0.0000 30.2306
#
#
#
# Elastic Compliance Matrix: (Units=1/GPa)
#
#
# Indices 1 2 3 4 5 6 
#
# 1 0.017657 -0.006692 -0.008613 0.000000 0.000000 0.000000
# 2 -0.006692 0.031923 0.000743 0.000000 0.000000 0.000000
# 3 -0.008613 0.000743 0.013523 0.000000 0.000000 0.000000
# 4 0.000000 0.000000 0.000000 0.041676 0.000000 0.000000
# 5 0.000000 0.000000 0.000000 0.000000 0.107813 0.000000
# 6 0.000000 0.000000 0.000000 0.000000 0.000000 0.033079
#
#
# Mechanical properties :
#
#
# Convention : Reuss Voigt Hill
#
# Bulk Modulus (GPa) = 29.42892 44.96074 37.19483
# Shear Modulus (GPa) = 17.47515 22.80389 20.13952
#
# Velocity S-wave (km/s) = 3.00582 3.43366 3.22684
# Velocity P-wave (km/s) = 5.22129 6.24224 5.75445
#
# Compressibility (1/GPa) = 0.03398018
#
# Stress axis : x y z
#
# Youngs Moduli (GPa) = 56.63468 31.32507 73.95037
#
# Poissons Ratio (x) = 0.20963 0.63693
# Poissons Ratio (y) = 0.37900 -0.05498
# Poissons Ratio (z) = 0.48779 -0.02329
#
# Static dielectric constant tensor:
#      x y z
#    x 3.773190 0.000000 0.000000 
#    y 0.000000 3.378500 0.000000 
#    z 0.000000 0.000000 3.520270 
# 
# 
# High freq. dielectric constant tensor:
#      x y z
#    x 1.767580 0.000000 0.000000 
#    y 0.000000 1.741520 0.000000 
#    z 0.000000 0.000000 1.750620 
# 
# From -- ./inp_files/12948.got.cif
#   From: 2010.03.12/outbox.cif.g09.slc.cpg/sg51_7_cif.got.tgz:12948.got - 2010.04.16 13:43:02.
