data_PCOD8210030
_publ_section_title
;
Structure prediction by ZEFSAII (Michael W. Deem and Ramdas Pophale) SiO2 
 PCOD8210030
Probable space group: P M M A
;
_chemical_formula_sum "Si O2"
_cell_formula_units_Z 48
_cell_length_a 28.751412
_cell_length_b 8.821142
_cell_length_c 9.983904
_cell_angle_alpha 90.000000
_cell_angle_beta 90.000000
_cell_angle_gamma 90.000000
_cell_volume 2532.120607
_symmetry_space_group_name_H-M "P M M A"
_symmetry_group_IT_number 51
_symmetry_cell_setting 'orthorhombic'
loop_
_space_group_symop_operation_xyz
x,y,z
1/2-x,-y,z
1/2+x,-y,-z
-x,y,-z
-x,-y,-z
1/2+x,y,-z
1/2-x,y,z
x,-y,z
loop_
_atom_site_type_symbol
_atom_site_label
_atom_site_fract_x
_atom_site_fract_y
_atom_site_fract_z
Si Si1 0.478330 0.680470 0.363177
Si Si2 0.304257 0.176231 0.478341
Si Si3 0.198659 0.819889 0.778895
Si Si4 0.876910 0.679172 0.717612
Si Si5 0.874295 0.178211 0.005762
Si Si6 0.037316 0.331106 0.885003
O O1 0.500000 0.746249 0.500000
O O2 0.476684 0.500000 0.365417
O O3 0.426066 0.743114 0.339241
O O4 0.512402 0.736712 0.245951
O O5 0.250000 0.206437 0.448122
O O6 0.316682 0.229832 0.629357
O O7 0.335088 0.274396 0.378579
O O8 0.316092 0.000000 0.457422
O O9 0.250000 0.755496 0.810703
O O10 0.199768 0.000000 0.781843
O O11 0.164020 0.756156 0.891156
O O12 0.879188 0.500000 0.729085
O O13 0.867034 0.742689 0.864355
O O14 0.869135 0.000000 0.984981
O O15 0.923711 0.213880 0.070832
O O16 0.058157 0.500000 0.858198
O O17 0.000000 0.344931 0.000000
#
# Coordination Sequence:
#
# PCOD8210030 Si02
#       6
#     8   8   8   8   8   8
#     4   9  19  35  54  77 106 145 186 223 272 334
#     4   9  19  38  61  82 108 143 180 223 278 332
#     4   8  17  36  59  81 108 143 182 223 271 330
#     4  11  22  37  56  82 114 146 185 229 274 328
#     4  11  22  35  56  85 113 145 188 232 276 328
#     4  10  19  36  57  76 107 148 185 222 273 332
#
# _framework density 18.956443
#
# number of rings (size 3 to 8) (size 9 to 14) (size 15 to 20)
#    0.000    2.333    1.667    2.000    2.333    1.333 
#    0.000    2.500    0.000    6.000    0.000    0.000 
#    0.000    0.000    0.000    0.000    0.000    0.000 
#
# Total GULP energy -595141.158540 kJ/mol
# GULP energy per Si atom -12398.774136 kJ/mol
# Density = 1.891330 g / cm^3
# Si number density = 18.956443 Si / 1000 Ang^3
#
#
#
# Elastic Constant Matrix: (Units=GPa)
#
#
# Indices 1 2 3 4 5 6 
#
# 1 114.0023 32.2623 85.7763 0.0000 0.0000 0.0000
# 2 32.2623 44.8401 34.6633 0.0000 0.0000 0.0000
# 3 85.7763 34.6633 174.3481 0.0000 0.0000 0.0000
# 4 0.0000 0.0000 0.0000 28.2037 0.0000 0.0000
# 5 0.0000 0.0000 0.0000 0.0000 39.5353 0.0000
# 6 0.0000 0.0000 0.0000 0.0000 0.0000 31.8509
#
#
#
# Elastic Compliance Matrix: (Units=1/GPa)
#
#
# Indices 1 2 3 4 5 6 
#
# 1 0.015219 -0.006099 -0.006275 0.000000 0.000000 0.000000
# 2 -0.006099 0.028796 -0.002724 0.000000 0.000000 0.000000
# 3 -0.006275 -0.002724 0.009364 0.000000 0.000000 0.000000
# 4 0.000000 0.000000 0.000000 0.035456 0.000000 0.000000
# 5 0.000000 0.000000 0.000000 0.000000 0.025294 0.000000
# 6 0.000000 0.000000 0.000000 0.000000 0.000000 0.031396
#
#
# Mechanical properties :
#
#
# Convention : Reuss Voigt Hill
#
# Bulk Modulus (GPa) = 43.13624 70.95491 57.04558
# Shear Modulus (GPa) = 27.25527 31.95054 29.60291
#
# Velocity S-wave (km/s) = 3.79593 4.10990 3.95603
# Velocity P-wave (km/s) = 6.48205 7.74813 7.14319
#
# Compressibility (1/GPa) = 0.02318236
#
# Stress axis : x y z
#
# Youngs Moduli (GPa) = 65.70674 34.72707 106.78698
#
# Poissons Ratio (x) = 0.21181 0.67008
# Poissons Ratio (y) = 0.40077 0.29092
# Poissons Ratio (z) = 0.41230 0.09461
#
# Static dielectric constant tensor:
#      x y z
#    x 3.632500 0.000000 0.000000 
#    y 0.000000 3.146740 0.000000 
#    z 0.000000 0.000000 3.713990 
# 
# 
# High freq. dielectric constant tensor:
#      x y z
#    x 1.742320 0.000000 0.000000 
#    y 0.000000 1.702860 0.000000 
#    z 0.000000 0.000000 1.751690 
# 
# From -- ./inp_files/12849.got.cif
#   From: 2010.03.12/outbox.cif.g09.slc.cpg/sg51_7_cif.got.tgz:12849.got - 2010.04.16 13:43:02.
