data_PCOD8210964
_publ_section_title
;
Structure prediction by ZEFSAII (Michael W. Deem and Ramdas Pophale) SiO2 
 PCOD8210964
Probable space group: P M M A
;
_chemical_formula_sum "Si O2"
_cell_formula_units_Z 64
_cell_length_a 16.317011
_cell_length_b 9.349918
_cell_length_c 20.740886
_cell_angle_alpha 90.000000
_cell_angle_beta 90.000000
_cell_angle_gamma 90.000000
_cell_volume 3164.285877
_symmetry_space_group_name_H-M "P M M A"
_symmetry_group_IT_number 51
_symmetry_cell_setting 'orthorhombic'
loop_
_space_group_symop_operation_xyz
x,y,z
1/2-x,-y,z
1/2+x,-y,-z
-x,y,-z
-x,-y,-z
1/2+x,y,-z
1/2-x,y,z
x,-y,z
loop_
_atom_site_type_symbol
_atom_site_label
_atom_site_fract_x
_atom_site_fract_y
_atom_site_fract_z
Si Si1 0.347390 0.660958 0.902655
Si Si2 0.652400 0.660584 0.716551
Si Si3 0.152689 0.339943 0.760343
Si Si4 0.154756 0.841794 0.400328
Si Si5 0.594312 0.336426 0.482479
Si Si6 0.347453 0.339745 0.140999
Si Si7 0.348022 0.160475 0.021849
Si Si8 0.653001 0.165585 0.361535
O O1 0.250000 0.668936 0.904223
O O2 0.376446 0.500000 0.917652
O O3 0.379119 0.707654 0.831427
O O4 0.383785 0.763802 0.957774
O O5 0.750000 0.659899 0.712452
O O6 0.619731 0.500000 0.703605
O O7 0.614303 0.764734 0.662117
O O8 0.624080 0.712637 0.787786
O O9 0.250000 0.343131 0.761395
O O10 0.120278 0.500000 0.743960
O O11 0.122128 0.227023 0.707147
O O12 0.250000 0.860668 0.387160
O O13 0.144905 0.745704 0.463241
O O14 0.114908 0.000000 0.409407
O O15 0.500000 0.331574 0.500000
O O16 0.625928 0.500000 0.477414
O O17 0.606753 0.255892 0.415471
O O18 0.250000 0.339555 0.138010
O O19 0.380066 0.500000 0.128441
O O20 0.383594 0.237397 0.085739
O O21 0.250000 0.165200 0.022105
O O22 0.381422 0.000000 0.022135
O O23 0.750000 0.185104 0.370429
O O24 0.627684 0.000000 0.366339
#
# Coordination Sequence:
#
# PCOD8210964 Si02
#       8
#     8   8   8   8   8   8   8   8
#     4   8  13  21  32  46  68 102 143 182 219 262
#     4   8  14  25  41  60  82 111 148 188 227 267
#     4   8  14  25  41  60  82 111 148 188 227 267
#     4  10  20  33  51  75  99 123 153 190 234 283
#     4  11  24  39  54  72  94 123 158 193 230 274
#     4   8  13  21  32  46  68 102 143 182 219 262
#     4   9  15  19  25  41  67 101 140 181 224 267
#     4  10  20  33  51  75  99 123 153 190 234 283
#
# _framework density 20.225733999999999
#
# number of rings (size 3 to 8) (size 9 to 14) (size 15 to 20)
#    0.000    3.000    0.000    3.375    0.000    6.500 
#    0.000    5.000    0.000    0.000    0.000    0.000 
#    0.000    0.000    0.000    1.125    0.000   23.000 
#
# Total GULP energy -793234.705575 kJ/mol
# GULP energy per Si atom -12394.292275 kJ/mol
# Density = 2.017970 g / cm^3
# Si number density = 20.225734 Si / 1000 Ang^3
#
#
#
# Elastic Constant Matrix: (Units=GPa)
#
#
# Indices 1 2 3 4 5 6 
#
# 1 2.8174 2.9969 -2.3927 0.0000 0.0000 0.0000
# 2 2.9969 164.2670 102.1192 0.0000 0.0000 0.0000
# 3 -2.3927 102.1192 176.5234 0.0000 0.0000 0.0000
# 4 0.0000 0.0000 0.0000 24.2648 0.0000 0.0000
# 5 0.0000 0.0000 0.0000 0.0000 -4.8614 0.0000
# 6 0.0000 0.0000 0.0000 0.0000 0.0000 6.5726
#
#
#
# Elastic Compliance Matrix: (Units=1/GPa)
#
#
# Indices 1 2 3 4 5 6 
#
# 1 0.384252 -0.016004 0.014466 0.000000 0.000000 0.000000
# 2 -0.016004 0.010173 -0.006102 0.000000 0.000000 0.000000
# 3 0.014466 -0.006102 0.009391 0.000000 0.000000 0.000000
# 4 0.000000 0.000000 0.000000 0.041212 0.000000 0.000000
# 5 0.000000 0.000000 0.000000 0.000000 -0.205703 0.000000
# 6 0.000000 0.000000 0.000000 0.000000 0.000000 0.152146
#
#
# Mechanical properties :
#
#
# Convention : Reuss Voigt Hill
#
# Bulk Modulus (GPa) = 2.57375 61.00605 31.78990
# Shear Modulus (GPa) = 9.32380 21.25416 15.28898
#
# Velocity S-wave (km/s) = 2.14939 3.24519 2.75238
# Velocity P-wave (km/s) = 2.72674 6.65355 5.08453
#
# Compressibility (1/GPa) = 0.38853800
#
# Stress axis : x y z
#
# Youngs Moduli (GPa) = 2.60246 98.29886 106.48360
#
# Poissons Ratio (x) = 1.57313 -1.54044
# Poissons Ratio (y) = 0.04165 0.64977
# Poissons Ratio (z) = -0.03765 0.59983
#
# Static dielectric constant tensor:
#      x y z
#    x 2.882060 0.000000 0.000000 
#    y 0.000000 3.942070 0.000000 
#    z 0.000000 0.000000 4.127860 
# 
# 
# High freq. dielectric constant tensor:
#      x y z
#    x 1.718520 0.000000 0.000000 
#    y 0.000000 1.790740 0.000000 
#    z 0.000000 0.000000 1.808770 
# 
# From -- ./inp_files/34083.got.cif
#   From: 2010.03.12/outbox.cif.g09.slc.cpg/sg51_18_cif.got.tgz:34083.got - 2010.04.16 13:43:02.
