data_PCOD8210817
_publ_section_title
;
Structure prediction by ZEFSAII (Michael W. Deem and Ramdas Pophale) SiO2 
 PCOD8210817
Probable space group: P M M A
;
_chemical_formula_sum "Si O2"
_cell_formula_units_Z 48
_cell_length_a 24.751932
_cell_length_b 9.011729
_cell_length_c 12.553572
_cell_angle_alpha 90.000000
_cell_angle_beta 90.000000
_cell_angle_gamma 90.000000
_cell_volume 2800.170940
_symmetry_space_group_name_H-M "P M M A"
_symmetry_group_IT_number 51
_symmetry_cell_setting 'orthorhombic'
loop_
_space_group_symop_operation_xyz
x,y,z
1/2-x,-y,z
1/2+x,-y,-z
-x,y,-z
-x,-y,-z
1/2+x,y,-z
1/2-x,y,z
x,-y,z
loop_
_atom_site_type_symbol
_atom_site_label
_atom_site_fract_x
_atom_site_fract_y
_atom_site_fract_z
Si Si1 0.185994 0.168884 0.767642
Si Si2 0.110824 0.824798 0.376020
Si Si3 0.187136 0.672735 0.210892
Si Si4 0.314080 0.335932 0.973570
Si Si5 0.992790 0.836545 0.374376
Si Si6 0.387411 0.675069 0.602501
O O1 0.250000 0.185417 0.758573
O O2 0.165332 0.221698 0.884072
O O3 0.160848 0.272116 0.677541
O O4 0.167231 0.000000 0.751375
O O5 0.154823 0.775190 0.291445
O O6 0.122301 0.744395 0.487122
O O7 0.051114 0.783031 0.329763
O O8 0.114807 0.000000 0.396463
O O9 0.250000 0.709207 0.226192
O O10 0.175778 0.500000 0.234073
O O11 0.167371 0.714638 0.091441
O O12 0.250000 0.344520 0.974207
O O13 0.337285 0.500000 0.947598
O O14 0.944748 0.723869 0.345305
O O15 0.000000 0.845911 0.500000
O O16 0.977735 0.000000 0.329546
O O17 0.386333 0.500000 0.592029
#
# Coordination Sequence:
#
# PCOD8210817 Si02
#       6
#     8   8   8   8   8   8
#     4  10  20  33  50  72  98 128 161 197 238 285
#     4  10  20  33  50  72  99 130 161 197 240 284
#     4   9  18  32  50  73 101 131 161 196 238 283
#     4   8  15  30  50  70  94 125 161 198 235 278
#     4   8  16  32  50  68  93 124 159 198 238 282
#     4  11  21  32  50  73  97 127 161 198 241 287
#
# _framework density 17.14181
#
# number of rings (size 3 to 8) (size 9 to 14) (size 15 to 20)
#    0.000    2.667    0.000    4.500    0.000    6.333 
#    0.000    1.667    0.000    1.000    0.000    7.000 
#    0.000    0.000    0.000    0.000    0.000    0.000 
#
# Total GULP energy -595000.808074 kJ/mol
# GULP energy per Si atom -12395.850168 kJ/mol
# Density = 1.710279 g / cm^3
# Si number density = 17.141810 Si / 1000 Ang^3
#
#
#
# Elastic Constant Matrix: (Units=GPa)
#
#
# Indices 1 2 3 4 5 6 
#
# 1 61.0337 45.6270 42.0679 0.0000 0.0000 0.0000
# 2 45.6270 112.9739 57.4335 0.0000 0.0000 0.0000
# 3 42.0679 57.4335 91.4232 0.0000 0.0000 0.0000
# 4 0.0000 0.0000 0.0000 23.6102 0.0000 0.0000
# 5 0.0000 0.0000 0.0000 0.0000 -0.9907 0.0000
# 6 0.0000 0.0000 0.0000 0.0000 0.0000 24.6483
#
#
#
# Elastic Compliance Matrix: (Units=1/GPa)
#
#
# Indices 1 2 3 4 5 6 
#
# 1 0.027113 -0.006770 -0.008223 0.000000 0.000000 0.000000
# 2 -0.006770 0.014695 -0.006117 0.000000 0.000000 0.000000
# 3 -0.008223 -0.006117 0.018565 0.000000 0.000000 0.000000
# 4 0.000000 0.000000 0.000000 0.042355 0.000000 0.000000
# 5 0.000000 0.000000 0.000000 0.000000 -1.009355 0.000000
# 6 0.000000 0.000000 0.000000 0.000000 0.000000 0.040571
#
#
# Mechanical properties :
#
#
# Convention : Reuss Voigt Hill
#
# Bulk Modulus (GPa) = 55.08488 61.74307 58.41398
# Shear Modulus (GPa) = -6.11407 17.47372 5.67983
#
# Velocity S-wave (km/s) = -1.89064 3.19621 1.82226
# Velocity P-wave (km/s) = 5.23818 7.05111 6.21115
#
# Compressibility (1/GPa) = 0.01815380
#
# Stress axis : x y z
#
# Youngs Moduli (GPa) = 36.88257 68.04859 53.86598
#
# Poissons Ratio (x) = 0.46068 0.44294
# Poissons Ratio (y) = 0.24969 0.32949
# Poissons Ratio (z) = 0.30329 0.41624
#
# Static dielectric constant tensor:
#      x y z
#    x 3.303670 0.000000 0.000000 
#    y 0.000000 3.294640 0.000000 
#    z 0.000000 0.000000 3.166320 
# 
# 
# High freq. dielectric constant tensor:
#      x y z
#    x 1.645880 0.000000 0.000000 
#    y 0.000000 1.667640 0.000000 
#    z 0.000000 0.000000 1.645370 
# 
# From -- ./inp_files/18543.got.cif
#   From: 2010.03.12/outbox.cif.g09.slc.cpg/sg51_10_cif.got.tgz:18543.got - 2010.04.16 13:43:02.
