data_PCOD8210005
_publ_section_title
;
Structure prediction by ZEFSAII (Michael W. Deem and Ramdas Pophale) SiO2 
 PCOD8210005
Probable space group: P M M A
;
_chemical_formula_sum "Si O2"
_cell_formula_units_Z 56
_cell_length_a 18.529451
_cell_length_b 8.976227
_cell_length_c 16.967129
_cell_angle_alpha 90.000000
_cell_angle_beta 90.000000
_cell_angle_gamma 90.000000
_cell_volume 2822.050238
_symmetry_space_group_name_H-M "P M M A"
_symmetry_group_IT_number 51
_symmetry_cell_setting 'orthorhombic'
loop_
_space_group_symop_operation_xyz
x,y,z
1/2-x,-y,z
1/2+x,-y,-z
-x,y,-z
-x,-y,-z
1/2+x,y,-z
1/2-x,y,z
x,-y,z
loop_
_atom_site_type_symbol
_atom_site_label
_atom_site_fract_x
_atom_site_fract_y
_atom_site_fract_z
Si Si1 0.943530 0.824256 0.659453
Si Si2 0.917844 0.676085 0.099767
Si Si3 0.556470 0.824256 0.840547
Si Si4 0.666860 0.674959 0.556602
Si Si5 0.082156 0.323915 0.599767
Si Si6 0.166861 0.325041 0.056602
Si Si7 0.830205 0.322899 0.250000
O O1 0.955606 0.775721 0.750000
O O2 0.866424 0.761853 0.630905
O O3 0.004409 0.753326 0.603336
O O4 0.944795 0.000000 0.650013
O O5 0.930119 0.500000 0.103159
O O6 0.871104 0.735320 0.173003
O O7 0.995591 0.753327 0.103336
O O8 0.875773 0.724299 0.021618
O O9 0.633576 0.761852 0.869095
O O10 0.555206 0.000000 0.849987
O O11 0.750000 0.721683 0.547027
O O12 0.659277 0.500000 0.571557
O O13 0.624227 0.724299 0.478381
O O14 0.069881 0.500000 0.603159
O O15 0.128895 0.264679 0.673003
O O16 0.250000 0.278316 0.047027
O O17 0.159278 0.500000 0.071556
O O18 0.750000 0.254905 0.250000
O O19 0.826335 0.500000 0.250000
#
# Coordination Sequence:
#
# PCOD8210005 Si02
#       7
#     8   8   8   8   8   8   8
#     4  11  24  40  58  82 115 155 198 239 281 336
#     4  10  19  35  60  88 116 148 188 233 285 344
#     4  11  24  40  58  82 115 155 198 239 281 336
#     4  10  22  39  60  88 118 147 187 240 292 342
#     4  10  19  35  60  88 116 148 188 233 285 344
#     4  10  22  39  60  88 118 147 187 240 292 342
#     4   9  16  28  53  87 118 147 180 223 277 336
#
# _framework density 19.843729
#
# number of rings (size 3 to 8) (size 9 to 14) (size 15 to 20)
#    0.000    1.857    1.429    2.571    0.000   10.857 
#    0.000    2.857    0.000    3.429    0.000    0.000 
#    0.000    0.000    0.000    0.000    0.000    0.000 
#
# Total GULP energy -694651.855737 kJ/mol
# GULP energy per Si atom -12404.497424 kJ/mol
# Density = 1.979856 g / cm^3
# Si number density = 19.843729 Si / 1000 Ang^3
#
#
#
# Elastic Constant Matrix: (Units=GPa)
#
#
# Indices 1 2 3 4 5 6 
#
# 1 148.3247 45.3853 65.9785 0.0000 0.0000 0.0000
# 2 45.3853 44.4321 38.0019 0.0000 0.0000 0.0000
# 3 65.9785 38.0019 81.3587 0.0000 0.0000 0.0000
# 4 0.0000 0.0000 0.0000 24.9840 0.0000 0.0000
# 5 0.0000 0.0000 0.0000 0.0000 34.6222 0.0000
# 6 0.0000 0.0000 0.0000 0.0000 0.0000 3.1814
#
#
#
# Elastic Compliance Matrix: (Units=1/GPa)
#
#
# Indices 1 2 3 4 5 6 
#
# 1 0.011512 -0.006285 -0.006400 0.000000 0.000000 0.000000
# 2 -0.006285 0.040910 -0.014012 0.000000 0.000000 0.000000
# 3 -0.006400 -0.014012 0.024026 0.000000 0.000000 0.000000
# 4 0.000000 0.000000 0.000000 0.040026 0.000000 0.000000
# 5 0.000000 0.000000 0.000000 0.000000 0.028883 0.000000
# 6 0.000000 0.000000 0.000000 0.000000 0.000000 0.314327
#
#
# Mechanical properties :
#
#
# Convention : Reuss Voigt Hill
#
# Bulk Modulus (GPa) = 43.37551 63.64966 53.51259
# Shear Modulus (GPa) = 9.60130 20.87417 15.23773
#
# Velocity S-wave (km/s) = 2.20203 3.24686 2.77408
# Velocity P-wave (km/s) = 5.32647 6.79715 6.10625
#
# Compressibility (1/GPa) = 0.02305448
#
# Stress axis : x y z
#
# Youngs Moduli (GPa) = 86.86557 24.44373 41.62127
#
# Poissons Ratio (x) = 0.15363 0.26638
# Poissons Ratio (y) = 0.54597 0.58319
# Poissons Ratio (z) = 0.55594 0.34250
#
# Static dielectric constant tensor:
#      x y z
#    x 3.758300 0.000000 0.000000 
#    y 0.000000 3.250020 0.000000 
#    z 0.000000 0.000000 3.756870 
# 
# 
# High freq. dielectric constant tensor:
#      x y z
#    x 1.786670 0.000000 0.000000 
#    y 0.000000 1.743460 0.000000 
#    z 0.000000 0.000000 1.783500 
# 
# From -- ./inp_files/25693.got.cif
#   From: 2010.03.12/outbox.cif.g09.slc.cpg/sg51_13_cif.got.tgz:25693.got - 2010.04.16 13:43:02.
