data_PCOD8210636
_publ_section_title
;
Structure prediction by ZEFSAII (Michael W. Deem and Ramdas Pophale) SiO2 
 PCOD8210636
Probable space group: P M M A
;
_chemical_formula_sum "Si O2"
_cell_formula_units_Z 64
_cell_length_a 15.373123
_cell_length_b 22.940396
_cell_length_c 9.284209
_cell_angle_alpha 90.000000
_cell_angle_beta 90.000000
_cell_angle_gamma 90.000000
_cell_volume 3274.220482
_symmetry_space_group_name_H-M "P M M A"
_symmetry_group_IT_number 51
_symmetry_cell_setting 'orthorhombic'
loop_
_space_group_symop_operation_xyz
x,y,z
1/2-x,-y,z
1/2+x,-y,-z
-x,y,-z
-x,-y,-z
1/2+x,y,-z
1/2-x,y,z
x,-y,z
loop_
_atom_site_type_symbol
_atom_site_label
_atom_site_fract_x
_atom_site_fract_y
_atom_site_fract_z
Si Si1 0.345562 0.434544 0.634504
Si Si2 0.500414 0.568221 0.161874
Si Si3 0.151685 0.243187 0.291794
Si Si4 0.349060 0.126254 0.442966
Si Si5 0.847069 0.107002 0.227733
Si Si6 0.582496 0.637483 0.602580
Si Si7 0.405764 0.827308 0.033722
Si Si8 0.538866 0.934574 0.776122
O O1 0.250000 0.434200 0.702774
O O2 0.371686 0.500000 0.581714
O O3 0.408120 0.415158 0.764262
O O4 0.343206 0.390583 0.497885
O O5 0.481230 0.500000 0.159971
O O6 0.424906 0.598615 0.254056
O O7 0.500000 0.593414 0.000000
O O8 0.250000 0.261757 0.319300
O O9 0.121722 0.189216 0.388150
O O10 0.094500 0.297131 0.341853
O O11 0.141652 0.222618 0.125773
O O12 0.250000 0.110579 0.391895
O O13 0.353215 0.132495 0.613263
O O14 0.419352 0.079581 0.381488
O O15 0.750000 0.076775 0.209075
O O16 0.933004 0.066550 0.213774
O O17 0.852614 0.159887 0.112672
O O18 0.500000 0.633845 0.500000
O O19 0.416098 0.889608 0.114541
O O20 0.500000 0.801082 0.000000
O O21 0.566503 0.000000 0.818764
#
# Coordination Sequence:
#
# PCOD8210636 Si02
#       8
#     8   8   8   8   8   8   8   8
#     4   9  17  32  54  78 105 138 177 220 263 307
#     4   9  18  34  54  76 107 144 178 214 260 315
#     4  10  20  36  55  75 103 136 171 212 259 309
#     4   9  20  37  56  77 101 134 174 215 259 307
#     4  10  20  35  55  79 105 133 170 213 258 308
#     4  10  20  32  52  80 107 138 177 218 260 310
#     4   9  20  36  56  76 101 138 176 213 255 307
#     4  10  21  37  55  77 106 138 170 207 258 318
#
# _framework density 19.546637
#
# number of rings (size 3 to 8) (size 9 to 14) (size 15 to 20)
#    0.000    2.500    0.000    1.500    0.000    9.250 
#    0.000    3.750    0.000    3.000    0.000    0.000 
#    0.000    0.000    0.000    0.000    0.000    0.000 
#
# Total GULP energy -792997.836396 kJ/mol
# GULP energy per Si atom -12390.591194 kJ/mol
# Density = 1.950215 g / cm^3
# Si number density = 19.546637 Si / 1000 Ang^3
#
#
#
# Elastic Constant Matrix: (Units=GPa)
#
#
# Indices 1 2 3 4 5 6 
#
# 1 71.4717 17.2243 24.5009 0.0000 0.0000 0.0000
# 2 17.2243 70.5310 33.9491 0.0000 0.0000 0.0000
# 3 24.5009 33.9491 117.4019 0.0000 0.0000 0.0000
# 4 0.0000 0.0000 0.0000 16.8641 0.0000 0.0000
# 5 0.0000 0.0000 0.0000 0.0000 21.0132 0.0000
# 6 0.0000 0.0000 0.0000 0.0000 0.0000 15.8281
#
#
#
# Elastic Compliance Matrix: (Units=1/GPa)
#
#
# Indices 1 2 3 4 5 6 
#
# 1 0.015464 -0.002583 -0.002480 0.000000 0.000000 0.000000
# 2 -0.002583 0.016902 -0.004349 0.000000 0.000000 0.000000
# 3 -0.002480 -0.004349 0.010293 0.000000 0.000000 0.000000
# 4 0.000000 0.000000 0.000000 0.059298 0.000000 0.000000
# 5 0.000000 0.000000 0.000000 0.000000 0.047589 0.000000
# 6 0.000000 0.000000 0.000000 0.000000 0.000000 0.063179
#
#
# Mechanical properties :
#
#
# Convention : Reuss Voigt Hill
#
# Bulk Modulus (GPa) = 41.95357 45.63926 43.79641
# Shear Modulus (GPa) = 20.87741 22.98976 21.93359
#
# Velocity S-wave (km/s) = 3.27170 3.43322 3.35343
# Velocity P-wave (km/s) = 5.98180 6.25425 6.11954
#
# Compressibility (1/GPa) = 0.02383587
#
# Stress axis : x y z
#
# Youngs Moduli (GPa) = 64.66526 59.16466 97.15444
#
# Poissons Ratio (x) = 0.15280 0.24099
# Poissons Ratio (y) = 0.16700 0.42248
# Poissons Ratio (z) = 0.16040 0.25728
#
# Static dielectric constant tensor:
#      x y z
#    x 3.732160 0.000000 0.000000 
#    y 0.000000 3.288200 0.000000 
#    z 0.000000 0.000000 3.762780 
# 
# 
# High freq. dielectric constant tensor:
#      x y z
#    x 1.763360 0.000000 0.000000 
#    y 0.000000 1.733950 0.000000 
#    z 0.000000 0.000000 1.768200 
# 
# From -- ./inp_files/8741.got.cif
#   From: 2010.03.12/outbox.cif.g09.slc.cpg/sg51_5_cif.got.tgz:8741.got - 2010.04.16 13:43:02.
