data_PCOD8210351
_publ_section_title
;
Structure prediction by ZEFSAII (Michael W. Deem and Ramdas Pophale) SiO2 
 PCOD8210351
Probable space group: P M M A
;
_chemical_formula_sum "Si O2"
_cell_formula_units_Z 64
_cell_length_a 9.075170
_cell_length_b 20.168603
_cell_length_c 20.084822
_cell_angle_alpha 90.000000
_cell_angle_beta 90.000000
_cell_angle_gamma 90.000000
_cell_volume 3676.195285
_symmetry_space_group_name_H-M "P M M A"
_symmetry_group_IT_number 51
_symmetry_cell_setting 'orthorhombic'
loop_
_space_group_symop_operation_xyz
x,y,z
1/2-x,-y,z
1/2+x,-y,-z
-x,y,-z
-x,-y,-z
1/2+x,y,-z
1/2-x,y,z
x,-y,z
loop_
_atom_site_type_symbol
_atom_site_label
_atom_site_fract_x
_atom_site_fract_y
_atom_site_fract_z
Si Si1 0.581648 0.573602 0.599633
Si Si2 0.076480 0.299345 0.934182
Si Si3 0.575384 0.294707 0.434943
Si Si4 0.576220 0.745070 0.292659
Si Si5 0.423713 0.924509 0.931362
Si Si6 0.918603 0.426186 0.887413
Si Si7 0.914862 0.617744 0.743351
Si Si8 0.424458 0.187082 0.833969
O O1 0.750000 0.591525 0.579854
O O2 0.539410 0.500000 0.573250
O O3 0.473313 0.628294 0.568540
O O4 0.563612 0.571505 0.679259
O O5 0.250000 0.297729 0.944152
O O6 0.024144 0.252437 0.873851
O O7 0.025824 0.374677 0.922941
O O8 0.000000 0.270476 0.000000
O O9 0.500000 0.261795 0.500000
O O10 0.750000 0.291147 0.442069
O O11 0.517936 0.253890 0.369354
O O12 0.750000 0.745703 0.295911
O O13 0.530008 0.677449 0.257365
O O14 0.520962 0.805148 0.243628
O O15 0.250000 0.915023 0.941407
O O16 0.485103 0.878996 0.870562
O O17 0.464518 0.000000 0.913101
O O18 0.500000 0.902604 0.000000
O O19 0.750000 0.407478 0.904755
O O20 0.956730 0.500000 0.913119
O O21 0.944038 0.426199 0.808125
O O22 0.750000 0.648249 0.743963
O O23 0.250000 0.182921 0.834231
#
# Coordination Sequence:
#
# PCOD8210351 Si02
#       8
#     8   8   8   8   8   8   8   8
#     4   9  17  29  45  64  86 112 143 181 228 283
#     4  11  22  35  50  66  88 117 151 193 237 281
#     4  10  20  32  47  64  87 117 147 185 232 282
#     4   9  17  31  49  68  90 117 150 188 231 273
#     4   9  17  30  49  74 105 139 167 191 224 269
#     4  10  20  33  48  65  86 112 146 191 242 291
#     4   9  16  28  46  67  88 110 141 185 235 282
#     4   9  17  31  51  73  97 124 156 194 231 269
#
# _framework density 17.409303000000001
#
# number of rings (size 3 to 8) (size 9 to 14) (size 15 to 20)
#    0.000    2.500    1.250    1.500    0.000    3.000 
#    0.000    1.250    0.000    2.250    0.000    0.000 
#    0.000    0.500    0.000    0.375    0.000    0.750 
#
# Total GULP energy -793100.626729 kJ/mol
# GULP energy per Si atom -12392.197293 kJ/mol
# Density = 1.736968 g / cm^3
# Si number density = 17.409303 Si / 1000 Ang^3
#
#
#
# Elastic Constant Matrix: (Units=GPa)
#
#
# Indices 1 2 3 4 5 6 
#
# 1 35.7612 16.5497 33.6491 0.0000 0.0000 0.0000
# 2 16.5497 79.6520 51.2380 0.0000 0.0000 0.0000
# 3 33.6491 51.2380 124.4047 0.0000 0.0000 0.0000
# 4 0.0000 0.0000 0.0000 19.0106 0.0000 0.0000
# 5 0.0000 0.0000 0.0000 0.0000 23.3159 0.0000
# 6 0.0000 0.0000 0.0000 0.0000 0.0000 13.3254
#
#
#
# Elastic Compliance Matrix: (Units=1/GPa)
#
#
# Indices 1 2 3 4 5 6 
#
# 1 0.037684 -0.001732 -0.009480 0.000000 0.000000 0.000000
# 2 -0.001732 0.017159 -0.006599 0.000000 0.000000 0.000000
# 3 -0.009480 -0.006599 0.013320 0.000000 0.000000 0.000000
# 4 0.000000 0.000000 0.000000 0.052602 0.000000 0.000000
# 5 0.000000 0.000000 0.000000 0.000000 0.042889 0.000000
# 6 0.000000 0.000000 0.000000 0.000000 0.000000 0.075045
#
#
# Mechanical properties :
#
#
# Convention : Reuss Voigt Hill
#
# Bulk Modulus (GPa) = 30.72841 49.18794 39.95818
# Shear Modulus (GPa) = 17.53349 20.35580 18.94464
#
# Velocity S-wave (km/s) = 3.17698 3.42314 3.30235
# Velocity P-wave (km/s) = 5.58090 6.62865 6.12721
#
# Compressibility (1/GPa) = 0.03254317
#
# Stress axis : x y z
#
# Youngs Moduli (GPa) = 26.53615 58.27729 75.07403
#
# Poissons Ratio (x) = 0.10093 0.71167
# Poissons Ratio (y) = 0.04596 0.49541
# Poissons Ratio (z) = 0.25155 0.38457
#
# Static dielectric constant tensor:
#      x y z
#    x 3.104300 0.000000 0.000000 
#    y 0.000000 3.082770 0.000000 
#    z 0.000000 0.000000 3.677970 
# 
# 
# High freq. dielectric constant tensor:
#      x y z
#    x 1.659050 0.000000 0.000000 
#    y 0.000000 1.628600 0.000000 
#    z 0.000000 0.000000 1.682750 
# 
# From -- ./inp_files/32620.got.cif
#   From: 2010.03.12/outbox.cif.g09.slc.cpg/sg51_17_cif.got.tgz:32620.got - 2010.04.16 13:43:02.
