data_PCOD8210824
_publ_section_title
;
Structure prediction by ZEFSAII (Michael W. Deem and Ramdas Pophale) SiO2 
 PCOD8210824
Probable space group: P M M A
;
_chemical_formula_sum "Si O2"
_cell_formula_units_Z 32
_cell_length_a 8.930065
_cell_length_b 20.517320
_cell_length_c 10.002460
_cell_angle_alpha 90.000000
_cell_angle_beta 90.000000
_cell_angle_gamma 90.000000
_cell_volume 1832.660736
_symmetry_space_group_name_H-M "P M M A"
_symmetry_group_IT_number 51
_symmetry_cell_setting 'orthorhombic'
loop_
_space_group_symop_operation_xyz
x,y,z
1/2-x,-y,z
1/2+x,-y,-z
-x,y,-z
-x,-y,-z
1/2+x,y,-z
1/2-x,y,z
x,-y,z
loop_
_atom_site_type_symbol
_atom_site_label
_atom_site_fract_x
_atom_site_fract_y
_atom_site_fract_z
Si Si1 0.423383 0.693012 0.856923
Si Si2 0.924979 0.429276 0.855223
Si Si3 0.424717 0.836954 0.856077
Si Si4 0.422875 0.076502 0.363488
O O1 0.250000 0.676742 0.872796
O O2 0.500966 0.632461 0.775521
O O3 0.447719 0.764402 0.791769
O O4 0.500000 0.696409 0.000000
O O5 0.750000 0.416300 0.870374
O O6 0.953958 0.500000 0.784509
O O7 0.000000 0.431412 0.000000
O O8 0.250000 0.852747 0.872436
O O9 0.499046 0.888881 0.759826
O O10 0.500000 0.843126 0.000000
O O11 0.500000 0.099834 0.500000
O O12 0.250000 0.096548 0.369852
O O13 0.444547 0.000000 0.341913
#
# Coordination Sequence:
#
# PCOD8210824 Si02
#       4
#     8   8   8   8
#     4   9  16  25  38  57  83 116 152 190 232 276
#     4   9  15  21  31  49  75 110 150 188 227 273
#     4  10  20  33  50  73 100 130 164 201 242 288
#     4  10  21  37  56  76  98 126 159 196 240 288
#
# _framework density 17.460951999999999
#
# number of rings (size 3 to 8) (size 9 to 14) (size 15 to 20)
#    0.000    2.500    0.000    4.500    0.000    6.500 
#    0.000    0.000    0.000    0.000    0.000    0.000 
#    0.000    1.000    0.000    3.250    0.000   14.000 
#
# Total GULP energy -396422.342227 kJ/mol
# GULP energy per Si atom -12388.198195 kJ/mol
# Density = 1.742121 g / cm^3
# Si number density = 17.460952 Si / 1000 Ang^3
#
#
#
# Elastic Constant Matrix: (Units=GPa)
#
#
# Indices 1 2 3 4 5 6 
#
# 1 147.8326 65.3165 42.6730 0.0000 0.0000 0.0000
# 2 65.3165 86.9358 44.8885 0.0000 0.0000 0.0000
# 3 42.6730 44.8885 58.5213 0.0000 0.0000 0.0000
# 4 0.0000 0.0000 0.0000 -0.9072 0.0000 0.0000
# 5 0.0000 0.0000 0.0000 0.0000 21.0742 0.0000
# 6 0.0000 0.0000 0.0000 0.0000 0.0000 30.0208
#
#
#
# Elastic Compliance Matrix: (Units=1/GPa)
#
#
# Indices 1 2 3 4 5 6 
#
# 1 0.010363 -0.006432 -0.002624 0.000000 0.000000 0.000000
# 2 -0.006432 0.023037 -0.012981 0.000000 0.000000 0.000000
# 3 -0.002624 -0.012981 0.028958 0.000000 0.000000 0.000000
# 4 0.000000 0.000000 0.000000 -1.102332 0.000000 0.000000
# 5 0.000000 0.000000 0.000000 0.000000 0.047451 0.000000
# 6 0.000000 0.000000 0.000000 0.000000 0.000000 0.033310
#
#
# Mechanical properties :
#
#
# Convention : Reuss Voigt Hill
#
# Bulk Modulus (GPa) = 54.68503 66.56062 60.62283
# Shear Modulus (GPa) = -5.50028 19.39834 6.94903
#
# Velocity S-wave (km/s) = -1.77676 3.33672 1.99710
# Velocity P-wave (km/s) = 5.21318 7.28336 6.33343
#
# Compressibility (1/GPa) = 0.01828654
#
# Stress axis : x y z
#
# Youngs Moduli (GPa) = 96.49392 43.40750 34.53293
#
# Poissons Ratio (x) = 0.27918 0.09060
# Poissons Ratio (y) = 0.62060 0.44827
# Poissons Ratio (z) = 0.25316 0.56347
#
# Static dielectric constant tensor:
#      x y z
#    x 3.477230 0.000000 0.000000 
#    y 0.000000 4.504140 0.000000 
#    z 0.000000 0.000000 2.613320 
# 
# 
# High freq. dielectric constant tensor:
#      x y z
#    x 1.699680 0.000000 0.000000 
#    y 0.000000 1.704370 0.000000 
#    z 0.000000 0.000000 1.593390 
# 
# From -- ./inp_files/4840.got.cif
#   From: 2010.03.12/outbox.cif.g09.slc.cpg/sg51_3_cif.got.tgz:4840.got - 2010.04.16 13:43:02.
