data_PCOD8210381
_publ_section_title
;
Structure prediction by ZEFSAII (Michael W. Deem and Ramdas Pophale) SiO2 
 PCOD8210381
Probable space group: P M M A
;
_chemical_formula_sum "Si O2"
_cell_formula_units_Z 64
_cell_length_a 23.004649
_cell_length_b 9.305672
_cell_length_c 17.881136
_cell_angle_alpha 90.000000
_cell_angle_beta 90.000000
_cell_angle_gamma 90.000000
_cell_volume 3827.881267
_symmetry_space_group_name_H-M "P M M A"
_symmetry_group_IT_number 51
_symmetry_cell_setting 'orthorhombic'
loop_
_space_group_symop_operation_xyz
x,y,z
1/2-x,-y,z
1/2+x,-y,-z
-x,y,-z
-x,-y,-z
1/2+x,y,-z
1/2-x,y,z
x,-y,z
loop_
_atom_site_type_symbol
_atom_site_label
_atom_site_fract_x
_atom_site_fract_y
_atom_site_fract_z
Si Si1 0.628256 0.667504 0.861410
Si Si2 0.817241 0.666242 0.705828
Si Si3 0.819200 0.837582 0.561383
Si Si4 0.608922 0.169496 0.131180
Si Si5 0.817226 0.833095 0.274847
Si Si6 0.316349 0.834785 0.008690
Si Si7 0.998832 0.668523 0.913821
Si Si8 0.180841 0.337622 0.580053
O O1 0.637857 0.500000 0.875559
O O2 0.644214 0.710068 0.776982
O O3 0.671907 0.747657 0.916358
O O4 0.562276 0.713152 0.877585
O O5 0.750000 0.698908 0.724135
O O6 0.825572 0.500000 0.684168
O O7 0.840436 0.761245 0.637171
O O8 0.750000 0.837546 0.558238
O O9 0.844402 0.749448 0.490852
O O10 0.843463 0.000000 0.559038
O O11 0.645174 0.214433 0.203900
O O12 0.547264 0.248269 0.133407
O O13 0.598877 0.000000 0.128645
O O14 0.643997 0.223691 0.058615
O O15 0.750000 0.800425 0.256600
O O16 0.840090 0.740713 0.344673
O O17 0.825771 0.000000 0.294681
O O18 0.250000 0.813802 0.983851
O O19 0.330489 0.000000 0.025367
O O20 0.011121 0.500000 0.907276
O O21 0.000000 0.718651 0.000000
O O22 0.250000 0.338446 0.576432
O O23 0.156371 0.500000 0.578622
#
# Coordination Sequence:
#
# PCOD8210381 Si02
#       8
#     8   8   8   8   8   8   8   8
#     4  10  20  34  50  68  92 125 162 199 242 286
#     4   9  17  29  45  66  93 123 155 192 233 280
#     4   9  16  26  42  65  94 127 158 187 225 275
#     4  10  20  33  50  70  93 124 161 199 241 286
#     4   9  17  30  47  68  97 129 159 194 237 285
#     4  10  20  32  47  69  96 124 155 193 238 287
#     4  10  20  35  52  69  91 121 161 208 247 282
#     4   9  16  26  42  66  96 128 160 191 225 272
#
# _framework density 16.719432000000001
#
# number of rings (size 3 to 8) (size 9 to 14) (size 15 to 20)
#    0.000    2.500    1.250    1.500    0.000    7.000 
#    0.000    1.250    0.000    2.250    0.000    0.875 
#    0.000    7.000    0.000    0.000    0.000    0.000 
#
# Total GULP energy -793730.183254 kJ/mol
# GULP energy per Si atom -12402.034113 kJ/mol
# Density = 1.668138 g / cm^3
# Si number density = 16.719432 Si / 1000 Ang^3
#
#
#
# Elastic Constant Matrix: (Units=GPa)
#
#
# Indices 1 2 3 4 5 6 
#
# 1 58.7873 27.7286 42.0510 0.0000 0.0000 0.0000
# 2 27.7286 74.2649 63.2933 0.0000 0.0000 0.0000
# 3 42.0510 63.2933 134.8264 0.0000 0.0000 0.0000
# 4 0.0000 0.0000 0.0000 32.0752 0.0000 0.0000
# 5 0.0000 0.0000 0.0000 0.0000 10.7070 0.0000
# 6 0.0000 0.0000 0.0000 0.0000 0.0000 19.8635
#
#
#
# Elastic Compliance Matrix: (Units=1/GPa)
#
#
# Indices 1 2 3 4 5 6 
#
# 1 0.022604 -0.004053 -0.005147 0.000000 0.000000 0.000000
# 2 -0.004053 0.023172 -0.009614 0.000000 0.000000 0.000000
# 3 -0.005147 -0.009614 0.013536 0.000000 0.000000 0.000000
# 4 0.000000 0.000000 0.000000 0.031177 0.000000 0.000000
# 5 0.000000 0.000000 0.000000 0.000000 0.093397 0.000000
# 6 0.000000 0.000000 0.000000 0.000000 0.000000 0.050344
#
#
# Mechanical properties :
#
#
# Convention : Reuss Voigt Hill
#
# Bulk Modulus (GPa) = 46.11820 59.33603 52.72711
# Shear Modulus (GPa) = 17.91565 21.51618 19.71591
#
# Velocity S-wave (km/s) = 3.27700 3.59123 3.43770
# Velocity P-wave (km/s) = 6.47779 7.26376 6.88200
#
# Compressibility (1/GPa) = 0.02168341
#
# Stress axis : x y z
#
# Youngs Moduli (GPa) = 44.23982 43.15515 73.87927
#
# Poissons Ratio (x) = 0.17490 0.38029
# Poissons Ratio (y) = 0.17930 0.71028
# Poissons Ratio (z) = 0.22772 0.41489
#
# Static dielectric constant tensor:
#      x y z
#    x 2.843460 0.000000 0.000000 
#    y 0.000000 3.167560 0.000000 
#    z 0.000000 0.000000 3.223960 
# 
# 
# High freq. dielectric constant tensor:
#      x y z
#    x 1.604390 0.000000 0.000000 
#    y 0.000000 1.646750 0.000000 
#    z 0.000000 0.000000 1.650730 
# 
# From -- ./inp_files/30811.got.cif
#   From: 2010.03.12/outbox.cif.g09.slc.cpg/sg51_16_cif.got.tgz:30811.got - 2010.04.16 13:43:02.
