data_PCOD8210773
_publ_section_title
;
Structure prediction by ZEFSAII (Michael W. Deem and Ramdas Pophale) SiO2 
 PCOD8210773
Probable space group: P M M A
;
_chemical_formula_sum "Si O2"
_cell_formula_units_Z 56
_cell_length_a 9.202643
_cell_length_b 13.826273
_cell_length_c 23.577973
_cell_angle_alpha 90.000000
_cell_angle_beta 90.000000
_cell_angle_gamma 90.000000
_cell_volume 3000.020128
_symmetry_space_group_name_H-M "P M M A"
_symmetry_group_IT_number 51
_symmetry_cell_setting 'orthorhombic'
loop_
_space_group_symop_operation_xyz
x,y,z
1/2-x,-y,z
1/2+x,-y,-z
-x,y,-z
-x,-y,-z
1/2+x,y,-z
1/2-x,y,z
x,-y,z
loop_
_atom_site_type_symbol
_atom_site_label
_atom_site_fract_x
_atom_site_fract_y
_atom_site_fract_z
Si Si1 0.417139 0.898642 0.942002
Si Si2 0.085055 0.609409 0.161325
Si Si3 0.079066 0.205719 0.558247
Si Si4 0.580582 0.704804 0.725435
Si Si5 0.917715 0.890558 0.658738
Si Si6 0.082002 0.608444 0.625665
Si Si7 0.079045 0.688785 0.939923
O O1 0.250000 0.895660 0.958725
O O2 0.455291 0.796142 0.912902
O O3 0.451194 0.000000 0.907266
O O4 0.500000 0.903876 0.000000
O O5 0.250000 0.636708 0.144347
O O6 0.076410 0.500000 0.184222
O O7 0.026954 0.680713 0.210961
O O8 0.984563 0.615529 0.105920
O O9 0.250000 0.188621 0.551158
O O10 0.041665 0.316153 0.575925
O O11 0.000000 0.181643 0.500000
O O12 0.019074 0.132044 0.605231
O O13 0.750000 0.682548 0.720918
O O14 0.544654 0.816752 0.710124
O O15 0.504873 0.631942 0.682284
O O16 0.750000 0.877542 0.640197
O O17 0.948319 0.000000 0.679654
O O18 0.250000 0.618483 0.641585
O O19 0.043576 0.500000 0.604712
O O20 0.250000 0.669685 0.948319
O O21 0.000000 0.673530 0.000000
#
# Coordination Sequence:
#
# PCOD8210773 Si02
#       7
#     8   8   8   8   8   8   8
#     4   8  14  26  45  68  93 121 153 189 230 276
#     4  10  21  36  53  74 102 134 166 204 251 302
#     4  10  20  33  49  72 104 140 177 215 254 299
#     4   9  18  34  55  77 100 127 164 208 252 302
#     4   9  18  34  56  79 103 133 168 208 255 304
#     4   9  18  32  50  73 101 132 167 211 261 306
#     4  10  20  34  53  76 103 135 170 208 249 296
#
# _framework density 18.666542
#
# number of rings (size 3 to 8) (size 9 to 14) (size 15 to 20)
#    0.000    2.714    0.000    1.286    0.000    4.000 
#    0.000    0.714    0.000    0.857    0.000    0.000 
#    0.000    0.000    0.000    0.000    0.000    0.000 
#
# Total GULP energy -693927.764008 kJ/mol
# GULP energy per Si atom -12391.567214 kJ/mol
# Density = 1.862406 g / cm^3
# Si number density = 18.666542 Si / 1000 Ang^3
#
#
#
# Elastic Constant Matrix: (Units=GPa)
#
#
# Indices 1 2 3 4 5 6 
#
# 1 63.6503 28.4796 43.1172 0.0000 0.0000 0.0000
# 2 28.4796 103.4610 40.5118 0.0000 0.0000 0.0000
# 3 43.1172 40.5118 104.4112 0.0000 0.0000 0.0000
# 4 0.0000 0.0000 0.0000 20.1031 0.0000 0.0000
# 5 0.0000 0.0000 0.0000 0.0000 27.0141 0.0000
# 6 0.0000 0.0000 0.0000 0.0000 0.0000 22.3813
#
#
#
# Elastic Compliance Matrix: (Units=1/GPa)
#
#
# Indices 1 2 3 4 5 6 
#
# 1 0.022588 -0.003025 -0.008154 0.000000 0.000000 0.000000
# 2 -0.003025 0.011802 -0.003330 0.000000 0.000000 0.000000
# 3 -0.008154 -0.003330 0.014237 0.000000 0.000000 0.000000
# 4 0.000000 0.000000 0.000000 0.049744 0.000000 0.000000
# 5 0.000000 0.000000 0.000000 0.000000 0.037018 0.000000
# 6 0.000000 0.000000 0.000000 0.000000 0.000000 0.044680
#
#
# Mechanical properties :
#
#
# Convention : Reuss Voigt Hill
#
# Bulk Modulus (GPa) = 50.99782 55.08221 53.04001
# Shear Modulus (GPa) = 23.18862 24.52729 23.85796
#
# Velocity S-wave (km/s) = 3.52839 3.62881 3.57895
# Velocity P-wave (km/s) = 6.63168 6.86515 6.74942
#
# Compressibility (1/GPa) = 0.01960868
#
# Stress axis : x y z
#
# Youngs Moduli (GPa) = 44.27135 84.73079 70.23998
#
# Poissons Ratio (x) = 0.25630 0.57275
# Poissons Ratio (y) = 0.13392 0.23391
# Poissons Ratio (z) = 0.36100 0.28216
#
# Static dielectric constant tensor:
#      x y z
#    x 3.392610 0.000000 0.000000 
#    y 0.000000 3.920040 0.000000 
#    z 0.000000 0.000000 3.105540 
# 
# 
# High freq. dielectric constant tensor:
#      x y z
#    x 1.726160 0.000000 0.000000 
#    y 0.000000 1.738530 0.000000 
#    z 0.000000 0.000000 1.691360 
# 
# From -- ./inp_files/31893.got.cif
#   From: 2010.03.12/outbox.cif.g09.slc.cpg/sg51_16_cif.got.tgz:31893.got - 2010.04.16 13:43:02.
