data_PCOD8210980
_publ_section_title
;
Structure prediction by ZEFSAII (Michael W. Deem and Ramdas Pophale) SiO2 
 PCOD8210980
Probable space group: P M M A
;
_chemical_formula_sum "Si O2"
_cell_formula_units_Z 48
_cell_length_a 9.074898
_cell_length_b 9.477026
_cell_length_c 30.911701
_cell_angle_alpha 90.000000
_cell_angle_beta 90.000000
_cell_angle_gamma 90.000000
_cell_volume 2658.500390
_symmetry_space_group_name_H-M "P M M A"
_symmetry_group_IT_number 51
_symmetry_cell_setting 'orthorhombic'
loop_
_space_group_symop_operation_xyz
x,y,z
1/2-x,-y,z
1/2+x,-y,-z
-x,y,-z
-x,-y,-z
1/2+x,y,-z
1/2-x,y,z
x,-y,z
loop_
_atom_site_type_symbol
_atom_site_label
_atom_site_fract_x
_atom_site_fract_y
_atom_site_fract_z
Si Si1 0.419476 0.836647 0.209906
Si Si2 0.077956 0.335190 0.371773
Si Si3 0.079115 0.835215 0.702713
Si Si4 0.083737 0.332091 0.541970
Si Si5 0.421728 0.663014 0.127138
Si Si6 0.083920 0.668131 0.958135
O O1 0.250000 0.800675 0.221153
O O2 0.519931 0.792389 0.250207
O O3 0.475708 0.748316 0.168945
O O4 0.438954 0.000000 0.198354
O O5 0.250000 0.303017 0.375933
O O6 0.046993 0.500000 0.364455
O O7 0.012205 0.251694 0.331851
O O8 0.000338 0.279757 0.415329
O O9 0.250000 0.794329 0.699611
O O10 0.052739 0.000000 0.693960
O O11 0.250000 0.272681 0.542641
O O12 0.084611 0.500000 0.540041
O O13 0.000000 0.270872 0.500000
O O14 0.250000 0.686437 0.118338
O O15 0.459357 0.500000 0.135429
O O16 0.506503 0.723209 0.085434
O O17 0.250000 0.725271 0.959088
O O18 0.079002 0.500000 0.959131
O O19 0.000000 0.729520 0.000000
#
# Coordination Sequence:
#
# PCOD8210980 Si02
#       6
#     8   8   8   8   8   8
#     4   9  18  33  51  69  92 125 161 195 236 288
#     4  10  20  33  51  76 103 131 166 207 249 292
#     4  10  21  36  53  73  98 130 167 205 247 297
#     4   9  16  27  45  70 101 134 166 201 242 289
#     4   9  17  29  46  69  95 121 152 192 235 277
#     4   9  16  26  42  65  93 123 153 186 227 275
#
# _framework density 18.055291
#
# number of rings (size 3 to 8) (size 9 to 14) (size 15 to 20)
#    0.000    2.667    0.000    2.000    0.000    7.333 
#    0.000    1.667    0.000    1.000    0.000    0.000 
#    0.000    0.000    0.000    0.000    0.000    0.000 
#
# Total GULP energy -595276.225191 kJ/mol
# GULP energy per Si atom -12401.588025 kJ/mol
# Density = 1.801420 g / cm^3
# Si number density = 18.055291 Si / 1000 Ang^3
#
#
#
# Elastic Constant Matrix: (Units=GPa)
#
#
# Indices 1 2 3 4 5 6 
#
# 1 127.5424 35.2981 87.9397 0.0000 0.0000 0.0000
# 2 35.2981 33.1513 51.4656 0.0000 0.0000 0.0000
# 3 87.9397 51.4656 173.4058 0.0000 0.0000 0.0000
# 4 0.0000 0.0000 0.0000 -6.3121 0.0000 0.0000
# 5 0.0000 0.0000 0.0000 0.0000 41.9134 0.0000
# 6 0.0000 0.0000 0.0000 0.0000 0.0000 17.3082
#
#
#
# Elastic Compliance Matrix: (Units=1/GPa)
#
#
# Indices 1 2 3 4 5 6 
#
# 1 0.012786 -0.006579 -0.004532 0.000000 0.000000 0.000000
# 2 -0.006579 0.059324 -0.014271 0.000000 0.000000 0.000000
# 3 -0.004532 -0.014271 0.012300 0.000000 0.000000 0.000000
# 4 0.000000 0.000000 0.000000 -0.158425 0.000000 0.000000
# 5 0.000000 0.000000 0.000000 0.000000 0.023859 0.000000
# 6 0.000000 0.000000 0.000000 0.000000 0.000000 0.057776
#
#
# Mechanical properties :
#
#
# Convention : Reuss Voigt Hill
#
# Bulk Modulus (GPa) = 29.71931 75.94512 52.83221
# Shear Modulus (GPa) = 71.84158 21.20830 46.52494
#
# Velocity S-wave (km/s) = 6.31476 3.43101 5.08173
# Velocity P-wave (km/s) = 8.34650 7.60589 7.98479
#
# Compressibility (1/GPa) = 0.03364816
#
# Stress axis : x y z
#
# Youngs Moduli (GPa) = 78.21248 16.85664 81.29871
#
# Poissons Ratio (x) = 0.11089 0.36841
# Poissons Ratio (y) = 0.51454 1.16018
# Poissons Ratio (z) = 0.35442 0.24055
#
# Static dielectric constant tensor:
#      x y z
#    x 3.502640 0.000000 0.000000 
#    y 0.000000 2.941920 0.000000 
#    z 0.000000 0.000000 3.515620 
# 
# 
# High freq. dielectric constant tensor:
#      x y z
#    x 1.709870 0.000000 0.000000 
#    y 0.000000 1.652200 0.000000 
#    z 0.000000 0.000000 1.714560 
# 
# From -- ./inp_files/34530.got.cif
#   From: 2010.03.12/outbox.cif.g09.slc.cpg/sg51_18_cif.got.tgz:34530.got - 2010.04.16 13:43:02.
