data_PCOD8210731
_publ_section_title
;
Structure prediction by ZEFSAII (Michael W. Deem and Ramdas Pophale) SiO2 
 PCOD8210731
Probable space group: P M M A
;
_chemical_formula_sum "Si O2"
_cell_formula_units_Z 40
_cell_length_a 9.016030
_cell_length_b 9.005174
_cell_length_c 26.052850
_cell_angle_alpha 90.000000
_cell_angle_beta 90.000000
_cell_angle_gamma 90.000000
_cell_volume 2115.254832
_symmetry_space_group_name_H-M "P M M A"
_symmetry_group_IT_number 51
_symmetry_cell_setting 'orthorhombic'
loop_
_space_group_symop_operation_xyz
x,y,z
1/2-x,-y,z
1/2+x,-y,-z
-x,y,-z
-x,-y,-z
1/2+x,y,-z
1/2-x,y,z
x,-y,z
loop_
_atom_site_type_symbol
_atom_site_label
_atom_site_fract_x
_atom_site_fract_y
_atom_site_fract_z
Si Si1 0.923012 0.173272 0.347292
Si Si2 0.417510 0.323113 0.848632
Si Si3 0.582763 0.176788 0.550074
Si Si4 0.418744 0.323734 0.252931
Si Si5 0.917605 0.322900 0.949479
O O1 0.750000 0.207728 0.351052
O O2 0.998224 0.232714 0.399330
O O3 0.990816 0.261385 0.300316
O O4 0.955088 0.000000 0.339260
O O5 0.250000 0.261290 0.846729
O O6 0.416875 0.500000 0.849497
O O7 0.506349 0.264030 0.799224
O O8 0.497483 0.261205 0.899522
O O9 0.500000 0.241233 0.500000
O O10 0.750000 0.238801 0.551040
O O11 0.582434 0.000000 0.548032
O O12 0.250000 0.266044 0.254818
O O13 0.425008 0.500000 0.255033
O O14 0.750000 0.262024 0.949066
O O15 0.917846 0.500000 0.949330
O O16 0.000000 0.261974 0.000000
#
# Coordination Sequence:
#
# PCOD8210731 Si02
#       5
#     8   8   8   8   8
#     4  10  20  33  50  73  99 126 158 196 236 278
#     4   9  16  26  40  58  82 114 151 189 230 277
#     4   9  16  27  45  69  96 124 154 190 232 277
#     4  10  20  33  49  69  94 126 162 197 235 282
#     4   9  15  22  33  51  77 109 145 185 229 276
#
# _framework density 18.910252
#
# number of rings (size 3 to 8) (size 9 to 14) (size 15 to 20)
#    0.000    2.600    0.000    3.000    0.000    9.600 
#    0.000    0.000    0.000    0.600    0.000    0.000 
#    0.000    0.800    0.000    3.000    0.000    6.600 
#
# Total GULP energy -496019.004740 kJ/mol
# GULP energy per Si atom -12400.475119 kJ/mol
# Density = 1.886721 g / cm^3
# Si number density = 18.910252 Si / 1000 Ang^3
#
#
#
# Elastic Constant Matrix: (Units=GPa)
#
#
# Indices 1 2 3 4 5 6 
#
# 1 147.2818 11.0777 73.1258 0.0000 0.0000 0.0000
# 2 11.0777 4.8655 11.7715 0.0000 0.0000 0.0000
# 3 73.1258 11.7715 180.7621 0.0000 0.0000 0.0000
# 4 0.0000 0.0000 0.0000 57.4834 0.0000 0.0000
# 5 0.0000 0.0000 0.0000 0.0000 48.2612 0.0000
# 6 0.0000 0.0000 0.0000 0.0000 0.0000 15.1477
#
#
#
# Elastic Compliance Matrix: (Units=1/GPa)
#
#
# Indices 1 2 3 4 5 6 
#
# 1 0.009262 -0.014271 -0.002818 0.000000 0.000000 0.000000
# 2 -0.014271 0.265956 -0.011546 0.000000 0.000000 0.000000
# 3 -0.002818 -0.011546 0.007424 0.000000 0.000000 0.000000
# 4 0.000000 0.000000 0.000000 0.017396 0.000000 0.000000
# 5 0.000000 0.000000 0.000000 0.000000 0.020721 0.000000
# 6 0.000000 0.000000 0.000000 0.000000 0.000000 0.066017
#
#
# Mechanical properties :
#
#
# Convention : Reuss Voigt Hill
#
# Bulk Modulus (GPa) = 4.43710 58.31773 31.37742
# Shear Modulus (GPa) = 9.63078 39.97408 24.80243
#
# Velocity S-wave (km/s) = 2.25919 4.60269 3.62551
# Velocity P-wave (km/s) = 3.02601 7.69106 5.84419
#
# Compressibility (1/GPa) = 0.22537231
#
# Stress axis : x y z
#
# Youngs Moduli (GPa) = 107.96820 3.76002 134.70096
#
# Poissons Ratio (x) = 0.05366 0.37952
# Poissons Ratio (y) = 1.54081 1.55530
# Poissons Ratio (z) = 0.30420 0.04341
#
# Static dielectric constant tensor:
#      x y z
#    x 3.816260 0.000000 0.000000 
#    y 0.000000 2.736520 0.000000 
#    z 0.000000 0.000000 3.707120 
# 
# 
# High freq. dielectric constant tensor:
#      x y z
#    x 1.757990 0.000000 0.000000 
#    y 0.000000 1.653290 0.000000 
#    z 0.000000 0.000000 1.756380 
# 
# From -- ./inp_files/31364.got.cif
#   From: 2010.03.12/outbox.cif.g09.slc.cpg/sg51_16_cif.got.tgz:31364.got - 2010.04.16 13:43:02.
