data_PCOD8210144
_publ_section_title
;
Structure prediction by ZEFSAII (Michael W. Deem and Ramdas Pophale) SiO2 
 PCOD8210144
Probable space group: P M M A
;
_chemical_formula_sum "Si O2"
_cell_formula_units_Z 48
_cell_length_a 17.106976
_cell_length_b 8.825849
_cell_length_c 17.029187
_cell_angle_alpha 90.000000
_cell_angle_beta 90.000000
_cell_angle_gamma 90.000000
_cell_volume 2571.127737
_symmetry_space_group_name_H-M "P M M A"
_symmetry_group_IT_number 51
_symmetry_cell_setting 'orthorhombic'
loop_
_space_group_symop_operation_xyz
x,y,z
1/2-x,-y,z
1/2+x,-y,-z
-x,y,-z
-x,-y,-z
1/2+x,y,-z
1/2-x,y,z
x,-y,z
loop_
_atom_site_type_symbol
_atom_site_label
_atom_site_fract_x
_atom_site_fract_y
_atom_site_fract_z
Si Si1 0.571353 0.679293 0.604363
Si Si2 0.069089 0.819749 0.102977
Si Si3 0.897860 0.179958 0.068833
Si Si4 0.838490 0.179913 0.747595
Si Si5 0.250000 0.680988 0.664037
Si Si6 0.750000 0.180882 0.164928
Si Si7 0.100775 0.320836 0.570033
O O1 0.580447 0.500000 0.615253
O O2 0.619928 0.764461 0.669666
O O3 0.480501 0.729965 0.610446
O O4 0.604758 0.733977 0.520190
O O5 0.116991 0.752278 0.176295
O O6 0.979086 0.763619 0.107682
O O7 0.071393 0.000000 0.105049
O O8 0.107558 0.762240 0.021339
O O9 0.825691 0.243932 0.118838
O O10 0.895376 0.000000 0.068693
O O11 0.750000 0.240915 0.749113
O O12 0.840390 0.000000 0.749087
O O13 0.250000 0.500000 0.668305
O O14 0.250000 0.748859 0.749804
O O15 0.326192 0.744634 0.618631
O O16 0.750000 0.000000 0.170771
O O17 0.103866 0.500000 0.569158
#
# Coordination Sequence:
#
# PCOD8210144 Si02
#       7
#     8   8   8   8   4   4   8
#     4   9  18  35  56  75  95 126 168 209 243 284
#     4   8  15  29  47  67  96 133 163 194 240 292
#     4   8  15  28  47  70  95 126 165 202 238 281
#     4  10  21  32  47  75 106 131 160 200 248 297
#     4  10  20  34  52  73 100 134 162 193 246 304
#     4  10  20  30  48  79 102 120 160 213 244 276
#     4   8  17  34  55  75  95 126 170 206 237 290
#
# _framework density 18.668851
#
# number of rings (size 3 to 8) (size 9 to 14) (size 15 to 20)
#    0.000    3.167    0.000    2.000    4.667    0.333 
#    0.000    2.500    0.000    1.000    0.000    2.333 
#    0.000    0.000    0.000    0.000    0.000    0.000 
#
# Total GULP energy -594965.302994 kJ/mol
# GULP energy per Si atom -12395.110479 kJ/mol
# Density = 1.862636 g / cm^3
# Si number density = 18.668851 Si / 1000 Ang^3
#
#
#
# Elastic Constant Matrix: (Units=GPa)
#
#
# Indices 1 2 3 4 5 6 
#
# 1 185.1938 15.7341 121.5486 0.0000 0.0000 0.0000
# 2 15.7341 7.1033 14.3694 0.0000 0.0000 0.0000
# 3 121.5486 14.3694 167.1737 0.0000 0.0000 0.0000
# 4 0.0000 0.0000 0.0000 -50.2915 0.0000 0.0000
# 5 0.0000 0.0000 0.0000 0.0000 40.1420 0.0000
# 6 0.0000 0.0000 0.0000 0.0000 0.0000 16.4012
#
#
#
# Elastic Compliance Matrix: (Units=1/GPa)
#
#
# Indices 1 2 3 4 5 6 
#
# 1 0.010863 -0.009786 -0.007057 0.000000 0.000000 0.000000
# 2 -0.009786 0.179226 -0.008290 0.000000 0.000000 0.000000
# 3 -0.007057 -0.008290 0.011825 0.000000 0.000000 0.000000
# 4 0.000000 0.000000 0.000000 -0.019884 0.000000 0.000000
# 5 0.000000 0.000000 0.000000 0.000000 0.024912 0.000000
# 6 0.000000 0.000000 0.000000 0.000000 0.000000 0.060971
#
#
# Mechanical properties :
#
#
# Convention : Reuss Voigt Hill
#
# Bulk Modulus (GPa) = 6.59423 73.64167 40.11795
# Shear Modulus (GPa) = 13.56011 15.10493 14.33252
#
# Velocity S-wave (km/s) = 2.69801 2.84755 2.77379
# Velocity P-wave (km/s) = 3.63945 7.09530 5.63866
#
# Compressibility (1/GPa) = 0.15164781
#
# Stress axis : x y z
#
# Youngs Moduli (GPa) = 92.05597 5.57955 84.56343
#
# Poissons Ratio (x) = 0.05460 0.59677
# Poissons Ratio (y) = 0.90086 0.70104
# Poissons Ratio (z) = 0.64965 0.04626
#
# Static dielectric constant tensor:
#      x y z
#    x 3.965900 0.000000 0.000000 
#    y 0.000000 2.808070 0.000000 
#    z 0.000000 0.000000 3.649100 
# 
# 
# High freq. dielectric constant tensor:
#      x y z
#    x 1.739490 0.000000 0.000000 
#    y 0.000000 1.661740 0.000000 
#    z 0.000000 0.000000 1.735960 
# 
# From -- ./inp_files/24106.got.cif
#   From: 2010.03.12/outbox.cif.g09.slc.cpg/sg51_13_cif.got.tgz:24106.got - 2010.04.16 13:43:02.
