data_PCOD8210576
_publ_section_title
;
Structure prediction by ZEFSAII (Michael W. Deem and Ramdas Pophale) SiO2 
 PCOD8210576
Probable space group: P M M A
;
_chemical_formula_sum "Si O2"
_cell_formula_units_Z 56
_cell_length_a 20.240195
_cell_length_b 8.933410
_cell_length_c 15.272431
_cell_angle_alpha 90.000000
_cell_angle_beta 90.000000
_cell_angle_gamma 90.000000
_cell_volume 2761.468734
_symmetry_space_group_name_H-M "P M M A"
_symmetry_group_IT_number 51
_symmetry_cell_setting 'orthorhombic'
loop_
_space_group_symop_operation_xyz
x,y,z
1/2-x,-y,z
1/2+x,-y,-z
-x,y,-z
-x,-y,-z
1/2+x,y,-z
1/2-x,y,z
x,-y,z
loop_
_atom_site_type_symbol
_atom_site_label
_atom_site_fract_x
_atom_site_fract_y
_atom_site_fract_z
Si Si1 0.443518 0.324363 0.432770
Si Si2 0.674251 0.175227 0.956708
Si Si3 0.958864 0.322663 0.912244
Si Si4 0.326251 0.337464 0.870502
Si Si5 0.487389 0.832626 0.265160
Si Si6 0.175663 0.171554 0.518376
Si Si7 0.865155 0.163670 0.292071
O O1 0.500000 0.263985 0.500000
O O2 0.451983 0.500000 0.420753
O O3 0.443095 0.252191 0.336173
O O4 0.371592 0.286211 0.469447
O O5 0.750000 0.225750 0.931486
O O6 0.659390 0.211538 0.057791
O O7 0.665909 0.000000 0.940120
O O8 0.617118 0.263801 0.905412
O O9 0.957599 0.500000 0.904735
O O10 0.994554 0.253714 0.827406
O O11 0.000000 0.273385 0.000000
O O12 0.250000 0.358470 0.855530
O O13 0.356974 0.500000 0.898677
O O14 0.356305 0.290558 0.779238
O O15 0.557667 0.842783 0.312778
O O16 0.459278 0.000000 0.247671
O O17 0.250000 0.196397 0.483886
O O18 0.174219 0.208854 0.621342
O O19 0.152665 0.000000 0.502454
O O20 0.840375 0.000000 0.258677
#
# Coordination Sequence:
#
# PCOD8210576 Si02
#       7
#     8   8   8   8   8   8   8
#     4  11  23  40  63  90 122 161 203 251 304 362
#     4  10  21  38  60  84 113 155 206 256 307 365
#     4  11  24  41  62  92 129 164 202 255 312 369
#     4  10  20  32  49  77 114 155 196 241 299 364
#     4  11  23  39  63  90 118 158 206 254 303 363
#     4  10  21  38  61  89 122 160 203 253 307 364
#     4  10  20  34  55  83 116 154 196 245 300 362
#
# _framework density 20.279064000000002
#
# number of rings (size 3 to 8) (size 9 to 14) (size 15 to 20)
#    0.000    1.571    1.429    3.429    0.000    8.286 
#    0.000    0.714    0.000    4.286    0.000    0.000 
#    0.000    0.000    0.000    0.000    0.000    0.000 
#
# Total GULP energy -694186.470770 kJ/mol
# GULP energy per Si atom -12396.186978 kJ/mol
# Density = 2.023291 g / cm^3
# Si number density = 20.279064 Si / 1000 Ang^3
#
#
#
# Elastic Constant Matrix: (Units=GPa)
#
#
# Indices 1 2 3 4 5 6 
#
# 1 219.5291 -23.3098 7.3017 0.0000 0.0000 0.0000
# 2 -23.3098 115.3363 45.5912 0.0000 0.0000 0.0000
# 3 7.3017 45.5912 91.3947 0.0000 0.0000 0.0000
# 4 0.0000 0.0000 0.0000 32.5193 0.0000 0.0000
# 5 0.0000 0.0000 0.0000 0.0000 30.2294 0.0000
# 6 0.0000 0.0000 0.0000 0.0000 0.0000 30.3631
#
#
#
# Elastic Compliance Matrix: (Units=1/GPa)
#
#
# Indices 1 2 3 4 5 6 
#
# 1 0.004737 0.001379 -0.001066 0.000000 0.000000 0.000000
# 2 0.001379 0.011201 -0.005698 0.000000 0.000000 0.000000
# 3 -0.001066 -0.005698 0.013869 0.000000 0.000000 0.000000
# 4 0.000000 0.000000 0.000000 0.030751 0.000000 0.000000
# 5 0.000000 0.000000 0.000000 0.000000 0.033080 0.000000
# 6 0.000000 0.000000 0.000000 0.000000 0.000000 0.032935
#
#
# Mechanical properties :
#
#
# Convention : Reuss Voigt Hill
#
# Bulk Modulus (GPa) = 52.52943 53.93626 53.23285
# Shear Modulus (GPa) = 34.79726 45.06748 39.93237
#
# Velocity S-wave (km/s) = 4.14686 4.71931 4.44232
# Velocity P-wave (km/s) = 6.99200 7.50671 7.25392
#
# Compressibility (1/GPa) = 0.01903695
#
# Stress axis : x y z
#
# Youngs Moduli (GPa) = 211.10050 89.27580 72.10320
#
# Poissons Ratio (x) = -0.12310 0.07688
# Poissons Ratio (y) = -0.29108 0.41083
# Poissons Ratio (z) = 0.22509 0.50867
#
# Static dielectric constant tensor:
#      x y z
#    x 3.826300 0.000000 0.000000 
#    y 0.000000 4.324260 0.000000 
#    z 0.000000 0.000000 2.249740 
# 
# 
# High freq. dielectric constant tensor:
#      x y z
#    x 1.793760 0.000000 0.000000 
#    y 0.000000 1.796500 0.000000 
#    z 0.000000 0.000000 1.774180 
# 
# From -- ./inp_files/25729.got.cif
#   From: 2010.03.12/outbox.cif.g09.slc.cpg/sg51_13_cif.got.tgz:25729.got - 2010.04.16 13:43:02.
