data_PCOD8210529
_publ_section_title
;
Structure prediction by ZEFSAII (Michael W. Deem and Ramdas Pophale) SiO2 
 PCOD8210529
Probable space group: P M M A
;
_chemical_formula_sum "Si O2"
_cell_formula_units_Z 56
_cell_length_a 23.541343
_cell_length_b 9.190592
_cell_length_c 14.028882
_cell_angle_alpha 90.000000
_cell_angle_beta 90.000000
_cell_angle_gamma 90.000000
_cell_volume 3035.273178
_symmetry_space_group_name_H-M "P M M A"
_symmetry_group_IT_number 51
_symmetry_cell_setting 'orthorhombic'
loop_
_space_group_symop_operation_xyz
x,y,z
1/2-x,-y,z
1/2+x,-y,-z
-x,y,-z
-x,-y,-z
1/2+x,y,-z
1/2-x,y,z
x,-y,z
loop_
_atom_site_type_symbol
_atom_site_label
_atom_site_fract_x
_atom_site_fract_y
_atom_site_fract_z
Si Si1 0.979786 0.334901 0.717079
Si Si2 0.314883 0.668789 0.980189
Si Si3 0.314174 0.830285 0.791152
Si Si4 0.902623 0.331623 0.535169
Si Si5 0.868524 0.330367 0.823706
Si Si6 0.916611 0.828964 0.341590
Si Si7 0.315952 0.834713 0.345344
O O1 0.001622 0.500000 0.728394
O O2 0.950917 0.313244 0.614380
O O3 0.934346 0.297112 0.799925
O O4 0.032727 0.225528 0.727592
O O5 0.250000 0.709491 0.006432
O O6 0.320781 0.500000 0.956847
O O7 0.335668 0.753463 0.887100
O O8 0.355487 0.713729 0.067723
O O9 0.250000 0.780497 0.764089
O O10 0.356002 0.788762 0.704989
O O11 0.316476 0.000000 0.812212
O O12 0.889356 0.500000 0.515320
O O13 0.924180 0.256559 0.439569
O O14 0.845538 0.253267 0.569743
O O15 0.854921 0.500000 0.804506
O O16 0.827478 0.237567 0.756627
O O17 0.922500 0.000000 0.359403
O O18 0.250000 0.830737 0.368120
O O19 0.338907 0.000000 0.344068
#
# Coordination Sequence:
#
# PCOD8210529 Si02
#       7
#     8   8   8   8   8   8   8
#     4   9  19  35  53  75 104 136 169 206 252 307
#     4   9  17  31  54  81 104 130 169 213 253 297
#     4   9  20  38  55  73 101 134 168 209 256 305
#     4  10  21  36  54  75 101 136 176 215 256 305
#     4   9  18  33  53  77 106 138 170 208 255 303
#     4  11  22  35  54  77 100 132 172 214 262 308
#     4  10  20  32  48  75 109 140 171 209 254 305
#
# _framework density 18.449739999999998
#
# number of rings (size 3 to 8) (size 9 to 14) (size 15 to 20)
#    0.000    2.429    0.000    3.000    0.000    8.571 
#    0.000    3.571    0.000    4.286    0.000    0.000 
#    0.000    0.000    0.000    0.000    0.000    0.000 
#
# Total GULP energy -694495.188159 kJ/mol
# GULP energy per Si atom -12401.699789 kJ/mol
# Density = 1.840775 g / cm^3
# Si number density = 18.449740 Si / 1000 Ang^3
#
#
#
# Elastic Constant Matrix: (Units=GPa)
#
#
# Indices 1 2 3 4 5 6 
#
# 1 82.3815 42.7006 27.4058 0.0000 0.0000 0.0000
# 2 42.7006 83.2834 28.2453 0.0000 0.0000 0.0000
# 3 27.4058 28.2453 61.8997 0.0000 0.0000 0.0000
# 4 0.0000 0.0000 0.0000 27.7572 0.0000 0.0000
# 5 0.0000 0.0000 0.0000 0.0000 20.3148 0.0000
# 6 0.0000 0.0000 0.0000 0.0000 0.0000 31.4737
#
#
#
# Elastic Compliance Matrix: (Units=1/GPa)
#
#
# Indices 1 2 3 4 5 6 
#
# 1 0.017453 -0.007486 -0.004311 0.000000 0.000000 0.000000
# 2 -0.007486 0.017417 -0.004633 0.000000 0.000000 0.000000
# 3 -0.004311 -0.004633 0.020178 0.000000 0.000000 0.000000
# 4 0.000000 0.000000 0.000000 0.036027 0.000000 0.000000
# 5 0.000000 0.000000 0.000000 0.000000 0.049225 0.000000
# 6 0.000000 0.000000 0.000000 0.000000 0.000000 0.031773
#
#
# Mechanical properties :
#
#
# Convention : Reuss Voigt Hill
#
# Bulk Modulus (GPa) = 45.07139 47.14090 46.10614
# Shear Modulus (GPa) = 23.54834 24.52333 24.03584
#
# Velocity S-wave (km/s) = 3.57648 3.64977 3.61331
# Velocity P-wave (km/s) = 6.44494 6.58540 6.51555
#
# Compressibility (1/GPa) = 0.02218702
#
# Stress axis : x y z
#
# Youngs Moduli (GPa) = 57.29575 57.41580 49.55901
#
# Poissons Ratio (x) = 0.42984 0.21366
# Poissons Ratio (y) = 0.42894 0.22960
# Poissons Ratio (z) = 0.24702 0.26600
#
# Static dielectric constant tensor:
#      x y z
#    x 3.425800 0.000000 0.000000 
#    y 0.000000 3.476710 0.000000 
#    z 0.000000 0.000000 3.295570 
# 
# 
# High freq. dielectric constant tensor:
#      x y z
#    x 1.712840 0.000000 0.000000 
#    y 0.000000 1.720010 0.000000 
#    z 0.000000 0.000000 1.703330 
# 
# From -- ./inp_files/25617.got.cif
#   From: 2010.03.12/outbox.cif.g09.slc.cpg/sg51_13_cif.got.tgz:25617.got - 2010.04.16 13:43:02.
