data_PCOD8210695
_publ_section_title
;
Structure prediction by ZEFSAII (Michael W. Deem and Ramdas Pophale) SiO2 
 PCOD8210695
Probable space group: P M M A
;
_chemical_formula_sum "Si O2"
_cell_formula_units_Z 48
_cell_length_a 9.007408
_cell_length_b 17.368214
_cell_length_c 15.128765
_cell_angle_alpha 90.000000
_cell_angle_beta 90.000000
_cell_angle_gamma 90.000000
_cell_volume 2366.783176
_symmetry_space_group_name_H-M "P M M A"
_symmetry_group_IT_number 51
_symmetry_cell_setting 'orthorhombic'
loop_
_space_group_symop_operation_xyz
x,y,z
1/2-x,-y,z
1/2+x,-y,-z
-x,y,-z
-x,-y,-z
1/2+x,y,-z
1/2-x,y,z
x,-y,z
loop_
_atom_site_type_symbol
_atom_site_label
_atom_site_fract_x
_atom_site_fract_y
_atom_site_fract_z
Si Si1 0.085894 0.389528 0.916580
Si Si2 0.072821 0.331028 0.412329
Si Si3 0.918351 0.208346 0.088446
Si Si4 0.573557 0.799728 0.724137
Si Si5 0.420856 0.909348 0.590203
Si Si6 0.590954 0.500000 0.612250
Si Si7 0.091304 0.500000 0.186268
O O1 0.250000 0.423783 0.916021
O O2 0.088335 0.298997 0.919101
O O3 0.999639 0.421985 0.832140
O O4 0.000000 0.424274 0.000000
O O5 0.250000 0.331981 0.420384
O O6 0.027728 0.280054 0.326132
O O7 0.006579 0.419180 0.408289
O O8 0.000000 0.292735 0.500000
O O9 0.750000 0.174724 0.093190
O O10 0.007966 0.190918 0.177607
O O11 0.000000 0.175051 0.000000
O O12 0.750000 0.806674 0.730876
O O13 0.507882 0.870925 0.670493
O O14 0.500000 0.883930 0.500000
O O15 0.250000 0.881803 0.587478
O O16 0.432045 0.000000 0.604867
O O17 0.750000 0.500000 0.561395
O O18 0.628775 0.500000 0.713208
O O19 0.250000 0.500000 0.135375
#
# Coordination Sequence:
#
# PCOD8210695 Si02
#       7
#     8   8   8   8   8   4   4
#     4  10  20  33  48  68  95 128 170 223 282 340
#     4  10  21  36  54  77 106 143 187 234 282 333
#     4  10  21  37  57  80 109 145 186 233 283 337
#     4  11  22  36  58  87 118 152 192 236 284 342
#     4  10  21  38  61  90 124 159 194 234 284 342
#     4   9  19  35  51  68  97 139 183 226 275 327
#     4  11  20  31  48  66  90 127 172 224 281 343
#
# _framework density 20.280691000000001
#
# number of rings (size 3 to 8) (size 9 to 14) (size 15 to 20)
#    0.000    1.833    0.000    4.250    0.000    7.000 
#    0.000    1.667    0.000    0.500    0.000    0.000 
#    0.000    0.000    0.000    0.000    0.000    0.000 
#
# Total GULP energy -594777.954573 kJ/mol
# GULP energy per Si atom -12391.207387 kJ/mol
# Density = 2.023453 g / cm^3
# Si number density = 20.280691 Si / 1000 Ang^3
#
#
#
# Elastic Constant Matrix: (Units=GPa)
#
#
# Indices 1 2 3 4 5 6 
#
# 1 142.4343 29.8039 70.2072 0.0000 0.0000 0.0000
# 2 29.8039 46.7586 34.1209 0.0000 0.0000 0.0000
# 3 70.2072 34.1209 158.1457 0.0000 0.0000 0.0000
# 4 0.0000 0.0000 0.0000 43.5622 0.0000 0.0000
# 5 0.0000 0.0000 0.0000 0.0000 37.5572 0.0000
# 6 0.0000 0.0000 0.0000 0.0000 0.0000 26.5924
#
#
#
# Elastic Compliance Matrix: (Units=1/GPa)
#
#
# Indices 1 2 3 4 5 6 
#
# 1 0.009451 -0.003516 -0.003437 0.000000 0.000000 0.000000
# 2 -0.003516 0.026691 -0.004198 0.000000 0.000000 0.000000
# 3 -0.003437 -0.004198 0.008755 0.000000 0.000000 0.000000
# 4 0.000000 0.000000 0.000000 0.022956 0.000000 0.000000
# 5 0.000000 0.000000 0.000000 0.000000 0.026626 0.000000
# 6 0.000000 0.000000 0.000000 0.000000 0.000000 0.037605
#
#
# Mechanical properties :
#
#
# Convention : Reuss Voigt Hill
#
# Bulk Modulus (GPa) = 44.25782 68.40028 56.32905
# Shear Modulus (GPa) = 30.88035 35.75614 33.31824
#
# Velocity S-wave (km/s) = 3.90634 4.20344 4.05761
# Velocity P-wave (km/s) = 6.49739 7.57354 7.05601
#
# Compressibility (1/GPa) = 0.02259487
#
# Stress axis : x y z
#
# Youngs Moduli (GPa) = 105.81417 37.46624 114.22322
#
# Poissons Ratio (x) = 0.13172 0.39258
# Poissons Ratio (y) = 0.37202 0.47950
# Poissons Ratio (z) = 0.36367 0.15728
#
# Static dielectric constant tensor:
#      x y z
#    x 4.047560 0.000000 0.000000 
#    y 0.000000 3.493450 0.000000 
#    z 0.000000 0.000000 3.825780 
# 
# 
# High freq. dielectric constant tensor:
#      x y z
#    x 1.798820 0.000000 0.000000 
#    y 0.000000 1.769630 0.000000 
#    z 0.000000 0.000000 1.796130 
# 
# From -- ./inp_files/21220.got.cif
#   From: 2010.03.12/outbox.cif.g09.slc.cpg/sg51_11_cif.got.tgz:21220.got - 2010.04.16 13:43:02.
