data_PCOD8210281
_publ_section_title
;
Structure prediction by ZEFSAII (Michael W. Deem and Ramdas Pophale) SiO2 
 PCOD8210281
Probable space group: P M M A
;
_chemical_formula_sum "Si O2"
_cell_formula_units_Z 32
_cell_length_a 9.019684
_cell_length_b 13.205717
_cell_length_c 14.509705
_cell_angle_alpha 90.000000
_cell_angle_beta 90.000000
_cell_angle_gamma 90.000000
_cell_volume 1728.271194
_symmetry_space_group_name_H-M "P M M A"
_symmetry_group_IT_number 51
_symmetry_cell_setting 'orthorhombic'
loop_
_space_group_symop_operation_xyz
x,y,z
1/2-x,-y,z
1/2+x,-y,-z
-x,y,-z
-x,-y,-z
1/2+x,y,-z
1/2-x,y,z
x,-y,z
loop_
_atom_site_type_symbol
_atom_site_label
_atom_site_fract_x
_atom_site_fract_y
_atom_site_fract_z
Si Si1 0.425037 0.287302 0.736101
Si Si2 0.076744 0.114720 0.595101
Si Si3 0.912317 0.384412 0.583732
Si Si4 0.424175 0.616227 0.097205
O O1 0.250000 0.295639 0.750229
O O2 0.472437 0.184448 0.681979
O O3 0.487079 0.378857 0.674456
O O4 0.504682 0.300714 0.834220
O O5 0.250000 0.126510 0.578301
O O6 0.000000 0.148289 0.500000
O O7 0.032318 0.000000 0.621284
O O8 0.750000 0.332898 0.597278
O O9 0.886431 0.500000 0.557973
O O10 0.000000 0.329683 0.500000
O O11 0.250000 0.637029 0.089347
O O12 0.454307 0.500000 0.129271
O O13 0.500000 0.636347 0.000000
#
# Coordination Sequence:
#
# PCOD8210281 Si02
#       4
#     8   8   8   8
#     4  11  21  32  51  76 101 132 169 210 255 303
#     4   9  19  35  53  75 104 137 173 213 257 304
#     4  10  20  32  45  65  97 134 168 203 245 296
#     4  10  21  37  56  78 105 136 170 210 255 304
#
# _framework density 18.515613999999999
#
# number of rings (size 3 to 8) (size 9 to 14) (size 15 to 20)
#    0.000    2.000    0.000    3.750    0.000   10.000 
#    0.000    0.000    0.000    0.750    0.000    0.000 
#    0.000    0.000    0.000    0.000    0.000    0.000 
#
# Total GULP energy -396618.895734 kJ/mol
# GULP energy per Si atom -12394.340492 kJ/mol
# Density = 1.847347 g / cm^3
# Si number density = 18.515614 Si / 1000 Ang^3
#
#
#
# Elastic Constant Matrix: (Units=GPa)
#
#
# Indices 1 2 3 4 5 6 
#
# 1 115.2653 49.9736 71.1700 0.0000 0.0000 0.0000
# 2 49.9736 85.7001 57.7875 0.0000 0.0000 0.0000
# 3 71.1700 57.7875 142.6694 0.0000 0.0000 0.0000
# 4 0.0000 0.0000 0.0000 87.3835 0.0000 0.0000
# 5 0.0000 0.0000 0.0000 0.0000 39.1969 0.0000
# 6 0.0000 0.0000 0.0000 0.0000 0.0000 12.9942
#
#
#
# Elastic Compliance Matrix: (Units=1/GPa)
#
#
# Indices 1 2 3 4 5 6 
#
# 1 0.013777 -0.004677 -0.004978 0.000000 0.000000 0.000000
# 2 -0.004677 0.017641 -0.004812 0.000000 0.000000 0.000000
# 3 -0.004978 -0.004812 0.011442 0.000000 0.000000 0.000000
# 4 0.000000 0.000000 0.000000 0.011444 0.000000 0.000000
# 5 0.000000 0.000000 0.000000 0.000000 0.025512 0.000000
# 6 0.000000 0.000000 0.000000 0.000000 0.000000 0.076958
#
#
# Mechanical properties :
#
#
# Convention : Reuss Voigt Hill
#
# Bulk Modulus (GPa) = 71.81451 77.94411 74.87931
# Shear Modulus (GPa) = 26.26744 38.89516 32.58130
#
# Velocity S-wave (km/s) = 3.77060 4.58828 4.19939
# Velocity P-wave (km/s) = 7.60439 8.38198 8.00263
#
# Compressibility (1/GPa) = 0.01392476
#
# Stress axis : x y z
#
# Youngs Moduli (GPa) = 72.58399 56.68717 87.39898
#
# Poissons Ratio (x) = 0.26512 0.43510
# Poissons Ratio (y) = 0.33947 0.42058
# Poissons Ratio (z) = 0.36135 0.27279
#
# Static dielectric constant tensor:
#      x y z
#    x 3.770410 0.000000 0.000000 
#    y 0.000000 3.364550 0.000000 
#    z 0.000000 0.000000 3.387140 
# 
# 
# High freq. dielectric constant tensor:
#      x y z
#    x 1.735540 0.000000 0.000000 
#    y 0.000000 1.698050 0.000000 
#    z 0.000000 0.000000 1.707300 
# 
# From -- ./inp_files/13695.got.cif
#   From: 2010.03.12/outbox.cif.g09.slc.cpg/sg51_7_cif.got.tgz:13695.got - 2010.04.16 13:43:02.
