data_PCOD8210251
_publ_section_title
;
Structure prediction by ZEFSAII (Michael W. Deem and Ramdas Pophale) SiO2 
 PCOD8210251
Probable space group: P M M A
;
_chemical_formula_sum "Si O2"
_cell_formula_units_Z 64
_cell_length_a 9.103602
_cell_length_b 15.393396
_cell_length_c 30.100964
_cell_angle_alpha 90.000000
_cell_angle_beta 90.000000
_cell_angle_gamma 90.000000
_cell_volume 4218.209144
_symmetry_space_group_name_H-M "P M M A"
_symmetry_group_IT_number 51
_symmetry_cell_setting 'orthorhombic'
loop_
_space_group_symop_operation_xyz
x,y,z
1/2-x,-y,z
1/2+x,-y,-z
-x,y,-z
-x,-y,-z
1/2+x,y,-z
1/2-x,y,z
x,-y,z
loop_
_atom_site_type_symbol
_atom_site_label
_atom_site_fract_x
_atom_site_fract_y
_atom_site_fract_z
Si Si1 0.077852 0.898532 0.631946
Si Si2 0.075693 0.096726 0.861709
Si Si3 0.415974 0.407606 0.212901
Si Si4 0.079698 0.766313 0.306418
Si Si5 0.085222 0.776915 0.201289
Si Si6 0.084113 0.896755 0.457015
Si Si7 0.921309 0.595835 0.302726
Si Si8 0.087804 0.896607 0.958537
O O1 0.250000 0.878976 0.628848
O O2 0.006666 0.846414 0.672331
O O3 0.003036 0.866076 0.586503
O O4 0.047130 0.000000 0.640451
O O5 0.250000 0.095676 0.863635
O O6 0.017035 0.127592 0.910406
O O7 0.025953 0.159790 0.822827
O O8 0.016729 0.000000 0.850964
O O9 0.250000 0.398819 0.233560
O O10 0.428086 0.500000 0.186249
O O11 0.441377 0.321867 0.182743
O O12 0.535957 0.409368 0.251295
O O13 0.250000 0.771340 0.319625
O O14 0.054947 0.775360 0.253796
O O15 0.014238 0.674485 0.324747
O O16 0.250000 0.808821 0.190976
O O17 0.250000 0.859701 0.455774
O O18 0.000000 0.858861 0.500000
O O19 0.087509 0.000000 0.459567
O O20 0.750000 0.618522 0.306901
O O21 0.954033 0.500000 0.324357
O O22 0.250000 0.856834 0.961947
O O23 0.093868 0.000000 0.962156
O O24 0.000000 0.856029 0.000000
#
# Coordination Sequence:
#
# PCOD8210251 Si02
#       8
#     8   8   8   8   8   8   8   8
#     4  10  20  32  45  62  85 114 148 183 217 253
#     4   9  18  30  41  55  79 110 139 166 199 239
#     4   8  14  26  42  58  78 103 130 164 208 252
#     4  10  20  32  44  59  83 115 148 180 212 248
#     4   9  18  29  41  59  80 106 141 174 202 236
#     4   9  16  27  44  64  85 109 138 174 216 258
#     4   9  16  26  42  63  83 103 132 172 215 256
#     4   8  14  25  40  57  75  96 125 161 201 242
#
# _framework density 15.172314999999999
#
# number of rings (size 3 to 8) (size 9 to 14) (size 15 to 20)
#    0.000    3.000    0.000    3.000    0.000    6.750 
#    0.000    3.750    0.000    0.000    0.000    0.000 
#    0.000    1.000    0.000    3.000    0.000    4.875 
#
# Total GULP energy -792908.620304 kJ/mol
# GULP energy per Si atom -12389.197192 kJ/mol
# Density = 1.513778 g / cm^3
# Si number density = 15.172315 Si / 1000 Ang^3
#
#
#
# Elastic Constant Matrix: (Units=GPa)
#
#
# Indices 1 2 3 4 5 6 
#
# 1 81.5209 39.9123 33.2574 0.0000 0.0000 0.0000
# 2 39.9123 82.0595 39.4928 0.0000 0.0000 0.0000
# 3 33.2574 39.4928 59.1971 0.0000 0.0000 0.0000
# 4 0.0000 0.0000 0.0000 0.4633 0.0000 0.0000
# 5 0.0000 0.0000 0.0000 0.0000 25.4838 0.0000
# 6 0.0000 0.0000 0.0000 0.0000 0.0000 21.8842
#
#
#
# Elastic Compliance Matrix: (Units=1/GPa)
#
#
# Indices 1 2 3 4 5 6 
#
# 1 0.017483 -0.005562 -0.006111 0.000000 0.000000 0.000000
# 2 -0.005562 0.019719 -0.010030 0.000000 0.000000 0.000000
# 3 -0.006111 -0.010030 0.027018 0.000000 0.000000 0.000000
# 4 0.000000 0.000000 0.000000 2.158275 0.000000 0.000000
# 5 0.000000 0.000000 0.000000 0.000000 0.039241 0.000000
# 6 0.000000 0.000000 0.000000 0.000000 0.000000 0.045695
#
#
# Mechanical properties :
#
#
# Convention : Reuss Voigt Hill
#
# Bulk Modulus (GPa) = 48.04944 49.78917 48.91930
# Shear Modulus (GPa) = 2.12064 16.90727 9.51395
#
# Velocity S-wave (km/s) = 1.18353 3.34181 2.50683
# Velocity P-wave (km/s) = 5.79703 6.91211 6.37898
#
# Compressibility (1/GPa) = 0.02081190
#
# Stress axis : x y z
#
# Youngs Moduli (GPa) = 57.19736 50.71238 37.01260
#
# Poissons Ratio (x) = 0.28208 0.22620
# Poissons Ratio (y) = 0.31815 0.37125
# Poissons Ratio (z) = 0.34956 0.50867
#
# Static dielectric constant tensor:
#      x y z
#    x 3.025500 0.000000 0.000000 
#    y 0.000000 2.986190 0.000000 
#    z 0.000000 0.000000 2.740970 
# 
# 
# High freq. dielectric constant tensor:
#      x y z
#    x 1.592320 0.000000 0.000000 
#    y 0.000000 1.561070 0.000000 
#    z 0.000000 0.000000 1.545000 
# 
# From -- ./inp_files/37623.got.cif
#   From: 2010.03.12/outbox.cif.g09.slc.cpg/sg51_19_cif.got.tgz:37623.got - 2010.04.16 13:43:02.
