data_PCOD8210990
_publ_section_title
;
Structure prediction by ZEFSAII (Michael W. Deem and Ramdas Pophale) SiO2 
 PCOD8210990
Probable space group: P M M A
;
_chemical_formula_sum "Si O2"
_cell_formula_units_Z 40
_cell_length_a 9.055292
_cell_length_b 9.612023
_cell_length_c 25.820329
_cell_angle_alpha 90.000000
_cell_angle_beta 90.000000
_cell_angle_gamma 90.000000
_cell_volume 2247.393044
_symmetry_space_group_name_H-M "P M M A"
_symmetry_group_IT_number 51
_symmetry_cell_setting 'orthorhombic'
loop_
_space_group_symop_operation_xyz
x,y,z
1/2-x,-y,z
1/2+x,-y,-z
-x,y,-z
-x,-y,-z
1/2+x,y,-z
1/2-x,y,z
x,-y,z
loop_
_atom_site_type_symbol
_atom_site_label
_atom_site_fract_x
_atom_site_fract_y
_atom_site_fract_z
Si Si1 0.923744 0.659768 0.948027
Si Si2 0.422946 0.339987 0.446754
Si Si3 0.414124 0.165162 0.258746
Si Si4 0.579844 0.835864 0.359846
Si Si5 0.574100 0.844899 0.854408
O O1 0.750000 0.680865 0.954186
O O2 0.966327 0.500000 0.938494
O O3 0.987821 0.745144 0.899282
O O4 0.000000 0.716765 0.000000
O O5 0.500000 0.296068 0.500000
O O6 0.250000 0.313902 0.453018
O O7 0.458484 0.500000 0.432950
O O8 0.484026 0.242235 0.402167
O O9 0.250000 0.226200 0.269946
O O10 0.525476 0.215123 0.303372
O O11 0.473967 0.214046 0.202257
O O12 0.403827 0.000000 0.257205
O O13 0.750000 0.794264 0.365974
O O14 0.555137 0.000000 0.366888
O O15 0.750000 0.849027 0.855612
O O16 0.510505 0.000000 0.863745
#
# Coordination Sequence:
#
# PCOD8210990 Si02
#       5
#     8   8   8   8   8
#     4   9  17  29  44  62  86 116 148 184 228 276
#     4  10  21  37  56  76  99 130 166 203 245 290
#     4   8  14  27  47  68  91 121 155 192 235 279
#     4  10  20  33  51  76 104 133 164 198 238 286
#     4   8  14  26  45  66  87 115 152 190 227 270
#
# _framework density 17.798400000000001
#
# number of rings (size 3 to 8) (size 9 to 14) (size 15 to 20)
#    0.000    3.000    0.000    2.400    0.000    3.200 
#    0.000    2.000    0.000    4.800    0.000    0.000 
#    0.000    0.000    0.000    0.000    0.000    0.000 
#
# Total GULP energy -495874.555558 kJ/mol
# GULP energy per Si atom -12396.863889 kJ/mol
# Density = 1.775789 g / cm^3
# Si number density = 17.798400 Si / 1000 Ang^3
#
#
#
# Elastic Constant Matrix: (Units=GPa)
#
#
# Indices 1 2 3 4 5 6 
#
# 1 62.9392 28.0867 53.4638 0.0000 0.0000 0.0000
# 2 28.0867 50.8885 60.9202 0.0000 0.0000 0.0000
# 3 53.4638 60.9202 172.6895 0.0000 0.0000 0.0000
# 4 0.0000 0.0000 0.0000 0.2971 0.0000 0.0000
# 5 0.0000 0.0000 0.0000 0.0000 32.4770 0.0000
# 6 0.0000 0.0000 0.0000 0.0000 0.0000 19.1970
#
#
#
# Elastic Compliance Matrix: (Units=1/GPa)
#
#
# Indices 1 2 3 4 5 6 
#
# 1 0.022993 -0.007216 -0.004573 0.000000 0.000000 0.000000
# 2 -0.007216 0.036281 -0.010565 0.000000 0.000000 0.000000
# 3 -0.004573 -0.010565 0.010934 0.000000 0.000000 0.000000
# 4 0.000000 0.000000 0.000000 3.365886 0.000000 0.000000
# 5 0.000000 0.000000 0.000000 0.000000 0.030791 0.000000
# 6 0.000000 0.000000 0.000000 0.000000 0.000000 0.052092
#
#
# Mechanical properties :
#
#
# Convention : Reuss Voigt Hill
#
# Bulk Modulus (GPa) = 39.21591 63.49540 51.35566
# Shear Modulus (GPa) = 1.39970 19.99732 10.69851
#
# Velocity S-wave (km/s) = 0.88777 3.35557 2.45438
# Velocity P-wave (km/s) = 4.80958 7.12498 6.07855
#
# Compressibility (1/GPa) = 0.02549985
#
# Stress axis : x y z
#
# Youngs Moduli (GPa) = 43.49157 27.56247 91.46188
#
# Poissons Ratio (x) = 0.19889 0.41824
# Poissons Ratio (y) = 0.31384 0.96629
# Poissons Ratio (z) = 0.19888 0.29120
#
# Static dielectric constant tensor:
#      x y z
#    x 3.591410 0.000000 0.000000 
#    y 0.000000 3.150960 0.000000 
#    z 0.000000 0.000000 3.729420 
# 
# 
# High freq. dielectric constant tensor:
#      x y z
#    x 1.669880 0.000000 0.000000 
#    y 0.000000 1.660970 0.000000 
#    z 0.000000 0.000000 1.705180 
# 
# From -- ./inp_files/31369.got.cif
#   From: 2010.03.12/outbox.cif.g09.slc.cpg/sg51_16_cif.got.tgz:31369.got - 2010.04.16 13:43:02.
