data_PCOD8210243
_publ_section_title
;
Structure prediction by ZEFSAII (Michael W. Deem and Ramdas Pophale) SiO2 
 PCOD8210243
Probable space group: P M M A
;
_chemical_formula_sum "Si O2"
_cell_formula_units_Z 56
_cell_length_a 9.247811
_cell_length_b 13.143057
_cell_length_c 30.133724
_cell_angle_alpha 90.000000
_cell_angle_beta 90.000000
_cell_angle_gamma 90.000000
_cell_volume 3662.588631
_symmetry_space_group_name_H-M "P M M A"
_symmetry_group_IT_number 51
_symmetry_cell_setting 'orthorhombic'
loop_
_space_group_symop_operation_xyz
x,y,z
1/2-x,-y,z
1/2+x,-y,-z
-x,y,-z
-x,-y,-z
1/2+x,y,-z
1/2-x,y,z
x,-y,z
loop_
_atom_site_type_symbol
_atom_site_label
_atom_site_fract_x
_atom_site_fract_y
_atom_site_fract_z
Si Si1 0.091512 0.616018 0.539161
Si Si2 0.413651 0.378752 0.957333
Si Si3 0.420323 0.617688 0.689944
Si Si4 0.420772 0.709079 0.388295
Si Si5 0.582099 0.115366 0.544625
Si Si6 0.587614 0.378601 0.872273
Si Si7 0.590352 0.379572 0.210187
O O1 0.250000 0.668533 0.543907
O O2 0.116758 0.500000 0.526256
O O3 0.000000 0.670967 0.500000
O O4 0.998739 0.620366 0.583945
O O5 0.250000 0.336570 0.958374
O O6 0.412221 0.500000 0.957599
O O7 0.493024 0.337644 0.913329
O O8 0.500000 0.337166 0.000000
O O9 0.250000 0.631266 0.681054
O O10 0.464558 0.500000 0.680589
O O11 0.511184 0.698173 0.660580
O O12 0.460912 0.648584 0.740275
O O13 0.250000 0.691462 0.385958
O O14 0.461437 0.814978 0.413016
O O15 0.500000 0.148706 0.500000
O O16 0.750000 0.127743 0.534056
O O17 0.541864 0.000000 0.557946
O O18 0.750000 0.335983 0.876686
O O19 0.588918 0.500000 0.872258
O O20 0.520062 0.335800 0.826411
O O21 0.750000 0.333966 0.201057
O O22 0.599626 0.500000 0.205879
#
# Coordination Sequence:
#
# PCOD8210243 Si02
#       7
#     8   8   8   8   8   8   8
#     4  10  20  32  44  58  79 105 128 149 174 207
#     4   9  15  21  28  38  54  76 103 138 181 227
#     4   9  18  31  44  58  79 106 131 155 185 221
#     4  11  21  30  44  64  82 101 124 151 183 217
#     4   9  19  35  51  66  83 101 122 149 182 220
#     4   9  15  21  30  44  60  79 106 141 181 222
#     4   8  14  25  38  49  63  87 118 147 176 212
#
# _framework density 15.289733
#
# number of rings (size 3 to 8) (size 9 to 14) (size 15 to 20)
#    0.000    2.714    0.000    3.429    0.000    9.143 
#    0.000    1.429    0.000    0.000    0.000    0.000 
#    0.000    0.000    0.000    0.000    0.000    0.000 
#
# Total GULP energy -694037.484262 kJ/mol
# GULP energy per Si atom -12393.526505 kJ/mol
# Density = 1.525493 g / cm^3
# Si number density = 15.289733 Si / 1000 Ang^3
#
#
#
# Elastic Constant Matrix: (Units=GPa)
#
#
# Indices 1 2 3 4 5 6 
#
# 1 120.2725 23.5078 78.4819 0.0000 0.0000 0.0000
# 2 23.5078 34.4396 24.3016 0.0000 0.0000 0.0000
# 3 78.4819 24.3016 138.3900 0.0000 0.0000 0.0000
# 4 0.0000 0.0000 0.0000 5.6819 0.0000 0.0000
# 5 0.0000 0.0000 0.0000 0.0000 32.3835 0.0000
# 6 0.0000 0.0000 0.0000 0.0000 0.0000 8.3729
#
#
#
# Elastic Compliance Matrix: (Units=1/GPa)
#
#
# Indices 1 2 3 4 5 6 
#
# 1 0.013768 -0.004438 -0.007029 0.000000 0.000000 0.000000
# 2 -0.004438 0.034574 -0.003554 0.000000 0.000000 0.000000
# 3 -0.007029 -0.003554 0.011836 0.000000 0.000000 0.000000
# 4 0.000000 0.000000 0.000000 0.175997 0.000000 0.000000
# 5 0.000000 0.000000 0.000000 0.000000 0.030880 0.000000
# 6 0.000000 0.000000 0.000000 0.000000 0.000000 0.119433
#
#
# Mechanical properties :
#
#
# Convention : Reuss Voigt Hill
#
# Bulk Modulus (GPa) = 33.18319 60.63162 46.90741
# Shear Modulus (GPa) = 11.72122 20.40838 16.06480
#
# Velocity S-wave (km/s) = 2.77177 3.65742 3.24495
# Velocity P-wave (km/s) = 5.65629 7.58794 6.69218
#
# Compressibility (1/GPa) = 0.03013574
#
# Stress axis : x y z
#
# Youngs Moduli (GPa) = 72.62959 28.92355 84.48686
#
# Poissons Ratio (x) = 0.12837 0.59384
# Poissons Ratio (y) = 0.32236 0.30028
# Poissons Ratio (z) = 0.51050 0.10280
#
# Static dielectric constant tensor:
#      x y z
#    x 3.208090 0.000000 0.000000 
#    y 0.000000 2.408900 0.000000 
#    z 0.000000 0.000000 3.095080 
# 
# 
# High freq. dielectric constant tensor:
#      x y z
#    x 1.602730 0.000000 0.000000 
#    y 0.000000 1.505470 0.000000 
#    z 0.000000 0.000000 1.589560 
# 
# From -- ./inp_files/37437.got.cif
#   From: 2010.03.12/outbox.cif.g09.slc.cpg/sg51_19_cif.got.tgz:37437.got - 2010.04.16 13:43:02.
