data_PCOD8210677
_publ_section_title
;
Structure prediction by ZEFSAII (Michael W. Deem and Ramdas Pophale) SiO2 
 PCOD8210677
Probable space group: P M M A
;
_chemical_formula_sum "Si O2"
_cell_formula_units_Z 64
_cell_length_a 9.142512
_cell_length_b 19.174873
_cell_length_c 24.025801
_cell_angle_alpha 90.000000
_cell_angle_beta 90.000000
_cell_angle_gamma 90.000000
_cell_volume 4211.879239
_symmetry_space_group_name_H-M "P M M A"
_symmetry_group_IT_number 51
_symmetry_cell_setting 'orthorhombic'
loop_
_space_group_symop_operation_xyz
x,y,z
1/2-x,-y,z
1/2+x,-y,-z
-x,y,-z
-x,-y,-z
1/2+x,y,-z
1/2-x,y,z
x,-y,z
loop_
_atom_site_type_symbol
_atom_site_label
_atom_site_fract_x
_atom_site_fract_y
_atom_site_fract_z
Si Si1 0.578244 0.154333 0.275524
Si Si2 0.078022 0.923922 0.615226
Si Si3 0.584937 0.916915 0.946454
Si Si4 0.579476 0.919765 0.162512
Si Si5 0.920778 0.726848 0.665795
Si Si6 0.093502 0.421010 0.547523
Si Si7 0.584751 0.574904 0.658027
Si Si8 0.073830 0.215306 0.558363
O O1 0.750000 0.171641 0.278709
O O2 0.534451 0.097636 0.322041
O O3 0.532070 0.124877 0.215804
O O4 0.487972 0.224689 0.286395
O O5 0.250000 0.930984 0.611175
O O6 0.025285 0.864456 0.572354
O O7 0.006669 0.000000 0.601729
O O8 0.750000 0.888583 0.947909
O O9 0.507822 0.889878 0.890352
O O10 0.580833 0.000000 0.947808
O O11 0.500000 0.886654 0.000000
O O12 0.750000 0.911902 0.149391
O O13 0.539247 0.000000 0.174456
O O14 0.750000 0.744625 0.655901
O O15 0.939597 0.647599 0.690861
O O16 0.008580 0.735283 0.607236
O O17 0.250000 0.382134 0.551871
O O18 0.119242 0.500000 0.527752
O O19 0.000000 0.381296 0.500000
O O20 0.019087 0.419589 0.606198
O O21 0.750000 0.573224 0.635677
O O22 0.552655 0.500000 0.689951
O O23 0.250000 0.222883 0.556572
O O24 0.000000 0.235929 0.500000
#
# Coordination Sequence:
#
# PCOD8210677 Si02
#       8
#     8   8   8   8   8   8   8   8
#     4   9  17  29  45  63  84 109 135 165 202 244
#     4   8  14  26  44  63  80  99 125 159 198 237
#     4   9  16  25  37  55  82 115 149 185 221 251
#     4   9  16  26  42  63  85 112 147 182 213 244
#     4  10  20  33  48  63  80 102 127 159 198 241
#     4   9  16  25  38  56  76  95 113 137 172 214
#     4   9  18  32  47  61  76  95 121 152 187 229
#     4  10  20  33  48  63  80 102 127 156 193 242
#
# _framework density 15.195118000000001
#
# number of rings (size 3 to 8) (size 9 to 14) (size 15 to 20)
#    0.000    2.875    0.000    2.625    0.000    6.750 
#    0.000    0.000    0.000   12.000    0.000    0.000 
#    0.000    0.000    0.000    0.000    0.000    0.625 
#
# Total GULP energy -792865.410737 kJ/mol
# GULP energy per Si atom -12388.522043 kJ/mol
# Density = 1.516053 g / cm^3
# Si number density = 15.195118 Si / 1000 Ang^3
#
#
#
# Elastic Constant Matrix: (Units=GPa)
#
#
# Indices 1 2 3 4 5 6 
#
# 1 70.9454 26.5166 36.0871 0.0000 0.0000 0.0000
# 2 26.5166 101.2249 28.1733 0.0000 0.0000 0.0000
# 3 36.0871 28.1733 86.4927 0.0000 0.0000 0.0000
# 4 0.0000 0.0000 0.0000 -20.3914 0.0000 0.0000
# 5 0.0000 0.0000 0.0000 0.0000 22.8048 0.0000
# 6 0.0000 0.0000 0.0000 0.0000 0.0000 13.1592
#
#
#
# Elastic Compliance Matrix: (Units=1/GPa)
#
#
# Indices 1 2 3 4 5 6 
#
# 1 0.018684 -0.002996 -0.006819 0.000000 0.000000 0.000000
# 2 -0.002996 0.011344 -0.002445 0.000000 0.000000 0.000000
# 3 -0.006819 -0.002445 0.015203 0.000000 0.000000 0.000000
# 4 0.000000 0.000000 0.000000 -0.049040 0.000000 0.000000
# 5 0.000000 0.000000 0.000000 0.000000 0.043850 0.000000
# 6 0.000000 0.000000 0.000000 0.000000 0.000000 0.075992
#
#
# Mechanical properties :
#
#
# Convention : Reuss Voigt Hill
#
# Bulk Modulus (GPa) = 48.28582 48.91301 48.59942
# Shear Modulus (GPa) = 33.90755 14.30691 24.10723
#
# Velocity S-wave (km/s) = 4.72898 3.07179 3.98742
# Velocity P-wave (km/s) = 7.85263 6.69635 7.29743
#
# Compressibility (1/GPa) = 0.02071001
#
# Stress axis : x y z
#
# Youngs Moduli (GPa) = 53.52146 88.14892 65.77489
#
# Poissons Ratio (x) = 0.26413 0.44855
# Poissons Ratio (y) = 0.16037 0.16082
# Poissons Ratio (z) = 0.36499 0.21553
#
# Static dielectric constant tensor:
#      x y z
#    x 3.048740 0.000000 0.000000 
#    y 0.000000 3.264640 0.000000 
#    z 0.000000 0.000000 2.690980 
# 
# 
# High freq. dielectric constant tensor:
#      x y z
#    x 1.588150 0.000000 0.000000 
#    y 0.000000 1.568540 0.000000 
#    z 0.000000 0.000000 1.539570 
# 
# From -- ./inp_files/35178.got.cif
#   From: 2010.03.12/outbox.cif.g09.slc.cpg/sg51_18_cif.got.tgz:35178.got - 2010.04.16 13:43:02.
