data_PCOD8210659
_publ_section_title
;
Structure prediction by ZEFSAII (Michael W. Deem and Ramdas Pophale) SiO2 
 PCOD8210659
Probable space group: P M M A
;
_chemical_formula_sum "Si O2"
_cell_formula_units_Z 48
_cell_length_a 8.697785
_cell_length_b 18.828186
_cell_length_c 19.692248
_cell_angle_alpha 90.000000
_cell_angle_beta 90.000000
_cell_angle_gamma 90.000000
_cell_volume 3224.871726
_symmetry_space_group_name_H-M "P M M A"
_symmetry_group_IT_number 51
_symmetry_cell_setting 'orthorhombic'
loop_
_space_group_symop_operation_xyz
x,y,z
1/2-x,-y,z
1/2+x,-y,-z
-x,y,-z
-x,-y,-z
1/2+x,y,-z
1/2-x,y,z
x,-y,z
loop_
_atom_site_type_symbol
_atom_site_label
_atom_site_fract_x
_atom_site_fract_y
_atom_site_fract_z
Si Si1 0.918465 0.081411 0.935971
Si Si2 0.931542 0.281153 0.924117
Si Si3 0.929135 0.840043 0.170573
Si Si4 0.921588 0.916206 0.432754
Si Si5 0.430973 0.081589 0.291888
Si Si6 0.429765 0.576794 0.926104
O O1 0.750000 0.116861 0.924078
O O2 0.029557 0.088878 0.871417
O O3 0.893392 0.000000 0.952690
O O4 0.000000 0.119771 0.000000
O O5 0.750000 0.280792 0.930602
O O6 0.983485 0.222183 0.869757
O O7 0.987469 0.356115 0.890728
O O8 0.000000 0.269673 0.000000
O O9 0.750000 0.823031 0.172901
O O10 0.988560 0.858187 0.245751
O O11 0.750000 0.884440 0.423863
O O12 0.000000 0.882900 0.500000
O O13 0.025694 0.896616 0.368244
O O14 0.910401 0.000000 0.441497
O O15 0.250000 0.086861 0.281121
O O16 0.485870 0.000000 0.276536
O O17 0.250000 0.593487 0.931254
O O18 0.457595 0.500000 0.888825
O O19 0.500000 0.570584 0.000000
#
# Coordination Sequence:
#
# PCOD8210659 Si02
#       6
#     8   8   8   8   8   8
#     4  10  20  33  46  58  72  93 126 168 211 251
#     4  11  21  33  47  62  82 107 138 173 210 251
#     4  12  23  33  44  58  79 105 135 170 209 251
#     4   9  16  27  44  65  86 107 132 164 203 245
#     4  10  20  33  47  63  83 107 137 173 212 253
#     4   9  16  27  44  65  86 105 128 161 201 244
#
# _framework density 14.884314
#
# number of rings (size 3 to 8) (size 9 to 14) (size 15 to 20)
#    0.000    1.833    0.000    7.000    0.000    7.000 
#    0.000    0.000    0.000    0.000    0.000    0.000 
#    0.000    0.000    0.000    0.000    0.000    0.833 
#
# Total GULP energy -594683.190410 kJ/mol
# GULP energy per Si atom -12389.233134 kJ/mol
# Density = 1.485044 g / cm^3
# Si number density = 14.884314 Si / 1000 Ang^3
#
#
#
# Elastic Constant Matrix: (Units=GPa)
#
#
# Indices 1 2 3 4 5 6 
#
# 1 112.9417 37.0326 32.4588 0.0000 0.0000 0.0000
# 2 37.0326 72.6850 30.9726 0.0000 0.0000 0.0000
# 3 32.4588 30.9726 81.5098 0.0000 0.0000 0.0000
# 4 0.0000 0.0000 0.0000 4.5651 0.0000 0.0000
# 5 0.0000 0.0000 0.0000 0.0000 24.9350 0.0000
# 6 0.0000 0.0000 0.0000 0.0000 0.0000 19.0660
#
#
#
# Elastic Compliance Matrix: (Units=1/GPa)
#
#
# Indices 1 2 3 4 5 6 
#
# 1 0.011111 -0.004505 -0.002713 0.000000 0.000000 0.000000
# 2 -0.004505 0.018243 -0.005138 0.000000 0.000000 0.000000
# 3 -0.002713 -0.005138 0.015301 0.000000 0.000000 0.000000
# 4 0.000000 0.000000 0.000000 0.219054 0.000000 0.000000
# 5 0.000000 0.000000 0.000000 0.000000 0.040104 0.000000
# 6 0.000000 0.000000 0.000000 0.000000 0.000000 0.052449
#
#
# Mechanical properties :
#
#
# Convention : Reuss Voigt Hill
#
# Bulk Modulus (GPa) = 50.14235 52.00718 51.07476
# Shear Modulus (GPa) = 12.89918 20.82472 16.86195
#
# Velocity S-wave (km/s) = 2.94705 3.74452 3.36946
# Velocity P-wave (km/s) = 6.73360 7.32885 7.03752
#
# Compressibility (1/GPa) = 0.01994322
#
# Stress axis : x y z
#
# Youngs Moduli (GPa) = 90.00172 54.81659 65.35484
#
# Poissons Ratio (x) = 0.24695 0.17729
# Poissons Ratio (y) = 0.40546 0.33579
# Poissons Ratio (z) = 0.24415 0.28165
#
# Static dielectric constant tensor:
#      x y z
#    x 3.267010 0.000000 0.000000 
#    y 0.000000 3.111910 0.000000 
#    z 0.000000 0.000000 2.745810 
# 
# 
# High freq. dielectric constant tensor:
#      x y z
#    x 1.595370 0.000000 0.000000 
#    y 0.000000 1.538930 0.000000 
#    z 0.000000 0.000000 1.535060 
# 
# From -- ./inp_files/28092.got.cif
#   From: 2010.03.12/outbox.cif.g09.slc.cpg/sg51_15_cif.got.tgz:28092.got - 2010.04.16 13:43:02.
