data_PCOD8210988
_publ_section_title
;
Structure prediction by ZEFSAII (Michael W. Deem and Ramdas Pophale) SiO2 
 PCOD8210988
Probable space group: P M M A
;
_chemical_formula_sum "Si O2"
_cell_formula_units_Z 40
_cell_length_a 9.233710
_cell_length_b 9.202664
_cell_length_c 25.945562
_cell_angle_alpha 90.000000
_cell_angle_beta 90.000000
_cell_angle_gamma 90.000000
_cell_volume 2204.717141
_symmetry_space_group_name_H-M "P M M A"
_symmetry_group_IT_number 51
_symmetry_cell_setting 'orthorhombic'
loop_
_space_group_symop_operation_xyz
x,y,z
1/2-x,-y,z
1/2+x,-y,-z
-x,y,-z
-x,-y,-z
1/2+x,y,-z
1/2-x,y,z
x,-y,z
loop_
_atom_site_type_symbol
_atom_site_label
_atom_site_fract_x
_atom_site_fract_y
_atom_site_fract_z
Si Si1 0.580656 0.332604 0.552545
Si Si2 0.077873 0.662802 0.743087
Si Si3 0.082621 0.171081 0.641589
Si Si4 0.410415 0.173272 0.952463
Si Si5 0.923150 0.837458 0.159961
O O1 0.500000 0.292524 0.500000
O O2 0.750000 0.300224 0.545455
O O3 0.552395 0.500000 0.567725
O O4 0.516726 0.229748 0.596137
O O5 0.250000 0.661892 0.745902
O O6 0.016085 0.500000 0.737725
O O7 0.026683 0.756440 0.694309
O O8 0.014730 0.732942 0.795516
O O9 0.250000 0.211758 0.630569
O O10 0.061747 0.000000 0.646857
O O11 0.250000 0.237962 0.957897
O O12 0.477005 0.217453 0.896519
O O13 0.406320 0.000000 0.955468
O O14 0.500000 0.240076 0.000000
O O15 0.750000 0.838941 0.159619
O O16 0.980581 0.000000 0.171128
#
# Coordination Sequence:
#
# PCOD8210988 Si02
#       5
#     8   8   8   8   8
#     4  10  21  37  57  79 103 133 167 201 238 282
#     4   9  16  26  43  67  93 121 155 195 236 280
#     4  10  20  33  51  76 104 132 162 199 243 288
#     4   8  13  21  35  56  81 109 142 181 224 270
#     4   8  13  22  37  58  84 113 147 188 231 274
#
# _framework density 18.142916
#
# number of rings (size 3 to 8) (size 9 to 14) (size 15 to 20)
#    0.000    3.000    0.000    3.000    0.000    5.200 
#    0.000    0.000    0.000    1.800    0.000    2.800 
#    0.000    0.000    0.000    0.000    0.000    0.000 
#
# Total GULP energy -495825.515794 kJ/mol
# GULP energy per Si atom -12395.637895 kJ/mol
# Density = 1.810162 g / cm^3
# Si number density = 18.142916 Si / 1000 Ang^3
#
#
#
# Elastic Constant Matrix: (Units=GPa)
#
#
# Indices 1 2 3 4 5 6 
#
# 1 52.4597 30.9644 51.9063 0.0000 0.0000 0.0000
# 2 30.9644 91.2695 75.6383 0.0000 0.0000 0.0000
# 3 51.9063 75.6383 178.8880 0.0000 0.0000 0.0000
# 4 0.0000 0.0000 0.0000 15.8682 0.0000 0.0000
# 5 0.0000 0.0000 0.0000 0.0000 24.9046 0.0000
# 6 0.0000 0.0000 0.0000 0.0000 0.0000 15.8047
#
#
#
# Elastic Compliance Matrix: (Units=1/GPa)
#
#
# Indices 1 2 3 4 5 6 
#
# 1 0.027757 -0.004222 -0.006269 0.000000 0.000000 0.000000
# 2 -0.004222 0.017509 -0.006178 0.000000 0.000000 0.000000
# 3 -0.006269 -0.006178 0.010021 0.000000 0.000000 0.000000
# 4 0.000000 0.000000 0.000000 0.063019 0.000000 0.000000
# 5 0.000000 0.000000 0.000000 0.000000 0.040153 0.000000
# 6 0.000000 0.000000 0.000000 0.000000 0.000000 0.063272
#
#
# Mechanical properties :
#
#
# Convention : Reuss Voigt Hill
#
# Bulk Modulus (GPa) = 45.55890 71.07060 58.31475
# Shear Modulus (GPa) = 19.05590 22.25605 20.65597
#
# Velocity S-wave (km/s) = 3.24438 3.50624 3.37785
# Velocity P-wave (km/s) = 6.26102 7.45984 6.88657
#
# Compressibility (1/GPa) = 0.02194961
#
# Stress axis : x y z
#
# Youngs Moduli (GPa) = 36.02703 57.11361 99.78600
#
# Poissons Ratio (x) = 0.24111 0.62556
# Poissons Ratio (y) = 0.15209 0.61651
# Poissons Ratio (z) = 0.22585 0.35286
#
# Static dielectric constant tensor:
#      x y z
#    x 2.996300 0.000000 0.000000 
#    y 0.000000 3.242680 0.000000 
#    z 0.000000 0.000000 3.693450 
# 
# 
# High freq. dielectric constant tensor:
#      x y z
#    x 1.652670 0.000000 0.000000 
#    y 0.000000 1.682010 0.000000 
#    z 0.000000 0.000000 1.723510 
# 
# From -- ./inp_files/35979.got.cif
#   From: 2010.03.12/outbox.cif.g09.slc.cpg/sg51_18_cif.got.tgz:35979.got - 2010.04.16 13:43:02.
