data_PCOD8210608
_publ_section_title
;
Structure prediction by ZEFSAII (Michael W. Deem and Ramdas Pophale) SiO2 
 PCOD8210608
Probable space group: P M M A
;
_chemical_formula_sum "Si O2"
_cell_formula_units_Z 56
_cell_length_a 21.734441
_cell_length_b 9.236677
_cell_length_c 14.445071
_cell_angle_alpha 90.000000
_cell_angle_beta 90.000000
_cell_angle_gamma 90.000000
_cell_volume 2899.905947
_symmetry_space_group_name_H-M "P M M A"
_symmetry_group_IT_number 51
_symmetry_cell_setting 'orthorhombic'
loop_
_space_group_symop_operation_xyz
x,y,z
1/2-x,-y,z
1/2+x,-y,-z
-x,y,-z
-x,-y,-z
1/2+x,y,-z
1/2-x,y,z
x,-y,z
loop_
_atom_site_type_symbol
_atom_site_label
_atom_site_fract_x
_atom_site_fract_y
_atom_site_fract_z
Si Si1 0.078424 0.335674 0.774401
Si Si2 0.450729 0.667973 0.310044
Si Si3 0.250000 0.669492 0.184248
Si Si4 0.250000 0.156572 0.357900
Si Si5 0.376001 0.835071 0.463183
Si Si6 0.379607 0.328552 0.126785
Si Si7 0.067516 0.160951 0.960400
Si Si8 0.321358 0.332645 0.628632
O O1 0.071898 0.500000 0.812002
O O2 0.070046 0.226094 0.858280
O O3 0.145523 0.313327 0.728238
O O4 0.023976 0.307903 0.699449
O O5 0.433778 0.500000 0.326402
O O6 0.426357 0.757503 0.398057
O O7 0.419558 0.725326 0.214544
O O8 0.250000 0.500000 0.176844
O O9 0.250000 0.708118 0.291264
O O10 0.189219 0.732314 0.137762
O O11 0.190727 0.170523 0.419795
O O12 0.250000 0.000000 0.306221
O O13 0.366145 0.754699 0.560155
O O14 0.398093 0.000000 0.479785
O O15 0.384488 0.500000 0.119877
O O16 0.396845 0.264422 0.028999
O O17 0.096534 0.000000 0.956999
O O18 0.000000 0.151204 0.000000
O O19 0.250000 0.276959 0.633751
O O20 0.321743 0.500000 0.598127
#
# Coordination Sequence:
#
# PCOD8210608 Si02
#       8
#     8   8   4   4   8   8   8   8
#     4  10  22  41  63  86 114 149 195 247 294 342
#     4  10  20  35  59  89 118 151 191 239 292 344
#     4  10  20  34  54  83 114 147 192 239 284 342
#     4  10  20  32  50  79 114 153 188 225 278 340
#     4  11  22  36  57  86 120 155 191 232 285 345
#     4  10  20  35  57  84 115 153 192 236 290 344
#     4  11  23  38  60  87 115 151 193 236 289 353
#     4  10  22  41  64  86 111 151 200 245 286 335
#
# _framework density 19.310970000000001
#
# number of rings (size 3 to 8) (size 9 to 14) (size 15 to 20)
#    0.000    1.714    3.571    0.857    0.000    4.000 
#    1.286    2.857    0.000    0.000    0.000    0.000 
#    0.000    0.000    0.000    0.000    0.000    0.000 
#
# Total GULP energy -694181.653511 kJ/mol
# GULP energy per Si atom -12396.100956 kJ/mol
# Density = 1.926702 g / cm^3
# Si number density = 19.310970 Si / 1000 Ang^3
#
#
#
# Elastic Constant Matrix: (Units=GPa)
#
#
# Indices 1 2 3 4 5 6 
#
# 1 85.4047 24.8913 30.3629 0.0000 0.0000 0.0000
# 2 24.8913 56.2782 40.9398 0.0000 0.0000 0.0000
# 3 30.3629 40.9398 88.4134 0.0000 0.0000 0.0000
# 4 0.0000 0.0000 0.0000 59.9091 0.0000 0.0000
# 5 0.0000 0.0000 0.0000 0.0000 24.0416 0.0000
# 6 0.0000 0.0000 0.0000 0.0000 0.0000 -11.5027
#
#
#
# Elastic Compliance Matrix: (Units=1/GPa)
#
#
# Indices 1 2 3 4 5 6 
#
# 1 0.013921 -0.004040 -0.002910 0.000000 0.000000 0.000000
# 2 -0.004040 0.027967 -0.011563 0.000000 0.000000 0.000000
# 3 -0.002910 -0.011563 0.017664 0.000000 0.000000 0.000000
# 4 0.000000 0.000000 0.000000 0.016692 0.000000 0.000000
# 5 0.000000 0.000000 0.000000 0.000000 0.041595 0.000000
# 6 0.000000 0.000000 0.000000 0.000000 0.000000 -0.086936
#
#
# Mechanical properties :
#
#
# Convention : Reuss Voigt Hill
#
# Bulk Modulus (GPa) = 44.39244 46.94270 45.66757
# Shear Modulus (GPa) = 66.28038 23.41641 44.84840
#
# Velocity S-wave (km/s) = 5.86491 3.48601 4.82439
# Velocity P-wave (km/s) = 8.30066 6.36904 7.39816
#
# Compressibility (1/GPa) = 0.02252636
#
# Stress axis : x y z
#
# Youngs Moduli (GPa) = 71.83371 35.75618 56.61255
#
# Poissons Ratio (x) = 0.14447 0.16474
# Poissons Ratio (y) = 0.29023 0.65459
# Poissons Ratio (z) = 0.20903 0.41344
#
# Static dielectric constant tensor:
#      x y z
#    x 3.590540 0.000000 0.000000 
#    y 0.000000 3.662770 0.000000 
#    z 0.000000 0.000000 3.784790 
# 
# 
# High freq. dielectric constant tensor:
#      x y z
#    x 1.757590 0.000000 0.000000 
#    y 0.000000 1.747700 0.000000 
#    z 0.000000 0.000000 1.741590 
# 
# From -- ./inp_files/25921.got.cif
#   From: 2010.03.12/outbox.cif.g09.slc.cpg/sg51_13_cif.got.tgz:25921.got - 2010.04.16 13:43:02.
