data_PCOD8210501
_publ_section_title
;
Structure prediction by ZEFSAII (Michael W. Deem and Ramdas Pophale) SiO2 
 PCOD8210501
Probable space group: P M M A
;
_chemical_formula_sum "Si O2"
_cell_formula_units_Z 56
_cell_length_a 9.073936
_cell_length_b 19.190290
_cell_length_c 18.470034
_cell_angle_alpha 90.000000
_cell_angle_beta 90.000000
_cell_angle_gamma 90.000000
_cell_volume 3216.214047
_symmetry_space_group_name_H-M "P M M A"
_symmetry_group_IT_number 51
_symmetry_cell_setting 'orthorhombic'
loop_
_space_group_symop_operation_xyz
x,y,z
1/2-x,-y,z
1/2+x,-y,-z
-x,y,-z
-x,-y,-z
1/2+x,y,-z
1/2-x,y,z
x,-y,z
loop_
_atom_site_type_symbol
_atom_site_label
_atom_site_fract_x
_atom_site_fract_y
_atom_site_fract_z
Si Si1 0.580714 0.921854 0.794151
Si Si2 0.580638 0.787148 0.713167
Si Si3 0.576302 0.279069 0.155417
Si Si4 0.079522 0.579329 0.647012
Si Si5 0.924374 0.145686 0.074272
Si Si6 0.575253 0.425432 0.188202
Si Si7 0.922874 0.704901 0.573395
O O1 0.750000 0.914395 0.819634
O O2 0.547538 0.869207 0.727543
O O3 0.477720 0.905494 0.862628
O O4 0.546399 0.000000 0.766905
O O5 0.750000 0.769752 0.729666
O O6 0.484871 0.741086 0.766750
O O7 0.539621 0.765438 0.631680
O O8 0.750000 0.275043 0.162584
O O9 0.524352 0.225132 0.093498
O O10 0.524040 0.359076 0.139221
O O11 0.250000 0.601507 0.640687
O O12 0.057465 0.500000 0.619920
O O13 0.022592 0.586009 0.729505
O O14 0.982684 0.629747 0.597538
O O15 0.750000 0.138978 0.065981
O O16 0.000000 0.123014 0.000000
O O17 0.750000 0.430191 0.188569
O O18 0.511992 0.500000 0.158549
O O19 0.750000 0.697614 0.560250
O O20 0.000000 0.729466 0.500000
#
# Coordination Sequence:
#
# PCOD8210501 Si02
#       7
#     8   8   8   8   8   8   8
#     4   9  18  34  56  78  99 124 152 187 233 282
#     4   9  18  32  49  71  95 119 153 194 236 280
#     4   9  16  28  49  71  91 121 161 198 235 277
#     4   9  17  30  48  68  92 123 158 198 244 290
#     4  10  20  32  48  73 103 134 162 190 225 272
#     4   8  13  23  43  69  92 115 150 197 242 281
#     4  11  22  33  47  67  94 128 162 198 239 284
#
# _framework density 17.411777000000001
#
# number of rings (size 3 to 8) (size 9 to 14) (size 15 to 20)
#    0.000    2.714    1.429    1.714    0.000    2.286 
#    0.000    0.000    0.000    1.286    0.000    0.000 
#    0.000    0.000    0.000    0.000    0.000    0.571 
#
# Total GULP energy -693991.271772 kJ/mol
# GULP energy per Si atom -12392.701282 kJ/mol
# Density = 1.737215 g / cm^3
# Si number density = 17.411777 Si / 1000 Ang^3
#
#
#
# Elastic Constant Matrix: (Units=GPa)
#
#
# Indices 1 2 3 4 5 6 
#
# 1 46.1167 25.7681 26.6037 0.0000 0.0000 0.0000
# 2 25.7681 125.4582 34.5198 0.0000 0.0000 0.0000
# 3 26.6037 34.5198 61.3509 0.0000 0.0000 0.0000
# 4 0.0000 0.0000 0.0000 16.3639 0.0000 0.0000
# 5 0.0000 0.0000 0.0000 0.0000 19.3305 0.0000
# 6 0.0000 0.0000 0.0000 0.0000 0.0000 19.8905
#
#
#
# Elastic Compliance Matrix: (Units=1/GPa)
#
#
# Indices 1 2 3 4 5 6 
#
# 1 0.029868 -0.003042 -0.011240 0.000000 0.000000 0.000000
# 2 -0.003042 0.009741 -0.004162 0.000000 0.000000 0.000000
# 3 -0.011240 -0.004162 0.023515 0.000000 0.000000 0.000000
# 4 0.000000 0.000000 0.000000 0.061110 0.000000 0.000000
# 5 0.000000 0.000000 0.000000 0.000000 0.051732 0.000000
# 6 0.000000 0.000000 0.000000 0.000000 0.000000 0.050275
#
#
# Mechanical properties :
#
#
# Convention : Reuss Voigt Hill
#
# Bulk Modulus (GPa) = 38.11462 45.18988 41.65225
# Shear Modulus (GPa) = 18.39087 20.85259 19.62173
#
# Velocity S-wave (km/s) = 3.25350 3.46441 3.36061
# Velocity P-wave (km/s) = 6.00428 6.48173 6.24757
#
# Compressibility (1/GPa) = 0.02623665
#
# Stress axis : x y z
#
# Youngs Moduli (GPa) = 33.48061 102.66264 42.52538
#
# Poissons Ratio (x) = 0.31229 0.47799
# Poissons Ratio (y) = 0.10185 0.17697
# Poissons Ratio (z) = 0.37633 0.42724
#
# Static dielectric constant tensor:
#      x y z
#    x 3.121360 0.000000 0.000000 
#    y 0.000000 3.729380 0.000000 
#    z 0.000000 0.000000 3.035420 
# 
# 
# High freq. dielectric constant tensor:
#      x y z
#    x 1.661410 0.000000 0.000000 
#    y 0.000000 1.680540 0.000000 
#    z 0.000000 0.000000 1.639210 
# 
# From -- ./inp_files/28168.got.cif
#   From: 2010.03.12/outbox.cif.g09.slc.cpg/sg51_15_cif.got.tgz:28168.got - 2010.04.16 13:43:02.
