data_PCOD8210884
_publ_section_title
;
Structure prediction by ZEFSAII (Michael W. Deem and Ramdas Pophale) SiO2 
 PCOD8210884
Probable space group: P M M A
;
_chemical_formula_sum "Si O2"
_cell_formula_units_Z 48
_cell_length_a 9.082918
_cell_length_b 9.084492
_cell_length_c 31.151728
_cell_angle_alpha 90.000000
_cell_angle_beta 90.000000
_cell_angle_gamma 90.000000
_cell_volume 2570.444211
_symmetry_space_group_name_H-M "P M M A"
_symmetry_group_IT_number 51
_symmetry_cell_setting 'orthorhombic'
loop_
_space_group_symop_operation_xyz
x,y,z
1/2-x,-y,z
1/2+x,-y,-z
-x,y,-z
-x,-y,-z
1/2+x,y,-z
1/2-x,y,z
x,-y,z
loop_
_atom_site_type_symbol
_atom_site_label
_atom_site_fract_x
_atom_site_fract_y
_atom_site_fract_z
Si Si1 0.579974 0.173164 0.295759
Si Si2 0.924963 0.334209 0.210541
Si Si3 0.915929 0.675067 0.458491
Si Si4 0.416030 0.824600 0.041573
Si Si5 0.421863 0.171213 0.873653
Si Si6 0.422927 0.670132 0.372712
O O1 0.750000 0.216022 0.304189
O O2 0.519443 0.246334 0.252159
O O3 0.481275 0.231673 0.334176
O O4 0.559973 0.000000 0.291231
O O5 0.750000 0.331236 0.209382
O O6 0.986287 0.500000 0.212768
O O7 0.985300 0.256943 0.167576
O O8 0.750000 0.737663 0.457717
O O9 0.914271 0.500000 0.460816
O O10 0.000000 0.739599 0.500000
O O11 0.000160 0.727825 0.415984
O O12 0.250000 0.764664 0.040850
O O13 0.495085 0.767219 0.084543
O O14 0.419805 0.000000 0.040605
O O15 0.500000 0.760987 0.000000
O O16 0.250000 0.200893 0.880771
O O17 0.453975 0.000000 0.866020
O O18 0.250000 0.692795 0.378139
O O19 0.462693 0.500000 0.363717
#
# Coordination Sequence:
#
# PCOD8210884 Si02
#       6
#     8   8   8   8   8   8
#     4  10  20  34  53  76 101 131 169 211 254 302
#     4   9  17  30  50  74  98 126 162 203 246 294
#     4   9  16  27  46  73 104 136 170 209 251 295
#     4   9  16  26  42  66  95 125 157 194 236 281
#     4   9  16  27  45  69  96 125 158 197 240 286
#     4  10  20  33  50  74 104 137 173 212 254 300
#
# _framework density 18.673815000000001
#
# number of rings (size 3 to 8) (size 9 to 14) (size 15 to 20)
#    0.000    2.667    0.000    2.500    0.000    8.000 
#    0.000    0.833    0.000    4.500    0.000    0.000 
#    0.000    0.000    0.000    0.000    0.000    0.000 
#
# Total GULP energy -595240.350596 kJ/mol
# GULP energy per Si atom -12400.840637 kJ/mol
# Density = 1.863131 g / cm^3
# Si number density = 18.673815 Si / 1000 Ang^3
#
#
#
# Elastic Constant Matrix: (Units=GPa)
#
#
# Indices 1 2 3 4 5 6 
#
# 1 96.2194 32.0612 72.8544 0.0000 0.0000 0.0000
# 2 32.0612 58.6787 53.8431 0.0000 0.0000 0.0000
# 3 72.8544 53.8431 196.1098 0.0000 0.0000 0.0000
# 4 0.0000 0.0000 0.0000 26.0115 0.0000 0.0000
# 5 0.0000 0.0000 0.0000 0.0000 33.7358 0.0000
# 6 0.0000 0.0000 0.0000 0.0000 0.0000 14.9150
#
#
#
# Elastic Compliance Matrix: (Units=1/GPa)
#
#
# Indices 1 2 3 4 5 6 
#
# 1 0.015188 -0.004172 -0.004497 0.000000 0.000000 0.000000
# 2 -0.004172 0.023927 -0.005019 0.000000 0.000000 0.000000
# 3 -0.004497 -0.005019 0.008148 0.000000 0.000000 0.000000
# 4 0.000000 0.000000 0.000000 0.038444 0.000000 0.000000
# 5 0.000000 0.000000 0.000000 0.000000 0.029642 0.000000
# 6 0.000000 0.000000 0.000000 0.000000 0.000000 0.067047
#
#
# Mechanical properties :
#
#
# Convention : Reuss Voigt Hill
#
# Bulk Modulus (GPa) = 50.28592 74.28059 62.28325
# Shear Modulus (GPa) = 23.10513 27.74908 25.42710
#
# Velocity S-wave (km/s) = 3.52134 3.85903 3.69405
# Velocity P-wave (km/s) = 6.59698 7.72790 7.18473
#
# Compressibility (1/GPa) = 0.01988628
#
# Stress axis : x y z
#
# Youngs Moduli (GPa) = 65.84156 41.79304 122.73178
#
# Poissons Ratio (x) = 0.17437 0.55190
# Poissons Ratio (y) = 0.27471 0.61604
# Poissons Ratio (z) = 0.29608 0.20978
#
# Static dielectric constant tensor:
#      x y z
#    x 3.339690 0.000000 0.000000 
#    y 0.000000 3.089730 0.000000 
#    z 0.000000 0.000000 3.676060 
# 
# 
# High freq. dielectric constant tensor:
#      x y z
#    x 1.710110 0.000000 0.000000 
#    y 0.000000 1.684200 0.000000 
#    z 0.000000 0.000000 1.744570 
# 
# From -- ./inp_files/36964.got.cif
#   From: 2010.03.12/outbox.cif.g09.slc.cpg/sg51_19_cif.got.tgz:36964.got - 2010.04.16 13:43:02.
