data_PCOD8210629
_publ_section_title
;
Structure prediction by ZEFSAII (Michael W. Deem and Ramdas Pophale) SiO2 
 PCOD8210629
Probable space group: P M M A
;
_chemical_formula_sum "Si O2"
_cell_formula_units_Z 64
_cell_length_a 24.973920
_cell_length_b 14.142170
_cell_length_c 10.101267
_cell_angle_alpha 90.000000
_cell_angle_beta 90.000000
_cell_angle_gamma 90.000000
_cell_volume 3567.620250
_symmetry_space_group_name_H-M "P M M A"
_symmetry_group_IT_number 51
_symmetry_cell_setting 'orthorhombic'
loop_
_space_group_symop_operation_xyz
x,y,z
1/2-x,-y,z
1/2+x,-y,-z
-x,y,-z
-x,-y,-z
1/2+x,y,-z
1/2-x,y,z
x,-y,z
loop_
_atom_site_type_symbol
_atom_site_label
_atom_site_fract_x
_atom_site_fract_y
_atom_site_fract_z
Si Si1 0.811633 0.389350 0.103480
Si Si2 0.420562 0.892064 0.974002
Si Si3 0.110784 0.610867 0.371043
Si Si4 0.504501 0.704678 0.650780
Si Si5 0.808870 0.894167 0.936980
Si Si6 0.810374 0.300043 0.829155
Si Si7 0.397635 0.610900 0.676995
Si Si8 0.489898 0.110931 0.215246
O O1 0.750000 0.362339 0.137115
O O2 0.817165 0.500000 0.074329
O O3 0.848621 0.358971 0.227528
O O4 0.832417 0.334481 0.972505
O O5 0.356669 0.876311 0.956780
O O6 0.441280 0.857980 0.117950
O O7 0.437941 0.000000 0.972257
O O8 0.454460 0.852273 0.851903
O O9 0.113556 0.500000 0.349515
O O10 0.057068 0.649160 0.299834
O O11 0.159707 0.658638 0.295712
O O12 0.116805 0.638344 0.525731
O O13 0.500000 0.675319 0.500000
O O14 0.451125 0.666481 0.724123
O O15 0.513762 0.818277 0.660814
O O16 0.750000 0.885733 0.006492
O O17 0.813515 0.814915 0.823270
O O18 0.815923 0.000000 0.875290
O O19 0.750000 0.336711 0.816192
O O20 0.409597 0.500000 0.688122
O O21 0.488588 0.000000 0.258793
#
# Coordination Sequence:
#
# PCOD8210629 Si02
#       8
#     8   8   8   8   8   8   8   8
#     4   9  18  33  51  73 102 131 160 201 253 299
#     4   8  15  28  45  67  94 123 160 198 235 280
#     4  10  20  35  53  72  98 132 170 209 249 298
#     4  10  20  33  49  70  96 128 166 206 248 294
#     4   9  17  29  46  71 102 132 161 194 236 293
#     4  10  20  32  51  79 105 130 162 206 255 291
#     4   9  19  35  53  71  96 133 171 204 246 303
#     4   9  17  29  47  70  95 126 160 202 248 288
#
# _framework density 17.939129999999999
#
# number of rings (size 3 to 8) (size 9 to 14) (size 15 to 20)
#    0.000    2.750    0.000    2.250    1.750    3.000 
#    0.000    1.250    0.000    3.000    0.000    0.000 
#    0.000    4.000    0.000    0.500    0.000    0.000 
#
# Total GULP energy -792870.648672 kJ/mol
# GULP energy per Si atom -12388.603885 kJ/mol
# Density = 1.789830 g / cm^3
# Si number density = 17.939130 Si / 1000 Ang^3
#
#
#
# Elastic Constant Matrix: (Units=GPa)
#
#
# Indices 1 2 3 4 5 6 
#
# 1 108.9031 32.8352 37.5033 0.0000 0.0000 0.0000
# 2 32.8352 81.9160 30.6351 0.0000 0.0000 0.0000
# 3 37.5033 30.6351 60.9892 0.0000 0.0000 0.0000
# 4 0.0000 0.0000 0.0000 21.3052 0.0000 0.0000
# 5 0.0000 0.0000 0.0000 0.0000 19.4584 0.0000
# 6 0.0000 0.0000 0.0000 0.0000 0.0000 21.6774
#
#
#
# Elastic Compliance Matrix: (Units=1/GPa)
#
#
# Indices 1 2 3 4 5 6 
#
# 1 0.012063 -0.002538 -0.006143 0.000000 0.000000 0.000000
# 2 -0.002538 0.015565 -0.006258 0.000000 0.000000 0.000000
# 3 -0.006143 -0.006258 0.023317 0.000000 0.000000 0.000000
# 4 0.000000 0.000000 0.000000 0.046937 0.000000 0.000000
# 5 0.000000 0.000000 0.000000 0.000000 0.051392 0.000000
# 6 0.000000 0.000000 0.000000 0.000000 0.000000 0.046131
#
#
# Mechanical properties :
#
#
# Convention : Reuss Voigt Hill
#
# Bulk Modulus (GPa) = 47.46563 50.41728 48.94146
# Shear Modulus (GPa) = 21.52337 22.54384 22.03361
#
# Velocity S-wave (km/s) = 3.46757 3.54882 3.50843
# Velocity P-wave (km/s) = 6.52294 6.70506 6.61463
#
# Compressibility (1/GPa) = 0.02106788
#
# Stress axis : x y z
#
# Youngs Moduli (GPa) = 82.89678 64.24547 42.88695
#
# Poissons Ratio (x) = 0.16306 0.26345
# Poissons Ratio (y) = 0.21040 0.26838
# Poissons Ratio (z) = 0.50923 0.40204
#
# Static dielectric constant tensor:
#      x y z
#    x 3.580140 0.000000 0.000000 
#    y 0.000000 3.330290 0.000000 
#    z 0.000000 0.000000 3.009100 
# 
# 
# High freq. dielectric constant tensor:
#      x y z
#    x 1.708530 0.000000 0.000000 
#    y 0.000000 1.700230 0.000000 
#    z 0.000000 0.000000 1.650290 
# 
# From -- ./inp_files/11860.got.cif
#   From: 2010.03.12/outbox.cif.g09.slc.cpg/sg51_6_cif.got.tgz:11860.got - 2010.04.16 13:43:02.
