data_PCOD8210116
_publ_section_title
;
Structure prediction by ZEFSAII (Michael W. Deem and Ramdas Pophale) SiO2 
 PCOD8210116
Probable space group: P M M A
;
_chemical_formula_sum "Si O2"
_cell_formula_units_Z 32
_cell_length_a 23.406474
_cell_length_b 9.008348
_cell_length_c 7.657826
_cell_angle_alpha 90.000000
_cell_angle_beta 90.000000
_cell_angle_gamma 90.000000
_cell_volume 1614.680665
_symmetry_space_group_name_H-M "P M M A"
_symmetry_group_IT_number 51
_symmetry_cell_setting 'orthorhombic'
loop_
_space_group_symop_operation_xyz
x,y,z
1/2-x,-y,z
1/2+x,-y,-z
-x,y,-z
-x,-y,-z
1/2+x,y,-z
1/2-x,y,z
x,-y,z
loop_
_atom_site_type_symbol
_atom_site_label
_atom_site_fract_x
_atom_site_fract_y
_atom_site_fract_z
Si Si1 0.991499 0.670703 0.698508
Si Si2 0.120156 0.175239 0.175455
Si Si3 0.882805 0.671190 0.175993
Si Si4 0.816326 0.671687 0.517483
O O1 0.970888 0.500000 0.704024
O O2 0.943736 0.771152 0.785857
O O3 0.000000 0.722350 0.500000
O O4 0.049441 0.692939 0.805385
O O5 0.165030 0.234454 0.316022
O O6 0.121737 0.000000 0.176036
O O7 0.139711 0.233571 0.986246
O O8 0.867262 0.500000 0.142065
O O9 0.851252 0.728772 0.349586
O O10 0.750000 0.697347 0.480536
O O11 0.830839 0.500000 0.554188
#
# Coordination Sequence:
#
# PCOD8210116 Si02
#       4
#     8   8   8   8
#     4  10  19  37  64  90 119 156 202 252 296 346
#     4  12  25  38  58  91 131 163 192 236 301 372
#     4  10  21  39  64  91 119 155 204 253 297 346
#     4  10  22  43  68  89 112 152 209 260 297 343
#
# _framework density 19.818159000000001
#
# number of rings (size 3 to 8) (size 9 to 14) (size 15 to 20)
#    0.000    1.500    2.500    3.000    0.000    7.000 
#    0.000    2.500    0.000    0.000    0.000    0.000 
#    0.000    0.000    0.000    0.000    0.000    0.000 
#
# Total GULP energy -397000.461913 kJ/mol
# GULP energy per Si atom -12406.264435 kJ/mol
# Density = 1.977305 g / cm^3
# Si number density = 19.818159 Si / 1000 Ang^3
#
#
#
# Elastic Constant Matrix: (Units=GPa)
#
#
# Indices 1 2 3 4 5 6 
#
# 1 75.2325 29.4231 20.7508 0.0000 0.0000 0.0000
# 2 29.4231 99.5367 58.4326 0.0000 0.0000 0.0000
# 3 20.7508 58.4326 128.5640 0.0000 0.0000 0.0000
# 4 0.0000 0.0000 0.0000 4.9064 0.0000 0.0000
# 5 0.0000 0.0000 0.0000 0.0000 13.3336 0.0000
# 6 0.0000 0.0000 0.0000 0.0000 0.0000 12.3981
#
#
#
# Elastic Compliance Matrix: (Units=1/GPa)
#
#
# Indices 1 2 3 4 5 6 
#
# 1 0.015059 -0.004125 -0.000556 0.000000 0.000000 0.000000
# 2 -0.004125 0.014833 -0.006076 0.000000 0.000000 0.000000
# 3 -0.000556 -0.006076 0.010629 0.000000 0.000000 0.000000
# 4 0.000000 0.000000 0.000000 0.203815 0.000000 0.000000
# 5 0.000000 0.000000 0.000000 0.000000 0.074998 0.000000
# 6 0.000000 0.000000 0.000000 0.000000 0.000000 0.080657
#
#
# Mechanical properties :
#
#
# Convention : Reuss Voigt Hill
#
# Bulk Modulus (GPa) = 52.61015 57.83847 55.22431
# Shear Modulus (GPa) = 11.68661 19.10942 15.39801
#
# Velocity S-wave (km/s) = 2.43099 3.10859 2.79043
# Velocity P-wave (km/s) = 5.87228 6.49094 6.18935
#
# Compressibility (1/GPa) = 0.01900774
#
# Stress axis : x y z
#
# Youngs Moduli (GPa) = 66.40666 67.41901 94.07958
#
# Poissons Ratio (x) = 0.27811 0.05228
# Poissons Ratio (y) = 0.27394 0.57159
# Poissons Ratio (z) = 0.03690 0.40961
#
# Static dielectric constant tensor:
#      x y z
#    x 3.538240 0.000000 0.000000 
#    y 0.000000 3.414030 0.000000 
#    z 0.000000 0.000000 3.791310 
# 
# 
# High freq. dielectric constant tensor:
#      x y z
#    x 1.770650 0.000000 0.000000 
#    y 0.000000 1.750780 0.000000 
#    z 0.000000 0.000000 1.790670 
# 
# From -- ./inp_files/10284.got.cif
#   From: 2010.03.12/outbox.cif.g09.slc.cpg/sg51_6_cif.got.tgz:10284.got - 2010.04.16 13:43:02.
