data_PCOD8210399
_publ_section_title
;
Structure prediction by ZEFSAII (Michael W. Deem and Ramdas Pophale) SiO2 
 PCOD8210399
Probable space group: P M M A
;
_chemical_formula_sum "Si O2"
_cell_formula_units_Z 56
_cell_length_a 20.605487
_cell_length_b 9.469264
_cell_length_c 15.322158
_cell_angle_alpha 90.000000
_cell_angle_beta 90.000000
_cell_angle_gamma 90.000000
_cell_volume 2989.641025
_symmetry_space_group_name_H-M "P M M A"
_symmetry_group_IT_number 51
_symmetry_cell_setting 'orthorhombic'
loop_
_space_group_symop_operation_xyz
x,y,z
1/2-x,-y,z
1/2+x,-y,-z
-x,y,-z
-x,-y,-z
1/2+x,y,-z
1/2-x,y,z
x,-y,z
loop_
_atom_site_type_symbol
_atom_site_label
_atom_site_fract_x
_atom_site_fract_y
_atom_site_fract_z
Si Si1 0.961461 0.336617 0.915624
Si Si2 0.984387 0.659443 0.723220
Si Si3 0.056251 0.164426 0.433752
Si Si4 0.821484 0.340528 0.977166
Si Si5 0.369299 0.658651 0.703363
Si Si6 0.322505 0.840305 0.548447
Si Si7 0.323221 0.158647 0.854134
O O1 0.980228 0.500000 0.916490
O O2 0.984894 0.275172 0.821880
O O3 0.883442 0.311902 0.915755
O O4 0.000000 0.268342 0.000000
O O5 0.955715 0.500000 0.725854
O O6 0.942386 0.754908 0.658299
O O7 0.055260 0.656966 0.680091
O O8 0.126385 0.198675 0.474010
O O9 0.000000 0.217342 0.500000
O O10 0.045885 0.000000 0.413835
O O11 0.750000 0.325209 0.930357
O O12 0.827284 0.500000 0.015911
O O13 0.825967 0.223235 0.050522
O O14 0.341894 0.500000 0.714279
O O15 0.328512 0.735960 0.629448
O O16 0.365434 0.741978 0.793448
O O17 0.250000 0.825661 0.509468
O O18 0.335457 0.000000 0.582201
O O19 0.250000 0.156158 0.818251
O O20 0.351877 0.000000 0.856405
#
# Coordination Sequence:
#
# PCOD8210399 Si02
#       7
#     8   8   8   8   8   8   8
#     4   9  17  32  53  77 108 141 175 217 268 321
#     4  10  21  35  55  82 108 141 182 225 273 325
#     4  10  20  37  59  80 105 142 184 223 265 320
#     4   9  17  31  52  74  97 132 179 226 268 315
#     4  11  21  32  50  77 107 138 176 221 270 326
#     4  10  21  37  56  78 107 142 178 220 273 325
#     4  10  20  32  47  70 103 141 177 216 269 330
#
# _framework density 18.731347
#
# number of rings (size 3 to 8) (size 9 to 14) (size 15 to 20)
#    0.000    2.143    1.429    2.143    0.000    6.571 
#    0.000    1.429    0.000    2.571    0.000    0.000 
#    0.000    0.000    0.000    0.000    0.000    0.000 
#
# Total GULP energy -694082.087004 kJ/mol
# GULP energy per Si atom -12394.322982 kJ/mol
# Density = 1.868871 g / cm^3
# Si number density = 18.731347 Si / 1000 Ang^3
#
#
#
# Elastic Constant Matrix: (Units=GPa)
#
#
# Indices 1 2 3 4 5 6 
#
# 1 107.5193 25.4236 41.3130 0.0000 0.0000 0.0000
# 2 25.4236 83.8760 37.5570 0.0000 0.0000 0.0000
# 3 41.3130 37.5570 107.0360 0.0000 0.0000 0.0000
# 4 0.0000 0.0000 0.0000 8.2252 0.0000 0.0000
# 5 0.0000 0.0000 0.0000 0.0000 28.7430 0.0000
# 6 0.0000 0.0000 0.0000 0.0000 0.0000 14.2998
#
#
#
# Elastic Compliance Matrix: (Units=1/GPa)
#
#
# Indices 1 2 3 4 5 6 
#
# 1 0.011125 -0.001720 -0.003691 0.000000 0.000000 0.000000
# 2 -0.001720 0.014410 -0.004393 0.000000 0.000000 0.000000
# 3 -0.003691 -0.004393 0.012308 0.000000 0.000000 0.000000
# 4 0.000000 0.000000 0.000000 0.121578 0.000000 0.000000
# 5 0.000000 0.000000 0.000000 0.000000 0.034791 0.000000
# 6 0.000000 0.000000 0.000000 0.000000 0.000000 0.069931
#
#
# Mechanical properties :
#
#
# Convention : Reuss Voigt Hill
#
# Bulk Modulus (GPa) = 54.82948 56.33539 55.58243
# Shear Modulus (GPa) = 17.25148 23.19610 20.22379
#
# Velocity S-wave (km/s) = 3.03808 3.52285 3.28941
# Velocity P-wave (km/s) = 6.45303 6.83286 6.64566
#
# Compressibility (1/GPa) = 0.01823836
#
# Stress axis : x y z
#
# Youngs Moduli (GPa) = 89.88455 69.39391 81.24482
#
# Poissons Ratio (x) = 0.11933 0.29985
# Poissons Ratio (y) = 0.15457 0.35688
# Poissons Ratio (z) = 0.33174 0.30482
#
# Static dielectric constant tensor:
#      x y z
#    x 3.596540 0.000000 0.000000 
#    y 0.000000 3.383660 0.000000 
#    z 0.000000 0.000000 3.255280 
# 
# 
# High freq. dielectric constant tensor:
#      x y z
#    x 1.730440 0.000000 0.000000 
#    y 0.000000 1.714540 0.000000 
#    z 0.000000 0.000000 1.703410 
# 
# From -- ./inp_files/25658.got.cif
#   From: 2010.03.12/outbox.cif.g09.slc.cpg/sg51_13_cif.got.tgz:25658.got - 2010.04.16 13:43:02.
