data_PCOD8210567
_publ_section_title
;
Structure prediction by ZEFSAII (Michael W. Deem and Ramdas Pophale) SiO2 
 PCOD8210567
Probable space group: P M M A
;
_chemical_formula_sum "Si O2"
_cell_formula_units_Z 56
_cell_length_a 15.106686
_cell_length_b 9.519010
_cell_length_c 21.353008
_cell_angle_alpha 90.000000
_cell_angle_beta 90.000000
_cell_angle_gamma 90.000000
_cell_volume 3070.577393
_symmetry_space_group_name_H-M "P M M A"
_symmetry_group_IT_number 51
_symmetry_cell_setting 'orthorhombic'
loop_
_space_group_symop_operation_xyz
x,y,z
1/2-x,-y,z
1/2+x,-y,-z
-x,y,-z
-x,-y,-z
1/2+x,y,-z
1/2-x,y,z
x,-y,z
loop_
_atom_site_type_symbol
_atom_site_label
_atom_site_fract_x
_atom_site_fract_y
_atom_site_fract_z
Si Si1 0.988476 0.663812 0.146897
Si Si2 0.354878 0.845231 0.508710
Si Si3 0.010966 0.663855 0.289520
Si Si4 0.850607 0.663244 0.376022
Si Si5 0.849604 0.841200 0.073081
Si Si6 0.647903 0.165140 0.630508
Si Si7 0.094747 0.653555 0.032194
O O1 0.961306 0.500000 0.142384
O O2 0.906366 0.754766 0.122766
O O3 0.009409 0.708862 0.217302
O O4 0.076418 0.693852 0.104928
O O5 0.250000 0.853188 0.507973
O O6 0.388161 0.739886 0.562133
O O7 0.385286 0.795155 0.439708
O O8 0.393816 0.000000 0.523447
O O9 0.032135 0.500000 0.297899
O O10 0.089165 0.750100 0.320890
O O11 0.914918 0.701301 0.318565
O O12 0.750000 0.711099 0.359113
O O13 0.852637 0.500000 0.391846
O O14 0.750000 0.842029 0.098633
O O15 0.886436 0.000000 0.067094
O O16 0.848829 0.771017 0.003699
O O17 0.750000 0.209052 0.640273
O O18 0.635988 0.000000 0.642093
O O19 0.141546 0.500000 0.027911
O O20 0.000000 0.644209 0.000000
#
# Coordination Sequence:
#
# PCOD8210567 Si02
#       7
#     8   8   8   8   8   8   8
#     4   9  19  35  52  71  98 133 170 203 240 293
#     4   8  15  30  51  72  95 127 168 213 260 308
#     4  10  21  35  52  76 104 136 174 212 253 302
#     4   9  18  32  49  72 103 135 168 209 257 308
#     4  10  20  32  49  77 106 128 158 201 246 293
#     4   9  19  36  55  74  98 130 170 215 262 312
#     4   8  15  30  51  71  91 120 159 197 233 278
#
# _framework density 18.237611000000001
#
# number of rings (size 3 to 8) (size 9 to 14) (size 15 to 20)
#    0.000    3.000    0.000    2.143    0.000    6.857 
#    0.000    6.429    0.000    6.000    0.000    0.000 
#    0.000    0.000    0.000    0.000    0.000    0.000 
#
# Total GULP energy -694129.255627 kJ/mol
# GULP energy per Si atom -12395.165279 kJ/mol
# Density = 1.819610 g / cm^3
# Si number density = 18.237611 Si / 1000 Ang^3
#
#
#
# Elastic Constant Matrix: (Units=GPa)
#
#
# Indices 1 2 3 4 5 6 
#
# 1 58.0886 32.6506 40.9586 0.0000 0.0000 0.0000
# 2 32.6506 74.7674 55.3360 0.0000 0.0000 0.0000
# 3 40.9586 55.3360 152.7431 0.0000 0.0000 0.0000
# 4 0.0000 0.0000 0.0000 7.0406 0.0000 0.0000
# 5 0.0000 0.0000 0.0000 0.0000 21.8699 0.0000
# 6 0.0000 0.0000 0.0000 0.0000 0.0000 20.9980
#
#
#
# Elastic Compliance Matrix: (Units=1/GPa)
#
#
# Indices 1 2 3 4 5 6 
#
# 1 0.024209 -0.007880 -0.003637 0.000000 0.000000 0.000000
# 2 -0.007880 0.020840 -0.005437 0.000000 0.000000 0.000000
# 3 -0.003637 -0.005437 0.009492 0.000000 0.000000 0.000000
# 4 0.000000 0.000000 0.000000 0.142033 0.000000 0.000000
# 5 0.000000 0.000000 0.000000 0.000000 0.045725 0.000000
# 6 0.000000 0.000000 0.000000 0.000000 0.000000 0.047624
#
#
# Mechanical properties :
#
#
# Convention : Reuss Voigt Hill
#
# Bulk Modulus (GPa) = 48.46649 60.38772 54.42710
# Shear Modulus (GPa) = 15.11909 20.42528 17.77219
#
# Velocity S-wave (km/s) = 2.88237 3.35020 3.12505
# Velocity P-wave (km/s) = 6.14086 6.93892 6.55205
#
# Compressibility (1/GPa) = 0.02063281
#
# Stress axis : x y z
#
# Youngs Moduli (GPa) = 41.30737 47.98491 105.35401
#
# Poissons Ratio (x) = 0.37813 0.38315
# Poissons Ratio (y) = 0.32551 0.57279
# Poissons Ratio (z) = 0.15023 0.26088
#
# Static dielectric constant tensor:
#      x y z
#    x 3.186900 0.000000 0.000000 
#    y 0.000000 3.473200 0.000000 
#    z 0.000000 0.000000 3.600550 
# 
# 
# High freq. dielectric constant tensor:
#      x y z
#    x 1.689740 0.000000 0.000000 
#    y 0.000000 1.703660 0.000000 
#    z 0.000000 0.000000 1.703220 
# 
# From -- ./inp_files/33397.got.cif
#   From: 2010.03.12/outbox.cif.g09.slc.cpg/sg51_17_cif.got.tgz:33397.got - 2010.04.16 13:43:02.
