data_PCOD8210531
_publ_section_title
;
Structure prediction by ZEFSAII (Michael W. Deem and Ramdas Pophale) SiO2 
 PCOD8210531
Probable space group: P M M A
;
_chemical_formula_sum "Si O2"
_cell_formula_units_Z 64
_cell_length_a 9.215955
_cell_length_b 27.696599
_cell_length_c 14.050135
_cell_angle_alpha 90.000000
_cell_angle_beta 90.000000
_cell_angle_gamma 90.000000
_cell_volume 3586.305530
_symmetry_space_group_name_H-M "P M M A"
_symmetry_group_IT_number 51
_symmetry_cell_setting 'orthorhombic'
loop_
_space_group_symop_operation_xyz
x,y,z
1/2-x,-y,z
1/2+x,-y,-z
-x,y,-z
-x,-y,-z
1/2+x,y,-z
1/2-x,y,z
x,-y,z
loop_
_atom_site_type_symbol
_atom_site_label
_atom_site_fract_x
_atom_site_fract_y
_atom_site_fract_z
Si Si1 0.078299 0.628192 0.779679
Si Si2 0.913111 0.283728 0.093319
Si Si3 0.579665 0.310227 0.399733
Si Si4 0.418059 0.443288 0.096043
Si Si5 0.918835 0.054454 0.904713
Si Si6 0.579049 0.121304 0.732129
Si Si7 0.915348 0.947541 0.403919
Si Si8 0.085274 0.219293 0.727273
O O1 0.250000 0.618507 0.784978
O O2 0.027939 0.668258 0.855875
O O3 0.036736 0.646415 0.673198
O O4 0.989734 0.580569 0.809835
O O5 0.750000 0.292611 0.060092
O O6 0.922974 0.240149 0.167038
O O7 0.000000 0.269689 0.000000
O O8 0.500000 0.317215 0.500000
O O9 0.750000 0.311821 0.419377
O O10 0.538209 0.259105 0.351173
O O11 0.250000 0.428250 0.087288
O O12 0.436215 0.500000 0.110661
O O13 0.500000 0.426202 0.000000
O O14 0.750000 0.057531 0.926214
O O15 0.966562 0.094619 0.829046
O O16 0.960391 0.000000 0.870624
O O17 0.000000 0.068721 0.000000
O O18 0.750000 0.118556 0.715119
O O19 0.496568 0.094007 0.650362
O O20 0.528881 0.176253 0.726528
O O21 0.750000 0.931514 0.422132
O O22 0.000000 0.953823 0.500000
O O23 0.920137 0.000000 0.351176
O O24 0.250000 0.201768 0.706276
#
# Coordination Sequence:
#
# PCOD8210531 Si02
#       8
#     8   8   8   8   8   8   8   8
#     4   9  18  33  52  76 104 135 174 217 261 307
#     4   9  18  32  50  71  98 132 168 209 254 300
#     4   9  19  36  57  78 101 131 169 216 265 310
#     4  10  20  32  48  75 111 148 182 216 257 305
#     4   9  19  35  53  73  98 129 166 207 248 292
#     4  11  22  35  53  77 104 133 165 204 250 298
#     4  10  21  37  57  79 101 127 159 195 239 293
#     4   9  20  37  51  69 101 135 166 203 250 304
#
# _framework density 17.845662000000001
#
# number of rings (size 3 to 8) (size 9 to 14) (size 15 to 20)
#    0.000    2.500    0.000    3.375    0.000    7.000 
#    0.000    7.500    0.000    0.375    0.000    0.000 
#    0.000    0.000    0.000    0.000    0.000    0.000 
#
# Total GULP energy -793369.854116 kJ/mol
# GULP energy per Si atom -12396.403971 kJ/mol
# Density = 1.780504 g / cm^3
# Si number density = 17.845662 Si / 1000 Ang^3
#
#
#
# Elastic Constant Matrix: (Units=GPa)
#
#
# Indices 1 2 3 4 5 6 
#
# 1 83.7365 47.5852 55.6590 0.0000 0.0000 0.0000
# 2 47.5852 81.6854 49.1373 0.0000 0.0000 0.0000
# 3 55.6590 49.1373 116.4258 0.0000 0.0000 0.0000
# 4 0.0000 0.0000 0.0000 23.5941 0.0000 0.0000
# 5 0.0000 0.0000 0.0000 0.0000 36.1273 0.0000
# 6 0.0000 0.0000 0.0000 0.0000 0.0000 32.0268
#
#
#
# Elastic Compliance Matrix: (Units=1/GPa)
#
#
# Indices 1 2 3 4 5 6 
#
# 1 0.021007 -0.008305 -0.006538 0.000000 0.000000 0.000000
# 2 -0.008305 0.019691 -0.004340 0.000000 0.000000 0.000000
# 3 -0.006538 -0.004340 0.013546 0.000000 0.000000 0.000000
# 4 0.000000 0.000000 0.000000 0.042383 0.000000 0.000000
# 5 0.000000 0.000000 0.000000 0.000000 0.027680 0.000000
# 6 0.000000 0.000000 0.000000 0.000000 0.000000 0.031224
#
#
# Mechanical properties :
#
#
# Convention : Reuss Voigt Hill
#
# Bulk Modulus (GPa) = 62.97700 65.17897 64.07799
# Shear Modulus (GPa) = 25.10160 26.98071 26.04115
#
# Velocity S-wave (km/s) = 3.75453 3.89252 3.82415
# Velocity P-wave (km/s) = 7.35946 7.53693 7.44873
#
# Compressibility (1/GPa) = 0.01587881
#
# Stress axis : x y z
#
# Youngs Moduli (GPa) = 47.60254 50.78496 73.82016
#
# Poissons Ratio (x) = 0.42176 0.48262
# Poissons Ratio (y) = 0.39533 0.32040
# Poissons Ratio (z) = 0.31122 0.22042
#
# Static dielectric constant tensor:
#      x y z
#    x 3.291170 0.000000 0.000000 
#    y 0.000000 3.317060 0.000000 
#    z 0.000000 0.000000 3.212210 
# 
# 
# High freq. dielectric constant tensor:
#      x y z
#    x 1.693890 0.000000 0.000000 
#    y 0.000000 1.685230 0.000000 
#    z 0.000000 0.000000 1.683820 
# 
# From -- ./inp_files/22353.got.cif
#   From: 2010.03.12/outbox.cif.g09.slc.cpg/sg51_12_cif.got.tgz:22353.got - 2010.04.16 13:43:02.
