data_PCOD8210852
_publ_section_title
;
Structure prediction by ZEFSAII (Michael W. Deem and Ramdas Pophale) SiO2 
 PCOD8210852
Probable space group: P M M A
;
_chemical_formula_sum "Si O2"
_cell_formula_units_Z 52
_cell_length_a 8.852262
_cell_length_b 26.611237
_cell_length_c 13.662499
_cell_angle_alpha 90.000000
_cell_angle_beta 90.000000
_cell_angle_gamma 90.000000
_cell_volume 3218.469999
_symmetry_space_group_name_H-M "P M M A"
_symmetry_group_IT_number 51
_symmetry_cell_setting 'orthorhombic'
loop_
_space_group_symop_operation_xyz
x,y,z
1/2-x,-y,z
1/2+x,-y,-z
-x,y,-z
-x,-y,-z
1/2+x,y,-z
1/2-x,y,z
x,-y,z
loop_
_atom_site_type_symbol
_atom_site_label
_atom_site_fract_x
_atom_site_fract_y
_atom_site_fract_z
Si Si1 0.072805 0.353611 0.795630
Si Si2 0.072284 0.108429 0.606093
Si Si3 0.574130 0.000000 0.396223
Si Si4 0.423737 0.299745 0.600436
Si Si5 0.570226 0.259116 0.896294
Si Si6 0.929266 0.795099 0.279109
Si Si7 0.926416 0.557691 0.896752
O O1 0.250000 0.351447 0.819680
O O2 0.041112 0.341737 0.682048
O O3 0.989909 0.313640 0.864734
O O4 0.005627 0.408702 0.814210
O O5 0.250000 0.113889 0.590552
O O6 0.016926 0.150560 0.682241
O O7 0.000000 0.116468 0.500000
O O8 0.028897 0.053431 0.653991
O O9 0.500000 0.000000 0.500000
O O10 0.750000 0.000000 0.414507
O O11 0.500000 0.315755 0.500000
O O12 0.250000 0.296286 0.576095
O O13 0.479912 0.245720 0.639801
O O14 0.750000 0.260323 0.902358
O O15 0.516507 0.216057 0.821145
O O16 0.500000 0.244400 0.000000
O O17 0.750000 0.791525 0.259309
O O18 0.750000 0.569780 0.902597
O O19 0.957259 0.500000 0.868641
O O20 0.000000 0.571509 0.000000
#
# Coordination Sequence:
#
# PCOD8210852 Si02
#       7
#     8   8   4   8   8   8   8
#     4  10  20  34  50  70  96 124 153 185 223 267
#     4   9  16  26  42  63  92 124 155 190 226 267
#     4   8  14  24  38  60  87 120 155 186 225 268
#     4   9  18  30  45  65  90 119 151 186 223 262
#     4  11  21  33  49  68  91 119 149 184 225 271
#     4   9  18  31  44  64  92 121 152 187 226 268
#     4  10  20  33  50  73  98 123 152 187 227 270
#
# _framework density 16.156745000000001
#
# number of rings (size 3 to 8) (size 9 to 14) (size 15 to 20)
#    0.000    2.462    0.000    4.154    0.000    4.615 
#    0.000    0.000    0.000    0.462    0.000    0.538 
#    0.000    0.000    0.000    0.000    0.000    0.000 
#
# Total GULP energy -644571.554351 kJ/mol
# GULP energy per Si atom -12395.606814 kJ/mol
# Density = 1.611997 g / cm^3
# Si number density = 16.156745 Si / 1000 Ang^3
#
#
#
# Elastic Constant Matrix: (Units=GPa)
#
#
# Indices 1 2 3 4 5 6 
#
# 1 79.5418 48.2943 51.8116 0.0000 0.0000 0.0000
# 2 48.2943 127.4437 62.9860 0.0000 0.0000 0.0000
# 3 51.8116 62.9860 109.4978 0.0000 0.0000 0.0000
# 4 0.0000 0.0000 0.0000 22.2401 0.0000 0.0000
# 5 0.0000 0.0000 0.0000 0.0000 28.6083 0.0000
# 6 0.0000 0.0000 0.0000 0.0000 0.0000 20.6873
#
#
#
# Elastic Compliance Matrix: (Units=1/GPa)
#
#
# Indices 1 2 3 4 5 6 
#
# 1 0.019502 -0.003953 -0.006954 0.000000 0.000000 0.000000
# 2 -0.003953 0.011765 -0.004897 0.000000 0.000000 0.000000
# 3 -0.006954 -0.004897 0.015240 0.000000 0.000000 0.000000
# 4 0.000000 0.000000 0.000000 0.044964 0.000000 0.000000
# 5 0.000000 0.000000 0.000000 0.000000 0.034955 0.000000
# 6 0.000000 0.000000 0.000000 0.000000 0.000000 0.048339
#
#
# Mechanical properties :
#
#
# Convention : Reuss Voigt Hill
#
# Bulk Modulus (GPa) = 67.12055 71.40745 69.26400
# Shear Modulus (GPa) = 23.65883 24.53325 24.09604
#
# Velocity S-wave (km/s) = 3.83081 3.90096 3.86604
# Velocity P-wave (km/s) = 7.82307 8.03633 7.93041
#
# Compressibility (1/GPa) = 0.01489857
#
# Stress axis : x y z
#
# Youngs Moduli (GPa) = 51.27737 84.99878 65.61842
#
# Poissons Ratio (x) = 0.33604 0.45628
# Poissons Ratio (y) = 0.20272 0.32132
# Poissons Ratio (z) = 0.35656 0.41622
#
# Static dielectric constant tensor:
#      x y z
#    x 3.056380 0.000000 0.000000 
#    y 0.000000 3.367590 0.000000 
#    z 0.000000 0.000000 2.946820 
# 
# 
# High freq. dielectric constant tensor:
#      x y z
#    x 1.628990 0.000000 0.000000 
#    y 0.000000 1.621180 0.000000 
#    z 0.000000 0.000000 1.597320 
# 
# From -- ./inp_files/14737.got.cif
#   From: 2010.03.12/outbox.cif.g09.slc.cpg/sg51_8_cif.got.tgz:14737.got - 2010.04.16 13:43:02.
