data_PCOD8210983
_publ_section_title
;
Structure prediction by ZEFSAII (Michael W. Deem and Ramdas Pophale) SiO2 
 PCOD8210983
Probable space group: P M M A
;
_chemical_formula_sum "Si O2"
_cell_formula_units_Z 48
_cell_length_a 9.341859
_cell_length_b 9.274608
_cell_length_c 30.399973
_cell_angle_alpha 90.000000
_cell_angle_beta 90.000000
_cell_angle_gamma 90.000000
_cell_volume 2633.916899
_symmetry_space_group_name_H-M "P M M A"
_symmetry_group_IT_number 51
_symmetry_cell_setting 'orthorhombic'
loop_
_space_group_symop_operation_xyz
x,y,z
1/2-x,-y,z
1/2+x,-y,-z
-x,y,-z
-x,-y,-z
1/2+x,y,-z
1/2-x,y,z
x,-y,z
loop_
_atom_site_type_symbol
_atom_site_label
_atom_site_fract_x
_atom_site_fract_y
_atom_site_fract_z
Si Si1 0.083272 0.833041 0.456833
Si Si2 0.414633 0.830391 0.042553
Si Si3 0.087766 0.332672 0.885914
Si Si4 0.920319 0.337020 0.627938
Si Si5 0.084030 0.336095 0.784326
Si Si6 0.081528 0.833645 0.287295
O O1 0.250000 0.803999 0.464921
O O2 0.023186 0.741577 0.415884
O O3 0.000000 0.780994 0.500000
O O4 0.053154 0.000000 0.446466
O O5 0.250000 0.785634 0.036823
O O6 0.476415 0.757936 0.086007
O O7 0.433527 0.000000 0.048121
O O8 0.500000 0.773695 0.000000
O O9 0.250000 0.283989 0.896753
O O10 0.068358 0.500000 0.897035
O O11 0.053040 0.302559 0.835133
O O12 0.750000 0.333685 0.628060
O O13 0.979289 0.500000 0.628928
O O14 0.978494 0.252926 0.670576
O O15 0.250000 0.312827 0.773416
O O16 0.038785 0.500000 0.773128
O O17 0.991356 0.225441 0.756446
O O18 0.250000 0.811802 0.282082
O O19 0.041042 0.000000 0.293720
#
# Coordination Sequence:
#
# PCOD8210983 Si02
#       6
#     8   8   8   8   8   8
#     4   9  17  30  48  69  94 124 158 198 245 296
#     4  10  21  36  54  77 105 137 173 212 254 300
#     4   9  19  36  56  77 102 134 171 209 251 301
#     4   9  17  30  49  71  95 127 166 205 246 293
#     4   9  19  36  55  75 102 135 169 206 251 302
#     4  10  20  33  51  76 103 131 167 209 250 297
#
# _framework density 18.223808999999999
#
# number of rings (size 3 to 8) (size 9 to 14) (size 15 to 20)
#    0.000    2.667    0.000    2.500    0.000    6.667 
#    0.000    5.833    0.000    3.000    0.000    0.000 
#    0.000    0.000    0.000    0.000    0.000    0.000 
#
# Total GULP energy -595297.362701 kJ/mol
# GULP energy per Si atom -12402.028390 kJ/mol
# Density = 1.818233 g / cm^3
# Si number density = 18.223809 Si / 1000 Ang^3
#
#
#
# Elastic Constant Matrix: (Units=GPa)
#
#
# Indices 1 2 3 4 5 6 
#
# 1 69.8363 50.0322 61.5637 0.0000 0.0000 0.0000
# 2 50.0322 100.2161 74.0520 0.0000 0.0000 0.0000
# 3 61.5637 74.0520 131.4159 0.0000 0.0000 0.0000
# 4 0.0000 0.0000 0.0000 39.1258 0.0000 0.0000
# 5 0.0000 0.0000 0.0000 0.0000 33.7077 0.0000
# 6 0.0000 0.0000 0.0000 0.0000 0.0000 27.2713
#
#
#
# Elastic Compliance Matrix: (Units=1/GPa)
#
#
# Indices 1 2 3 4 5 6 
#
# 1 0.027048 -0.007095 -0.008673 0.000000 0.000000 0.000000
# 2 -0.007095 0.018958 -0.007359 0.000000 0.000000 0.000000
# 3 -0.008673 -0.007359 0.015819 0.000000 0.000000 0.000000
# 4 0.000000 0.000000 0.000000 0.025559 0.000000 0.000000
# 5 0.000000 0.000000 0.000000 0.000000 0.029667 0.000000
# 6 0.000000 0.000000 0.000000 0.000000 0.000000 0.036669
#
#
# Mechanical properties :
#
#
# Convention : Reuss Voigt Hill
#
# Bulk Modulus (GPa) = 64.22061 74.75157 69.48609
# Shear Modulus (GPa) = 24.37076 27.74232 26.05654
#
# Velocity S-wave (km/s) = 3.66088 3.90591 3.78538
# Velocity P-wave (km/s) = 7.29286 7.83896 7.57084
#
# Compressibility (1/GPa) = 0.01557133
#
# Stress axis : x y z
#
# Youngs Moduli (GPa) = 36.97180 52.74727 63.21340
#
# Poissons Ratio (x) = 0.37422 0.54826
# Poissons Ratio (y) = 0.26230 0.46521
# Poissons Ratio (z) = 0.32066 0.38819
#
# Static dielectric constant tensor:
#      x y z
#    x 3.140060 0.000000 0.000000 
#    y 0.000000 3.356640 0.000000 
#    z 0.000000 0.000000 3.419240 
# 
# 
# High freq. dielectric constant tensor:
#      x y z
#    x 1.684620 0.000000 0.000000 
#    y 0.000000 1.706890 0.000000 
#    z 0.000000 0.000000 1.716990 
# 
# From -- ./inp_files/36947.got.cif
#   From: 2010.03.12/outbox.cif.g09.slc.cpg/sg51_19_cif.got.tgz:36947.got - 2010.04.16 13:43:02.
