data_PCOD8210603
_publ_section_title
;
Structure prediction by ZEFSAII (Michael W. Deem and Ramdas Pophale) SiO2 
 PCOD8210603
Probable space group: P M M A
;
_chemical_formula_sum "Si O2"
_cell_formula_units_Z 40
_cell_length_a 7.621117
_cell_length_b 9.379094
_cell_length_c 29.296894
_cell_angle_alpha 90.000000
_cell_angle_beta 90.000000
_cell_angle_gamma 90.000000
_cell_volume 2094.117747
_symmetry_space_group_name_H-M "P M M A"
_symmetry_group_IT_number 51
_symmetry_cell_setting 'orthorhombic'
loop_
_space_group_symop_operation_xyz
x,y,z
1/2-x,-y,z
1/2+x,-y,-z
-x,y,-z
-x,-y,-z
1/2+x,y,-z
1/2-x,y,z
x,-y,z
loop_
_atom_site_type_symbol
_atom_site_label
_atom_site_fract_x
_atom_site_fract_y
_atom_site_fract_z
Si Si1 0.958470 0.340234 0.133066
Si Si2 0.750000 0.669478 0.615211
Si Si3 0.455852 0.159101 0.950364
Si Si4 0.451111 0.164727 0.779149
Si Si5 0.250000 0.164559 0.291622
Si Si6 0.945445 0.669426 0.450624
O O1 0.750000 0.343963 0.130213
O O2 0.035705 0.500000 0.134491
O O3 0.037659 0.259950 0.088750
O O4 0.017978 0.257483 0.178336
O O5 0.750000 0.500000 0.620378
O O6 0.750000 0.736937 0.664624
O O7 0.578742 0.724315 0.587965
O O8 0.250000 0.150072 0.943030
O O9 0.538144 0.000000 0.946477
O O10 0.500000 0.224711 0.000000
O O11 0.250000 0.201257 0.765754
O O12 0.574746 0.201401 0.736612
O O13 0.469631 0.000000 0.793504
O O14 0.250000 0.000000 0.306511
O O15 0.750000 0.722745 0.438071
O O16 0.952983 0.500000 0.453081
O O17 0.000000 0.731645 0.500000
#
# Coordination Sequence:
#
# PCOD8210603 Si02
#       6
#     8   4   8   8   4   8
#     4   9  17  30  50  74  98 126 160 203 257 309
#     4  10  20  32  50  78 108 138 172 216 263 302
#     4   9  17  30  47  67  94 129 166 203 243 294
#     4   9  18  35  57  75  94 128 172 212 252 303
#     4  10  22  38  54  76 106 138 174 216 259 308
#     4   9  15  26  47  76 107 138 175 217 257 300
#
# _framework density 19.101122
#
# number of rings (size 3 to 8) (size 9 to 14) (size 15 to 20)
#    0.000    2.800    1.000    0.600    0.000    4.400 
#    1.800    0.000    0.000    0.600    0.000    0.000 
#    0.000    0.000    0.000    0.000    0.000    0.000 
#
# Total GULP energy -495922.340590 kJ/mol
# GULP energy per Si atom -12398.058515 kJ/mol
# Density = 1.905765 g / cm^3
# Si number density = 19.101122 Si / 1000 Ang^3
#
#
#
# Elastic Constant Matrix: (Units=GPa)
#
#
# Indices 1 2 3 4 5 6 
#
# 1 101.4341 31.1692 62.7828 0.0000 0.0000 0.0000
# 2 31.1692 79.4202 74.1361 0.0000 0.0000 0.0000
# 3 62.7828 74.1361 174.3776 0.0000 0.0000 0.0000
# 4 0.0000 0.0000 0.0000 21.7941 0.0000 0.0000
# 5 0.0000 0.0000 0.0000 0.0000 28.3139 0.0000
# 6 0.0000 0.0000 0.0000 0.0000 0.0000 8.0984
#
#
#
# Elastic Compliance Matrix: (Units=1/GPa)
#
#
# Indices 1 2 3 4 5 6 
#
# 1 0.012753 -0.001192 -0.004085 0.000000 0.000000 0.000000
# 2 -0.001192 0.020988 -0.008494 0.000000 0.000000 0.000000
# 3 -0.004085 -0.008494 0.010816 0.000000 0.000000 0.000000
# 4 0.000000 0.000000 0.000000 0.045884 0.000000 0.000000
# 5 0.000000 0.000000 0.000000 0.000000 0.035318 0.000000
# 6 0.000000 0.000000 0.000000 0.000000 0.000000 0.123482
#
#
# Mechanical properties :
#
#
# Convention : Reuss Voigt Hill
#
# Bulk Modulus (GPa) = 58.76757 76.82314 67.79536
# Shear Modulus (GPa) = 17.70199 24.11754 20.90977
#
# Velocity S-wave (km/s) = 3.04756 3.55720 3.31220
# Velocity P-wave (km/s) = 6.57395 7.56162 7.08502
#
# Compressibility (1/GPa) = 0.01701619
#
# Stress axis : x y z
#
# Youngs Moduli (GPa) = 78.41134 47.64721 92.45186
#
# Poissons Ratio (x) = 0.05680 0.37766
# Poissons Ratio (y) = 0.09347 0.78525
# Poissons Ratio (z) = 0.32030 0.40470
#
# Static dielectric constant tensor:
#      x y z
#    x 3.530340 0.000000 0.000000 
#    y 0.000000 3.380520 0.000000 
#    z 0.000000 0.000000 3.435940 
# 
# 
# High freq. dielectric constant tensor:
#      x y z
#    x 1.741100 0.000000 0.000000 
#    y 0.000000 1.711700 0.000000 
#    z 0.000000 0.000000 1.740190 
# 
# From -- ./inp_files/36067.got.cif
#   From: 2010.03.12/outbox.cif.g09.slc.cpg/sg51_19_cif.got.tgz:36067.got - 2010.04.16 13:43:02.
