data_PCOD8210584
_publ_section_title
;
Structure prediction by ZEFSAII (Michael W. Deem and Ramdas Pophale) SiO2 
 PCOD8210584
Probable space group: P M M A
;
_chemical_formula_sum "Si O2"
_cell_formula_units_Z 64
_cell_length_a 13.685903
_cell_length_b 9.378949
_cell_length_c 25.772695
_cell_angle_alpha 90.000000
_cell_angle_beta 90.000000
_cell_angle_gamma 90.000000
_cell_volume 3308.167312
_symmetry_space_group_name_H-M "P M M A"
_symmetry_group_IT_number 51
_symmetry_cell_setting 'orthorhombic'
loop_
_space_group_symop_operation_xyz
x,y,z
1/2-x,-y,z
1/2+x,-y,-z
-x,y,-z
-x,-y,-z
1/2+x,y,-z
1/2-x,y,z
x,-y,z
loop_
_atom_site_type_symbol
_atom_site_label
_atom_site_fract_x
_atom_site_fract_y
_atom_site_fract_z
Si Si1 0.359998 0.337046 0.934793
Si Si2 0.862263 0.331894 0.359643
Si Si3 0.547358 0.663089 0.876228
Si Si4 0.464020 0.168701 0.322085
Si Si5 0.136438 0.835734 0.429067
Si Si6 0.865426 0.840104 0.967574
Si Si7 0.863625 0.336025 0.767774
Si Si8 0.134310 0.342028 0.524528
O O1 0.250000 0.290976 0.918667
O O2 0.360866 0.500000 0.954360
O O3 0.430775 0.317228 0.885215
O O4 0.404573 0.242025 0.981387
O O5 0.750000 0.295889 0.346673
O O6 0.881414 0.500000 0.353287
O O7 0.889624 0.281355 0.418199
O O8 0.929360 0.242579 0.319976
O O9 0.579696 0.500000 0.886136
O O10 0.606614 0.761800 0.915032
O O11 0.572963 0.707818 0.817861
O O12 0.415682 0.211335 0.376513
O O13 0.395104 0.231323 0.277830
O O14 0.473989 0.000000 0.314450
O O15 0.250000 0.799311 0.422219
O O16 0.089115 0.752129 0.477972
O O17 0.119531 0.000000 0.441300
O O18 0.750000 0.842130 0.971162
O O19 0.908452 0.000000 0.967436
O O20 0.750000 0.311654 0.780377
O O21 0.883595 0.500000 0.751809
O O22 0.250000 0.345454 0.518677
O O23 0.090951 0.500000 0.518502
#
# Coordination Sequence:
#
# PCOD8210584 Si02
#       8
#     8   8   8   8   8   8   8   8
#     4   9  18  33  53  78 110 146 180 215 259 313
#     4   9  19  37  58  79 106 139 176 219 265 316
#     4  10  20  35  56  80 106 140 184 229 269 312
#     4  11  23  37  55  79 107 140 179 223 270 322
#     4   9  18  32  49  72 105 142 176 212 260 319
#     4  10  20  32  49  78 114 148 181 219 266 319
#     4  10  22  40  60  81 106 137 176 224 274 322
#     4   8  15  29  50  76 104 135 172 214 259 308
#
# _framework density 19.346060000000001
#
# number of rings (size 3 to 8) (size 9 to 14) (size 15 to 20)
#    0.000    2.500    0.000    2.625    0.000    6.750 
#    0.000    5.625    0.000    2.250    0.000    0.000 
#    0.000    0.000    0.000    0.000    0.000    0.000 
#
# Total GULP energy -793590.665696 kJ/mol
# GULP energy per Si atom -12399.854151 kJ/mol
# Density = 1.930203 g / cm^3
# Si number density = 19.346060 Si / 1000 Ang^3
#
#
#
# Elastic Constant Matrix: (Units=GPa)
#
#
# Indices 1 2 3 4 5 6 
#
# 1 65.1904 38.0913 45.8878 0.0000 0.0000 0.0000
# 2 38.0913 82.5927 49.0653 0.0000 0.0000 0.0000
# 3 45.8878 49.0653 81.2291 0.0000 0.0000 0.0000
# 4 0.0000 0.0000 0.0000 -29.8368 0.0000 0.0000
# 5 0.0000 0.0000 0.0000 0.0000 33.5332 0.0000
# 6 0.0000 0.0000 0.0000 0.0000 0.0000 22.0932
#
#
#
# Elastic Compliance Matrix: (Units=1/GPa)
#
#
# Indices 1 2 3 4 5 6 
#
# 1 0.026856 -0.005261 -0.011994 0.000000 0.000000 0.000000
# 2 -0.005261 0.019914 -0.009057 0.000000 0.000000 0.000000
# 3 -0.011994 -0.009057 0.024557 0.000000 0.000000 0.000000
# 4 0.000000 0.000000 0.000000 -0.033516 0.000000 0.000000
# 5 0.000000 0.000000 0.000000 0.000000 0.029821 0.000000
# 6 0.000000 0.000000 0.000000 0.000000 0.000000 0.045263
#
#
# Mechanical properties :
#
#
# Convention : Reuss Voigt Hill
#
# Bulk Modulus (GPa) = 53.46364 55.01121 54.23742
# Shear Modulus (GPa) = 29.11144 11.55578 20.33361
#
# Velocity S-wave (km/s) = 3.88335 2.44666 3.24550
# Velocity P-wave (km/s) = 6.91394 6.03975 6.49158
#
# Compressibility (1/GPa) = 0.01870430
#
# Stress axis : x y z
#
# Youngs Moduli (GPa) = 37.23553 50.21519 40.72142
#
# Poissons Ratio (x) = 0.26417 0.48840
# Poissons Ratio (y) = 0.19589 0.36881
# Poissons Ratio (z) = 0.44659 0.45480
#
# Static dielectric constant tensor:
#      x y z
#    x 3.588030 0.000000 0.000000 
#    y 0.000000 3.589310 0.000000 
#    z 0.000000 0.000000 3.419050 
# 
# 
# High freq. dielectric constant tensor:
#      x y z
#    x 1.764040 0.000000 0.000000 
#    y 0.000000 1.747990 0.000000 
#    z 0.000000 0.000000 1.733330 
# 
# From -- ./inp_files/35683.got.cif
#   From: 2010.03.12/outbox.cif.g09.slc.cpg/sg51_18_cif.got.tgz:35683.got - 2010.04.16 13:43:02.
