data_PCOD8210439
_publ_section_title
;
Structure prediction by ZEFSAII (Michael W. Deem and Ramdas Pophale) SiO2 
 PCOD8210439
Probable space group: P M M A
;
_chemical_formula_sum "Si O2"
_cell_formula_units_Z 64
_cell_length_a 13.648173
_cell_length_b 9.192406
_cell_length_c 26.235888
_cell_angle_alpha 90.000000
_cell_angle_beta 90.000000
_cell_angle_gamma 90.000000
_cell_volume 3291.542633
_symmetry_space_group_name_H-M "P M M A"
_symmetry_group_IT_number 51
_symmetry_cell_setting 'orthorhombic'
loop_
_space_group_symop_operation_xyz
x,y,z
1/2-x,-y,z
1/2+x,-y,-z
-x,y,-z
-x,-y,-z
1/2+x,y,-z
1/2-x,y,z
x,-y,z
loop_
_atom_site_type_symbol
_atom_site_label
_atom_site_fract_x
_atom_site_fract_y
_atom_site_fract_z
Si Si1 0.857007 0.672028 0.629823
Si Si2 0.365799 0.661654 0.481984
Si Si3 0.453775 0.168384 0.874285
Si Si4 0.634742 0.838363 0.423378
Si Si5 0.860654 0.833539 0.934534
Si Si6 0.363433 0.329133 0.781327
Si Si7 0.865815 0.663063 0.032591
Si Si8 0.442573 0.328946 0.672135
O O1 0.750000 0.735064 0.646837
O O2 0.847128 0.500000 0.624246
O O3 0.888634 0.731598 0.573809
O O4 0.941614 0.713715 0.670123
O O5 0.250000 0.654079 0.488892
O O6 0.410624 0.500000 0.486653
O O7 0.413182 0.757245 0.527567
O O8 0.569784 0.188067 0.885513
O O9 0.430197 0.244644 0.821270
O O10 0.392080 0.241205 0.918972
O O11 0.423967 0.000000 0.871081
O O12 0.750000 0.848587 0.431607
O O13 0.615876 0.751541 0.371763
O O14 0.589304 0.000000 0.419410
O O15 0.750000 0.788105 0.919145
O O16 0.863497 0.000000 0.953603
O O17 0.904745 0.735554 0.980243
O O18 0.250000 0.287063 0.788663
O O19 0.379710 0.500000 0.789308
O O20 0.399043 0.278251 0.725872
O O21 0.750000 0.658039 0.029107
O O22 0.909095 0.500000 0.037721
O O23 0.426995 0.500000 0.664024
#
# Coordination Sequence:
#
# PCOD8210439 Si02
#       8
#     8   8   8   8   8   8   8   8
#     4   8  15  30  53  79 103 128 164 209 252 298
#     4   8  14  27  48  72  99 132 167 202 244 300
#     4  11  22  35  55  80 104 138 182 220 257 304
#     4  10  20  32  47  71 104 137 168 207 255 305
#     4   9  19  36  55  77 109 145 178 213 254 303
#     4  10  22  39  56  76 104 135 168 211 262 310
#     4  10  20  33  52  81 115 147 177 213 259 307
#     4  10  20  35  56  77  98 130 171 213 257 306
#
# _framework density 19.443771999999999
#
# number of rings (size 3 to 8) (size 9 to 14) (size 15 to 20)
#    0.000    2.500    0.000    3.000    0.000    7.250 
#    0.000    3.750    0.000    1.875    0.000    0.000 
#    0.000    0.000    0.000    0.000    0.000    0.000 
#
# Total GULP energy -793462.766812 kJ/mol
# GULP energy per Si atom -12397.855731 kJ/mol
# Density = 1.939952 g / cm^3
# Si number density = 19.443772 Si / 1000 Ang^3
#
#
#
# Elastic Constant Matrix: (Units=GPa)
#
#
# Indices 1 2 3 4 5 6 
#
# 1 54.4416 28.4234 37.2460 0.0000 0.0000 0.0000
# 2 28.4234 79.5535 56.3738 0.0000 0.0000 0.0000
# 3 37.2460 56.3738 117.8705 0.0000 0.0000 0.0000
# 4 0.0000 0.0000 0.0000 -35.0335 0.0000 0.0000
# 5 0.0000 0.0000 0.0000 0.0000 32.3403 0.0000
# 6 0.0000 0.0000 0.0000 0.0000 0.0000 17.8698
#
#
#
# Elastic Compliance Matrix: (Units=1/GPa)
#
#
# Indices 1 2 3 4 5 6 
#
# 1 0.024672 -0.004977 -0.005416 0.000000 0.000000 0.000000
# 2 -0.004977 0.020019 -0.008001 0.000000 0.000000 0.000000
# 3 -0.005416 -0.008001 0.014022 0.000000 0.000000 0.000000
# 4 0.000000 0.000000 0.000000 -0.028544 0.000000 0.000000
# 5 0.000000 0.000000 0.000000 0.000000 0.030921 0.000000
# 6 0.000000 0.000000 0.000000 0.000000 0.000000 0.055960
#
#
# Mechanical properties :
#
#
# Convention : Reuss Voigt Hill
#
# Bulk Modulus (GPa) = 45.61263 55.10579 50.35921
# Shear Modulus (GPa) = 31.02764 11.69015 21.35889
#
# Velocity S-wave (km/s) = 3.99903 2.45466 3.31795
# Velocity P-wave (km/s) = 6.69572 6.03626 6.37452
#
# Compressibility (1/GPa) = 0.02192375
#
# Stress axis : x y z
#
# Youngs Moduli (GPa) = 40.53177 49.95368 71.31628
#
# Poissons Ratio (x) = 0.24863 0.38622
# Poissons Ratio (y) = 0.20174 0.57064
# Poissons Ratio (z) = 0.21951 0.39970
#
# Static dielectric constant tensor:
#      x y z
#    x 3.707940 0.000000 0.000000 
#    y 0.000000 3.642150 0.000000 
#    z 0.000000 0.000000 3.439770 
# 
# 
# High freq. dielectric constant tensor:
#      x y z
#    x 1.767990 0.000000 0.000000 
#    y 0.000000 1.741780 0.000000 
#    z 0.000000 0.000000 1.739760 
# 
# From -- ./inp_files/35825.got.cif
#   From: 2010.03.12/outbox.cif.g09.slc.cpg/sg51_18_cif.got.tgz:35825.got - 2010.04.16 13:43:02.
