data_PCOD8210454
_publ_section_title
;
Structure prediction by ZEFSAII (Michael W. Deem and Ramdas Pophale) SiO2 
 PCOD8210454
Probable space group: P M M A
;
_chemical_formula_sum "Si O2"
_cell_formula_units_Z 40
_cell_length_a 9.420733
_cell_length_b 10.321166
_cell_length_c 24.255233
_cell_angle_alpha 90.000000
_cell_angle_beta 90.000000
_cell_angle_gamma 90.000000
_cell_volume 2358.407837
_symmetry_space_group_name_H-M "P M M A"
_symmetry_group_IT_number 51
_symmetry_cell_setting 'orthorhombic'
loop_
_space_group_symop_operation_xyz
x,y,z
1/2-x,-y,z
1/2+x,-y,-z
-x,y,-z
-x,-y,-z
1/2+x,y,-z
1/2-x,y,z
x,-y,z
loop_
_atom_site_type_symbol
_atom_site_label
_atom_site_fract_x
_atom_site_fract_y
_atom_site_fract_z
Si Si1 0.407514 0.845997 0.152769
Si Si2 0.415171 0.000000 0.555754
Si Si3 0.084304 0.248844 0.625794
Si Si4 0.916926 0.148349 0.723959
Si Si5 0.910070 0.154552 0.051827
Si Si6 0.416557 0.500000 0.556900
O O1 0.250000 0.791567 0.139419
O O2 0.454910 0.804375 0.214168
O O3 0.518140 0.791567 0.107857
O O4 0.401346 0.000000 0.150172
O O5 0.500000 0.000000 0.500000
O O6 0.459788 0.125705 0.589792
O O7 0.250000 0.000000 0.541205
O O8 0.250000 0.249481 0.640061
O O9 0.038689 0.375478 0.592231
O O10 0.999296 0.243869 0.682987
O O11 0.750000 0.159472 0.713210
O O12 0.967512 0.000000 0.715075
O O13 0.750000 0.208739 0.048114
O O14 0.908829 0.000000 0.051890
O O15 0.000000 0.206692 0.000000
O O16 0.250000 0.500000 0.543231
O O17 0.500000 0.500000 0.500000
#
# Coordination Sequence:
#
# PCOD8210454 Si02
#       6
#     8   4   8   8   8   4
#     4   8  14  24  36  52  77 107 141 183 226 268
#     4  10  20  32  48  70  92 116 147 184 223 266
#     4  10  20  34  50  70  95 121 151 188 231 276
#     4   9  17  29  46  68  91 117 151 190 233 278
#     4   9  15  21  30  46  70 105 148 188 226 268
#     4  10  22  38  54  72  96 124 153 188 231 280
#
# _framework density 16.960595000000001
#
# number of rings (size 3 to 8) (size 9 to 14) (size 15 to 20)
#    0.000    2.800    1.000    2.400    0.000    4.800 
#    0.000    2.000    0.000    0.000    0.000    0.000 
#    0.000    0.000    0.000    0.900    0.000   12.000 
#
# Total GULP energy -495939.197204 kJ/mol
# GULP energy per Si atom -12398.479930 kJ/mol
# Density = 1.692199 g / cm^3
# Si number density = 16.960595 Si / 1000 Ang^3
#
#
#
# Elastic Constant Matrix: (Units=GPa)
#
#
# Indices 1 2 3 4 5 6 
#
# 1 95.7100 27.5057 89.3378 0.0000 0.0000 0.0000
# 2 27.5057 68.4696 44.8049 0.0000 0.0000 0.0000
# 3 89.3378 44.8049 169.0546 0.0000 0.0000 0.0000
# 4 0.0000 0.0000 0.0000 12.0307 0.0000 0.0000
# 5 0.0000 0.0000 0.0000 0.0000 39.8831 0.0000
# 6 0.0000 0.0000 0.0000 0.0000 0.0000 6.9893
#
#
#
# Elastic Compliance Matrix: (Units=1/GPa)
#
#
# Indices 1 2 3 4 5 6 
#
# 1 0.020730 -0.001402 -0.010583 0.000000 0.000000 0.000000
# 2 -0.001402 0.017764 -0.003967 0.000000 0.000000 0.000000
# 3 -0.010583 -0.003967 0.012559 0.000000 0.000000 0.000000
# 4 0.000000 0.000000 0.000000 0.083121 0.000000 0.000000
# 5 0.000000 0.000000 0.000000 0.000000 0.025073 0.000000
# 6 0.000000 0.000000 0.000000 0.000000 0.000000 0.143077
#
#
# Mechanical properties :
#
#
# Convention : Reuss Voigt Hill
#
# Bulk Modulus (GPa) = 52.22333 72.94788 62.58560
# Shear Modulus (GPa) = 14.67947 23.21966 18.94956
#
# Velocity S-wave (km/s) = 2.94514 3.70406 3.34619
# Velocity P-wave (km/s) = 6.51329 7.83562 7.20486
#
# Compressibility (1/GPa) = 0.01914853
#
# Stress axis : x y z
#
# Youngs Moduli (GPa) = 48.23999 56.29263 79.62197
#
# Poissons Ratio (x) = 0.07893 0.84265
# Poissons Ratio (y) = 0.06764 0.31587
# Poissons Ratio (z) = 0.51053 0.22332
#
# Static dielectric constant tensor:
#      x y z
#    x 3.242880 0.000000 0.000000 
#    y 0.000000 2.680810 0.000000 
#    z 0.000000 0.000000 3.342720 
# 
# 
# High freq. dielectric constant tensor:
#      x y z
#    x 1.656330 0.000000 0.000000 
#    y 0.000000 1.590730 0.000000 
#    z 0.000000 0.000000 1.669190 
# 
# From -- ./inp_files/36044.got.cif
#   From: 2010.03.12/outbox.cif.g09.slc.cpg/sg51_19_cif.got.tgz:36044.got - 2010.04.16 13:43:02.
