data_PCOD8210932
_publ_section_title
;
Structure prediction by ZEFSAII (Michael W. Deem and Ramdas Pophale) SiO2 
 PCOD8210932
Probable space group: P M M A
;
_chemical_formula_sum "Si O2"
_cell_formula_units_Z 64
_cell_length_a 17.313789
_cell_length_b 9.004579
_cell_length_c 23.352312
_cell_angle_alpha 90.000000
_cell_angle_beta 90.000000
_cell_angle_gamma 90.000000
_cell_volume 3640.704391
_symmetry_space_group_name_H-M "P M M A"
_symmetry_group_IT_number 51
_symmetry_cell_setting 'orthorhombic'
loop_
_space_group_symop_operation_xyz
x,y,z
1/2-x,-y,z
1/2+x,-y,-z
-x,y,-z
-x,-y,-z
1/2+x,y,-z
1/2-x,y,z
x,-y,z
loop_
_atom_site_type_symbol
_atom_site_label
_atom_site_fract_x
_atom_site_fract_y
_atom_site_fract_z
Si Si1 0.400113 0.828600 0.931446
Si Si2 0.660477 0.326375 0.958474
Si Si3 0.010835 0.325488 0.765072
Si Si4 0.979073 0.677920 0.638183
Si Si5 0.924521 0.338573 0.462104
Si Si6 0.164083 0.677877 0.433820
Si Si7 0.939430 0.171901 0.870513
Si Si8 0.335555 0.329933 0.826409
O O1 0.487568 0.803305 0.911688
O O2 0.342612 0.771167 0.882472
O O3 0.382031 0.000000 0.943597
O O4 0.388369 0.738308 0.989245
O O5 0.750000 0.290506 0.968235
O O6 0.644185 0.500000 0.953935
O O7 0.633831 0.250317 0.899458
O O8 0.994626 0.500000 0.768821
O O9 0.992627 0.262047 0.702056
O O10 0.953868 0.244610 0.808854
O O11 0.100306 0.287271 0.779218
O O12 0.983146 0.500000 0.636335
O O13 0.895058 0.732541 0.615577
O O14 0.047872 0.742923 0.596742
O O15 0.890784 0.500000 0.445032
O O16 0.861543 0.257115 0.503207
O O17 0.000000 0.361574 0.500000
O O18 0.250000 0.736115 0.419105
O O19 0.161712 0.500000 0.437181
O O20 0.921067 0.000000 0.861207
O O21 0.250000 0.305486 0.799902
O O22 0.347237 0.500000 0.846081
#
# Coordination Sequence:
#
# PCOD8210932 Si02
#       8
#     8   8   8   8   8   8   8   8
#     4  10  20  33  51  74  95 117 149 187 229 280
#     4  11  23  36  51  73  98 122 150 186 230 279
#     4   9  17  30  47  64  86 120 157 191 229 273
#     4   8  13  22  36  53  76 111 151 183 218 270
#     4   7  10  17  29  46  71 102 133 165 205 257
#     4   8  12  18  30  51  80 111 141 178 225 271
#     4  10  21  36  52  70  93 122 156 192 229 273
#     4   9  17  29  44  63  88 117 149 186 229 277
#
# _framework density 17.579014000000001
#
# number of rings (size 3 to 8) (size 9 to 14) (size 15 to 20)
#    0.000    3.000    0.000    3.375    0.000    5.750 
#    0.000    1.250    0.000    6.000    0.000    0.000 
#    0.000    4.500    0.000    0.250    0.000    0.000 
#
# Total GULP energy -793094.841324 kJ/mol
# GULP energy per Si atom -12392.106896 kJ/mol
# Density = 1.753900 g / cm^3
# Si number density = 17.579014 Si / 1000 Ang^3
#
#
#
# Elastic Constant Matrix: (Units=GPa)
#
#
# Indices 1 2 3 4 5 6 
#
# 1 67.2396 21.5901 51.0983 0.0000 0.0000 0.0000
# 2 21.5901 46.9735 35.2747 0.0000 0.0000 0.0000
# 3 51.0983 35.2747 146.2273 0.0000 0.0000 0.0000
# 4 0.0000 0.0000 0.0000 2.4657 0.0000 0.0000
# 5 0.0000 0.0000 0.0000 0.0000 18.8870 0.0000
# 6 0.0000 0.0000 0.0000 0.0000 0.0000 12.4953
#
#
#
# Elastic Compliance Matrix: (Units=1/GPa)
#
#
# Indices 1 2 3 4 5 6 
#
# 1 0.021208 -0.005108 -0.006179 0.000000 0.000000 0.000000
# 2 -0.005108 0.027228 -0.004784 0.000000 0.000000 0.000000
# 3 -0.006179 -0.004784 0.010152 0.000000 0.000000 0.000000
# 4 0.000000 0.000000 0.000000 0.405563 0.000000 0.000000
# 5 0.000000 0.000000 0.000000 0.000000 0.052946 0.000000
# 6 0.000000 0.000000 0.000000 0.000000 0.000000 0.080030
#
#
# Mechanical properties :
#
#
# Convention : Reuss Voigt Hill
#
# Bulk Modulus (GPa) = 37.81007 52.92963 45.36985
# Shear Modulus (GPa) = 7.83597 16.93475 12.38536
#
# Velocity S-wave (km/s) = 2.11359 3.10716 2.65722
# Velocity P-wave (km/s) = 5.24516 6.56106 5.93966
#
# Compressibility (1/GPa) = 0.02644798
#
# Stress axis : x y z
#
# Youngs Moduli (GPa) = 47.15257 36.72643 98.50508
#
# Poissons Ratio (x) = 0.18758 0.60864
# Poissons Ratio (y) = 0.24084 0.47120
# Poissons Ratio (z) = 0.29135 0.17568
#
# Static dielectric constant tensor:
#      x y z
#    x 3.343110 0.000000 0.000000 
#    y 0.000000 2.904640 0.000000 
#    z 0.000000 0.000000 3.408400 
# 
# 
# High freq. dielectric constant tensor:
#      x y z
#    x 1.673250 0.000000 0.000000 
#    y 0.000000 1.638250 0.000000 
#    z 0.000000 0.000000 1.673800 
# 
# From -- ./inp_files/33886.got.cif
#   From: 2010.03.12/outbox.cif.g09.slc.cpg/sg51_17_cif.got.tgz:33886.got - 2010.04.16 13:43:02.
