data_PCOD8210843
_publ_section_title
;
Structure prediction by ZEFSAII (Michael W. Deem and Ramdas Pophale) SiO2 
 PCOD8210843
Probable space group: P M M A
;
_chemical_formula_sum "Si O2"
_cell_formula_units_Z 64
_cell_length_a 14.064465
_cell_length_b 9.150876
_cell_length_c 25.581550
_cell_angle_alpha 90.000000
_cell_angle_beta 90.000000
_cell_angle_gamma 90.000000
_cell_volume 3292.401131
_symmetry_space_group_name_H-M "P M M A"
_symmetry_group_IT_number 51
_symmetry_cell_setting 'orthorhombic'
loop_
_space_group_symop_operation_xyz
x,y,z
1/2-x,-y,z
1/2+x,-y,-z
-x,y,-z
-x,-y,-z
1/2+x,y,-z
1/2-x,y,z
x,-y,z
loop_
_atom_site_type_symbol
_atom_site_label
_atom_site_fract_x
_atom_site_fract_y
_atom_site_fract_z
Si Si1 0.359882 0.667459 0.868837
Si Si2 0.360650 0.328952 0.183374
Si Si3 0.355656 0.673190 0.475140
Si Si4 0.141043 0.171685 0.675036
Si Si5 0.644564 0.158493 0.915928
Si Si6 0.608453 0.338897 0.013879
Si Si7 0.957042 0.673097 0.420050
Si Si8 0.469204 0.171876 0.779379
O O1 0.250000 0.680794 0.854094
O O2 0.395289 0.500000 0.862945
O O3 0.376803 0.723439 0.928028
O O4 0.417709 0.772519 0.831193
O O5 0.250000 0.295527 0.195301
O O6 0.380283 0.500000 0.183890
O O7 0.398866 0.269004 0.127001
O O8 0.427302 0.249839 0.226430
O O9 0.250000 0.738018 0.462974
O O10 0.351338 0.500000 0.475290
O O11 0.389671 0.725072 0.532374
O O12 0.433720 0.722635 0.432096
O O13 0.250000 0.227520 0.673409
O O14 0.077826 0.249755 0.631831
O O15 0.096262 0.214451 0.730504
O O16 0.136495 0.000000 0.665107
O O17 0.750000 0.128694 0.895824
O O18 0.590926 0.000000 0.917512
O O19 0.653783 0.227813 0.973125
O O20 0.656456 0.500000 0.009638
O O21 0.500000 0.351786 0.000000
O O22 0.951197 0.500000 0.412403
O O23 0.486049 0.000000 0.783384
#
# Coordination Sequence:
#
# PCOD8210843 Si02
#       8
#     8   8   8   8   8   8   8   8
#     4  10  21  36  54  78 109 144 182 225 274 328
#     4  10  21  38  60  83 107 136 171 215 269 328
#     4   8  14  27  49  80 118 152 182 224 277 323
#     4  10  22  39  56  77 109 146 181 222 275 325
#     4  10  20  33  51  76 102 128 162 203 249 309
#     4  10  20  33  50  73 102 135 169 209 261 319
#     4   9  17  30  53  83 110 144 191 233 268 314
#     4  11  23  39  59  80 105 139 180 227 276 327
#
# _framework density 19.438700999999998
#
# number of rings (size 3 to 8) (size 9 to 14) (size 15 to 20)
#    0.000    2.250    0.000    3.750    0.000    6.250 
#    0.000    1.875    0.000    3.375    0.000    0.000 
#    0.000    0.000    0.000    0.000    0.000    0.000 
#
# Total GULP energy -793284.536580 kJ/mol
# GULP energy per Si atom -12395.070884 kJ/mol
# Density = 1.939446 g / cm^3
# Si number density = 19.438701 Si / 1000 Ang^3
#
#
#
# Elastic Constant Matrix: (Units=GPa)
#
#
# Indices 1 2 3 4 5 6 
#
# 1 138.3862 42.2587 60.8094 0.0000 0.0000 0.0000
# 2 42.2587 78.9566 46.4208 0.0000 0.0000 0.0000
# 3 60.8094 46.4208 97.5108 0.0000 0.0000 0.0000
# 4 0.0000 0.0000 0.0000 -8.3803 0.0000 0.0000
# 5 0.0000 0.0000 0.0000 0.0000 30.1310 0.0000
# 6 0.0000 0.0000 0.0000 0.0000 0.0000 25.8123
#
#
#
# Elastic Compliance Matrix: (Units=1/GPa)
#
#
# Indices 1 2 3 4 5 6 
#
# 1 0.010272 -0.002405 -0.005261 0.000000 0.000000 0.000000
# 2 -0.002405 0.018151 -0.007141 0.000000 0.000000 0.000000
# 3 -0.005261 -0.007141 0.016936 0.000000 0.000000 0.000000
# 4 0.000000 0.000000 0.000000 -0.119327 0.000000 0.000000
# 5 0.000000 0.000000 0.000000 0.000000 0.033188 0.000000
# 6 0.000000 0.000000 0.000000 0.000000 0.000000 0.038741
#
#
# Mechanical properties :
#
#
# Convention : Reuss Voigt Hill
#
# Bulk Modulus (GPa) = 63.51331 68.20347 65.85839
# Shear Modulus (GPa) = 152.32745 20.53690 86.43218
#
# Velocity S-wave (km/s) = 8.86189 3.25390 6.67536
# Velocity P-wave (km/s) = 11.72414 7.01996 9.66269
#
# Compressibility (1/GPa) = 0.01574473
#
# Stress axis : x y z
#
# Youngs Moduli (GPa) = 97.34867 55.09421 59.04613
#
# Poissons Ratio (x) = 0.13248 0.31066
# Poissons Ratio (y) = 0.23409 0.42166
# Poissons Ratio (z) = 0.51218 0.39344
#
# Static dielectric constant tensor:
#      x y z
#    x 3.893030 0.000000 0.000000 
#    y 0.000000 3.480450 0.000000 
#    z 0.000000 0.000000 3.166820 
# 
# 
# High freq. dielectric constant tensor:
#      x y z
#    x 1.772190 0.000000 0.000000 
#    y 0.000000 1.742160 0.000000 
#    z 0.000000 0.000000 1.736730 
# 
# From -- ./inp_files/35773.got.cif
#   From: 2010.03.12/outbox.cif.g09.slc.cpg/sg51_18_cif.got.tgz:35773.got - 2010.04.16 13:43:02.
