data_PCOD8210383
_publ_section_title
;
Structure prediction by ZEFSAII (Michael W. Deem and Ramdas Pophale) SiO2 
 PCOD8210383
Probable space group: P M M A
;
_chemical_formula_sum "Si O2"
_cell_formula_units_Z 48
_cell_length_a 9.469182
_cell_length_b 9.017016
_cell_length_c 31.153589
_cell_angle_alpha 90.000000
_cell_angle_beta 90.000000
_cell_angle_gamma 90.000000
_cell_volume 2660.010741
_symmetry_space_group_name_H-M "P M M A"
_symmetry_group_IT_number 51
_symmetry_cell_setting 'orthorhombic'
loop_
_space_group_symop_operation_xyz
x,y,z
1/2-x,-y,z
1/2+x,-y,-z
-x,y,-z
-x,-y,-z
1/2+x,y,-z
1/2-x,y,z
x,-y,z
loop_
_atom_site_type_symbol
_atom_site_label
_atom_site_fract_x
_atom_site_fract_y
_atom_site_fract_z
Si Si1 0.086074 0.824928 0.786944
Si Si2 0.413577 0.673085 0.458853
Si Si3 0.582337 0.166731 0.625938
Si Si4 0.908451 0.823876 0.867094
Si Si5 0.591332 0.823697 0.961591
Si Si6 0.086729 0.325111 0.288133
O O1 0.250000 0.781726 0.787485
O O2 0.017128 0.766085 0.831274
O O3 0.009514 0.742119 0.748619
O O4 0.063800 0.000000 0.781202
O O5 0.500000 0.729048 0.500000
O O6 0.250000 0.710292 0.466901
O O7 0.437234 0.500000 0.450520
O O8 0.475173 0.758030 0.417454
O O9 0.750000 0.168035 0.624483
O O10 0.530568 0.259088 0.667020
O O11 0.522719 0.000000 0.629214
O O12 0.750000 0.763814 0.857396
O O13 0.959898 0.769399 0.914334
O O14 0.904348 0.000000 0.866822
O O15 0.750000 0.769328 0.969072
O O16 0.581859 0.000000 0.963532
O O17 0.500000 0.751967 0.000000
O O18 0.250000 0.281075 0.279825
O O19 0.067243 0.500000 0.289723
#
# Coordination Sequence:
#
# PCOD8210383 Si02
#       6
#     8   8   8   8   8   8
#     4  10  20  32  47  69  96 125 157 195 242 292
#     4   9  17  30  48  70  97 128 161 196 234 278
#     4   9  17  30  50  74  97 123 158 199 239 280
#     4   8  14  25  40  58  83 118 158 196 234 279
#     4   8  13  20  31  50  78 113 151 189 230 276
#     4  10  20  34  53  74  94 121 159 199 240 289
#
# _framework density 18.045038999999999
#
# number of rings (size 3 to 8) (size 9 to 14) (size 15 to 20)
#    0.000    3.000    0.000    2.500    0.000    5.000 
#    0.000    4.167    0.000    3.000    0.000    0.000 
#    0.000    0.667    0.000    2.167    0.000    4.333 
#
# Total GULP energy -595008.119132 kJ/mol
# GULP energy per Si atom -12396.002482 kJ/mol
# Density = 1.800397 g / cm^3
# Si number density = 18.045039 Si / 1000 Ang^3
#
#
#
# Elastic Constant Matrix: (Units=GPa)
#
#
# Indices 1 2 3 4 5 6 
#
# 1 87.0894 37.2649 90.4722 0.0000 0.0000 0.0000
# 2 37.2649 49.0585 55.4938 0.0000 0.0000 0.0000
# 3 90.4722 55.4938 207.3665 0.0000 0.0000 0.0000
# 4 0.0000 0.0000 0.0000 -0.2992 0.0000 0.0000
# 5 0.0000 0.0000 0.0000 0.0000 33.5806 0.0000
# 6 0.0000 0.0000 0.0000 0.0000 0.0000 15.1943
#
#
#
# Elastic Compliance Matrix: (Units=1/GPa)
#
#
# Indices 1 2 3 4 5 6 
#
# 1 0.023454 -0.008950 -0.007838 0.000000 0.000000 0.000000
# 2 -0.008950 0.032648 -0.004832 0.000000 0.000000 0.000000
# 3 -0.007838 -0.004832 0.009535 0.000000 0.000000 0.000000
# 4 0.000000 0.000000 0.000000 -3.342567 0.000000 0.000000
# 5 0.000000 0.000000 0.000000 0.000000 0.029779 0.000000
# 6 0.000000 0.000000 0.000000 0.000000 0.000000 0.065814
#
#
# Mechanical properties :
#
#
# Convention : Reuss Voigt Hill
#
# Bulk Modulus (GPa) = 44.64751 78.88625 61.76688
# Shear Modulus (GPa) = -1.59712 20.38071 9.39179
#
# Velocity S-wave (km/s) = -0.94181 3.36435 2.28384
# Velocity P-wave (km/s) = 4.85935 7.67483 6.42325
#
# Compressibility (1/GPa) = 0.02239767
#
# Stress axis : x y z
#
# Youngs Moduli (GPa) = 42.63595 30.62930 104.87539
#
# Poissons Ratio (x) = 0.27413 0.82199
# Poissons Ratio (y) = 0.38159 0.50679
# Poissons Ratio (z) = 0.33417 0.14801
#
# Static dielectric constant tensor:
#      x y z
#    x 3.345350 0.000000 0.000000 
#    y 0.000000 3.016210 0.000000 
#    z 0.000000 0.000000 3.768130 
# 
# 
# High freq. dielectric constant tensor:
#      x y z
#    x 1.674970 0.000000 0.000000 
#    y 0.000000 1.660900 0.000000 
#    z 0.000000 0.000000 1.718960 
# 
# From -- ./inp_files/37012.got.cif
#   From: 2010.03.12/outbox.cif.g09.slc.cpg/sg51_19_cif.got.tgz:37012.got - 2010.04.16 13:43:02.
