data_PCOD8210927
_publ_section_title
;
Structure prediction by ZEFSAII (Michael W. Deem and Ramdas Pophale) SiO2 
 PCOD8210927
Probable space group: P M M A
;
_chemical_formula_sum "Si O2"
_cell_formula_units_Z 44
_cell_length_a 8.885319
_cell_length_b 15.133602
_cell_length_c 17.758088
_cell_angle_alpha 90.000000
_cell_angle_beta 90.000000
_cell_angle_gamma 90.000000
_cell_volume 2387.874713
_symmetry_space_group_name_H-M "P M M A"
_symmetry_group_IT_number 51
_symmetry_cell_setting 'orthorhombic'
loop_
_space_group_symop_operation_xyz
x,y,z
1/2-x,-y,z
1/2+x,-y,-z
-x,y,-z
-x,-y,-z
1/2+x,y,-z
1/2-x,y,z
x,-y,z
loop_
_atom_site_type_symbol
_atom_site_label
_atom_site_fract_x
_atom_site_fract_y
_atom_site_fract_z
Si Si1 0.427135 0.277548 0.796553
Si Si2 0.077914 0.902604 0.728292
Si Si3 0.921776 0.845456 0.577710
Si Si4 0.922859 0.500000 0.421376
Si Si5 0.078434 0.339200 0.352526
Si Si6 0.926944 0.600167 0.918684
O O1 0.250000 0.298895 0.787416
O O2 0.457048 0.171060 0.792820
O O3 0.527925 0.314746 0.730233
O O4 0.489229 0.324120 0.871093
O O5 0.250000 0.892491 0.703281
O O6 0.986268 0.893363 0.651118
O O7 0.044672 0.000000 0.762830
O O8 0.750000 0.874377 0.570814
O O9 0.939267 0.740519 0.588710
O O10 0.000000 0.874754 0.500000
O O11 0.750000 0.500000 0.438328
O O12 0.000000 0.500000 0.500000
O O13 0.965308 0.414541 0.375361
O O14 0.250000 0.373184 0.350240
O O15 0.750000 0.621586 0.922897
O O16 0.952167 0.500000 0.886464
O O17 0.000000 0.606318 0.000000
#
# Coordination Sequence:
#
# PCOD8210927 Si02
#       6
#     8   8   8   4   8   8
#     4  10  20  35  57  83 111 143 179 220 267 321
#     4   9  19  36  56  78 105 139 180 225 273 324
#     4  10  20  33  51  73  99 134 175 224 278 329
#     4  12  24  36  50  70  97 134 179 226 274 322
#     4  10  21  36  52  72 100 136 179 224 269 320
#     4  10  21  37  58  85 117 150 181 217 261 313
#
# _framework density 18.426427
#
# number of rings (size 3 to 8) (size 9 to 14) (size 15 to 20)
#    0.000    2.000    0.000    3.545    1.273    6.182 
#    0.000    0.000    0.000    0.545    0.000    0.000 
#    0.000    0.000    0.000    0.000    0.000    0.000 
#
# Total GULP energy -545395.233264 kJ/mol
# GULP energy per Si atom -12395.346211 kJ/mol
# Density = 1.838449 g / cm^3
# Si number density = 18.426427 Si / 1000 Ang^3
#
#
#
# Elastic Constant Matrix: (Units=GPa)
#
#
# Indices 1 2 3 4 5 6 
#
# 1 113.6092 49.1293 32.1463 0.0000 0.0000 0.0000
# 2 49.1293 122.3901 45.2930 0.0000 0.0000 0.0000
# 3 32.1463 45.2930 72.4437 0.0000 0.0000 0.0000
# 4 0.0000 0.0000 0.0000 22.7234 0.0000 0.0000
# 5 0.0000 0.0000 0.0000 0.0000 34.5069 0.0000
# 6 0.0000 0.0000 0.0000 0.0000 0.0000 23.5412
#
#
#
# Elastic Compliance Matrix: (Units=1/GPa)
#
#
# Indices 1 2 3 4 5 6 
#
# 1 0.011064 -0.003414 -0.002775 0.000000 0.000000 0.000000
# 2 -0.003414 0.011684 -0.005790 0.000000 0.000000 0.000000
# 3 -0.002775 -0.005790 0.018655 0.000000 0.000000 0.000000
# 4 0.000000 0.000000 0.000000 0.044008 0.000000 0.000000
# 5 0.000000 0.000000 0.000000 0.000000 0.028980 0.000000
# 6 0.000000 0.000000 0.000000 0.000000 0.000000 0.042479
#
#
# Mechanical properties :
#
#
# Convention : Reuss Voigt Hill
#
# Bulk Modulus (GPa) = 57.32387 62.39778 59.86082
# Shear Modulus (GPa) = 26.78938 28.27927 27.53433
#
# Velocity S-wave (km/s) = 3.81708 3.92179 3.86979
# Velocity P-wave (km/s) = 7.11365 7.37862 7.24734
#
# Compressibility (1/GPa) = 0.01744474
#
# Stress axis : x y z
#
# Youngs Moduli (GPa) = 90.38556 85.58864 53.60492
#
# Poissons Ratio (x) = 0.29222 0.14874
# Poissons Ratio (y) = 0.30860 0.31036
# Poissons Ratio (z) = 0.25080 0.49554
#
# Static dielectric constant tensor:
#      x y z
#    x 3.509360 0.000000 0.000000 
#    y 0.000000 3.728390 0.000000 
#    z 0.000000 0.000000 3.109380 
# 
# 
# High freq. dielectric constant tensor:
#      x y z
#    x 1.732270 0.000000 0.000000 
#    y 0.000000 1.719350 0.000000 
#    z 0.000000 0.000000 1.690440 
# 
# From -- ./inp_files/27421.got.cif
#   From: 2010.03.12/outbox.cif.g09.slc.cpg/sg51_14_cif.got.tgz:27421.got - 2010.04.16 13:43:02.
