data_PCOD8210087
_publ_section_title
;
Structure prediction by ZEFSAII (Michael W. Deem and Ramdas Pophale) SiO2 
 PCOD8210087
Probable space group: P M M A
;
_chemical_formula_sum "Si O2"
_cell_formula_units_Z 64
_cell_length_a 18.896324
_cell_length_b 14.597101
_cell_length_c 11.692998
_cell_angle_alpha 90.000000
_cell_angle_beta 90.000000
_cell_angle_gamma 90.000000
_cell_volume 3225.297762
_symmetry_space_group_name_H-M "P M M A"
_symmetry_group_IT_number 51
_symmetry_cell_setting 'orthorhombic'
loop_
_space_group_symop_operation_xyz
x,y,z
1/2-x,-y,z
1/2+x,-y,-z
-x,y,-z
-x,-y,-z
1/2+x,y,-z
1/2-x,y,z
x,-y,z
loop_
_atom_site_type_symbol
_atom_site_label
_atom_site_fract_x
_atom_site_fract_y
_atom_site_fract_z
Si Si1 0.331969 0.396726 0.173547
Si Si2 0.173354 0.900705 0.132603
Si Si3 0.829690 0.336534 0.078542
Si Si4 0.422247 0.249781 0.544595
Si Si5 0.886843 0.228550 0.701149
Si Si6 0.025332 0.894386 0.710740
Si Si7 0.572869 0.832151 0.056887
Si Si8 0.330334 0.602576 0.674246
O O1 0.250000 0.372901 0.201030
O O2 0.349335 0.500000 0.212603
O O3 0.385233 0.330270 0.243271
O O4 0.346877 0.390293 0.037984
O O5 0.250000 0.893800 0.072667
O O6 0.174051 0.827273 0.234555
O O7 0.160994 0.000000 0.188901
O O8 0.114362 0.888649 0.037677
O O9 0.750000 0.296632 0.072012
O O10 0.884159 0.255283 0.096956
O O11 0.838274 0.401539 0.188327
O O12 0.500000 0.281220 0.500000
O O13 0.372533 0.234117 0.434091
O O14 0.426248 0.153375 0.613204
O O15 0.387639 0.328832 0.620850
O O16 0.958470 0.172551 0.726029
O O17 0.063749 0.897056 0.832976
O O18 0.007605 0.000000 0.675328
O O19 0.500000 0.799608 0.000000
O O20 0.250000 0.632961 0.641571
O O21 0.345100 0.500000 0.628189
#
# Coordination Sequence:
#
# PCOD8210087 Si02
#       8
#     8   8   8   8   8   8   8   8
#     4  10  20  36  61  92 124 160 199 242 302 370
#     4  11  23  37  56  87 123 156 193 242 305 369
#     4  10  19  36  63  90 123 161 197 245 305 363
#     4  10  24  42  62  86 119 160 208 257 300 355
#     4  11  22  38  60  84 118 157 202 250 298 351
#     4  11  23  41  64  89 117 157 206 253 303 364
#     4  12  21  35  64  91 124 155 195 246 304 371
#     4  10  21  39  65  92 118 156 205 253 305 366
#
# _framework density 19.843129999999999
#
# number of rings (size 3 to 8) (size 9 to 14) (size 15 to 20)
#    0.000    1.375    3.750    1.875    0.000    6.500 
#    0.000    3.125    0.000    2.625    0.000    0.000 
#    0.000    0.000    0.000    0.000    0.000    0.000 
#
# Total GULP energy -793277.457459 kJ/mol
# GULP energy per Si atom -12394.960273 kJ/mol
# Density = 1.979797 g / cm^3
# Si number density = 19.843130 Si / 1000 Ang^3
#
#
#
# Elastic Constant Matrix: (Units=GPa)
#
#
# Indices 1 2 3 4 5 6 
#
# 1 80.6674 52.1417 38.1900 0.0000 0.0000 0.0000
# 2 52.1417 153.3916 51.5582 0.0000 0.0000 0.0000
# 3 38.1900 51.5582 126.7883 0.0000 0.0000 0.0000
# 4 0.0000 0.0000 0.0000 16.2721 0.0000 0.0000
# 5 0.0000 0.0000 0.0000 0.0000 25.6132 0.0000
# 6 0.0000 0.0000 0.0000 0.0000 0.0000 29.6112
#
#
#
# Elastic Compliance Matrix: (Units=1/GPa)
#
#
# Indices 1 2 3 4 5 6 
#
# 1 0.016937 -0.004683 -0.003197 0.000000 0.000000 0.000000
# 2 -0.004683 0.008846 -0.002187 0.000000 0.000000 0.000000
# 3 -0.003197 -0.002187 0.009740 0.000000 0.000000 0.000000
# 4 0.000000 0.000000 0.000000 0.061455 0.000000 0.000000
# 5 0.000000 0.000000 0.000000 0.000000 0.039042 0.000000
# 6 0.000000 0.000000 0.000000 0.000000 0.000000 0.033771
#
#
# Mechanical properties :
#
#
# Convention : Reuss Voigt Hill
#
# Bulk Modulus (GPa) = 64.98169 71.62525 68.30347
# Shear Modulus (GPa) = 25.63390 28.89646 27.26518
#
# Velocity S-wave (km/s) = 3.59810 3.82022 3.71082
# Velocity P-wave (km/s) = 7.07676 7.45874 7.27026
#
# Compressibility (1/GPa) = 0.01538895
#
# Stress axis : x y z
#
# Youngs Moduli (GPa) = 59.04206 113.04510 102.67453
#
# Poissons Ratio (x) = 0.52935 0.32830
# Poissons Ratio (y) = 0.27647 0.22453
# Poissons Ratio (z) = 0.18878 0.24720
#
# Static dielectric constant tensor:
#      x y z
#    x 3.651600 0.000000 0.000000 
#    y 0.000000 3.619420 0.000000 
#    z 0.000000 0.000000 3.809300 
# 
# 
# High freq. dielectric constant tensor:
#      x y z
#    x 1.763120 0.000000 0.000000 
#    y 0.000000 1.774890 0.000000 
#    z 0.000000 0.000000 1.776310 
# 
# From -- ./inp_files/17544.got.cif
#   From: 2010.03.12/outbox.cif.g09.slc.cpg/sg51_9_cif.got.tgz:17544.got - 2010.04.16 13:43:02.
