data_PCOD8210588
_publ_section_title
;
Structure prediction by ZEFSAII (Michael W. Deem and Ramdas Pophale) SiO2 
 PCOD8210588
Probable space group: P M M A
;
_chemical_formula_sum "Si O2"
_cell_formula_units_Z 44
_cell_length_a 9.694548
_cell_length_b 7.999176
_cell_length_c 30.370271
_cell_angle_alpha 90.000000
_cell_angle_beta 90.000000
_cell_angle_gamma 90.000000
_cell_volume 2355.165793
_symmetry_space_group_name_H-M "P M M A"
_symmetry_group_IT_number 51
_symmetry_cell_setting 'orthorhombic'
loop_
_space_group_symop_operation_xyz
x,y,z
1/2-x,-y,z
1/2+x,-y,-z
-x,y,-z
-x,-y,-z
1/2+x,y,-z
1/2-x,y,z
x,-y,z
loop_
_atom_site_type_symbol
_atom_site_label
_atom_site_fract_x
_atom_site_fract_y
_atom_site_fract_z
Si Si1 0.585861 0.187550 0.603436
Si Si2 0.096868 0.195726 0.300698
Si Si3 0.085911 0.500000 0.455746
Si Si4 0.904873 0.197837 0.038665
Si Si5 0.904547 0.305751 0.790582
Si Si6 0.595794 0.302701 0.133273
O O1 0.750000 0.182986 0.607476
O O2 0.524219 0.233889 0.652021
O O3 0.539281 0.331735 0.569824
O O4 0.535156 0.000000 0.588720
O O5 0.250000 0.274149 0.302377
O O6 0.024073 0.274745 0.257522
O O7 0.102883 0.000000 0.293679
O O8 0.250000 0.500000 0.464799
O O9 0.000000 0.500000 0.500000
O O10 0.750000 0.269791 0.032946
O O11 0.966214 0.254099 0.085724
O O12 0.903782 0.000000 0.035845
O O13 0.000000 0.273836 0.000000
O O14 0.750000 0.225927 0.792136
O O15 0.893956 0.500000 0.799948
O O16 0.999179 0.223542 0.828598
O O17 0.750000 0.226748 0.138107
O O18 0.601713 0.500000 0.138343
#
# Coordination Sequence:
#
# PCOD8210588 Si02
#       6
#     8   8   4   8   8   8
#     4   8  15  28  46  70  98 126 160 202 243 286
#     4   8  14  25  42  66  93 117 146 187 229 266
#     4  10  20  32  50  74  98 128 166 202 243 292
#     4   9  18  32  48  65  84 108 141 180 220 261
#     4   9  17  27  42  66  91 113 141 180 221 257
#     4   9  18  32  46  61  87 120 148 173 211 266
#
# _framework density 18.682337
#
# number of rings (size 3 to 8) (size 9 to 14) (size 15 to 20)
#    0.000    3.273    0.000    1.091    1.273    2.182 
#    0.000    0.000    0.000    1.091    0.000    2.545 
#    0.000    0.000    0.000    0.000    0.000    0.000 
#
# Total GULP energy -545106.613943 kJ/mol
# GULP energy per Si atom -12388.786681 kJ/mol
# Density = 1.863981 g / cm^3
# Si number density = 18.682337 Si / 1000 Ang^3
#
#
#
# Elastic Constant Matrix: (Units=GPa)
#
#
# Indices 1 2 3 4 5 6 
#
# 1 48.0694 20.1213 61.4180 0.0000 0.0000 0.0000
# 2 20.1213 50.2316 52.5680 0.0000 0.0000 0.0000
# 3 61.4180 52.5680 191.8361 0.0000 0.0000 0.0000
# 4 0.0000 0.0000 0.0000 26.3281 0.0000 0.0000
# 5 0.0000 0.0000 0.0000 0.0000 27.1698 0.0000
# 6 0.0000 0.0000 0.0000 0.0000 0.0000 7.6740
#
#
#
# Elastic Compliance Matrix: (Units=1/GPa)
#
#
# Indices 1 2 3 4 5 6 
#
# 1 0.035583 -0.003269 -0.010496 0.000000 0.000000 0.000000
# 2 -0.003269 0.028213 -0.006684 0.000000 0.000000 0.000000
# 3 -0.010496 -0.006684 0.010405 0.000000 0.000000 0.000000
# 4 0.000000 0.000000 0.000000 0.037982 0.000000 0.000000
# 5 0.000000 0.000000 0.000000 0.000000 0.036806 0.000000
# 6 0.000000 0.000000 0.000000 0.000000 0.000000 0.130310
#
#
# Mechanical properties :
#
#
# Convention : Reuss Voigt Hill
#
# Bulk Modulus (GPa) = 30.02912 62.03908 46.03410
# Shear Modulus (GPa) = 15.09214 22.63635 18.86425
#
# Velocity S-wave (km/s) = 2.84532 3.48464 3.18108
# Velocity P-wave (km/s) = 5.18680 7.03347 6.17951
#
# Compressibility (1/GPa) = 0.03330101
#
# Stress axis : x y z
#
# Youngs Moduli (GPa) = 28.10350 35.44526 96.10769
#
# Poissons Ratio (x) = 0.11586 1.00878
# Poissons Ratio (y) = 0.09187 0.64242
# Poissons Ratio (z) = 0.29499 0.23693
#
# Static dielectric constant tensor:
#      x y z
#    x 3.293220 0.000000 0.000000 
#    y 0.000000 3.330450 0.000000 
#    z 0.000000 0.000000 3.716330 
# 
# 
# High freq. dielectric constant tensor:
#      x y z
#    x 1.666160 0.000000 0.000000 
#    y 0.000000 1.715940 0.000000 
#    z 0.000000 0.000000 1.738580 
# 
# From -- ./inp_files/36815.got.cif
#   From: 2010.03.12/outbox.cif.g09.slc.cpg/sg51_19_cif.got.tgz:36815.got - 2010.04.16 13:43:02.
