data_PCOD8210882
_publ_section_title
;
Structure prediction by ZEFSAII (Michael W. Deem and Ramdas Pophale) SiO2 
 PCOD8210882
Probable space group: P M M A
;
_chemical_formula_sum "Si O2"
_cell_formula_units_Z 64
_cell_length_a 15.493985
_cell_length_b 9.196983
_cell_length_c 23.339512
_cell_angle_alpha 90.000000
_cell_angle_beta 90.000000
_cell_angle_gamma 90.000000
_cell_volume 3325.831836
_symmetry_space_group_name_H-M "P M M A"
_symmetry_group_IT_number 51
_symmetry_cell_setting 'orthorhombic'
loop_
_space_group_symop_operation_xyz
x,y,z
1/2-x,-y,z
1/2+x,-y,-z
-x,y,-z
-x,-y,-z
1/2+x,y,-z
1/2-x,y,z
x,-y,z
loop_
_atom_site_type_symbol
_atom_site_label
_atom_site_fract_x
_atom_site_fract_y
_atom_site_fract_z
Si Si1 0.999594 0.668510 0.131223
Si Si2 0.097281 0.663131 0.573136
Si Si3 0.088110 0.339029 0.370801
Si Si4 0.347985 0.837509 0.467962
Si Si5 0.848877 0.171205 0.070072
Si Si6 0.153484 0.165055 0.678875
Si Si7 0.152044 0.331305 0.047230
Si Si8 0.992289 0.331430 0.261510
O O1 0.977672 0.500000 0.120558
O O2 0.914832 0.760261 0.115438
O O3 0.023399 0.698886 0.197211
O O4 0.084308 0.716311 0.095914
O O5 0.134917 0.500000 0.567644
O O6 0.098002 0.738037 0.511154
O O7 0.153799 0.753892 0.618008
O O8 0.000360 0.658974 0.594485
O O9 0.130122 0.500000 0.370638
O O10 0.150030 0.226718 0.403284
O O11 0.069170 0.287268 0.305446
O O12 0.250000 0.840258 0.489198
O O13 0.386942 0.000000 0.467231
O O14 0.750000 0.207722 0.087976
O O15 0.864213 0.000000 0.067288
O O16 0.870019 0.237066 0.008184
O O17 0.250000 0.169280 0.703984
O O18 0.093346 0.239816 0.726084
O O19 0.122130 0.000000 0.668994
O O20 0.250000 0.300924 0.068780
O O21 0.140507 0.500000 0.030951
O O22 0.968616 0.500000 0.271908
#
# Coordination Sequence:
#
# PCOD8210882 Si02
#       8
#     8   8   8   8   8   8   8   8
#     4  10  20  35  56  81 108 140 179 222 266 312
#     4  10  20  34  54  78 101 127 163 205 251 307
#     4   9  19  36  54  72  96 128 166 206 249 299
#     4  11  23  35  49  74 104 130 161 203 250 302
#     4  10  21  35  52  79 115 149 179 214 259 312
#     4  10  20  33  50  74 104 136 170 209 254 306
#     4   9  18  34  56  81 109 141 178 221 269 318
#     4   9  20  37  54  74 101 133 173 216 255 302
#
# _framework density 19.243304999999999
#
# number of rings (size 3 to 8) (size 9 to 14) (size 15 to 20)
#    0.000    2.250    0.000    3.375    0.000   11.250 
#    0.000    3.125    0.000    2.250    0.000    1.750 
#    0.000    0.000    0.000    0.000    0.000    0.000 
#
# Total GULP energy -793604.376692 kJ/mol
# GULP energy per Si atom -12400.068386 kJ/mol
# Density = 1.919951 g / cm^3
# Si number density = 19.243305 Si / 1000 Ang^3
#
#
#
# Elastic Constant Matrix: (Units=GPa)
#
#
# Indices 1 2 3 4 5 6 
#
# 1 53.5158 26.1234 34.2964 0.0000 0.0000 0.0000
# 2 26.1234 100.8948 46.7750 0.0000 0.0000 0.0000
# 3 34.2964 46.7750 121.0075 0.0000 0.0000 0.0000
# 4 0.0000 0.0000 0.0000 11.3247 0.0000 0.0000
# 5 0.0000 0.0000 0.0000 0.0000 18.6802 0.0000
# 6 0.0000 0.0000 0.0000 0.0000 0.0000 25.9413
#
#
#
# Elastic Compliance Matrix: (Units=1/GPa)
#
#
# Indices 1 2 3 4 5 6 
#
# 1 0.023925 -0.003717 -0.005344 0.000000 0.000000 0.000000
# 2 -0.003717 0.012653 -0.003837 0.000000 0.000000 0.000000
# 3 -0.005344 -0.003837 0.011262 0.000000 0.000000 0.000000
# 4 0.000000 0.000000 0.000000 0.088303 0.000000 0.000000
# 5 0.000000 0.000000 0.000000 0.000000 0.053533 0.000000
# 6 0.000000 0.000000 0.000000 0.000000 0.000000 0.038549
#
#
# Mechanical properties :
#
#
# Convention : Reuss Voigt Hill
#
# Bulk Modulus (GPa) = 45.36633 54.42309 49.89471
# Shear Modulus (GPa) = 19.13004 22.40413 20.76708
#
# Velocity S-wave (km/s) = 3.15638 3.41582 3.28866
# Velocity P-wave (km/s) = 6.07535 6.62571 6.35649
#
# Compressibility (1/GPa) = 0.02204278
#
# Stress axis : x y z
#
# Youngs Moduli (GPa) = 41.79642 79.03424 88.79468
#
# Poissons Ratio (x) = 0.29378 0.47454
# Poissons Ratio (y) = 0.15536 0.34074
# Poissons Ratio (z) = 0.22337 0.30328
#
# Static dielectric constant tensor:
#      x y z
#    x 3.405990 0.000000 0.000000 
#    y 0.000000 3.650550 0.000000 
#    z 0.000000 0.000000 3.551670 
# 
# 
# High freq. dielectric constant tensor:
#      x y z
#    x 1.736660 0.000000 0.000000 
#    y 0.000000 1.752010 0.000000 
#    z 0.000000 0.000000 1.740900 
# 
# From -- ./inp_files/33924.got.cif
#   From: 2010.03.12/outbox.cif.g09.slc.cpg/sg51_17_cif.got.tgz:33924.got - 2010.04.16 13:43:02.
