data_PCOD8210491
_publ_section_title
;
Structure prediction by ZEFSAII (Michael W. Deem and Ramdas Pophale) SiO2 
 PCOD8210491
Probable space group: P M M A
;
_chemical_formula_sum "Si O2"
_cell_formula_units_Z 48
_cell_length_a 15.095766
_cell_length_b 9.320436
_cell_length_c 18.701437
_cell_angle_alpha 90.000000
_cell_angle_beta 90.000000
_cell_angle_gamma 90.000000
_cell_volume 2631.275745
_symmetry_space_group_name_H-M "P M M A"
_symmetry_group_IT_number 51
_symmetry_cell_setting 'orthorhombic'
loop_
_space_group_symop_operation_xyz
x,y,z
1/2-x,-y,z
1/2+x,-y,-z
-x,y,-z
-x,-y,-z
1/2+x,y,-z
1/2-x,y,z
x,-y,z
loop_
_atom_site_type_symbol
_atom_site_label
_atom_site_fract_x
_atom_site_fract_y
_atom_site_fract_z
Si Si1 0.350445 0.664895 0.426666
Si Si2 0.349387 0.161355 0.087885
Si Si3 0.095220 0.342997 0.963984
Si Si4 0.147301 0.832683 0.568687
Si Si5 0.005903 0.667885 0.169469
Si Si6 0.515747 0.333196 0.331764
O O1 0.250000 0.699348 0.401052
O O2 0.358508 0.500000 0.451429
O O3 0.378419 0.762803 0.493150
O O4 0.417600 0.698760 0.362288
O O5 0.250000 0.162519 0.117829
O O6 0.407327 0.248428 0.144152
O O7 0.386483 0.000000 0.081687
O O8 0.347599 0.228650 0.007857
O O9 0.141497 0.500000 0.966556
O O10 0.078610 0.295509 0.881443
O O11 0.000000 0.353516 0.000000
O O12 0.250000 0.804822 0.586555
O O13 0.089782 0.761128 0.630316
O O14 0.124978 0.000000 0.564261
O O15 0.029173 0.500000 0.164852
O O16 0.982536 0.714556 0.249436
O O17 0.540289 0.500000 0.341103
#
# Coordination Sequence:
#
# PCOD8210491 Si02
#       6
#     8   8   8   8   8   8
#     4   9  18  33  53  77 104 134 170 212 256 304
#     4  10  20  32  48  73 101 129 164 203 244 294
#     4   8  15  30  50  69  90 120 159 198 236 282
#     4  10  21  36  53  74 101 135 175 216 258 305
#     4   9  19  34  51  73 100 129 163 203 249 301
#     4  10  20  34  54  79 105 135 171 211 258 309
#
# _framework density 18.242101000000002
#
# number of rings (size 3 to 8) (size 9 to 14) (size 15 to 20)
#    0.000    2.667    0.000    2.500    0.000    9.333 
#    0.000    2.500    0.000    7.000    0.000    0.000 
#    0.000    0.000    0.000    0.000    0.000    0.000 
#
# Total GULP energy -595107.290230 kJ/mol
# GULP energy per Si atom -12398.068546 kJ/mol
# Density = 1.820058 g / cm^3
# Si number density = 18.242101 Si / 1000 Ang^3
#
#
#
# Elastic Constant Matrix: (Units=GPa)
#
#
# Indices 1 2 3 4 5 6 
#
# 1 50.4505 30.3673 34.5180 0.0000 0.0000 0.0000
# 2 30.3673 82.6983 47.3191 0.0000 0.0000 0.0000
# 3 34.5180 47.3191 132.0483 0.0000 0.0000 0.0000
# 4 0.0000 0.0000 0.0000 5.8276 0.0000 0.0000
# 5 0.0000 0.0000 0.0000 0.0000 19.1851 0.0000
# 6 0.0000 0.0000 0.0000 0.0000 0.0000 2.2892
#
#
#
# Elastic Compliance Matrix: (Units=1/GPa)
#
#
# Indices 1 2 3 4 5 6 
#
# 1 0.027397 -0.007500 -0.004474 0.000000 0.000000 0.000000
# 2 -0.007500 0.017264 -0.004226 0.000000 0.000000 0.000000
# 3 -0.004474 -0.004226 0.010257 0.000000 0.000000 0.000000
# 4 0.000000 0.000000 0.000000 0.171598 0.000000 0.000000
# 5 0.000000 0.000000 0.000000 0.000000 0.052124 0.000000
# 6 0.000000 0.000000 0.000000 0.000000 0.000000 0.436840
#
#
# Mechanical properties :
#
#
# Convention : Reuss Voigt Hill
#
# Bulk Modulus (GPa) = 44.40964 54.40065 49.40514
# Shear Modulus (GPa) = 6.61913 15.65989 11.13951
#
# Velocity S-wave (km/s) = 1.90693 2.93311 2.47381
# Velocity P-wave (km/s) = 5.40795 6.43094 5.94150
#
# Compressibility (1/GPa) = 0.02251763
#
# Stress axis : x y z
#
# Youngs Moduli (GPa) = 36.50017 57.92264 97.49548
#
# Poissons Ratio (x) = 0.43444 0.43619
# Poissons Ratio (y) = 0.27377 0.41202
# Poissons Ratio (z) = 0.16330 0.24478
#
# Static dielectric constant tensor:
#      x y z
#    x 3.269650 0.000000 0.000000 
#    y 0.000000 3.428380 0.000000 
#    z 0.000000 0.000000 3.541090 
# 
# 
# High freq. dielectric constant tensor:
#      x y z
#    x 1.695740 0.000000 0.000000 
#    y 0.000000 1.706950 0.000000 
#    z 0.000000 0.000000 1.700460 
# 
# From -- ./inp_files/29391.got.cif
#   From: 2010.03.12/outbox.cif.g09.slc.cpg/sg51_15_cif.got.tgz:29391.got - 2010.04.16 13:43:02.
