data_PCOD8210437
_publ_section_title
;
Structure prediction by ZEFSAII (Michael W. Deem and Ramdas Pophale) SiO2 
 PCOD8210437
Probable space group: P M M A
;
_chemical_formula_sum "Si O2"
_cell_formula_units_Z 64
_cell_length_a 14.199734
_cell_length_b 8.849397
_cell_length_c 28.175098
_cell_angle_alpha 90.000000
_cell_angle_beta 90.000000
_cell_angle_gamma 90.000000
_cell_volume 3540.456991
_symmetry_space_group_name_H-M "P M M A"
_symmetry_group_IT_number 51
_symmetry_cell_setting 'orthorhombic'
loop_
_space_group_symop_operation_xyz
x,y,z
1/2-x,-y,z
1/2+x,-y,-z
-x,y,-z
-x,-y,-z
1/2+x,y,-z
1/2-x,y,z
x,-y,z
loop_
_atom_site_type_symbol
_atom_site_label
_atom_site_fract_x
_atom_site_fract_y
_atom_site_fract_z
Si Si1 0.461006 0.673761 0.383309
Si Si2 0.857730 0.824969 0.701438
Si Si3 0.141248 0.825146 0.026094
Si Si4 0.860613 0.171955 0.531487
Si Si5 0.142364 0.677359 0.199844
Si Si6 0.642272 0.677678 0.071509
Si Si7 0.525647 0.821487 0.882923
Si Si8 0.855886 0.326739 0.434727
O O1 0.438130 0.500000 0.371176
O O2 0.426795 0.778739 0.340731
O O3 0.409665 0.717017 0.431768
O O4 0.573054 0.699827 0.390797
O O5 0.750000 0.793323 0.685791
O O6 0.884643 0.727916 0.747343
O O7 0.872880 0.000000 0.713523
O O8 0.250000 0.795516 0.037362
O O9 0.085018 0.765904 0.071639
O O10 0.120168 0.000000 0.015594
O O11 0.107806 0.732998 0.980147
O O12 0.750000 0.187225 0.539498
O O13 0.887838 0.221768 0.478375
O O14 0.894467 0.000000 0.539369
O O15 0.250000 0.724251 0.188351
O O16 0.127533 0.500000 0.195202
O O17 0.072837 0.760161 0.164308
O O18 0.750000 0.727566 0.080208
O O19 0.629818 0.500000 0.074564
O O20 0.579566 0.755435 0.112214
O O21 0.521513 0.000000 0.879624
O O22 0.750000 0.285681 0.417700
O O23 0.861153 0.500000 0.452091
#
# Coordination Sequence:
#
# PCOD8210437 Si02
#       8
#     8   8   8   8   8   8   8   8
#     4  11  21  32  51  76 100 131 170 209 251 300
#     4  10  21  37  56  78 105 134 163 200 249 303
#     4   9  18  32  49  72 104 139 173 209 253 307
#     4  10  20  32  47  71 103 136 169 206 249 297
#     4  10  21  37  57  81 108 135 164 203 252 305
#     4  10  21  35  50  71 102 139 178 220 262 302
#     4  11  21  33  53  78 104 137 175 213 255 306
#     4   9  19  35  51  69  98 135 172 209 249 293
#
# _framework density 18.076763
#
# number of rings (size 3 to 8) (size 9 to 14) (size 15 to 20)
#    0.000    2.000    0.000    3.750    0.000   10.000 
#    0.000    1.250    0.000    0.750    0.000    1.750 
#    0.000    0.000    0.000    0.000    0.000    0.000 
#
# Total GULP energy -793845.967035 kJ/mol
# GULP energy per Si atom -12403.843235 kJ/mol
# Density = 1.803562 g / cm^3
# Si number density = 18.076763 Si / 1000 Ang^3
#
#
#
# Elastic Constant Matrix: (Units=GPa)
#
#
# Indices 1 2 3 4 5 6 
#
# 1 75.8206 29.8253 57.6457 0.0000 0.0000 0.0000
# 2 29.8253 58.3580 24.8515 0.0000 0.0000 0.0000
# 3 57.6457 24.8515 80.6137 0.0000 0.0000 0.0000
# 4 0.0000 0.0000 0.0000 29.8757 0.0000 0.0000
# 5 0.0000 0.0000 0.0000 0.0000 31.1511 0.0000
# 6 0.0000 0.0000 0.0000 0.0000 0.0000 26.1137
#
#
#
# Elastic Compliance Matrix: (Units=1/GPa)
#
#
# Indices 1 2 3 4 5 6 
#
# 1 0.031513 -0.007493 -0.020225 0.000000 0.000000 0.000000
# 2 -0.007493 0.021507 -0.001272 0.000000 0.000000 0.000000
# 3 -0.020225 -0.001272 0.027259 0.000000 0.000000 0.000000
# 4 0.000000 0.000000 0.000000 0.033472 0.000000 0.000000
# 5 0.000000 0.000000 0.000000 0.000000 0.032102 0.000000
# 6 0.000000 0.000000 0.000000 0.000000 0.000000 0.038294
#
#
# Mechanical properties :
#
#
# Convention : Reuss Voigt Hill
#
# Bulk Modulus (GPa) = 44.84304 48.82637 46.83471
# Shear Modulus (GPa) = 20.03531 24.25941 22.14736
#
# Velocity S-wave (km/s) = 3.33279 3.66734 3.50406
# Velocity P-wave (km/s) = 6.29848 6.70833 6.50663
#
# Compressibility (1/GPa) = 0.02230000
#
# Stress axis : x y z
#
# Youngs Moduli (GPa) = 31.73281 46.49704 36.68474
#
# Poissons Ratio (x) = 0.34840 0.74194
# Poissons Ratio (y) = 0.23777 0.04666
# Poissons Ratio (z) = 0.64178 0.05914
#
# Static dielectric constant tensor:
#      x y z
#    x 3.501920 0.000000 0.000000 
#    y 0.000000 3.412030 0.000000 
#    z 0.000000 0.000000 3.156350 
# 
# 
# High freq. dielectric constant tensor:
#      x y z
#    x 1.702180 0.000000 0.000000 
#    y 0.000000 1.710910 0.000000 
#    z 0.000000 0.000000 1.678080 
# 
# From -- ./inp_files/35632.got.cif
#   From: 2010.03.12/outbox.cif.g09.slc.cpg/sg51_18_cif.got.tgz:35632.got - 2010.04.16 13:43:02.
