data_PCOD8210455
_publ_section_title
;
Structure prediction by ZEFSAII (Michael W. Deem and Ramdas Pophale) SiO2 
 PCOD8210455
Probable space group: P M M A
;
_chemical_formula_sum "Si O2"
_cell_formula_units_Z 52
_cell_length_a 9.627234
_cell_length_b 8.306286
_cell_length_c 35.234009
_cell_angle_alpha 90.000000
_cell_angle_beta 90.000000
_cell_angle_gamma 90.000000
_cell_volume 2817.542459
_symmetry_space_group_name_H-M "P M M A"
_symmetry_group_IT_number 51
_symmetry_cell_setting 'orthorhombic'
loop_
_space_group_symop_operation_xyz
x,y,z
1/2-x,-y,z
1/2+x,-y,-z
-x,y,-z
-x,-y,-z
1/2+x,y,-z
1/2-x,y,z
x,-y,z
loop_
_atom_site_type_symbol
_atom_site_label
_atom_site_fract_x
_atom_site_fract_y
_atom_site_fract_z
Si Si1 0.415438 0.000000 0.961545
Si Si2 0.095272 0.688832 0.467006
Si Si3 0.905667 0.814024 0.611950
Si Si4 0.590372 0.315043 0.322574
Si Si5 0.404682 0.686202 0.831728
Si Si6 0.915163 0.318637 0.084970
Si Si7 0.913382 0.181940 0.244524
O O1 0.462006 0.833551 0.940604
O O2 0.250000 0.000000 0.968645
O O3 0.500000 0.000000 0.000000
O O4 0.250000 0.764205 0.470049
O O5 0.102406 0.500000 0.473215
O O6 0.033094 0.725623 0.425314
O O7 0.000000 0.766729 0.500000
O O8 0.750000 0.749803 0.621061
O O9 0.002731 0.786633 0.647859
O O10 0.902464 0.000000 0.602223
O O11 0.750000 0.256638 0.324771
O O12 0.575257 0.500000 0.333381
O O13 0.531416 0.286508 0.279978
O O14 0.250000 0.759781 0.835073
O O15 0.397929 0.500000 0.821845
O O16 0.478030 0.713597 0.872728
O O17 0.483510 0.769639 0.796017
O O18 0.750000 0.323963 0.087578
O O19 0.964381 0.500000 0.070716
O O20 0.750000 0.212480 0.240115
O O21 0.951620 0.000000 0.254031
#
# Coordination Sequence:
#
# PCOD8210455 Si02
#       7
#     4   8   8   8   8   8   8
#     4  10  20  32  48  70  96 126 162 202 246 298
#     4   9  18  33  52  73  97 124 156 194 235 282
#     4  10  21  36  53  73  98 129 164 201 240 285
#     4  10  20  33  49  70  98 131 165 200 238 283
#     4   8  13  22  37  59  89 123 155 190 237 288
#     4   8  15  27  43  65  94 126 160 201 245 291
#     4   9  16  24  38  63  95 127 156 191 238 287
#
# _framework density 18.455798999999999
#
# number of rings (size 3 to 8) (size 9 to 14) (size 15 to 20)
#    0.000    2.923    0.000    2.308    1.077    4.923 
#    0.000    1.538    0.000    0.000    0.000    1.077 
#    0.000    1.231    0.000    0.000    0.000    0.000 
#
# Total GULP energy -644259.070088 kJ/mol
# GULP energy per Si atom -12389.597502 kJ/mol
# Density = 1.841379 g / cm^3
# Si number density = 18.455799 Si / 1000 Ang^3
#
#
#
# Elastic Constant Matrix: (Units=GPa)
#
#
# Indices 1 2 3 4 5 6 
#
# 1 31.8009 19.5000 40.0046 0.0000 0.0000 0.0000
# 2 19.5000 71.4029 49.6127 0.0000 0.0000 0.0000
# 3 40.0046 49.6127 147.4248 0.0000 0.0000 0.0000
# 4 0.0000 0.0000 0.0000 29.2125 0.0000 0.0000
# 5 0.0000 0.0000 0.0000 0.0000 17.2947 0.0000
# 6 0.0000 0.0000 0.0000 0.0000 0.0000 12.3428
#
#
#
# Elastic Compliance Matrix: (Units=1/GPa)
#
#
# Indices 1 2 3 4 5 6 
#
# 1 0.049312 -0.005442 -0.011550 0.000000 0.000000 0.000000
# 2 -0.005442 0.018880 -0.004877 0.000000 0.000000 0.000000
# 3 -0.011550 -0.004877 0.011558 0.000000 0.000000 0.000000
# 4 0.000000 0.000000 0.000000 0.034232 0.000000 0.000000
# 5 0.000000 0.000000 0.000000 0.000000 0.057821 0.000000
# 6 0.000000 0.000000 0.000000 0.000000 0.000000 0.081019
#
#
# Mechanical properties :
#
#
# Convention : Reuss Voigt Hill
#
# Bulk Modulus (GPa) = 27.76780 52.09591 39.93185
# Shear Modulus (GPa) = 16.20413 21.20408 18.70411
#
# Velocity S-wave (km/s) = 2.96632 3.39324 3.18693
# Velocity P-wave (km/s) = 5.17786 6.60611 5.93511
#
# Compressibility (1/GPa) = 0.03601294
#
# Stress axis : x y z
#
# Youngs Moduli (GPa) = 20.27917 52.96657 86.51723
#
# Poissons Ratio (x) = 0.28824 0.99924
# Poissons Ratio (y) = 0.11036 0.42194
# Poissons Ratio (z) = 0.23422 0.25831
#
# Static dielectric constant tensor:
#      x y z
#    x 2.920340 0.000000 0.000000 
#    y 0.000000 3.456040 0.000000 
#    z 0.000000 0.000000 3.598440 
# 
# 
# High freq. dielectric constant tensor:
#      x y z
#    x 1.643420 0.000000 0.000000 
#    y 0.000000 1.720910 0.000000 
#    z 0.000000 0.000000 1.730140 
# 
# From -- ./inp_files/37711.got.cif
#   From: 2010.03.12/outbox.cif.g09.slc.cpg/sg51_19_cif.got.tgz:37711.got - 2010.04.16 13:43:02.
