data_PCOD8210237
_publ_section_title
;
Structure prediction by ZEFSAII (Michael W. Deem and Ramdas Pophale) SiO2 
 PCOD8210237
Probable space group: P M M A
;
_chemical_formula_sum "Si O2"
_cell_formula_units_Z 48
_cell_length_a 16.063724
_cell_length_b 9.035348
_cell_length_c 17.081203
_cell_angle_alpha 90.000000
_cell_angle_beta 90.000000
_cell_angle_gamma 90.000000
_cell_volume 2479.188633
_symmetry_space_group_name_H-M "P M M A"
_symmetry_group_IT_number 51
_symmetry_cell_setting 'orthorhombic'
loop_
_space_group_symop_operation_xyz
x,y,z
1/2-x,-y,z
1/2+x,-y,-z
-x,y,-z
-x,-y,-z
1/2+x,y,-z
1/2-x,y,z
x,-y,z
loop_
_atom_site_type_symbol
_atom_site_label
_atom_site_fract_x
_atom_site_fract_y
_atom_site_fract_z
Si Si1 0.845422 0.328940 0.682767
Si Si2 0.088456 0.175167 0.463992
Si Si3 0.398065 0.825074 0.842006
Si Si4 0.750000 0.823217 0.264812
Si Si5 0.343581 0.824117 0.008670
Si Si6 0.584328 0.825549 0.828548
Si Si7 0.750000 0.824175 0.440827
O O1 0.750000 0.305659 0.657318
O O2 0.869834 0.500000 0.685826
O O3 0.905082 0.247755 0.621180
O O4 0.857341 0.258916 0.767999
O O5 0.165721 0.232413 0.516902
O O6 0.000000 0.224584 0.500000
O O7 0.091990 0.000000 0.453358
O O8 0.331111 0.761781 0.780456
O O9 0.489009 0.782497 0.810991
O O10 0.387548 0.000000 0.847617
O O11 0.383483 0.758786 0.928991
O O12 0.750000 0.759707 0.352830
O O13 0.750000 0.000000 0.266928
O O14 0.250000 0.764418 0.015995
O O15 0.394865 0.769593 0.083989
O O16 0.345247 0.000000 0.005418
O O17 0.600741 0.000000 0.820035
O O18 0.750000 0.000000 0.439536
#
# Coordination Sequence:
#
# PCOD8210237 Si02
#       7
#     8   8   8   4   8   8   4
#     4  11  24  41  58  78 110 149 188 225 272 331
#     4  10  21  37  61  89 114 142 181 229 283 337
#     4   9  16  27  45  74 112 146 175 217 272 326
#     4   9  16  26  44  72 109 144 172 211 269 329
#     4   9  15  26  44  72 110 147 178 216 271 327
#     4  10  20  31  52  82 110 139 182 233 275 316
#     4   9  18  32  51  80 115 142 172 221 275 331
#
# _framework density 19.361172
#
# number of rings (size 3 to 8) (size 9 to 14) (size 15 to 20)
#    0.000    2.333    1.667    1.500    2.333    4.000 
#    0.000    0.000    0.000    2.000    0.000    0.583 
#    0.000    0.000    0.000    0.000    0.000    0.000 
#
# Total GULP energy -595175.265235 kJ/mol
# GULP energy per Si atom -12399.484692 kJ/mol
# Density = 1.931711 g / cm^3
# Si number density = 19.361172 Si / 1000 Ang^3
#
#
#
# Elastic Constant Matrix: (Units=GPa)
#
#
# Indices 1 2 3 4 5 6 
#
# 1 108.0103 22.7345 41.4750 0.0000 0.0000 0.0000
# 2 22.7345 26.7090 23.5459 0.0000 0.0000 0.0000
# 3 41.4750 23.5459 130.4557 0.0000 0.0000 0.0000
# 4 0.0000 0.0000 0.0000 2.8979 0.0000 0.0000
# 5 0.0000 0.0000 0.0000 0.0000 36.8050 0.0000
# 6 0.0000 0.0000 0.0000 0.0000 0.0000 12.5187
#
#
#
# Elastic Compliance Matrix: (Units=1/GPa)
#
#
# Indices 1 2 3 4 5 6 
#
# 1 0.011838 -0.008038 -0.002313 0.000000 0.000000 0.000000
# 2 -0.008038 0.049982 -0.006466 0.000000 0.000000 0.000000
# 3 -0.002313 -0.006466 0.009568 0.000000 0.000000 0.000000
# 4 0.000000 0.000000 0.000000 0.345077 0.000000 0.000000
# 5 0.000000 0.000000 0.000000 0.000000 0.027170 0.000000
# 6 0.000000 0.000000 0.000000 0.000000 0.000000 0.079881
#
#
# Mechanical properties :
#
#
# Convention : Reuss Voigt Hill
#
# Bulk Modulus (GPa) = 26.48627 48.96507 37.72567
# Shear Modulus (GPa) = 8.77602 22.27229 15.52415
#
# Velocity S-wave (km/s) = 2.13135 3.39537 2.83471
# Velocity P-wave (km/s) = 4.44597 6.38096 5.49924
#
# Compressibility (1/GPa) = 0.03775541
#
# Stress axis : x y z
#
# Youngs Moduli (GPa) = 84.47128 20.00706 104.51708
#
# Poissons Ratio (x) = 0.16081 0.24175
# Poissons Ratio (y) = 0.67895 0.67580
# Poissons Ratio (z) = 0.19538 0.12936
#
# Static dielectric constant tensor:
#      x y z
#    x 3.704710 0.000000 0.000000 
#    y 0.000000 2.871750 0.000000 
#    z 0.000000 0.000000 3.684650 
# 
# 
# High freq. dielectric constant tensor:
#      x y z
#    x 1.766730 0.000000 0.000000 
#    y 0.000000 1.681580 0.000000 
#    z 0.000000 0.000000 1.768400 
# 
# From -- ./inp_files/29511.got.cif
#   From: 2010.03.12/outbox.cif.g09.slc.cpg/sg51_15_cif.got.tgz:29511.got - 2010.04.16 13:43:02.
