data_PCOD8210977
_publ_section_title
;
Structure prediction by ZEFSAII (Michael W. Deem and Ramdas Pophale) SiO2 
 PCOD8210977
Probable space group: P M M A
;
_chemical_formula_sum "Si O2"
_cell_formula_units_Z 64
_cell_length_a 15.577478
_cell_length_b 9.154861
_cell_length_c 23.280106
_cell_angle_alpha 90.000000
_cell_angle_beta 90.000000
_cell_angle_gamma 90.000000
_cell_volume 3319.967671
_symmetry_space_group_name_H-M "P M M A"
_symmetry_group_IT_number 51
_symmetry_cell_setting 'orthorhombic'
loop_
_space_group_symop_operation_xyz
x,y,z
1/2-x,-y,z
1/2+x,-y,-z
-x,y,-z
-x,-y,-z
1/2+x,y,-z
1/2-x,y,z
x,-y,z
loop_
_atom_site_type_symbol
_atom_site_label
_atom_site_fract_x
_atom_site_fract_y
_atom_site_fract_z
Si Si1 0.593334 0.665430 0.071514
Si Si2 0.346781 0.835163 0.033758
Si Si3 0.151799 0.671439 0.446508
Si Si4 0.912556 0.333886 0.866064
Si Si5 0.153034 0.831067 0.564313
Si Si6 0.515147 0.829156 0.632328
Si Si7 0.843464 0.834499 0.173677
Si Si8 0.512650 0.170939 0.763680
O O1 0.621576 0.500000 0.059094
O O2 0.500040 0.675206 0.098648
O O3 0.658313 0.735870 0.116909
O O4 0.593604 0.750504 0.011418
O O5 0.250000 0.834677 0.010129
O O6 0.345411 0.756674 0.095909
O O7 0.381662 0.000000 0.040803
O O8 0.250000 0.707158 0.428459
O O9 0.135133 0.500000 0.448883
O O10 0.131609 0.735438 0.508908
O O11 0.087141 0.741235 0.401410
O O12 0.881317 0.500000 0.857741
O O13 0.921507 0.260872 0.803354
O O14 0.250000 0.797583 0.587348
O O15 0.081933 0.790955 0.612128
O O16 0.145420 0.000000 0.546353
O O17 0.524866 0.781114 0.698221
O O18 0.533191 0.000000 0.623996
O O19 0.750000 0.819989 0.203545
O O20 0.915083 0.786689 0.219448
O O21 0.861172 0.000000 0.153323
O O22 0.530615 0.000000 0.772293
#
# Coordination Sequence:
#
# PCOD8210977 Si02
#       8
#     8   8   8   8   8   8   8   8
#     4  10  20  33  51  76 103 130 163 203 248 302
#     4  11  23  36  52  76 102 127 160 204 254 307
#     4  10  21  36  54  78 108 142 181 224 270 317
#     4  10  21  37  55  74  98 131 169 206 248 299
#     4   9  18  33  54  82 116 148 176 211 258 313
#     4  10  20  34  55  82 109 141 181 221 263 311
#     4   9  17  30  49  73 102 136 171 207 250 302
#     4   9  19  35  53  74 102 136 174 214 254 300
#
# _framework density 19.277296
#
# number of rings (size 3 to 8) (size 9 to 14) (size 15 to 20)
#    0.000    2.250    0.000    2.625    0.000    9.500 
#    0.000    3.125    0.000    0.750    0.000    3.500 
#    0.000    0.000    0.000    0.000    0.000    0.000 
#
# Total GULP energy -793585.735339 kJ/mol
# GULP energy per Si atom -12399.777115 kJ/mol
# Density = 1.923342 g / cm^3
# Si number density = 19.277296 Si / 1000 Ang^3
#
#
#
# Elastic Constant Matrix: (Units=GPa)
#
#
# Indices 1 2 3 4 5 6 
#
# 1 57.3283 32.7924 36.7589 0.0000 0.0000 0.0000
# 2 32.7924 108.5666 62.7174 0.0000 0.0000 0.0000
# 3 36.7589 62.7174 127.9538 0.0000 0.0000 0.0000
# 4 0.0000 0.0000 0.0000 13.6491 0.0000 0.0000
# 5 0.0000 0.0000 0.0000 0.0000 21.5427 0.0000
# 6 0.0000 0.0000 0.0000 0.0000 0.0000 21.3938
#
#
#
# Elastic Compliance Matrix: (Units=1/GPa)
#
#
# Indices 1 2 3 4 5 6 
#
# 1 0.022746 -0.004318 -0.004418 0.000000 0.000000 0.000000
# 2 -0.004318 0.013669 -0.005459 0.000000 0.000000 0.000000
# 3 -0.004418 -0.005459 0.011761 0.000000 0.000000 0.000000
# 4 0.000000 0.000000 0.000000 0.073265 0.000000 0.000000
# 5 0.000000 0.000000 0.000000 0.000000 0.046420 0.000000
# 6 0.000000 0.000000 0.000000 0.000000 0.000000 0.046742
#
#
# Mechanical properties :
#
#
# Convention : Reuss Voigt Hill
#
# Bulk Modulus (GPa) = 50.54460 62.04293 56.29376
# Shear Modulus (GPa) = 20.03292 22.08911 21.06101
#
# Velocity S-wave (km/s) = 3.22716 3.38873 3.30893
# Velocity P-wave (km/s) = 6.33741 6.89679 6.62300
#
# Compressibility (1/GPa) = 0.01978451
#
# Stress axis : x y z
#
# Youngs Moduli (GPa) = 43.96315 73.15763 85.03033
#
# Poissons Ratio (x) = 0.31592 0.37566
# Poissons Ratio (y) = 0.18985 0.46422
# Poissons Ratio (z) = 0.19423 0.39940
#
# Static dielectric constant tensor:
#      x y z
#    x 3.504830 0.000000 0.000000 
#    y 0.000000 3.604670 0.000000 
#    z 0.000000 0.000000 3.436650 
# 
# 
# High freq. dielectric constant tensor:
#      x y z
#    x 1.747250 0.000000 0.000000 
#    y 0.000000 1.751620 0.000000 
#    z 0.000000 0.000000 1.736820 
# 
# From -- ./inp_files/35804.got.cif
#   From: 2010.03.12/outbox.cif.g09.slc.cpg/sg51_18_cif.got.tgz:35804.got - 2010.04.16 13:43:02.
