data_PCOD8210244
_publ_section_title
;
Structure prediction by ZEFSAII (Michael W. Deem and Ramdas Pophale) SiO2 
 PCOD8210244
Probable space group: P M M A
;
_chemical_formula_sum "Si O2"
_cell_formula_units_Z 48
_cell_length_a 9.306059
_cell_length_b 13.117378
_cell_length_c 24.898988
_cell_angle_alpha 90.000000
_cell_angle_beta 90.000000
_cell_angle_gamma 90.000000
_cell_volume 3039.446695
_symmetry_space_group_name_H-M "P M M A"
_symmetry_group_IT_number 51
_symmetry_cell_setting 'orthorhombic'
loop_
_space_group_symop_operation_xyz
x,y,z
1/2-x,-y,z
1/2+x,-y,-z
-x,y,-z
-x,-y,-z
1/2+x,y,-z
1/2-x,y,z
x,-y,z
loop_
_atom_site_type_symbol
_atom_site_label
_atom_site_fract_x
_atom_site_fract_y
_atom_site_fract_z
Si Si1 0.083504 0.115633 0.053606
Si Si2 0.411232 0.621639 0.449071
Si Si3 0.592208 0.383817 0.047093
Si Si4 0.908572 0.620672 0.350063
Si Si5 0.919772 0.291897 0.865259
Si Si6 0.080939 0.618168 0.770940
O O1 0.250000 0.128236 0.040011
O O2 0.041670 0.185269 0.105063
O O3 0.044394 0.000000 0.069926
O O4 0.000000 0.148935 0.000000
O O5 0.500000 0.662865 0.500000
O O6 0.250000 0.664588 0.452840
O O7 0.410641 0.500000 0.448798
O O8 0.481762 0.664865 0.394249
O O9 0.750000 0.331297 0.052607
O O10 0.617417 0.500000 0.031303
O O11 0.500185 0.379808 0.101355
O O12 0.500000 0.328745 0.000000
O O13 0.750000 0.666173 0.361368
O O14 0.899878 0.500000 0.355312
O O15 0.958638 0.648966 0.290040
O O16 0.750000 0.311259 0.862772
O O17 0.987681 0.302209 0.806105
O O18 0.250000 0.633151 0.782204
O O19 0.038525 0.500000 0.782108
#
# Coordination Sequence:
#
# PCOD8210244 Si02
#       6
#     8   8   8   8   8   8
#     4   9  19  35  51  66  83 101 123 155 198 245
#     4   9  15  21  31  48  69  94 127 168 209 242
#     4  10  20  32  44  58  79 105 129 155 189 228
#     4   8  14  25  38  50  68  97 132 167 201 234
#     4  11  21  30  44  64  82 102 129 161 195 233
#     4   9  18  31  44  58  80 111 141 168 200 237
#
# _framework density 15.792346999999999
#
# number of rings (size 3 to 8) (size 9 to 14) (size 15 to 20)
#    0.000    2.667    0.000    3.500    0.000    8.667 
#    0.000    1.667    0.000    0.000    0.000    0.000 
#    0.000    0.000    0.000    0.000    0.000    0.833 
#
# Total GULP energy -594866.848253 kJ/mol
# GULP energy per Si atom -12393.059339 kJ/mol
# Density = 1.575640 g / cm^3
# Si number density = 15.792347 Si / 1000 Ang^3
#
#
#
# Elastic Constant Matrix: (Units=GPa)
#
#
# Indices 1 2 3 4 5 6 
#
# 1 119.0229 28.3751 80.0452 0.0000 0.0000 0.0000
# 2 28.3751 42.4106 28.9018 0.0000 0.0000 0.0000
# 3 80.0452 28.9018 138.2278 0.0000 0.0000 0.0000
# 4 0.0000 0.0000 0.0000 8.5386 0.0000 0.0000
# 5 0.0000 0.0000 0.0000 0.0000 32.9775 0.0000
# 6 0.0000 0.0000 0.0000 0.0000 0.0000 10.1036
#
#
#
# Elastic Compliance Matrix: (Units=1/GPa)
#
#
# Indices 1 2 3 4 5 6 
#
# 1 0.014504 -0.004642 -0.007429 0.000000 0.000000 0.000000
# 2 -0.004642 0.028983 -0.003372 0.000000 0.000000 0.000000
# 3 -0.007429 -0.003372 0.012241 0.000000 0.000000 0.000000
# 4 0.000000 0.000000 0.000000 0.117115 0.000000 0.000000
# 5 0.000000 0.000000 0.000000 0.000000 0.030324 0.000000
# 6 0.000000 0.000000 0.000000 0.000000 0.000000 0.098975
#
#
# Mechanical properties :
#
#
# Convention : Reuss Voigt Hill
#
# Bulk Modulus (GPa) = 40.25214 63.81171 52.03192
# Shear Modulus (GPa) = 14.64959 21.14656 17.89807
#
# Velocity S-wave (km/s) = 3.04902 3.66326 3.37016
# Velocity P-wave (km/s) = 6.15947 7.64114 6.93996
#
# Compressibility (1/GPa) = 0.02484340
#
# Stress axis : x y z
#
# Youngs Moduli (GPa) = 68.94553 34.50356 81.69115
#
# Poissons Ratio (x) = 0.16016 0.60685
# Poissons Ratio (y) = 0.32003 0.27546
# Poissons Ratio (z) = 0.51217 0.11634
#
# Static dielectric constant tensor:
#      x y z
#    x 3.282100 0.000000 0.000000 
#    y 0.000000 2.565420 0.000000 
#    z 0.000000 0.000000 3.141730 
# 
# 
# High freq. dielectric constant tensor:
#      x y z
#    x 1.621100 0.000000 0.000000 
#    y 0.000000 1.538610 0.000000 
#    z 0.000000 0.000000 1.605900 
# 
# From -- ./inp_files/34653.got.cif
#   From: 2010.03.12/outbox.cif.g09.slc.cpg/sg51_18_cif.got.tgz:34653.got - 2010.04.16 13:43:02.
