data_PCOD8210515
_publ_section_title
;
Structure prediction by ZEFSAII (Michael W. Deem and Ramdas Pophale) SiO2 
 PCOD8210515
Probable space group: P M M A
;
_chemical_formula_sum "Si O2"
_cell_formula_units_Z 64
_cell_length_a 16.804752
_cell_length_b 9.118149
_cell_length_c 23.169852
_cell_angle_alpha 90.000000
_cell_angle_beta 90.000000
_cell_angle_gamma 90.000000
_cell_volume 3550.275473
_symmetry_space_group_name_H-M "P M M A"
_symmetry_group_IT_number 51
_symmetry_cell_setting 'orthorhombic'
loop_
_space_group_symop_operation_xyz
x,y,z
1/2-x,-y,z
1/2+x,-y,-z
-x,y,-z
-x,-y,-z
1/2+x,y,-z
1/2-x,y,z
x,-y,z
loop_
_atom_site_type_symbol
_atom_site_label
_atom_site_fract_x
_atom_site_fract_y
_atom_site_fract_z
Si Si1 0.401590 0.831732 0.929186
Si Si2 0.657677 0.330924 0.961694
Si Si3 0.002796 0.328134 0.763903
Si Si4 0.971686 0.673691 0.634268
Si Si5 0.919730 0.338579 0.463982
Si Si6 0.158121 0.830427 0.439830
Si Si7 0.931140 0.168568 0.868734
Si Si8 0.337839 0.332305 0.824223
O O1 0.491537 0.814467 0.908378
O O2 0.343143 0.767445 0.880850
O O3 0.378593 0.000000 0.940358
O O4 0.393480 0.744220 0.988333
O O5 0.750000 0.312802 0.976410
O O6 0.632503 0.500000 0.957025
O O7 0.640137 0.252555 0.900735
O O8 0.986190 0.500000 0.771157
O O9 0.983866 0.273814 0.699611
O O10 0.944688 0.241164 0.806475
O O11 0.095196 0.289725 0.777356
O O12 0.958643 0.500000 0.629381
O O13 0.893234 0.749491 0.608804
O O14 0.052264 0.718369 0.599226
O O15 0.879845 0.500000 0.459676
O O16 0.858706 0.229620 0.495454
O O17 0.000000 0.349683 0.500000
O O18 0.250000 0.804611 0.424602
O O19 0.134940 0.000000 0.439462
O O20 0.907545 0.000000 0.859351
O O21 0.250000 0.309495 0.796614
O O22 0.350026 0.500000 0.844299
#
# Coordination Sequence:
#
# PCOD8210515 Si02
#       8
#     8   8   8   8   8   8   8   8
#     4  10  20  33  51  75 100 126 159 200 247 301
#     4  11  23  36  51  73  99 127 162 204 251 302
#     4   9  18  34  54  74  99 132 169 207 244 287
#     4   9  18  33  53  76 100 130 170 208 244 291
#     4   8  15  29  49  73  99 126 158 196 239 288
#     4  10  20  32  48  74 105 134 167 207 249 292
#     4  10  21  36  53  74  99 129 166 204 245 296
#     4   9  17  30  49  73 100 129 161 199 245 296
#
# _framework density 18.026771
#
# number of rings (size 3 to 8) (size 9 to 14) (size 15 to 20)
#    0.000    2.500    0.000    3.000    0.000    9.500 
#    0.000    1.250    0.000    3.000    0.000    0.000 
#    0.000    0.000    0.000    0.000    0.000    0.000 
#
# Total GULP energy -793559.970153 kJ/mol
# GULP energy per Si atom -12399.374534 kJ/mol
# Density = 1.798574 g / cm^3
# Si number density = 18.026771 Si / 1000 Ang^3
#
#
#
# Elastic Constant Matrix: (Units=GPa)
#
#
# Indices 1 2 3 4 5 6 
#
# 1 50.8730 34.7522 37.6255 0.0000 0.0000 0.0000
# 2 34.7522 94.1820 59.4356 0.0000 0.0000 0.0000
# 3 37.6255 59.4356 141.9903 0.0000 0.0000 0.0000
# 4 0.0000 0.0000 0.0000 15.7916 0.0000 0.0000
# 5 0.0000 0.0000 0.0000 0.0000 18.5948 0.0000
# 6 0.0000 0.0000 0.0000 0.0000 0.0000 23.8994
#
#
#
# Elastic Compliance Matrix: (Units=1/GPa)
#
#
# Indices 1 2 3 4 5 6 
#
# 1 0.028017 -0.007682 -0.004208 0.000000 0.000000 0.000000
# 2 -0.007682 0.016536 -0.004886 0.000000 0.000000 0.000000
# 3 -0.004208 -0.004886 0.010203 0.000000 0.000000 0.000000
# 4 0.000000 0.000000 0.000000 0.063325 0.000000 0.000000
# 5 0.000000 0.000000 0.000000 0.000000 0.053778 0.000000
# 6 0.000000 0.000000 0.000000 0.000000 0.000000 0.041842
#
#
# Mechanical properties :
#
#
# Convention : Reuss Voigt Hill
#
# Bulk Modulus (GPa) = 47.16368 61.18576 54.17472
# Shear Modulus (GPa) = 19.66006 22.00596 20.83301
#
# Velocity S-wave (km/s) = 3.30601 3.49770 3.40320
# Velocity P-wave (km/s) = 6.38693 7.09416 6.74982
#
# Compressibility (1/GPa) = 0.02120275
#
# Stress axis : x y z
#
# Youngs Moduli (GPa) = 35.69230 60.47468 98.00870
#
# Poissons Ratio (x) = 0.46458 0.41247
# Poissons Ratio (y) = 0.27420 0.47887
# Poissons Ratio (z) = 0.15021 0.29548
#
# Static dielectric constant tensor:
#      x y z
#    x 3.184310 0.000000 0.000000 
#    y 0.000000 3.400370 0.000000 
#    z 0.000000 0.000000 3.489180 
# 
# 
# High freq. dielectric constant tensor:
#      x y z
#    x 1.683460 0.000000 0.000000 
#    y 0.000000 1.701820 0.000000 
#    z 0.000000 0.000000 1.688780 
# 
# From -- ./inp_files/33885.got.cif
#   From: 2010.03.12/outbox.cif.g09.slc.cpg/sg51_17_cif.got.tgz:33885.got - 2010.04.16 13:43:02.
