data_PCOD8210120
_publ_section_title
;
Structure prediction by ZEFSAII (Michael W. Deem and Ramdas Pophale) SiO2 
 PCOD8210120
Probable space group: P M M A
;
_chemical_formula_sum "Si O2"
_cell_formula_units_Z 48
_cell_length_a 15.001824
_cell_length_b 8.723937
_cell_length_c 18.954368
_cell_angle_alpha 90.000000
_cell_angle_beta 90.000000
_cell_angle_gamma 90.000000
_cell_volume 2480.652295
_symmetry_space_group_name_H-M "P M M A"
_symmetry_group_IT_number 51
_symmetry_cell_setting 'orthorhombic'
loop_
_space_group_symop_operation_xyz
x,y,z
1/2-x,-y,z
1/2+x,-y,-z
-x,y,-z
-x,-y,-z
1/2+x,y,-z
1/2-x,y,z
x,-y,z
loop_
_atom_site_type_symbol
_atom_site_label
_atom_site_fract_x
_atom_site_fract_y
_atom_site_fract_z
Si Si1 0.852078 0.823606 0.178565
Si Si2 0.250000 0.181239 0.580995
Si Si3 0.250000 0.817972 0.421999
Si Si4 0.505557 0.321711 0.081444
Si Si5 0.599236 0.320942 0.325181
Si Si6 0.089268 0.820485 0.326383
Si Si7 0.647535 0.177382 0.831833
O O1 0.750000 0.798249 0.155889
O O2 0.875320 0.722583 0.245910
O O3 0.913524 0.774993 0.113700
O O4 0.871213 0.000000 0.198049
O O5 0.250000 0.246386 0.501381
O O6 0.338180 0.236077 0.619757
O O7 0.250000 0.000000 0.580525
O O8 0.162101 0.759404 0.381797
O O9 0.250000 0.000000 0.419646
O O10 0.525914 0.500000 0.092496
O O11 0.412047 0.281430 0.117661
O O12 0.500000 0.276816 0.000000
O O13 0.612799 0.500000 0.334836
O O14 0.498792 0.275039 0.342326
O O15 0.124764 0.784395 0.248616
O O16 0.068973 0.000000 0.335686
O O17 0.750000 0.218710 0.846644
O O18 0.628037 0.000000 0.848162
#
# Coordination Sequence:
#
# PCOD8210120 Si02
#       7
#     8   4   4   8   8   8   8
#     4  11  23  40  65  92 118 155 207 259 302 359
#     4  11  23  41  63  89 122 163 208 253 299 358
#     4   9  20  39  65  93 122 159 206 253 301 356
#     4  11  25  42  60  88 128 166 200 246 306 367
#     4  12  24  38  60  91 124 161 202 250 307 368
#     4  10  19  37  64  92 120 155 202 252 300 358
#     4  10  20  36  63  93 120 155 202 253 301 356
#
# _framework density 19.349748999999999
#
# number of rings (size 3 to 8) (size 9 to 14) (size 15 to 20)
#    0.000    1.333    3.333    2.750    0.000    4.000 
#    0.000    8.750    0.000    0.000    0.000    0.000 
#    0.000    0.000    0.000    0.000    0.000    0.000 
#
# Total GULP energy -595462.396524 kJ/mol
# GULP energy per Si atom -12405.466594 kJ/mol
# Density = 1.930571 g / cm^3
# Si number density = 19.349749 Si / 1000 Ang^3
#
#
#
# Elastic Constant Matrix: (Units=GPa)
#
#
# Indices 1 2 3 4 5 6 
#
# 1 144.8548 33.8627 58.9749 0.0000 0.0000 0.0000
# 2 33.8627 58.1493 32.9012 0.0000 0.0000 0.0000
# 3 58.9749 32.9012 130.8637 0.0000 0.0000 0.0000
# 4 0.0000 0.0000 0.0000 14.2636 0.0000 0.0000
# 5 0.0000 0.0000 0.0000 0.0000 29.3291 0.0000
# 6 0.0000 0.0000 0.0000 0.0000 0.0000 -4.7662
#
#
#
# Elastic Compliance Matrix: (Units=1/GPa)
#
#
# Indices 1 2 3 4 5 6 
#
# 1 0.009008 -0.003438 -0.003195 0.000000 0.000000 0.000000
# 2 -0.003438 0.021361 -0.003821 0.000000 0.000000 0.000000
# 3 -0.003195 -0.003821 0.010042 0.000000 0.000000 0.000000
# 4 0.000000 0.000000 0.000000 0.070109 0.000000 0.000000
# 5 0.000000 0.000000 0.000000 0.000000 0.034096 0.000000
# 6 0.000000 0.000000 0.000000 0.000000 0.000000 -0.209812
#
#
# Mechanical properties :
#
#
# Convention : Reuss Voigt Hill
#
# Bulk Modulus (GPa) = 51.27467 65.03837 58.15652
# Shear Modulus (GPa) = -132.32289 21.64056 -55.34116
#
# Velocity S-wave (km/s) = -8.27848 3.34786 -5.35374
# Velocity P-wave (km/s) = 8.05117 6.97346 2.84535
#
# Compressibility (1/GPa) = 0.01950281
#
# Stress axis : x y z
#
# Youngs Moduli (GPa) = 111.01245 46.81383 99.57967
#
# Poissons Ratio (x) = 0.16094 0.31818
# Poissons Ratio (y) = 0.38164 0.38052
# Poissons Ratio (z) = 0.35471 0.17889
#
# Static dielectric constant tensor:
#      x y z
#    x -0.479050 0.000000 0.000000 
#    y 0.000000 3.439150 0.000000 
#    z 0.000000 0.000000 3.590150 
# 
# 
# High freq. dielectric constant tensor:
#      x y z
#    x 1.772030 0.000000 0.000000 
#    y 0.000000 1.746350 0.000000 
#    z 0.000000 0.000000 1.752150 
# 
# From -- ./inp_files/29607.got.cif
#   From: 2010.03.12/outbox.cif.g09.slc.cpg/sg51_15_cif.got.tgz:29607.got - 2010.04.16 13:43:02.
