data_PCOD8210177
_publ_section_title
;
Structure prediction by ZEFSAII (Michael W. Deem and Ramdas Pophale) SiO2 
 PCOD8210177
Probable space group: P M M A
;
_chemical_formula_sum "Si O2"
_cell_formula_units_Z 40
_cell_length_a 14.713737
_cell_length_b 9.397781
_cell_length_c 16.437279
_cell_angle_alpha 90.000000
_cell_angle_beta 90.000000
_cell_angle_gamma 90.000000
_cell_volume 2272.889048
_symmetry_space_group_name_H-M "P M M A"
_symmetry_group_IT_number 51
_symmetry_cell_setting 'orthorhombic'
loop_
_space_group_symop_operation_xyz
x,y,z
1/2-x,-y,z
1/2+x,-y,-z
-x,y,-z
-x,-y,-z
1/2+x,y,-z
1/2-x,y,z
x,-y,z
loop_
_atom_site_type_symbol
_atom_site_label
_atom_site_fract_x
_atom_site_fract_y
_atom_site_fract_z
Si Si1 0.147604 0.330711 0.488948
Si Si2 0.000907 0.332478 0.193569
Si Si3 0.851286 0.840330 0.898549
Si Si4 0.488159 0.668791 0.624360
Si Si5 0.098573 0.344437 0.960862
O O1 0.250000 0.266157 0.482856
O O2 0.153877 0.500000 0.489630
O O3 0.097618 0.275984 0.571371
O O4 0.084827 0.279007 0.413264
O O5 0.023719 0.500000 0.193198
O O6 0.090134 0.251653 0.163373
O O7 0.977133 0.275567 0.283525
O O8 0.915234 0.300135 0.133959
O O9 0.750000 0.843590 0.862853
O O10 0.891172 0.000000 0.905693
O O11 0.845770 0.772896 0.989433
O O12 0.487332 0.500000 0.622165
O O13 0.146408 0.500000 0.966198
O O14 0.000000 0.355699 0.000000
#
# Coordination Sequence:
#
# PCOD8210177 Si02
#       5
#     8   8   8   8   8
#     4   8  13  22  37  58  87 120 147 175 216 261
#     4   9  17  29  45  65  88 113 143 181 222 261
#     4  10  20  31  43  62  87 114 146 182 219 262
#     4   8  14  24  38  60  89 116 145 180 216 262
#     4   8  15  28  44  61  82 110 143 176 212 256
#
# _framework density 17.598746999999999
#
# number of rings (size 3 to 8) (size 9 to 14) (size 15 to 20)
#    0.000    3.400    0.000    3.000    0.000    6.000 
#    0.000    3.000    0.000    3.600    0.000    2.800 
#    0.000    1.600    0.000    0.000    0.000    0.000 
#
# Total GULP energy -495557.451240 kJ/mol
# GULP energy per Si atom -12388.936281 kJ/mol
# Density = 1.755869 g / cm^3
# Si number density = 17.598747 Si / 1000 Ang^3
#
#
#
# Elastic Constant Matrix: (Units=GPa)
#
#
# Indices 1 2 3 4 5 6 
#
# 1 70.7460 4.4462 21.2411 0.0000 0.0000 0.0000
# 2 4.4462 41.9038 13.2425 0.0000 0.0000 0.0000
# 3 21.2411 13.2425 132.5867 0.0000 0.0000 0.0000
# 4 0.0000 0.0000 0.0000 2.3823 0.0000 0.0000
# 5 0.0000 0.0000 0.0000 0.0000 15.4531 0.0000
# 6 0.0000 0.0000 0.0000 0.0000 0.0000 14.3993
#
#
#
# Elastic Compliance Matrix: (Units=1/GPa)
#
#
# Indices 1 2 3 4 5 6 
#
# 1 0.014879 -0.000852 -0.002299 0.000000 0.000000 0.000000
# 2 -0.000852 0.024691 -0.002330 0.000000 0.000000 0.000000
# 3 -0.002299 -0.002330 0.008143 0.000000 0.000000 0.000000
# 4 0.000000 0.000000 0.000000 0.419759 0.000000 0.000000
# 5 0.000000 0.000000 0.000000 0.000000 0.064712 0.000000
# 6 0.000000 0.000000 0.000000 0.000000 0.000000 0.069448
#
#
# Mechanical properties :
#
#
# Convention : Reuss Voigt Hill
#
# Bulk Modulus (GPa) = 27.20943 35.89957 31.55450
# Shear Modulus (GPa) = 8.00201 20.20073 14.10137
#
# Velocity S-wave (km/s) = 2.13466 3.39167 2.83374
# Velocity P-wave (km/s) = 4.64438 5.98173 5.35497
#
# Compressibility (1/GPa) = 0.03675197
#
# Stress axis : x y z
#
# Youngs Moduli (GPa) = 67.20989 40.50089 122.80276
#
# Poissons Ratio (x) = 0.03452 0.28227
# Poissons Ratio (y) = 0.05728 0.28607
# Poissons Ratio (z) = 0.15448 0.09435
#
# Static dielectric constant tensor:
#      x y z
#    x 3.237150 0.000000 0.000000 
#    y 0.000000 2.901560 0.000000 
#    z 0.000000 0.000000 3.779660 
# 
# 
# High freq. dielectric constant tensor:
#      x y z
#    x 1.665100 0.000000 0.000000 
#    y 0.000000 1.631220 0.000000 
#    z 0.000000 0.000000 1.681150 
# 
# From -- ./inp_files/23703.got.cif
#   From: 2010.03.12/outbox.cif.g09.slc.cpg/sg51_12_cif.got.tgz:23703.got - 2010.04.16 13:43:02.
