data_PCOD8210967
_publ_section_title
;
Structure prediction by ZEFSAII (Michael W. Deem and Ramdas Pophale) SiO2 
 PCOD8210967
Probable space group: P M M A
;
_chemical_formula_sum "Si O2"
_cell_formula_units_Z 48
_cell_length_a 9.092826
_cell_length_b 8.862102
_cell_length_c 31.259001
_cell_angle_alpha 90.000000
_cell_angle_beta 90.000000
_cell_angle_gamma 90.000000
_cell_volume 2518.898798
_symmetry_space_group_name_H-M "P M M A"
_symmetry_group_IT_number 51
_symmetry_cell_setting 'orthorhombic'
loop_
_space_group_symop_operation_xyz
x,y,z
1/2-x,-y,z
1/2+x,-y,-z
-x,y,-z
-x,-y,-z
1/2+x,y,-z
1/2-x,y,z
x,-y,z
loop_
_atom_site_type_symbol
_atom_site_label
_atom_site_fract_x
_atom_site_fract_y
_atom_site_fract_z
Si Si1 0.077860 0.324209 0.873319
Si Si2 0.916867 0.320837 0.283850
Si Si3 0.581268 0.822501 0.794500
Si Si4 0.915916 0.320452 0.958594
Si Si5 0.414571 0.320117 0.366364
Si Si6 0.921779 0.672876 0.540394
O O1 0.250000 0.292905 0.877812
O O2 0.045255 0.500000 0.865270
O O3 0.014843 0.230617 0.834230
O O4 0.000051 0.265269 0.916329
O O5 0.750000 0.264358 0.277439
O O6 0.926114 0.500000 0.280567
O O7 0.021380 0.252732 0.248194
O O8 0.973469 0.263205 0.330038
O O9 0.750000 0.772790 0.801352
O O10 0.566033 0.000000 0.789722
O O11 0.750000 0.256726 0.957965
O O12 0.914685 0.500000 0.960586
O O13 0.000000 0.254896 0.000000
O O14 0.250000 0.262415 0.355297
O O15 0.412379 0.500000 0.368704
O O16 0.464108 0.256180 0.413117
O O17 0.750000 0.687382 0.533047
O O18 0.974120 0.500000 0.541095
O O19 0.000000 0.755832 0.500000
#
# Coordination Sequence:
#
# PCOD8210967 Si02
#       6
#     8   8   8   8   8   8
#     4  10  20  34  54  80 107 135 169 207 247 293
#     4  10  20  33  51  75  99 125 161 204 249 296
#     4  11  24  39  54  73  98 130 167 205 248 299
#     4   9  16  27  46  74 107 139 170 206 246 286
#     4   8  14  25  40  59  86 121 158 195 237 285
#     4   8  13  20  31  50  79 116 154 189 229 278
#
# _framework density 19.055945000000001
#
# number of rings (size 3 to 8) (size 9 to 14) (size 15 to 20)
#    0.000    2.667    0.000    3.500    0.000    8.000 
#    0.000    3.333    0.000    0.500    0.000    0.000 
#    0.000    0.667    0.000    2.167    0.000    4.333 
#
# Total GULP energy -595021.843061 kJ/mol
# GULP energy per Si atom -12396.288397 kJ/mol
# Density = 1.901257 g / cm^3
# Si number density = 19.055945 Si / 1000 Ang^3
#
#
#
# Elastic Constant Matrix: (Units=GPa)
#
#
# Indices 1 2 3 4 5 6 
#
# 1 105.4185 18.0170 60.3628 0.0000 0.0000 0.0000
# 2 18.0170 13.8010 18.6012 0.0000 0.0000 0.0000
# 3 60.3628 18.6012 159.5624 0.0000 0.0000 0.0000
# 4 0.0000 0.0000 0.0000 -6.8508 0.0000 0.0000
# 5 0.0000 0.0000 0.0000 0.0000 45.3958 0.0000
# 6 0.0000 0.0000 0.0000 0.0000 0.0000 15.3275
#
#
#
# Elastic Compliance Matrix: (Units=1/GPa)
#
#
# Indices 1 2 3 4 5 6 
#
# 1 0.013847 -0.013070 -0.003715 0.000000 0.000000 0.000000
# 2 -0.013070 0.098303 -0.006515 0.000000 0.000000 0.000000
# 3 -0.003715 -0.006515 0.008432 0.000000 0.000000 0.000000
# 4 0.000000 0.000000 0.000000 -0.145968 0.000000 0.000000
# 5 0.000000 0.000000 0.000000 0.000000 0.022028 0.000000
# 6 0.000000 0.000000 0.000000 0.000000 0.000000 0.065242
#
#
# Mechanical properties :
#
#
# Convention : Reuss Voigt Hill
#
# Bulk Modulus (GPa) = 13.51688 52.52708 33.02198
# Shear Modulus (GPa) = 37.55287 22.89456 30.22371
#
# Velocity S-wave (km/s) = 4.44403 3.46994 3.98685
# Velocity P-wave (km/s) = 5.78284 6.60897 6.20966
#
# Compressibility (1/GPa) = 0.07398157
#
# Stress axis : x y z
#
# Youngs Moduli (GPa) = 72.21887 10.17262 118.59705
#
# Poissons Ratio (x) = 0.13296 0.44054
# Poissons Ratio (y) = 0.94391 0.77270
# Poissons Ratio (z) = 0.26826 0.06628
#
# Static dielectric constant tensor:
#      x y z
#    x 3.648090 0.000000 0.000000 
#    y 0.000000 2.885110 0.000000 
#    z 0.000000 0.000000 3.978500 
# 
# 
# High freq. dielectric constant tensor:
#      x y z
#    x 1.750020 0.000000 0.000000 
#    y 0.000000 1.671870 0.000000 
#    z 0.000000 0.000000 1.765530 
# 
# From -- ./inp_files/37060.got.cif
#   From: 2010.03.12/outbox.cif.g09.slc.cpg/sg51_19_cif.got.tgz:37060.got - 2010.04.16 13:43:02.
