data_PCOD8210971
_publ_section_title
;
Structure prediction by ZEFSAII (Michael W. Deem and Ramdas Pophale) SiO2 
 PCOD8210971
Probable space group: P M M A
;
_chemical_formula_sum "Si O2"
_cell_formula_units_Z 56
_cell_length_a 14.548222
_cell_length_b 9.143121
_cell_length_c 21.479084
_cell_angle_alpha 90.000000
_cell_angle_beta 90.000000
_cell_angle_gamma 90.000000
_cell_volume 2857.065147
_symmetry_space_group_name_H-M "P M M A"
_symmetry_group_IT_number 51
_symmetry_cell_setting 'orthorhombic'
loop_
_space_group_symop_operation_xyz
x,y,z
1/2-x,-y,z
1/2+x,-y,-z
-x,y,-z
-x,-y,-z
1/2+x,y,-z
1/2-x,y,z
x,-y,z
loop_
_atom_site_type_symbol
_atom_site_label
_atom_site_fract_x
_atom_site_fract_y
_atom_site_fract_z
Si Si1 0.851884 0.158251 0.918567
Si Si2 0.987600 0.173976 0.264499
Si Si3 0.857637 0.670300 0.168090
Si Si4 0.358401 0.668426 0.197810
Si Si5 0.100072 0.663581 0.970585
Si Si6 0.852924 0.825856 0.512956
Si Si7 0.982183 0.173165 0.404770
O O1 0.750000 0.129002 0.894029
O O2 0.895493 0.270889 0.868919
O O3 0.904063 0.000000 0.919885
O O4 0.842071 0.226466 0.987155
O O5 0.908571 0.235151 0.219931
O O6 0.087772 0.240633 0.249880
O O7 0.964655 0.225947 0.334527
O O8 0.992393 0.000000 0.257922
O O9 0.750000 0.706205 0.171146
O O10 0.877276 0.500000 0.180506
O O11 0.896827 0.717576 0.100485
O O12 0.250000 0.686543 0.208911
O O13 0.388211 0.500000 0.199983
O O14 0.141961 0.500000 0.974385
O O15 0.000000 0.669297 0.000000
O O16 0.750000 0.759206 0.520052
O O17 0.918985 0.770120 0.569069
O O18 0.898258 0.770741 0.447964
O O19 0.846961 0.000000 0.513163
O O20 0.985003 0.000000 0.407760
#
# Coordination Sequence:
#
# PCOD8210971 Si02
#       7
#     8   8   8   8   8   8   8
#     4  10  20  33  51  76 102 126 159 211 273 328
#     4  11  22  35  54  81 114 146 179 229 284 327
#     4  10  22  39  56  76 108 152 197 233 268 324
#     4  10  21  37  56  77 105 145 189 228 272 335
#     4  10  20  34  54  77  99 129 173 223 273 327
#     4   8  13  25  46  70 102 142 176 208 253 316
#     4   8  16  28  43  72 108 139 174 214 263 321
#
# _framework density 19.600532000000001
#
# number of rings (size 3 to 8) (size 9 to 14) (size 15 to 20)
#    0.000    2.429    0.000    3.429    0.000    5.714 
#    0.000    2.857    0.000    0.000    0.000    8.000 
#    0.000   13.714    0.000    0.000    0.000    0.000 
#
# Total GULP energy -694031.415793 kJ/mol
# GULP energy per Si atom -12393.418139 kJ/mol
# Density = 1.955592 g / cm^3
# Si number density = 19.600532 Si / 1000 Ang^3
#
#
#
# Elastic Constant Matrix: (Units=GPa)
#
#
# Indices 1 2 3 4 5 6 
#
# 1 110.4363 24.4282 49.3761 0.0000 0.0000 0.0000
# 2 24.4282 80.5557 46.4811 0.0000 0.0000 0.0000
# 3 49.3761 46.4811 148.2519 0.0000 0.0000 0.0000
# 4 0.0000 0.0000 0.0000 2.2452 0.0000 0.0000
# 5 0.0000 0.0000 0.0000 0.0000 23.3545 0.0000
# 6 0.0000 0.0000 0.0000 0.0000 0.0000 23.4459
#
#
#
# Elastic Compliance Matrix: (Units=1/GPa)
#
#
# Indices 1 2 3 4 5 6 
#
# 1 0.010778 -0.001462 -0.003132 0.000000 0.000000 0.000000
# 2 -0.001462 0.015354 -0.004327 0.000000 0.000000 0.000000
# 3 -0.003132 -0.004327 0.009145 0.000000 0.000000 0.000000
# 4 0.000000 0.000000 0.000000 0.445397 0.000000 0.000000
# 5 0.000000 0.000000 0.000000 0.000000 0.042818 0.000000
# 6 0.000000 0.000000 0.000000 0.000000 0.000000 0.042651
#
#
# Mechanical properties :
#
#
# Convention : Reuss Voigt Hill
#
# Bulk Modulus (GPa) = 57.35036 64.42385 60.88711
# Shear Modulus (GPa) = 8.47750 24.40634 16.44192
#
# Velocity S-wave (km/s) = 2.08195 3.53255 2.89943
# Velocity P-wave (km/s) = 5.92474 7.04119 6.50695
#
# Compressibility (1/GPa) = 0.01743668
#
# Stress axis : x y z
#
# Youngs Moduli (GPa) = 92.77802 65.13084 109.35056
#
# Poissons Ratio (x) = 0.09519 0.34244
# Poissons Ratio (y) = 0.13560 0.47316
# Poissons Ratio (z) = 0.29054 0.28182
#
# Static dielectric constant tensor:
#      x y z
#    x 3.707660 0.000000 0.000000 
#    y 0.000000 3.408280 0.000000 
#    z 0.000000 0.000000 3.745430 
# 
# 
# High freq. dielectric constant tensor:
#      x y z
#    x 1.767000 0.000000 0.000000 
#    y 0.000000 1.734440 0.000000 
#    z 0.000000 0.000000 1.760370 
# 
# From -- ./inp_files/33409.got.cif
#   From: 2010.03.12/outbox.cif.g09.slc.cpg/sg51_17_cif.got.tgz:33409.got - 2010.04.16 13:43:02.
