data_PCOD8210478
_publ_section_title
;
Structure prediction by ZEFSAII (Michael W. Deem and Ramdas Pophale) SiO2 
 PCOD8210478
Probable space group: P M M A
;
_chemical_formula_sum "Si O2"
_cell_formula_units_Z 64
_cell_length_a 22.882382
_cell_length_b 9.497226
_cell_length_c 15.484224
_cell_angle_alpha 90.000000
_cell_angle_beta 90.000000
_cell_angle_gamma 90.000000
_cell_volume 3365.018449
_symmetry_space_group_name_H-M "P M M A"
_symmetry_group_IT_number 51
_symmetry_cell_setting 'orthorhombic'
loop_
_space_group_symop_operation_xyz
x,y,z
1/2-x,-y,z
1/2+x,-y,-z
-x,y,-z
-x,-y,-z
1/2+x,y,-z
1/2-x,y,z
x,-y,z
loop_
_atom_site_type_symbol
_atom_site_label
_atom_site_fract_x
_atom_site_fract_y
_atom_site_fract_z
Si Si1 0.353545 0.341043 0.605663
Si Si2 0.318246 0.656300 0.104188
Si Si3 0.124342 0.165804 0.769117
Si Si4 0.682159 0.161303 0.561773
Si Si5 0.510580 0.653979 0.410270
Si Si6 0.864941 0.840727 0.748400
Si Si7 0.819161 0.839731 0.053311
Si Si8 0.993702 0.156311 0.736803
O O1 0.325714 0.500000 0.610736
O O2 0.341724 0.248334 0.692054
O O3 0.332515 0.262715 0.519051
O O4 0.421976 0.357927 0.607643
O O5 0.250000 0.642545 0.089159
O O6 0.346689 0.500000 0.106077
O O7 0.328036 0.733591 0.194728
O O8 0.344818 0.745229 0.024445
O O9 0.153466 0.216027 0.857726
O O10 0.054650 0.202506 0.781668
O O11 0.133903 0.000000 0.752453
O O12 0.750000 0.181430 0.585976
O O13 0.643740 0.200277 0.646920
O O14 0.669327 0.000000 0.533672
O O15 0.500000 0.733259 0.500000
O O16 0.480805 0.500000 0.412159
O O17 0.477108 0.743325 0.340948
O O18 0.931934 0.834759 0.786978
O O19 0.841066 0.000000 0.760650
O O20 0.750000 0.828082 0.060986
O O21 0.838682 0.000000 0.035210
O O22 0.003592 0.000000 0.700601
#
# Coordination Sequence:
#
# PCOD8210478 Si02
#       8
#     8   8   8   8   8   8   8   8
#     4  10  20  32  48  72 101 134 170 207 251 302
#     4  10  21  36  55  80 106 131 164 210 262 312
#     4   9  18  34  54  77 107 139 172 213 257 303
#     4  10  21  35  50  70  98 133 173 216 259 305
#     4   9  17  29  45  66  94 129 167 206 248 294
#     4  10  20  35  55  77 102 136 176 215 258 307
#     4   9  18  34  57  80 100 129 169 209 252 305
#     4   9  18  31  49  74 101 131 170 213 254 298
#
# _framework density 19.019213000000001
#
# number of rings (size 3 to 8) (size 9 to 14) (size 15 to 20)
#    0.000    2.500    0.000    1.875    0.000    4.250 
#    0.000    1.875    0.000    3.750    0.000    0.000 
#    0.000    0.000    0.000    0.000    0.000    0.000 
#
# Total GULP energy -792843.348719 kJ/mol
# GULP energy per Si atom -12388.177324 kJ/mol
# Density = 1.897592 g / cm^3
# Si number density = 19.019213 Si / 1000 Ang^3
#
#
#
# Elastic Constant Matrix: (Units=GPa)
#
#
# Indices 1 2 3 4 5 6 
#
# 1 36.2967 18.8410 19.0043 0.0000 0.0000 0.0000
# 2 18.8410 101.8050 67.5199 0.0000 0.0000 0.0000
# 3 19.0043 67.5199 120.6443 0.0000 0.0000 0.0000
# 4 0.0000 0.0000 0.0000 37.4896 0.0000 0.0000
# 5 0.0000 0.0000 0.0000 0.0000 19.5541 0.0000
# 6 0.0000 0.0000 0.0000 0.0000 0.0000 6.3230
#
#
#
# Elastic Compliance Matrix: (Units=1/GPa)
#
#
# Indices 1 2 3 4 5 6 
#
# 1 0.031006 -0.003974 -0.002660 0.000000 0.000000 0.000000
# 2 -0.003974 0.016130 -0.008401 0.000000 0.000000 0.000000
# 3 -0.002660 -0.008401 0.013410 0.000000 0.000000 0.000000
# 4 0.000000 0.000000 0.000000 0.026674 0.000000 0.000000
# 5 0.000000 0.000000 0.000000 0.000000 0.051140 0.000000
# 6 0.000000 0.000000 0.000000 0.000000 0.000000 0.158153
#
#
# Mechanical properties :
#
#
# Convention : Reuss Voigt Hill
#
# Bulk Modulus (GPa) = 32.81359 52.16404 42.48881
# Shear Modulus (GPa) = 14.84809 22.89873 18.87341
#
# Velocity S-wave (km/s) = 2.79711 3.47360 3.15355
# Velocity P-wave (km/s) = 5.26518 6.60110 5.97062
#
# Compressibility (1/GPa) = 0.03047518
#
# Stress axis : x y z
#
# Youngs Moduli (GPa) = 32.25144 61.99520 74.57220
#
# Poissons Ratio (x) = 0.24638 0.19837
# Poissons Ratio (y) = 0.12817 0.62652
# Poissons Ratio (z) = 0.08579 0.52085
#
# Static dielectric constant tensor:
#      x y z
#    x 3.398580 0.000000 0.000000 
#    y 0.000000 3.950730 0.000000 
#    z 0.000000 0.000000 3.566240 
# 
# 
# High freq. dielectric constant tensor:
#      x y z
#    x 1.728020 0.000000 0.000000 
#    y 0.000000 1.742210 0.000000 
#    z 0.000000 0.000000 1.726030 
# 
# From -- ./inp_files/26362.got.cif
#   From: 2010.03.12/outbox.cif.g09.slc.cpg/sg51_14_cif.got.tgz:26362.got - 2010.04.16 13:43:02.
