data_PCOD8210016
_publ_section_title
;
Structure prediction by ZEFSAII (Michael W. Deem and Ramdas Pophale) SiO2 
 PCOD8210016
Probable space group: P M M A
;
_chemical_formula_sum "Si O2"
_cell_formula_units_Z 56
_cell_length_a 20.397125
_cell_length_b 13.909404
_cell_length_c 9.462447
_cell_angle_alpha 90.000000
_cell_angle_beta 90.000000
_cell_angle_gamma 90.000000
_cell_volume 2684.608363
_symmetry_space_group_name_H-M "P M M A"
_symmetry_group_IT_number 51
_symmetry_cell_setting 'orthorhombic'
loop_
_space_group_symop_operation_xyz
x,y,z
1/2-x,-y,z
1/2+x,-y,-z
-x,y,-z
-x,-y,-z
1/2+x,y,-z
1/2-x,y,z
x,-y,z
loop_
_atom_site_type_symbol
_atom_site_label
_atom_site_fract_x
_atom_site_fract_y
_atom_site_fract_z
Si Si1 0.557771 0.886375 0.385466
Si Si2 0.952196 0.244570 0.134210
Si Si3 0.995023 0.606137 0.655094
Si Si4 0.826003 0.896742 0.788444
Si Si5 0.677458 0.728627 0.980779
Si Si6 0.825014 0.215672 0.521211
Si Si7 0.654511 0.607588 0.703155
O O1 0.500000 0.865596 0.500000
O O2 0.537873 0.853332 0.226185
O O3 0.622750 0.818534 0.404640
O O4 0.575433 0.000000 0.385738
O O5 0.967143 0.333482 0.232331
O O6 0.879444 0.281743 0.093927
O O7 0.000000 0.235646 0.000000
O O8 0.027157 0.500000 0.646089
O O9 0.922326 0.599426 0.711535
O O10 0.000000 0.655106 0.500000
O O11 0.750000 0.910015 0.757330
O O12 0.837173 0.836843 0.928991
O O13 0.855127 0.842242 0.654316
O O14 0.861257 0.000000 0.805168
O O15 0.750000 0.722041 0.051770
O O16 0.678547 0.655040 0.849256
O O17 0.750000 0.188275 0.477679
O O18 0.825097 0.328329 0.566390
O O19 0.685003 0.500000 0.688121
#
# Coordination Sequence:
#
# PCOD8210016 Si02
#       7
#     8   8   8   8   8   8   8
#     4  11  26  45  65  90 126 169 213 267 331 390
#     4  12  24  41  64  90 126 167 211 267 318 382
#     4  10  21  39  66  96 125 166 217 263 311 376
#     4   8  15  30  54  82 112 151 200 250 301 364
#     4  10  22  37  55  87 127 166 206 254 314 378
#     4  10  20  36  61  92 123 160 209 262 316 378
#     4  10  19  35  61  94 132 170 208 255 309 377
#
# _framework density 20.859653000000002
#
# number of rings (size 3 to 8) (size 9 to 14) (size 15 to 20)
#    0.000    1.857    1.429    3.857    2.000    4.286 
#    0.000    0.000    0.000    0.000    0.000    2.000 
#    0.000    0.000    0.000    0.000    0.000    0.000 
#
# Total GULP energy -693734.981677 kJ/mol
# GULP energy per Si atom -12388.124673 kJ/mol
# Density = 2.081218 g / cm^3
# Si number density = 20.859653 Si / 1000 Ang^3
#
#
#
# Elastic Constant Matrix: (Units=GPa)
#
#
# Indices 1 2 3 4 5 6 
#
# 1 117.6140 36.6515 50.6652 0.0000 0.0000 0.0000
# 2 36.6515 142.1927 44.5789 0.0000 0.0000 0.0000
# 3 50.6652 44.5789 110.8622 0.0000 0.0000 0.0000
# 4 0.0000 0.0000 0.0000 32.3954 0.0000 0.0000
# 5 0.0000 0.0000 0.0000 0.0000 23.6411 0.0000
# 6 0.0000 0.0000 0.0000 0.0000 0.0000 7.8635
#
#
#
# Elastic Compliance Matrix: (Units=1/GPa)
#
#
# Indices 1 2 3 4 5 6 
#
# 1 0.010831 -0.001419 -0.004379 0.000000 0.000000 0.000000
# 2 -0.001419 0.008233 -0.002662 0.000000 0.000000 0.000000
# 3 -0.004379 -0.002662 0.012092 0.000000 0.000000 0.000000
# 4 0.000000 0.000000 0.000000 0.030869 0.000000 0.000000
# 5 0.000000 0.000000 0.000000 0.000000 0.042299 0.000000
# 6 0.000000 0.000000 0.000000 0.000000 0.000000 0.127170
#
#
# Mechanical properties :
#
#
# Convention : Reuss Voigt Hill
#
# Bulk Modulus (GPa) = 70.24714 70.49556 70.37135
# Shear Modulus (GPa) = 19.75036 28.69822 24.22429
#
# Velocity S-wave (km/s) = 3.08038 3.71317 3.41148
# Velocity P-wave (km/s) = 6.81182 7.22856 7.02328
#
# Compressibility (1/GPa) = 0.01423545
#
# Stress axis : x y z
#
# Youngs Moduli (GPa) = 92.32707 121.46176 82.69847
#
# Poissons Ratio (x) = 0.17233 0.36217
# Poissons Ratio (y) = 0.13100 0.22016
# Poissons Ratio (z) = 0.40434 0.32335
#
# Static dielectric constant tensor:
#      x y z
#    x 3.750740 0.000000 0.000000 
#    y 0.000000 4.367820 0.000000 
#    z 0.000000 0.000000 3.639450 
# 
# 
# High freq. dielectric constant tensor:
#      x y z
#    x 1.819450 0.000000 0.000000 
#    y 0.000000 1.824610 0.000000 
#    z 0.000000 0.000000 1.793630 
# 
# From -- ./inp_files/10991.got.cif
#   From: 2010.03.12/outbox.cif.g09.slc.cpg/sg51_6_cif.got.tgz:10991.got - 2010.04.16 13:43:02.
