data_PCOD8210195
_publ_section_title
;
Structure prediction by ZEFSAII (Michael W. Deem and Ramdas Pophale) SiO2 
 PCOD8210195
Probable space group: P M M A
;
_chemical_formula_sum "Si O2"
_cell_formula_units_Z 56
_cell_length_a 14.921425
_cell_length_b 13.562028
_cell_length_c 15.920474
_cell_angle_alpha 90.000000
_cell_angle_beta 90.000000
_cell_angle_gamma 90.000000
_cell_volume 3221.743277
_symmetry_space_group_name_H-M "P M M A"
_symmetry_group_IT_number 51
_symmetry_cell_setting 'orthorhombic'
loop_
_space_group_symop_operation_xyz
x,y,z
1/2-x,-y,z
1/2+x,-y,-z
-x,y,-z
-x,-y,-z
1/2+x,y,-z
1/2-x,y,z
x,-y,z
loop_
_atom_site_type_symbol
_atom_site_label
_atom_site_fract_x
_atom_site_fract_y
_atom_site_fract_z
Si Si1 0.031563 0.797077 0.805321
Si Si2 0.521985 0.614345 0.299363
Si Si3 0.652739 0.389375 0.607911
Si Si4 0.092634 0.722121 0.545237
Si Si5 0.147721 0.886720 0.943792
Si Si6 0.649091 0.112094 0.337544
Si Si7 0.148695 0.884886 0.139345
O O1 0.044108 0.681768 0.781494
O O2 0.080798 0.815750 0.893453
O O3 0.077661 0.863463 0.734263
O O4 0.926077 0.824023 0.809763
O O5 0.536733 0.500000 0.275695
O O6 0.419885 0.642047 0.323285
O O7 0.583289 0.643368 0.378867
O O8 0.750000 0.383477 0.651604
O O9 0.628941 0.500000 0.577994
O O10 0.657110 0.322885 0.524824
O O11 0.134224 0.822843 0.579588
O O12 0.000000 0.746671 0.500000
O O13 0.250000 0.867205 0.915865
O O14 0.121640 0.000000 0.924784
O O15 0.135434 0.862851 0.041212
O O16 0.750000 0.129357 0.302886
O O17 0.635073 0.000000 0.365771
O O18 0.250000 0.853535 0.166681
O O19 0.134697 0.000000 0.157515
#
# Coordination Sequence:
#
# PCOD8210195 Si02
#       7
#     8   8   8   8   8   8   8
#     4  11  19  29  49  69  92 127 158 185 226 278
#     4   9  19  32  44  64  92 119 151 192 236 276
#     4   9  16  28  48  68  84 108 147 195 238 272
#     4   9  17  30  48  67  87 116 152 193 236 277
#     4   9  17  30  50  75  98 119 149 189 228 269
#     4  10  20  31  44  67  98 127 154 186 226 277
#     4   9  18  31  48  73 100 122 149 188 229 268
#
# _framework density 17.381893999999999
#
# number of rings (size 3 to 8) (size 9 to 14) (size 15 to 20)
#    0.000    2.571    0.000    3.857    0.000    4.857 
#    0.000    0.000    0.000   10.286    0.000   16.000 
#    0.000    0.000    0.000    0.000    0.000    0.000 
#
# Total GULP energy -694221.092067 kJ/mol
# GULP energy per Si atom -12396.805215 kJ/mol
# Density = 1.734233 g / cm^3
# Si number density = 17.381894 Si / 1000 Ang^3
#
#
#
# Elastic Constant Matrix: (Units=GPa)
#
#
# Indices 1 2 3 4 5 6 
#
# 1 86.3185 38.2258 26.9931 0.0000 0.0000 0.0000
# 2 38.2258 102.5293 38.2039 0.0000 0.0000 0.0000
# 3 26.9931 38.2039 49.3010 0.0000 0.0000 0.0000
# 4 0.0000 0.0000 0.0000 25.2200 0.0000 0.0000
# 5 0.0000 0.0000 0.0000 0.0000 16.0366 0.0000
# 6 0.0000 0.0000 0.0000 0.0000 0.0000 18.9292
#
#
#
# Elastic Compliance Matrix: (Units=1/GPa)
#
#
# Indices 1 2 3 4 5 6 
#
# 1 0.014830 -0.003520 -0.005392 0.000000 0.000000 0.000000
# 2 -0.003520 0.014548 -0.009346 0.000000 0.000000 0.000000
# 3 -0.005392 -0.009346 0.030478 0.000000 0.000000 0.000000
# 4 0.000000 0.000000 0.000000 0.039651 0.000000 0.000000
# 5 0.000000 0.000000 0.000000 0.000000 0.062357 0.000000
# 6 0.000000 0.000000 0.000000 0.000000 0.000000 0.052828
#
#
# Mechanical properties :
#
#
# Convention : Reuss Voigt Hill
#
# Bulk Modulus (GPa) = 42.84497 49.44383 46.14440
# Shear Modulus (GPa) = 19.30575 21.01888 20.16232
#
# Velocity S-wave (km/s) = 3.33630 3.48119 3.40951
# Velocity P-wave (km/s) = 6.28840 6.68323 6.48882
#
# Compressibility (1/GPa) = 0.02333996
#
# Stress axis : x y z
#
# Youngs Moduli (GPa) = 67.43117 68.73692 32.81007
#
# Poissons Ratio (x) = 0.24194 0.17691
# Poissons Ratio (y) = 0.23735 0.30666
# Poissons Ratio (z) = 0.36359 0.64244
#
# Static dielectric constant tensor:
#      x y z
#    x 3.372410 0.000000 0.000000 
#    y 0.000000 3.109290 0.000000 
#    z 0.000000 0.000000 3.021230 
# 
# 
# High freq. dielectric constant tensor:
#      x y z
#    x 1.684590 0.000000 0.000000 
#    y 0.000000 1.652570 0.000000 
#    z 0.000000 0.000000 1.649680 
# 
# From -- ./inp_files/24317.got.cif
#   From: 2010.03.12/outbox.cif.g09.slc.cpg/sg51_13_cif.got.tgz:24317.got - 2010.04.16 13:43:02.
