data_PCOD8210523
_publ_section_title
;
Structure prediction by ZEFSAII (Michael W. Deem and Ramdas Pophale) SiO2 
 PCOD8210523
Probable space group: P M M A
;
_chemical_formula_sum "Si O2"
_cell_formula_units_Z 64
_cell_length_a 18.852393
_cell_length_b 9.130559
_cell_length_c 20.163026
_cell_angle_alpha 90.000000
_cell_angle_beta 90.000000
_cell_angle_gamma 90.000000
_cell_volume 3470.719868
_symmetry_space_group_name_H-M "P M M A"
_symmetry_group_IT_number 51
_symmetry_cell_setting 'orthorhombic'
loop_
_space_group_symop_operation_xyz
x,y,z
1/2-x,-y,z
1/2+x,-y,-z
-x,y,-z
-x,-y,-z
1/2+x,y,-z
1/2-x,y,z
x,-y,z
loop_
_atom_site_type_symbol
_atom_site_label
_atom_site_fract_x
_atom_site_fract_y
_atom_site_fract_z
Si Si1 0.831669 0.670094 0.711738
Si Si2 0.405880 0.331929 0.795799
Si Si3 0.926912 0.173208 0.966911
Si Si4 0.933531 0.332097 0.829976
Si Si5 0.165508 0.834839 0.418475
Si Si6 0.834445 0.665241 0.453811
Si Si7 0.667768 0.828620 0.322629
Si Si8 0.167678 0.330058 0.931421
O O1 0.750000 0.708399 0.726489
O O2 0.841692 0.500000 0.694847
O O3 0.875844 0.716492 0.776002
O O4 0.861301 0.759383 0.648934
O O5 0.384384 0.500000 0.780870
O O6 0.489799 0.311057 0.797658
O O7 0.376269 0.227460 0.739455
O O8 0.372937 0.280100 0.865336
O O9 0.923010 0.227765 0.892115
O O10 0.921272 0.000000 0.967658
O O11 0.860822 0.238074 0.006871
O O12 0.000000 0.228297 0.000000
O O13 0.922348 0.500000 0.852512
O O14 0.250000 0.832205 0.420686
O O15 0.134672 0.747083 0.481532
O O16 0.136336 0.000000 0.421029
O O17 0.750000 0.666106 0.456392
O O18 0.863993 0.500000 0.452635
O O19 0.861049 0.748652 0.388331
O O20 0.750000 0.791605 0.310264
O O21 0.655285 0.000000 0.332144
O O22 0.250000 0.295113 0.921806
O O23 0.153641 0.500000 0.946328
#
# Coordination Sequence:
#
# PCOD8210523 Si02
#       8
#     8   8   8   8   8   8   8   8
#     4   9  18  33  53  79 108 136 172 218 266 316
#     4  10  20  35  55  77 104 140 182 223 264 316
#     4  11  23  38  57  81 110 143 178 219 271 328
#     4  10  21  37  59  81 105 142 183 222 264 317
#     4   9  16  27  46  73 105 139 174 215 265 318
#     4   9  16  27  46  72 102 138 179 221 264 312
#     4  10  20  32  48  74 108 142 176 219 270 321
#     4  10  21  37  59  84 108 140 183 227 270 319
#
# _framework density 18.439978
#
# number of rings (size 3 to 8) (size 9 to 14) (size 15 to 20)
#    0.000    2.250    1.250    1.875    0.000    7.000 
#    0.000    1.250    0.000    0.750    0.000    5.250 
#    0.000    0.000    0.000    0.000    0.000    0.000 
#
# Total GULP energy -793835.720834 kJ/mol
# GULP energy per Si atom -12403.683138 kJ/mol
# Density = 1.839801 g / cm^3
# Si number density = 18.439978 Si / 1000 Ang^3
#
#
#
# Elastic Constant Matrix: (Units=GPa)
#
#
# Indices 1 2 3 4 5 6 
#
# 1 59.1767 32.3027 41.3946 0.0000 0.0000 0.0000
# 2 32.3027 98.9378 70.5838 0.0000 0.0000 0.0000
# 3 41.3946 70.5838 138.5690 0.0000 0.0000 0.0000
# 4 0.0000 0.0000 0.0000 30.3461 0.0000 0.0000
# 5 0.0000 0.0000 0.0000 0.0000 12.0200 0.0000
# 6 0.0000 0.0000 0.0000 0.0000 0.0000 19.9120
#
#
#
# Elastic Compliance Matrix: (Units=1/GPa)
#
#
# Indices 1 2 3 4 5 6 
#
# 1 0.022315 -0.003974 -0.004642 0.000000 0.000000 0.000000
# 2 -0.003974 0.016585 -0.007261 0.000000 0.000000 0.000000
# 3 -0.004642 -0.007261 0.012302 0.000000 0.000000 0.000000
# 4 0.000000 0.000000 0.000000 0.032953 0.000000 0.000000
# 5 0.000000 0.000000 0.000000 0.000000 0.083195 0.000000
# 6 0.000000 0.000000 0.000000 0.000000 0.000000 0.050221
#
#
# Mechanical properties :
#
#
# Convention : Reuss Voigt Hill
#
# Bulk Modulus (GPa) = 51.41896 65.02728 58.22312
# Shear Modulus (GPa) = 19.54605 22.61579 21.08092
#
# Velocity S-wave (km/s) = 3.25927 3.50588 3.38482
# Velocity P-wave (km/s) = 6.48913 7.19229 6.84974
#
# Compressibility (1/GPa) = 0.01944808
#
# Stress axis : x y z
#
# Youngs Moduli (GPa) = 44.81316 60.29607 81.28972
#
# Poissons Ratio (x) = 0.23963 0.37733
# Poissons Ratio (y) = 0.17810 0.59022
# Poissons Ratio (z) = 0.20801 0.43779
#
# Static dielectric constant tensor:
#      x y z
#    x 3.151220 0.000000 0.000000 
#    y 0.000000 3.426790 0.000000 
#    z 0.000000 0.000000 3.466170 
# 
# 
# High freq. dielectric constant tensor:
#      x y z
#    x 1.684800 0.000000 0.000000 
#    y 0.000000 1.718550 0.000000 
#    z 0.000000 0.000000 1.726680 
# 
# From -- ./inp_files/33800.got.cif
#   From: 2010.03.12/outbox.cif.g09.slc.cpg/sg51_17_cif.got.tgz:33800.got - 2010.04.16 13:43:02.
