data_PCOD8210402
_publ_section_title
;
Structure prediction by ZEFSAII (Michael W. Deem and Ramdas Pophale) SiO2 
 PCOD8210402
Probable space group: P M M A
;
_chemical_formula_sum "Si O2"
_cell_formula_units_Z 40
_cell_length_a 18.182493
_cell_length_b 9.020079
_cell_length_c 13.909831
_cell_angle_alpha 90.000000
_cell_angle_beta 90.000000
_cell_angle_gamma 90.000000
_cell_volume 2281.316932
_symmetry_space_group_name_H-M "P M M A"
_symmetry_group_IT_number 51
_symmetry_cell_setting 'orthorhombic'
loop_
_space_group_symop_operation_xyz
x,y,z
1/2-x,-y,z
1/2+x,-y,-z
-x,y,-z
-x,-y,-z
1/2+x,y,-z
1/2-x,y,z
x,-y,z
loop_
_atom_site_type_symbol
_atom_site_label
_atom_site_fract_x
_atom_site_fract_y
_atom_site_fract_z
Si Si1 0.118012 0.673022 0.374441
Si Si2 0.533960 0.676340 0.899870
Si Si3 0.666841 0.170471 0.812801
Si Si4 0.962984 0.672276 0.292938
Si Si5 0.332280 0.676785 0.582310
O O1 0.136466 0.500000 0.361397
O O2 0.161698 0.760827 0.293160
O O3 0.144672 0.734304 0.477032
O O4 0.030702 0.701196 0.365161
O O5 0.542239 0.500000 0.895302
O O6 0.614831 0.745084 0.888490
O O7 0.482006 0.736364 0.812944
O O8 0.500000 0.730652 0.000000
O O9 0.750000 0.187502 0.850481
O O10 0.642664 0.000000 0.807374
O O11 0.948054 0.500000 0.280469
O O12 0.889112 0.744015 0.338744
O O13 0.250000 0.731748 0.607499
O O14 0.336811 0.500000 0.581810
#
# Coordination Sequence:
#
# PCOD8210402 Si02
#       5
#     8   8   8   8   8
#     4   9  16  27  45  66  89 119 153 187 223 267
#     4   9  18  33  52  71  90 117 156 197 237 280
#     4  10  20  32  47  70  97 122 150 187 232 277
#     4   8  14  25  41  62  89 117 146 185 229 272
#     4   9  15  22  37  64  93 119 149 184 225 274
#
# _framework density 17.533732000000001
#
# number of rings (size 3 to 8) (size 9 to 14) (size 15 to 20)
#    0.000    3.000    0.000    3.000    0.000    5.200 
#    0.000    1.000    0.000   13.200    0.000    0.000 
#    0.000    0.000    0.000    0.000    0.000    0.000 
#
# Total GULP energy -495814.072660 kJ/mol
# GULP energy per Si atom -12395.351817 kJ/mol
# Density = 1.749382 g / cm^3
# Si number density = 17.533732 Si / 1000 Ang^3
#
#
#
# Elastic Constant Matrix: (Units=GPa)
#
#
# Indices 1 2 3 4 5 6 
#
# 1 129.7780 28.8155 73.3743 0.0000 0.0000 0.0000
# 2 28.8155 31.4595 25.0752 0.0000 0.0000 0.0000
# 3 73.3743 25.0752 113.3892 0.0000 0.0000 0.0000
# 4 0.0000 0.0000 0.0000 6.5525 0.0000 0.0000
# 5 0.0000 0.0000 0.0000 0.0000 23.4225 0.0000
# 6 0.0000 0.0000 0.0000 0.0000 0.0000 15.8584
#
#
#
# Elastic Compliance Matrix: (Units=1/GPa)
#
#
# Indices 1 2 3 4 5 6 
#
# 1 0.013127 -0.006377 -0.007084 0.000000 0.000000 0.000000
# 2 -0.006377 0.041687 -0.005092 0.000000 0.000000 0.000000
# 3 -0.007084 -0.005092 0.014529 0.000000 0.000000 0.000000
# 4 0.000000 0.000000 0.000000 0.152613 0.000000 0.000000
# 5 0.000000 0.000000 0.000000 0.000000 0.042694 0.000000
# 6 0.000000 0.000000 0.000000 0.000000 0.000000 0.063058
#
#
# Mechanical properties :
#
#
# Convention : Reuss Voigt Hill
#
# Bulk Modulus (GPa) = 31.02090 58.79519 44.90804
# Shear Modulus (GPa) = 13.31348 18.99080 16.15214
#
# Velocity S-wave (km/s) = 2.75854 3.29462 3.03843
# Velocity P-wave (km/s) = 5.27983 6.93384 6.16258
#
# Compressibility (1/GPa) = 0.03223633
#
# Stress axis : x y z
#
# Youngs Moduli (GPa) = 76.18145 23.98848 68.82619
#
# Poissons Ratio (x) = 0.15297 0.48756
# Poissons Ratio (y) = 0.48580 0.35048
# Poissons Ratio (z) = 0.53967 0.12215
#
# Static dielectric constant tensor:
#      x y z
#    x 3.451390 0.000000 0.000000 
#    y 0.000000 2.834930 0.000000 
#    z 0.000000 0.000000 3.376680 
# 
# 
# High freq. dielectric constant tensor:
#      x y z
#    x 1.683870 0.000000 0.000000 
#    y 0.000000 1.630410 0.000000 
#    z 0.000000 0.000000 1.667110 
# 
# From -- ./inp_files/24533.got.cif
#   From: 2010.03.12/outbox.cif.g09.slc.cpg/sg51_13_cif.got.tgz:24533.got - 2010.04.16 13:43:02.
