data_PCOD8210537
_publ_section_title
;
Structure prediction by ZEFSAII (Michael W. Deem and Ramdas Pophale) SiO2 
 PCOD8210537
Probable space group: P M M A
;
_chemical_formula_sum "Si O2"
_cell_formula_units_Z 64
_cell_length_a 27.371826
_cell_length_b 13.467453
_cell_length_c 10.155943
_cell_angle_alpha 90.000000
_cell_angle_beta 90.000000
_cell_angle_gamma 90.000000
_cell_volume 3743.772880
_symmetry_space_group_name_H-M "P M M A"
_symmetry_group_IT_number 51
_symmetry_cell_setting 'orthorhombic'
loop_
_space_group_symop_operation_xyz
x,y,z
1/2-x,-y,z
1/2+x,-y,-z
-x,y,-z
-x,-y,-z
1/2+x,y,-z
1/2-x,y,z
x,-y,z
loop_
_atom_site_type_symbol
_atom_site_label
_atom_site_fract_x
_atom_site_fract_y
_atom_site_fract_z
Si Si1 0.458481 0.117653 0.815185
Si Si2 0.563265 0.116159 0.901118
Si Si3 0.807607 0.290178 0.660060
Si Si4 0.370236 0.384997 0.552161
Si Si5 0.804429 0.381813 0.210708
Si Si6 0.125125 0.885355 0.341550
Si Si7 0.444070 0.786418 0.541761
Si Si8 0.192279 0.609281 0.076474
O O1 0.513013 0.159650 0.841569
O O2 0.436992 0.174237 0.689679
O O3 0.456696 0.000000 0.787052
O O4 0.427232 0.147586 0.946619
O O5 0.607934 0.144691 0.806039
O O6 0.554140 0.000000 0.900478
O O7 0.750000 0.292963 0.637447
O O8 0.832518 0.372359 0.567870
O O9 0.827479 0.180558 0.625240
O O10 0.823533 0.315720 0.809103
O O11 0.385210 0.500000 0.564606
O O12 0.342820 0.343404 0.681865
O O13 0.419146 0.321562 0.529464
O O14 0.750000 0.338325 0.239545
O O15 0.801373 0.500000 0.214896
O O16 0.823776 0.347986 0.066284
O O17 0.081711 0.864462 0.444185
O O18 0.140410 0.000000 0.350571
O O19 0.500000 0.776311 0.500000
O O20 0.250000 0.597105 0.074918
O O21 0.168966 0.500000 0.101478
#
# Coordination Sequence:
#
# PCOD8210537 Si02
#       8
#     8   8   8   8   8   8   8   8
#     4   9  16  28  49  74  97 121 155 198 239 279
#     4   8  15  28  47  72  97 122 154 194 238 280
#     4  10  20  32  49  73  97 126 162 195 236 287
#     4  10  21  34  48  69  95 126 163 201 243 288
#     4   8  14  27  48  71  93 117 148 191 240 283
#     4  10  20  33  49  71  99 128 159 196 238 284
#     4  11  21  32  49  71  94 126 164 201 241 286
#     4   8  14  26  46  71  95 118 147 187 232 275
#
# _framework density 17.095054999999999
#
# number of rings (size 3 to 8) (size 9 to 14) (size 15 to 20)
#    0.000    2.750    1.250    2.625    0.000    3.250 
#    0.000    0.000    0.000    0.000    0.000    1.750 
#    0.000    6.000    0.000    0.000    0.000    0.000 
#
# Total GULP energy -793189.806215 kJ/mol
# GULP energy per Si atom -12393.590722 kJ/mol
# Density = 1.705615 g / cm^3
# Si number density = 17.095055 Si / 1000 Ang^3
#
#
#
# Elastic Constant Matrix: (Units=GPa)
#
#
# Indices 1 2 3 4 5 6 
#
# 1 44.4279 17.9067 21.5869 0.0000 0.0000 0.0000
# 2 17.9067 57.1955 22.0577 0.0000 0.0000 0.0000
# 3 21.5869 22.0577 114.8975 0.0000 0.0000 0.0000
# 4 0.0000 0.0000 0.0000 16.6437 0.0000 0.0000
# 5 0.0000 0.0000 0.0000 0.0000 19.0247 0.0000
# 6 0.0000 0.0000 0.0000 0.0000 0.0000 12.7716
#
#
#
# Elastic Compliance Matrix: (Units=1/GPa)
#
#
# Indices 1 2 3 4 5 6 
#
# 1 0.027177 -0.007062 -0.003750 0.000000 0.000000 0.000000
# 2 -0.007062 0.020717 -0.002650 0.000000 0.000000 0.000000
# 3 -0.003750 -0.002650 0.009917 0.000000 0.000000 0.000000
# 4 0.000000 0.000000 0.000000 0.060083 0.000000 0.000000
# 5 0.000000 0.000000 0.000000 0.000000 0.052563 0.000000
# 6 0.000000 0.000000 0.000000 0.000000 0.000000 0.078299
#
#
# Mechanical properties :
#
#
# Convention : Reuss Voigt Hill
#
# Bulk Modulus (GPa) = 32.37795 37.73595 35.05695
# Shear Modulus (GPa) = 17.48399 20.01932 18.75165
#
# Velocity S-wave (km/s) = 3.20152 3.42579 3.31555
# Velocity P-wave (km/s) = 5.71379 6.14574 5.93370
#
# Compressibility (1/GPa) = 0.03088522
#
# Stress axis : x y z
#
# Youngs Moduli (GPa) = 36.79587 48.26947 100.83893
#
# Poissons Ratio (x) = 0.34089 0.37817
# Poissons Ratio (y) = 0.25986 0.26726
# Poissons Ratio (z) = 0.13799 0.12793
#
# Static dielectric constant tensor:
#      x y z
#    x 3.010920 0.000000 0.000000 
#    y 0.000000 2.862520 0.000000 
#    z 0.000000 0.000000 3.711730 
# 
# 
# High freq. dielectric constant tensor:
#      x y z
#    x 1.633540 0.000000 0.000000 
#    y 0.000000 1.628800 0.000000 
#    z 0.000000 0.000000 1.681100 
# 
# From -- ./inp_files/13230.got.cif
#   From: 2010.03.12/outbox.cif.g09.slc.cpg/sg51_7_cif.got.tgz:13230.got - 2010.04.16 13:43:02.
