data_PCOD8210823
_publ_section_title
;
Structure prediction by ZEFSAII (Michael W. Deem and Ramdas Pophale) SiO2 
 PCOD8210823
Probable space group: P M M A
;
_chemical_formula_sum "Si O2"
_cell_formula_units_Z 48
_cell_length_a 9.054538
_cell_length_b 9.107776
_cell_length_c 31.132442
_cell_angle_alpha 90.000000
_cell_angle_beta 90.000000
_cell_angle_gamma 90.000000
_cell_volume 2567.389876
_symmetry_space_group_name_H-M "P M M A"
_symmetry_group_IT_number 51
_symmetry_cell_setting 'orthorhombic'
loop_
_space_group_symop_operation_xyz
x,y,z
1/2-x,-y,z
1/2+x,-y,-z
-x,y,-z
-x,-y,-z
1/2+x,y,-z
1/2-x,y,z
x,-y,z
loop_
_atom_site_type_symbol
_atom_site_label
_atom_site_fract_x
_atom_site_fract_y
_atom_site_fract_z
Si Si1 0.925623 0.665366 0.709954
Si Si2 0.423622 0.330732 0.872364
Si Si3 0.420713 0.172499 0.204527
Si Si4 0.926118 0.165681 0.626997
Si Si5 0.076870 0.669266 0.457044
Si Si6 0.083690 0.674621 0.041615
O O1 0.750000 0.664213 0.707832
O O2 0.988324 0.500000 0.711454
O O3 0.978923 0.751573 0.752080
O O4 0.989720 0.746139 0.667869
O O5 0.250000 0.310884 0.877768
O O6 0.465863 0.500000 0.863191
O O7 0.480668 0.230901 0.834008
O O8 0.499394 0.272787 0.915818
O O9 0.250000 0.212494 0.195627
O O10 0.443274 0.000000 0.209755
O O11 0.750000 0.169205 0.627791
O O12 0.984976 0.240370 0.583452
O O13 0.985937 0.000000 0.629080
O O14 0.250000 0.692252 0.462670
O O15 0.036031 0.500000 0.449104
O O16 0.000000 0.729722 0.500000
O O17 0.250000 0.737061 0.042462
O O18 0.085018 0.500000 0.039272
O O19 0.000000 0.739187 0.000000
#
# Coordination Sequence:
#
# PCOD8210823 Si02
#       6
#     8   8   8   8   8   8
#     4   9  16  27  46  71  97 124 156 197 244 292
#     4  10  20  33  50  73 101 134 172 210 248 294
#     4  10  20  33  50  73 100 129 162 202 249 299
#     4   9  16  26  42  66  95 124 155 194 240 289
#     4   9  17  29  45  65  90 121 157 196 238 284
#     4   9  16  27  46  73 104 135 168 209 254 297
#
# _framework density 18.69603
#
# number of rings (size 3 to 8) (size 9 to 14) (size 15 to 20)
#    0.000    2.667    0.000    2.500    0.000    8.333 
#    0.000    0.000    0.000    1.500    0.000    2.333 
#    0.000    0.000    0.000    0.000    0.000    0.000 
#
# Total GULP energy -595242.775550 kJ/mol
# GULP energy per Si atom -12400.891157 kJ/mol
# Density = 1.865348 g / cm^3
# Si number density = 18.696030 Si / 1000 Ang^3
#
#
#
# Elastic Constant Matrix: (Units=GPa)
#
#
# Indices 1 2 3 4 5 6 
#
# 1 57.3069 29.8735 50.4825 0.0000 0.0000 0.0000
# 2 29.8735 99.9057 75.5675 0.0000 0.0000 0.0000
# 3 50.4825 75.5675 193.1263 0.0000 0.0000 0.0000
# 4 0.0000 0.0000 0.0000 10.2435 0.0000 0.0000
# 5 0.0000 0.0000 0.0000 0.0000 27.9156 0.0000
# 6 0.0000 0.0000 0.0000 0.0000 0.0000 15.2056
#
#
#
# Elastic Compliance Matrix: (Units=1/GPa)
#
#
# Indices 1 2 3 4 5 6 
#
# 1 0.023444 -0.003373 -0.004808 0.000000 0.000000 0.000000
# 2 -0.003373 0.014703 -0.004871 0.000000 0.000000 0.000000
# 3 -0.004808 -0.004871 0.008341 0.000000 0.000000 0.000000
# 4 0.000000 0.000000 0.000000 0.097623 0.000000 0.000000
# 5 0.000000 0.000000 0.000000 0.000000 0.035822 0.000000
# 6 0.000000 0.000000 0.000000 0.000000 0.000000 0.065765
#
#
# Mechanical properties :
#
#
# Convention : Reuss Voigt Hill
#
# Bulk Modulus (GPa) = 49.06264 73.57621 61.31943
# Shear Modulus (GPa) = 17.94706 23.63396 20.79051
#
# Velocity S-wave (km/s) = 3.10165 3.55930 3.33833
# Velocity P-wave (km/s) = 6.25510 7.50539 6.90858
#
# Compressibility (1/GPa) = 0.02038211
#
# Stress axis : x y z
#
# Youngs Moduli (GPa) = 42.65477 68.01532 119.89199
#
# Poissons Ratio (x) = 0.22943 0.57648
# Poissons Ratio (y) = 0.14388 0.58401
# Poissons Ratio (z) = 0.20510 0.33131
#
# Static dielectric constant tensor:
#      x y z
#    x 3.114800 0.000000 0.000000 
#    y 0.000000 3.327530 0.000000 
#    z 0.000000 0.000000 3.670560 
# 
# 
# High freq. dielectric constant tensor:
#      x y z
#    x 1.686470 0.000000 0.000000 
#    y 0.000000 1.709930 0.000000 
#    z 0.000000 0.000000 1.744980 
# 
# From -- ./inp_files/36994.got.cif
#   From: 2010.03.12/outbox.cif.g09.slc.cpg/sg51_19_cif.got.tgz:36994.got - 2010.04.16 13:43:02.
