data_PCOD8210832
_publ_section_title
;
Structure prediction by ZEFSAII (Michael W. Deem and Ramdas Pophale) SiO2 
 PCOD8210832
Probable space group: P M M A
;
_chemical_formula_sum "Si O2"
_cell_formula_units_Z 64
_cell_length_a 8.732044
_cell_length_b 14.333592
_cell_length_c 28.719736
_cell_angle_alpha 90.000000
_cell_angle_beta 90.000000
_cell_angle_gamma 90.000000
_cell_volume 3594.606846
_symmetry_space_group_name_H-M "P M M A"
_symmetry_group_IT_number 51
_symmetry_cell_setting 'orthorhombic'
loop_
_space_group_symop_operation_xyz
x,y,z
1/2-x,-y,z
1/2+x,-y,-z
-x,y,-z
-x,-y,-z
1/2+x,y,-z
1/2-x,y,z
x,-y,z
loop_
_atom_site_type_symbol
_atom_site_label
_atom_site_fract_x
_atom_site_fract_y
_atom_site_fract_z
Si Si1 0.929043 0.106417 0.905894
Si Si2 0.429561 0.393838 0.773149
Si Si3 0.578121 0.111003 0.453673
Si Si4 0.930789 0.725843 0.047527
Si Si5 0.074005 0.108867 0.807767
Si Si6 0.930037 0.773953 0.727798
Si Si7 0.925978 0.390623 0.871120
Si Si8 0.568707 0.105489 0.641319
O O1 0.750000 0.124154 0.898285
O O2 0.995343 0.171710 0.946271
O O3 0.017255 0.134448 0.859044
O O4 0.962783 0.000000 0.920142
O O5 0.250000 0.382541 0.780880
O O6 0.472887 0.500000 0.759833
O O7 0.487159 0.326449 0.731826
O O8 0.513056 0.361910 0.820409
O O9 0.500000 0.153006 0.500000
O O10 0.750000 0.149151 0.451513
O O11 0.490369 0.145869 0.407726
O O12 0.573294 0.000000 0.455916
O O13 0.750000 0.733962 0.043286
O O14 0.973672 0.659397 0.090084
O O15 0.000000 0.683125 0.000000
O O16 0.250000 0.140627 0.802524
O O17 0.968222 0.162799 0.771890
O O18 0.053607 0.000000 0.797801
O O19 0.750000 0.757420 0.724849
O O20 0.992319 0.826667 0.681882
O O21 0.750000 0.358738 0.875318
O O22 0.945367 0.500000 0.878921
O O23 0.750000 0.104073 0.640202
O O24 0.506583 0.000000 0.650089
#
# Coordination Sequence:
#
# PCOD8210832 Si02
#       8
#     8   8   8   8   8   8   8   8
#     4  10  21  38  58  77  99 129 166 205 242 283
#     4  10  21  37  56  77 101 130 165 204 245 292
#     4   9  16  26  42  63  89 126 171 215 255 294
#     4  12  25  40  58  79 105 132 160 196 238 288
#     4  10  20  33  50  73 101 133 168 203 239 285
#     4  11  21  32  49  72 101 135 168 206 252 299
#     4  10  21  39  62  84 105 129 159 196 239 290
#     4   9  18  31  45  65  97 135 173 211 251 295
#
# _framework density 17.804451
#
# number of rings (size 3 to 8) (size 9 to 14) (size 15 to 20)
#    0.000    1.875    0.000    4.500    0.000    6.500 
#    0.000    1.250    0.000    0.000    0.000    0.000 
#    0.000    0.500    0.000    1.625    0.000    2.375 
#
# Total GULP energy -793805.276133 kJ/mol
# GULP energy per Si atom -12403.207440 kJ/mol
# Density = 1.776393 g / cm^3
# Si number density = 17.804451 Si / 1000 Ang^3
#
#
#
# Elastic Constant Matrix: (Units=GPa)
#
#
# Indices 1 2 3 4 5 6 
#
# 1 62.4032 30.0896 22.6770 0.0000 0.0000 0.0000
# 2 30.0896 66.1646 56.9657 0.0000 0.0000 0.0000
# 3 22.6770 56.9657 92.0017 0.0000 0.0000 0.0000
# 4 0.0000 0.0000 0.0000 15.5963 0.0000 0.0000
# 5 0.0000 0.0000 0.0000 0.0000 31.3951 0.0000
# 6 0.0000 0.0000 0.0000 0.0000 0.0000 25.7261
#
#
#
# Elastic Compliance Matrix: (Units=1/GPa)
#
#
# Indices 1 2 3 4 5 6 
#
# 1 0.020628 -0.010716 0.001551 0.000000 0.000000 0.000000
# 2 -0.010716 0.037937 -0.020849 0.000000 0.000000 0.000000
# 3 0.001551 -0.020849 0.023396 0.000000 0.000000 0.000000
# 4 0.000000 0.000000 0.000000 0.064118 0.000000 0.000000
# 5 0.000000 0.000000 0.000000 0.000000 0.031852 0.000000
# 6 0.000000 0.000000 0.000000 0.000000 0.000000 0.038871
#
#
# Mechanical properties :
#
#
# Convention : Reuss Voigt Hill
#
# Bulk Modulus (GPa) = 45.59229 48.89269 47.24249
# Shear Modulus (GPa) = 17.59676 21.93263 19.76470
#
# Velocity S-wave (km/s) = 3.14719 3.51360 3.33543
# Velocity P-wave (km/s) = 6.23452 6.63182 6.43624
#
# Compressibility (1/GPa) = 0.02193353
#
# Stress axis : x y z
#
# Youngs Moduli (GPa) = 48.47663 26.35916 42.74183
#
# Poissons Ratio (x) = 0.28247 -0.06628
# Poissons Ratio (y) = 0.51949 0.89111
# Poissons Ratio (z) = -0.07518 0.54956
#
# Static dielectric constant tensor:
#      x y z
#    x 3.381840 0.000000 0.000000 
#    y 0.000000 3.289020 0.000000 
#    z 0.000000 0.000000 3.306340 
# 
# 
# High freq. dielectric constant tensor:
#      x y z
#    x 1.703400 0.000000 0.000000 
#    y 0.000000 1.669800 0.000000 
#    z 0.000000 0.000000 1.676820 
# 
# From -- ./inp_files/34962.got.cif
#   From: 2010.03.12/outbox.cif.g09.slc.cpg/sg51_18_cif.got.tgz:34962.got - 2010.04.16 13:43:02.
