data_PCOD8210288
_publ_section_title
;
Structure prediction by ZEFSAII (Michael W. Deem and Ramdas Pophale) SiO2 
 PCOD8210288
Probable space group: P M M A
;
_chemical_formula_sum "Si O2"
_cell_formula_units_Z 48
_cell_length_a 9.024834
_cell_length_b 13.708137
_cell_length_c 24.183465
_cell_angle_alpha 90.000000
_cell_angle_beta 90.000000
_cell_angle_gamma 90.000000
_cell_volume 2991.824988
_symmetry_space_group_name_H-M "P M M A"
_symmetry_group_IT_number 51
_symmetry_cell_setting 'orthorhombic'
loop_
_space_group_symop_operation_xyz
x,y,z
1/2-x,-y,z
1/2+x,-y,-z
-x,y,-z
-x,-y,-z
1/2+x,y,-z
1/2-x,y,z
x,-y,z
loop_
_atom_site_type_symbol
_atom_site_label
_atom_site_fract_x
_atom_site_fract_y
_atom_site_fract_z
Si Si1 0.916873 0.616204 0.446310
Si Si2 0.924332 0.893231 0.836613
Si Si3 0.574857 0.703079 0.777566
Si Si4 0.422860 0.388139 0.337030
Si Si5 0.425410 0.224230 0.056556
Si Si6 0.579211 0.612649 0.121316
O O1 0.750000 0.655276 0.447632
O O2 0.923632 0.500000 0.447407
O O3 0.000000 0.659001 0.500000
O O4 0.993350 0.654459 0.390380
O O5 0.750000 0.904139 0.833541
O O6 0.975320 0.814610 0.790425
O O7 0.969580 0.855244 0.897261
O O8 0.997690 0.000000 0.825954
O O9 0.750000 0.688955 0.787623
O O10 0.529898 0.677396 0.715106
O O11 0.490504 0.630095 0.818331
O O12 0.250000 0.380069 0.349607
O O13 0.467806 0.500000 0.324819
O O14 0.250000 0.234050 0.049163
O O15 0.490474 0.328618 0.074501
O O16 0.500000 0.188926 0.000000
O O17 0.750000 0.646124 0.121941
O O18 0.563811 0.500000 0.105891
#
# Coordination Sequence:
#
# PCOD8210288 Si02
#       6
#     8   8   8   8   8   8
#     4   9  16  25  37  54  79 113 150 183 213 244
#     4   8  15  29  48  68  88 110 137 171 213 258
#     4   9  17  29  46  66  88 115 145 178 214 253
#     4   9  16  25  38  58  85 116 148 178 207 243
#     4  10  20  33  49  67  87 111 139 173 211 253
#     4  10  20  32  46  64  87 115 144 175 211 250
#
# _framework density 16.04372
#
# number of rings (size 3 to 8) (size 9 to 14) (size 15 to 20)
#    0.000    2.833    0.000    3.000    0.000    5.333 
#    0.000    1.667    0.000   12.000    0.000    0.000 
#    0.000    0.667    0.000    1.167    0.000    1.667 
#
# Total GULP energy -595081.214273 kJ/mol
# GULP energy per Si atom -12397.525297 kJ/mol
# Density = 1.600720 g / cm^3
# Si number density = 16.043720 Si / 1000 Ang^3
#
#
#
# Elastic Constant Matrix: (Units=GPa)
#
#
# Indices 1 2 3 4 5 6 
#
# 1 65.9176 25.8302 45.8710 0.0000 0.0000 0.0000
# 2 25.8302 80.1910 45.8538 0.0000 0.0000 0.0000
# 3 45.8710 45.8538 135.5287 0.0000 0.0000 0.0000
# 4 0.0000 0.0000 0.0000 3.2206 0.0000 0.0000
# 5 0.0000 0.0000 0.0000 0.0000 30.4148 0.0000
# 6 0.0000 0.0000 0.0000 0.0000 0.0000 10.2166
#
#
#
# Elastic Compliance Matrix: (Units=1/GPa)
#
#
# Indices 1 2 3 4 5 6 
#
# 1 0.020513 -0.003270 -0.005837 0.000000 0.000000 0.000000
# 2 -0.003270 0.015983 -0.004301 0.000000 0.000000 0.000000
# 3 -0.005837 -0.004301 0.010809 0.000000 0.000000 0.000000
# 4 0.000000 0.000000 0.000000 0.310503 0.000000 0.000000
# 5 0.000000 0.000000 0.000000 0.000000 0.032879 0.000000
# 6 0.000000 0.000000 0.000000 0.000000 0.000000 0.097880
#
#
# Mechanical properties :
#
#
# Convention : Reuss Voigt Hill
#
# Bulk Modulus (GPa) = 48.80335 57.41636 53.10986
# Shear Modulus (GPa) = 9.57465 19.70922 14.64193
#
# Velocity S-wave (km/s) = 2.44557 3.50875 3.02425
# Velocity P-wave (km/s) = 6.20157 7.23051 6.73571
#
# Compressibility (1/GPa) = 0.02049040
#
# Stress axis : x y z
#
# Youngs Moduli (GPa) = 48.74850 62.56762 92.51547
#
# Poissons Ratio (x) = 0.20461 0.53997
# Poissons Ratio (y) = 0.15942 0.39788
# Poissons Ratio (z) = 0.28452 0.26908
#
# Static dielectric constant tensor:
#      x y z
#    x 3.020460 0.000000 0.000000 
#    y 0.000000 3.021230 0.000000 
#    z 0.000000 0.000000 3.096050 
# 
# 
# High freq. dielectric constant tensor:
#      x y z
#    x 1.612680 0.000000 0.000000 
#    y 0.000000 1.580880 0.000000 
#    z 0.000000 0.000000 1.616030 
# 
# From -- ./inp_files/34626.got.cif
#   From: 2010.03.12/outbox.cif.g09.slc.cpg/sg51_18_cif.got.tgz:34626.got - 2010.04.16 13:43:02.
