data_PCOD8210828
_publ_section_title
;
Structure prediction by ZEFSAII (Michael W. Deem and Ramdas Pophale) SiO2 
 PCOD8210828
Probable space group: P M M A
;
_chemical_formula_sum "Si O2"
_cell_formula_units_Z 48
_cell_length_a 9.096918
_cell_length_b 9.376168
_cell_length_c 30.855668
_cell_angle_alpha 90.000000
_cell_angle_beta 90.000000
_cell_angle_gamma 90.000000
_cell_volume 2631.810488
_symmetry_space_group_name_H-M "P M M A"
_symmetry_group_IT_number 51
_symmetry_cell_setting 'orthorhombic'
loop_
_space_group_symop_operation_xyz
x,y,z
1/2-x,-y,z
1/2+x,-y,-z
-x,y,-z
-x,-y,-z
1/2+x,y,-z
1/2-x,y,z
x,-y,z
loop_
_atom_site_type_symbol
_atom_site_label
_atom_site_fract_x
_atom_site_fract_y
_atom_site_fract_z
Si Si1 0.079245 0.334201 0.116959
Si Si2 0.422144 0.834407 0.371777
Si Si3 0.081835 0.668808 0.703171
Si Si4 0.921357 0.165172 0.043093
Si Si5 0.915802 0.830321 0.458101
Si Si6 0.412410 0.330911 0.213482
O O1 0.250000 0.304851 0.107003
O O2 0.042084 0.500000 0.111564
O O3 0.039666 0.279987 0.165556
O O4 0.977827 0.247682 0.084724
O O5 0.250000 0.807857 0.377333
O O6 0.481224 0.744092 0.331984
O O7 0.500988 0.778103 0.415141
O O8 0.457892 0.000000 0.363480
O O9 0.250000 0.716354 0.697192
O O10 0.062989 0.500000 0.698090
O O11 0.028450 0.721214 0.750570
O O12 0.750000 0.193037 0.037461
O O13 0.959385 0.000000 0.049890
O O14 0.000000 0.224321 0.000000
O O15 0.750000 0.770066 0.457568
O O16 0.000000 0.768120 0.500000
O O17 0.914816 0.000000 0.460215
O O18 0.250000 0.270215 0.224931
O O19 0.403490 0.500000 0.212651
#
# Coordination Sequence:
#
# PCOD8210828 Si02
#       6
#     8   8   8   8   8   8
#     4   9  18  33  54  79 103 127 160 203 248 292
#     4  10  20  33  50  73 100 130 166 207 249 292
#     4  10  20  33  51  75 101 131 167 204 245 296
#     4  10  21  36  53  73  99 133 170 204 242 291
#     4   9  16  27  45  69  97 128 162 201 245 293
#     4   8  15  30  51  73  98 129 164 201 241 288
#
# _framework density 18.238395000000001
#
# number of rings (size 3 to 8) (size 9 to 14) (size 15 to 20)
#    0.000    2.667    0.000    3.000    0.000    6.333 
#    0.000    2.500    0.000    1.500    0.000    0.000 
#    0.000    0.000    0.000    0.000    0.000    0.000 
#
# Total GULP energy -595173.239139 kJ/mol
# GULP energy per Si atom -12399.442482 kJ/mol
# Density = 1.819688 g / cm^3
# Si number density = 18.238395 Si / 1000 Ang^3
#
#
#
# Elastic Constant Matrix: (Units=GPa)
#
#
# Indices 1 2 3 4 5 6 
#
# 1 114.4795 32.7285 70.8608 0.0000 0.0000 0.0000
# 2 32.7285 29.3418 36.5278 0.0000 0.0000 0.0000
# 3 70.8608 36.5278 149.1362 0.0000 0.0000 0.0000
# 4 0.0000 0.0000 0.0000 26.4756 0.0000 0.0000
# 5 0.0000 0.0000 0.0000 0.0000 42.1095 0.0000
# 6 0.0000 0.0000 0.0000 0.0000 0.0000 24.7630
#
#
#
# Elastic Compliance Matrix: (Units=1/GPa)
#
#
# Indices 1 2 3 4 5 6 
#
# 1 0.014446 -0.010889 -0.004197 0.000000 0.000000 0.000000
# 2 -0.010889 0.057239 -0.008846 0.000000 0.000000 0.000000
# 3 -0.004197 -0.008846 0.010866 0.000000 0.000000 0.000000
# 4 0.000000 0.000000 0.000000 0.037771 0.000000 0.000000
# 5 0.000000 0.000000 0.000000 0.000000 0.023748 0.000000
# 6 0.000000 0.000000 0.000000 0.000000 0.000000 0.040383
#
#
# Mechanical properties :
#
#
# Convention : Reuss Voigt Hill
#
# Bulk Modulus (GPa) = 28.82837 63.68797 46.25817
# Shear Modulus (GPa) = 20.50212 28.85897 24.68055
#
# Velocity S-wave (km/s) = 3.35643 3.98215 3.68260
# Velocity P-wave (km/s) = 5.55531 7.49259 6.59547
#
# Compressibility (1/GPa) = 0.03468805
#
# Stress axis : x y z
#
# Youngs Moduli (GPa) = 69.22349 17.47068 92.02993
#
# Poissons Ratio (x) = 0.19023 0.38625
# Poissons Ratio (y) = 0.75374 0.81408
# Poissons Ratio (z) = 0.29053 0.15454
#
# Static dielectric constant tensor:
#      x y z
#    x 3.605230 0.000000 0.000000 
#    y 0.000000 2.948100 0.000000 
#    z 0.000000 0.000000 3.613530 
# 
# 
# High freq. dielectric constant tensor:
#      x y z
#    x 1.717260 0.000000 0.000000 
#    y 0.000000 1.660730 0.000000 
#    z 0.000000 0.000000 1.723370 
# 
# From -- ./inp_files/36966.got.cif
#   From: 2010.03.12/outbox.cif.g09.slc.cpg/sg51_19_cif.got.tgz:36966.got - 2010.04.16 13:43:02.
