data_PCOD8210057
_publ_section_title
;
Structure prediction by ZEFSAII (Michael W. Deem and Ramdas Pophale) SiO2 
 PCOD8210057
Probable space group: P M M A
;
_chemical_formula_sum "Si O2"
_cell_formula_units_Z 48
_cell_length_a 16.670051
_cell_length_b 8.601691
_cell_length_c 16.415561
_cell_angle_alpha 90.000000
_cell_angle_beta 90.000000
_cell_angle_gamma 90.000000
_cell_volume 2353.837595
_symmetry_space_group_name_H-M "P M M A"
_symmetry_group_IT_number 51
_symmetry_cell_setting 'orthorhombic'
loop_
_space_group_symop_operation_xyz
x,y,z
1/2-x,-y,z
1/2+x,-y,-z
-x,y,-z
-x,-y,-z
1/2+x,y,-z
1/2-x,y,z
x,-y,z
loop_
_atom_site_type_symbol
_atom_site_label
_atom_site_fract_x
_atom_site_fract_y
_atom_site_fract_z
Si Si1 0.750000 0.684666 0.980055
Si Si2 0.250000 0.685106 0.203812
Si Si3 0.918497 0.817672 0.045982
Si Si4 0.102443 0.314812 0.306156
Si Si5 0.557691 0.680951 0.220575
Si Si6 0.405962 0.325191 0.487063
Si Si7 0.656461 0.171821 0.354388
O O1 0.750000 0.500000 0.986350
O O2 0.750000 0.747014 0.887837
O O3 0.833874 0.742246 0.018664
O O4 0.250000 0.500000 0.204742
O O5 0.326566 0.751496 0.250880
O O6 0.927483 0.781776 0.140786
O O7 0.910623 0.000000 0.031063
O O8 0.000000 0.755274 0.000000
O O9 0.100814 0.500000 0.310483
O O10 0.111661 0.251291 0.398119
O O11 0.022160 0.255199 0.263484
O O12 0.552975 0.500000 0.196424
O O13 0.626697 0.706416 0.287000
O O14 0.500000 0.328039 0.500000
O O15 0.371175 0.500000 0.493426
O O16 0.363932 0.221058 0.554165
O O17 0.750000 0.166247 0.344447
O O18 0.619867 0.000000 0.338770
#
# Coordination Sequence:
#
# PCOD8210057 Si02
#       7
#     4   4   8   8   8   8   8
#     4  11  23  41  67  96 125 164 215 267 318 375
#     4   9  18  33  57  90 123 152 191 245 306 359
#     4  11  25  44  66  94 131 170 208 256 324 391
#     4   9  18  33  56  89 124 155 192 250 306 354
#     4  11  22  40  65  91 121 158 209 261 308 365
#     4  10  19  36  59  86 117 154 203 251 302 357
#     4  11  25  41  57  83 123 165 206 253 309 367
#
# _framework density 20.392230000000001
#
# number of rings (size 3 to 8) (size 9 to 14) (size 15 to 20)
#    0.000    1.667    1.667    2.750    2.333    4.333 
#    0.000    0.000    0.000    2.000    0.000    0.000 
#    0.000    0.000    0.000    0.000    0.000    0.000 
#
# Total GULP energy -595110.367324 kJ/mol
# GULP energy per Si atom -12398.132653 kJ/mol
# Density = 2.034582 g / cm^3
# Si number density = 20.392230 Si / 1000 Ang^3
#
#
#
# Elastic Constant Matrix: (Units=GPa)
#
#
# Indices 1 2 3 4 5 6 
#
# 1 126.3883 34.5384 65.3700 0.0000 0.0000 0.0000
# 2 34.5384 50.2752 18.9526 0.0000 0.0000 0.0000
# 3 65.3700 18.9526 168.2863 0.0000 0.0000 0.0000
# 4 0.0000 0.0000 0.0000 38.9349 0.0000 0.0000
# 5 0.0000 0.0000 0.0000 0.0000 8.8390 0.0000
# 6 0.0000 0.0000 0.0000 0.0000 0.0000 28.5438
#
#
#
# Elastic Compliance Matrix: (Units=1/GPa)
#
#
# Indices 1 2 3 4 5 6 
#
# 1 0.011675 -0.006591 -0.003793 0.000000 0.000000 0.000000
# 2 -0.006591 0.024493 -0.000198 0.000000 0.000000 0.000000
# 3 -0.003793 -0.000198 0.007438 0.000000 0.000000 0.000000
# 4 0.000000 0.000000 0.000000 0.025684 0.000000 0.000000
# 5 0.000000 0.000000 0.000000 0.000000 0.113135 0.000000
# 6 0.000000 0.000000 0.000000 0.000000 0.000000 0.035034
#
#
# Mechanical properties :
#
#
# Convention : Reuss Voigt Hill
#
# Bulk Modulus (GPa) = 44.55898 64.74129 54.65014
# Shear Modulus (GPa) = 20.31668 30.33611 25.32639
#
# Velocity S-wave (km/s) = 3.15984 3.86117 3.52797
# Velocity P-wave (km/s) = 5.93390 7.18993 6.59190
#
# Compressibility (1/GPa) = 0.02244216
#
# Stress axis : x y z
#
# Youngs Moduli (GPa) = 85.65409 40.82804 134.44689
#
# Poissons Ratio (x) = 0.26908 0.50993
# Poissons Ratio (y) = 0.56452 0.02666
# Poissons Ratio (z) = 0.32487 0.00810
#
# Static dielectric constant tensor:
#      x y z
#    x 3.811160 0.000000 0.000000 
#    y 0.000000 3.533450 0.000000 
#    z 0.000000 0.000000 3.809300 
# 
# 
# High freq. dielectric constant tensor:
#      x y z
#    x 1.807590 0.000000 0.000000 
#    y 0.000000 1.772210 0.000000 
#    z 0.000000 0.000000 1.814300 
# 
# From -- ./inp_files/24913.got.cif
#   From: 2010.03.12/outbox.cif.g09.slc.cpg/sg51_13_cif.got.tgz:24913.got - 2010.04.16 13:43:02.
