data_PCOD8210890
_publ_section_title
;
Structure prediction by ZEFSAII (Michael W. Deem and Ramdas Pophale) SiO2 
 PCOD8210890
Probable space group: P M M A
;
_chemical_formula_sum "Si O2"
_cell_formula_units_Z 40
_cell_length_a 25.170967
_cell_length_b 10.223815
_cell_length_c 8.480055
_cell_angle_alpha 90.000000
_cell_angle_beta 90.000000
_cell_angle_gamma 90.000000
_cell_volume 2182.285423
_symmetry_space_group_name_H-M "P M M A"
_symmetry_group_IT_number 51
_symmetry_cell_setting 'orthorhombic'
loop_
_space_group_symop_operation_xyz
x,y,z
1/2-x,-y,z
1/2+x,-y,-z
-x,y,-z
-x,-y,-z
1/2+x,y,-z
1/2-x,y,z
x,-y,z
loop_
_atom_site_type_symbol
_atom_site_label
_atom_site_fract_x
_atom_site_fract_y
_atom_site_fract_z
Si Si1 0.072573 0.646998 0.677979
Si Si2 0.971957 0.745669 0.846218
Si Si3 0.129174 0.354016 0.994357
Si Si4 0.904274 0.144549 0.588823
Si Si5 0.189284 0.149208 0.187685
O O1 0.078565 0.500000 0.611443
O O2 0.081054 0.748142 0.538357
O O3 0.013764 0.659814 0.748935
O O4 0.116465 0.674755 0.811628
O O5 0.924774 0.651097 0.903660
O O6 0.946729 0.855243 0.732589
O O7 0.000000 0.811888 0.000000
O O8 0.152888 0.500000 0.014621
O O9 0.172032 0.246853 0.048280
O O10 0.845546 0.174506 0.655900
O O11 0.906458 0.000000 0.512117
O O12 0.250000 0.176824 0.233677
O O13 0.181154 0.000000 0.127978
#
# Coordination Sequence:
#
# PCOD8210890 Si02
#       5
#     8   8   8   8   8
#     4  10  20  33  50  74 106 139 166 198 245 301
#     4   9  18  32  51  74 102 137 172 205 245 293
#     4   9  18  33  53  77 101 127 166 210 248 292
#     4  10  21  34  50  75 104 134 170 210 249 293
#     4   9  19  37  57  74  95 127 167 209 254 302
#
# _framework density 18.329407
#
# number of rings (size 3 to 8) (size 9 to 14) (size 15 to 20)
#    0.000    2.600    0.000    1.200    0.000   10.400 
#    0.000    5.000    0.000    3.600    0.000    0.000 
#    0.000    0.000    0.000    0.000    0.000    0.000 
#
# Total GULP energy -495850.795647 kJ/mol
# GULP energy per Si atom -12396.269891 kJ/mol
# Density = 1.828769 g / cm^3
# Si number density = 18.329407 Si / 1000 Ang^3
#
#
#
# Elastic Constant Matrix: (Units=GPa)
#
#
# Indices 1 2 3 4 5 6 
#
# 1 94.5797 47.4747 47.0117 0.0000 0.0000 0.0000
# 2 47.4747 117.7689 70.8305 0.0000 0.0000 0.0000
# 3 47.0117 70.8305 105.7340 0.0000 0.0000 0.0000
# 4 0.0000 0.0000 0.0000 25.1851 0.0000 0.0000
# 5 0.0000 0.0000 0.0000 0.0000 14.0784 0.0000
# 6 0.0000 0.0000 0.0000 0.0000 0.0000 21.5457
#
#
#
# Elastic Compliance Matrix: (Units=1/GPa)
#
#
# Indices 1 2 3 4 5 6 
#
# 1 0.014277 -0.003245 -0.004174 0.000000 0.000000 0.000000
# 2 -0.003245 0.014958 -0.008578 0.000000 0.000000 0.000000
# 3 -0.004174 -0.008578 0.017060 0.000000 0.000000 0.000000
# 4 0.000000 0.000000 0.000000 0.039706 0.000000 0.000000
# 5 0.000000 0.000000 0.000000 0.000000 0.071031 0.000000
# 6 0.000000 0.000000 0.000000 0.000000 0.000000 0.046413
#
#
# Mechanical properties :
#
#
# Convention : Reuss Voigt Hill
#
# Bulk Modulus (GPa) = 69.92280 72.07960 71.00120
# Shear Modulus (GPa) = 20.81560 22.34621 21.58090
#
# Velocity S-wave (km/s) = 3.37358 3.49541 3.43504
# Velocity P-wave (km/s) = 7.30790 7.46328 7.38600
#
# Compressibility (1/GPa) = 0.01430149
#
# Stress axis : x y z
#
# Youngs Moduli (GPa) = 70.04503 66.85325 58.61766
#
# Poissons Ratio (x) = 0.21692 0.24467
# Poissons Ratio (y) = 0.22727 0.50280
# Poissons Ratio (z) = 0.29237 0.57345
#
# Static dielectric constant tensor:
#      x y z
#    x 3.370380 0.000000 0.000000 
#    y 0.000000 3.300290 0.000000 
#    z 0.000000 0.000000 3.356220 
# 
# 
# High freq. dielectric constant tensor:
#      x y z
#    x 1.698500 0.000000 0.000000 
#    y 0.000000 1.709380 0.000000 
#    z 0.000000 0.000000 1.701350 
# 
# From -- ./inp_files/11433.got.cif
#   From: 2010.03.12/outbox.cif.g09.slc.cpg/sg51_6_cif.got.tgz:11433.got - 2010.04.16 13:43:02.
