data_PCOD8210089
_publ_section_title
;
Structure prediction by ZEFSAII (Michael W. Deem and Ramdas Pophale) SiO2 
 PCOD8210089
Probable space group: P M M A
;
_chemical_formula_sum "Si O2"
_cell_formula_units_Z 56
_cell_length_a 28.052634
_cell_length_b 13.191340
_cell_length_c 7.360089
_cell_angle_alpha 90.000000
_cell_angle_beta 90.000000
_cell_angle_gamma 90.000000
_cell_volume 2723.614425
_symmetry_space_group_name_H-M "P M M A"
_symmetry_group_IT_number 51
_symmetry_cell_setting 'orthorhombic'
loop_
_space_group_symop_operation_xyz
x,y,z
1/2-x,-y,z
1/2+x,-y,-z
-x,y,-z
-x,-y,-z
1/2+x,y,-z
1/2-x,y,z
x,-y,z
loop_
_atom_site_type_symbol
_atom_site_label
_atom_site_fract_x
_atom_site_fract_y
_atom_site_fract_z
Si Si1 0.629682 0.385641 0.528834
Si Si2 0.947342 0.119591 0.073860
Si Si3 0.195550 0.700932 0.755276
Si Si4 0.195758 0.382482 0.137311
Si Si5 0.553847 0.217717 0.458029
Si Si6 0.304191 0.883188 0.503227
Si Si7 0.388380 0.115618 0.259529
O O1 0.611563 0.500000 0.548502
O O2 0.663220 0.377773 0.353609
O O3 0.659704 0.351094 0.704328
O O4 0.583484 0.316901 0.509474
O O5 0.937586 0.185078 0.251954
O O6 0.941760 0.000000 0.114060
O O7 0.908167 0.162196 0.929084
O O8 0.000000 0.142542 0.000000
O O9 0.250000 0.668885 0.721175
O O10 0.186288 0.816164 0.683874
O O11 0.183459 0.690861 0.967885
O O12 0.250000 0.363951 0.204510
O O13 0.189178 0.500000 0.080442
O O14 0.500000 0.244978 0.500000
O O15 0.570731 0.126397 0.587578
O O16 0.250000 0.871989 0.434211
O O17 0.338330 0.841063 0.340880
O O18 0.316138 0.000000 0.553796
O O19 0.379728 0.000000 0.216142
#
# Coordination Sequence:
#
# PCOD8210089 Si02
#       7
#     8   8   8   8   8   8   8
#     4  11  24  41  61  86 120 162 207 255 309 368
#     4  10  21  38  65  97 124 154 199 254 309 363
#     4  10  19  36  64  95 125 159 201 253 306 359
#     4   9  19  37  63  93 121 152 200 260 313 362
#     4  12  24  40  62  89 122 160 201 258 315 368
#     4   9  18  35  60  92 131 170 202 237 292 368
#     4  10  20  38  63  92 124 162 204 248 300 359
#
# _framework density 20.560914
#
# number of rings (size 3 to 8) (size 9 to 14) (size 15 to 20)
#    0.000    1.857    2.857    1.286    0.000    3.429 
#    0.000    0.000    0.000    3.857    0.000    8.000 
#    0.000    0.000    0.000    0.000    0.000    0.000 
#
# Total GULP energy -694255.795654 kJ/mol
# GULP energy per Si atom -12397.424922 kJ/mol
# Density = 2.051412 g / cm^3
# Si number density = 20.560914 Si / 1000 Ang^3
#
#
#
# Elastic Constant Matrix: (Units=GPa)
#
#
# Indices 1 2 3 4 5 6 
#
# 1 135.3326 44.1582 75.4630 0.0000 0.0000 0.0000
# 2 44.1582 71.7871 46.3428 0.0000 0.0000 0.0000
# 3 75.4630 46.3428 153.3817 0.0000 0.0000 0.0000
# 4 0.0000 0.0000 0.0000 29.7742 0.0000 0.0000
# 5 0.0000 0.0000 0.0000 0.0000 32.0710 0.0000
# 6 0.0000 0.0000 0.0000 0.0000 0.0000 33.9208
#
#
#
# Elastic Compliance Matrix: (Units=1/GPa)
#
#
# Indices 1 2 3 4 5 6 
#
# 1 0.011073 -0.004093 -0.004211 0.000000 0.000000 0.000000
# 2 -0.004093 0.018818 -0.003672 0.000000 0.000000 0.000000
# 3 -0.004211 -0.003672 0.009701 0.000000 0.000000 0.000000
# 4 0.000000 0.000000 0.000000 0.033586 0.000000 0.000000
# 5 0.000000 0.000000 0.000000 0.000000 0.031181 0.000000
# 6 0.000000 0.000000 0.000000 0.000000 0.000000 0.029480
#
#
# Mechanical properties :
#
#
# Convention : Reuss Voigt Hill
#
# Bulk Modulus (GPa) = 63.93841 76.93658 70.43750
# Shear Modulus (GPa) = 30.67392 32.12235 31.39814
#
# Velocity S-wave (km/s) = 3.86665 3.95688 3.91203
# Velocity P-wave (km/s) = 7.14837 7.64042 7.39849
#
# Compressibility (1/GPa) = 0.01564005
#
# Stress axis : x y z
#
# Youngs Moduli (GPa) = 90.31124 53.14017 103.08109
#
# Poissons Ratio (x) = 0.21748 0.43410
# Poissons Ratio (y) = 0.36961 0.37853
# Poissons Ratio (z) = 0.38032 0.19514
#
# Static dielectric constant tensor:
#      x y z
#    x 3.978030 0.000000 0.000000 
#    y 0.000000 3.599660 0.000000 
#    z 0.000000 0.000000 3.793910 
# 
# 
# High freq. dielectric constant tensor:
#      x y z
#    x 1.806160 0.000000 0.000000 
#    y 0.000000 1.795680 0.000000 
#    z 0.000000 0.000000 1.803380 
# 
# From -- ./inp_files/3992.got.cif
#   From: 2010.03.12/outbox.cif.g09.slc.cpg/sg51_2_cif.got.tgz:3992.got - 2010.04.16 13:43:02.
