data_PCOD8210644
_publ_section_title
;
Structure prediction by ZEFSAII (Michael W. Deem and Ramdas Pophale) SiO2 
 PCOD8210644
Probable space group: P M M A
;
_chemical_formula_sum "Si O2"
_cell_formula_units_Z 48
_cell_length_a 10.213998
_cell_length_b 27.906097
_cell_length_c 8.931648
_cell_angle_alpha 90.000000
_cell_angle_beta 90.000000
_cell_angle_gamma 90.000000
_cell_volume 2545.812807
_symmetry_space_group_name_H-M "P M M A"
_symmetry_group_IT_number 51
_symmetry_cell_setting 'orthorhombic'
loop_
_space_group_symop_operation_xyz
x,y,z
1/2-x,-y,z
1/2+x,-y,-z
-x,y,-z
-x,-y,-z
1/2+x,y,-z
1/2-x,y,z
x,-y,z
loop_
_atom_site_type_symbol
_atom_site_label
_atom_site_fract_x
_atom_site_fract_y
_atom_site_fract_z
Si Si1 0.505483 0.056070 0.172792
Si Si2 0.750000 0.893553 0.318830
Si Si3 0.750000 0.216532 0.321445
Si Si4 0.401524 0.634158 0.365099
Si Si5 0.250000 0.904004 0.325424
Si Si6 0.103374 0.445379 0.121781
Si Si7 0.250000 0.794790 0.323357
Si Si8 0.989772 0.734867 0.678391
O O1 0.621738 0.083479 0.251577
O O2 0.374133 0.068514 0.260814
O O3 0.533131 0.000000 0.185265
O O4 0.500000 0.072092 0.000000
O O5 0.750000 0.838226 0.267868
O O6 0.750000 0.903400 0.495533
O O7 0.750000 0.213670 0.499820
O O8 0.626621 0.245996 0.255960
O O9 0.500000 0.624708 0.500000
O O10 0.250000 0.642676 0.418140
O O11 0.411564 0.587119 0.266291
O O12 0.452428 0.680751 0.272921
O O13 0.250000 0.849387 0.269986
O O14 0.250000 0.440812 0.054705
O O15 0.073321 0.500000 0.169889
O O16 0.000000 0.427349 0.000000
O O17 0.120472 0.770300 0.257016
O O18 0.000000 0.736118 0.500000
#
# Coordination Sequence:
#
# PCOD8210644 Si02
#       8
#     8   4   4   8   4   8   4   8
#     4  11  24  41  59  81 115 156 189 223 284 354
#     4  11  22  38  61  90 114 141 189 246 282 325
#     4   9  18  30  50  79 109 135 176 223 276 321
#     4  10  20  32  52  83 114 144 182 230 277 325
#     4  11  22  36  61  90 112 143 191 242 282 325
#     4   9  19  37  57  77 105 146 191 233 282 339
#     4   9  16  30  50  77 107 139 170 221 274 321
#     4   9  16  28  47  74 108 140 172 216 269 330
#
# _framework density 18.854489000000001
#
# number of rings (size 3 to 8) (size 9 to 14) (size 15 to 20)
#    0.000    2.167    0.833    2.500    3.500    7.000 
#    0.000    0.000    0.000    6.000    0.000    0.000 
#    0.000    0.000    0.000    0.000    0.000    0.000 
#
# Total GULP energy -595073.139808 kJ/mol
# GULP energy per Si atom -12397.357079 kJ/mol
# Density = 1.881158 g / cm^3
# Si number density = 18.854489 Si / 1000 Ang^3
#
#
#
# Elastic Constant Matrix: (Units=GPa)
#
#
# Indices 1 2 3 4 5 6 
#
# 1 175.8941 62.9400 46.2760 0.0000 0.0000 0.0000
# 2 62.9400 102.6274 38.3426 0.0000 0.0000 0.0000
# 3 46.2760 38.3426 63.1066 0.0000 0.0000 0.0000
# 4 0.0000 0.0000 0.0000 0.3539 0.0000 0.0000
# 5 0.0000 0.0000 0.0000 0.0000 22.5062 0.0000
# 6 0.0000 0.0000 0.0000 0.0000 0.0000 35.6606
#
#
#
# Elastic Compliance Matrix: (Units=1/GPa)
#
#
# Indices 1 2 3 4 5 6 
#
# 1 0.007894 -0.003465 -0.003683 0.000000 0.000000 0.000000
# 2 -0.003465 0.014127 -0.006042 0.000000 0.000000 0.000000
# 3 -0.003683 -0.006042 0.022218 0.000000 0.000000 0.000000
# 4 0.000000 0.000000 0.000000 2.825769 0.000000 0.000000
# 5 0.000000 0.000000 0.000000 0.000000 0.044432 0.000000
# 6 0.000000 0.000000 0.000000 0.000000 0.000000 0.028042
#
#
# Mechanical properties :
#
#
# Convention : Reuss Voigt Hill
#
# Bulk Modulus (GPa) = 55.99818 70.74949 63.37383
# Shear Modulus (GPa) = 1.68078 24.64210 13.16144
#
# Velocity S-wave (km/s) = 0.94519 3.61911 2.64494
# Velocity P-wave (km/s) = 5.56380 7.42088 6.55840
#
# Compressibility (1/GPa) = 0.01785772
#
# Stress axis : x y z
#
# Youngs Moduli (GPa) = 126.67377 70.78862 45.00800
#
# Poissons Ratio (x) = 0.24530 0.16578
# Poissons Ratio (y) = 0.43896 0.27194
# Poissons Ratio (z) = 0.46659 0.42770
#
# Static dielectric constant tensor:
#      x y z
#    x 3.754280 0.000000 0.000000 
#    y 0.000000 3.708570 0.000000 
#    z 0.000000 0.000000 3.053080 
# 
# 
# High freq. dielectric constant tensor:
#      x y z
#    x 1.756620 0.000000 0.000000 
#    y 0.000000 1.750130 0.000000 
#    z 0.000000 0.000000 1.685290 
# 
# From -- ./inp_files/6311.got.cif
#   From: 2010.03.12/outbox.cif.g09.slc.cpg/sg51_4_cif.got.tgz:6311.got - 2010.04.16 13:43:02.
