data_PCOD8210387
_publ_section_title
;
Structure prediction by ZEFSAII (Michael W. Deem and Ramdas Pophale) SiO2 
 PCOD8210387
Probable space group: P M M A
;
_chemical_formula_sum "Si O2"
_cell_formula_units_Z 64
_cell_length_a 17.474289
_cell_length_b 13.059365
_cell_length_c 16.774053
_cell_angle_alpha 90.000000
_cell_angle_beta 90.000000
_cell_angle_gamma 90.000000
_cell_volume 3827.891199
_symmetry_space_group_name_H-M "P M M A"
_symmetry_group_IT_number 51
_symmetry_cell_setting 'orthorhombic'
loop_
_space_group_symop_operation_xyz
x,y,z
1/2-x,-y,z
1/2+x,-y,-z
-x,y,-z
-x,-y,-z
1/2+x,y,-z
1/2-x,y,z
x,-y,z
loop_
_atom_site_type_symbol
_atom_site_label
_atom_site_fract_x
_atom_site_fract_y
_atom_site_fract_z
Si Si1 0.548996 0.766896 0.925856
Si Si2 0.162452 0.116682 0.360125
Si Si3 0.660753 0.382362 0.430821
Si Si4 0.931931 0.282509 0.557533
Si Si5 0.161294 0.383531 0.993579
Si Si6 0.451763 0.707350 0.687500
Si Si7 0.460927 0.116386 0.230064
Si Si8 0.562982 0.612904 0.150958
O O1 0.561300 0.856458 0.861436
O O2 0.504434 0.681225 0.879330
O O3 0.500000 0.811191 0.000000
O O4 0.624761 0.707930 0.954558
O O5 0.250000 0.151594 0.347029
O O6 0.122398 0.185518 0.427057
O O7 0.118367 0.130456 0.276868
O O8 0.158170 0.000000 0.390300
O O9 0.750000 0.355411 0.437012
O O10 0.648487 0.500000 0.402744
O O11 0.620118 0.370494 0.517290
O O12 0.620991 0.298642 0.372218
O O13 0.000000 0.244198 0.500000
O O14 0.971419 0.326103 0.638777
O O15 0.250000 0.367610 0.003458
O O16 0.137476 0.500000 0.020088
O O17 0.139816 0.366809 0.900358
O O18 0.470182 0.817255 0.729192
O O19 0.425552 0.628560 0.755276
O O20 0.490569 0.000000 0.232661
O O21 0.533236 0.500000 0.135816
#
# Coordination Sequence:
#
# PCOD8210387 Si02
#       8
#     8   8   8   8   8   8   8   8
#     4   9  17  29  45  66  90 118 151 187 230 277
#     4   9  17  30  48  68  90 116 147 187 232 274
#     4  10  20  32  47  69  97 126 154 188 231 281
#     4   9  18  31  47  67  92 122 154 189 230 273
#     4   9  17  28  43  65  93 123 152 186 232 281
#     4   9  18  31  48  69  90 121 159 195 233 274
#     4   9  18  32  49  70  93 119 156 198 237 275
#     4   9  16  27  44  65  89 117 152 191 227 269
#
# _framework density 16.719389
#
# number of rings (size 3 to 8) (size 9 to 14) (size 15 to 20)
#    0.000    2.875    0.000    1.125    0.000    5.750 
#    0.000    3.125    0.000    1.125    0.000   12.250 
#    0.000    0.000    0.000    0.000    0.000    0.000 
#
# Total GULP energy -792855.167381 kJ/mol
# GULP energy per Si atom -12388.361990 kJ/mol
# Density = 1.668133 g / cm^3
# Si number density = 16.719389 Si / 1000 Ang^3
#
#
#
# Elastic Constant Matrix: (Units=GPa)
#
#
# Indices 1 2 3 4 5 6 
#
# 1 97.0877 43.3731 36.5194 0.0000 0.0000 0.0000
# 2 43.3731 66.5279 39.8758 0.0000 0.0000 0.0000
# 3 36.5194 39.8758 91.3057 0.0000 0.0000 0.0000
# 4 0.0000 0.0000 0.0000 26.7035 0.0000 0.0000
# 5 0.0000 0.0000 0.0000 0.0000 15.1166 0.0000
# 6 0.0000 0.0000 0.0000 0.0000 0.0000 24.0501
#
#
#
# Elastic Compliance Matrix: (Units=1/GPa)
#
#
# Indices 1 2 3 4 5 6 
#
# 1 0.014888 -0.008313 -0.002324 0.000000 0.000000 0.000000
# 2 -0.008313 0.025003 -0.007595 0.000000 0.000000 0.000000
# 3 -0.002324 -0.007595 0.015199 0.000000 0.000000 0.000000
# 4 0.000000 0.000000 0.000000 0.037448 0.000000 0.000000
# 5 0.000000 0.000000 0.000000 0.000000 0.066152 0.000000
# 6 0.000000 0.000000 0.000000 0.000000 0.000000 0.041580
#
#
# Mechanical properties :
#
#
# Convention : Reuss Voigt Hill
#
# Bulk Modulus (GPa) = 53.68861 54.93976 54.31419
# Shear Modulus (GPa) = 20.58097 22.18425 21.38261
#
# Velocity S-wave (km/s) = 3.51232 3.64656 3.58007
# Velocity P-wave (km/s) = 6.97351 7.11766 7.04595
#
# Compressibility (1/GPa) = 0.01862592
#
# Stress axis : x y z
#
# Youngs Moduli (GPa) = 67.16786 39.99481 65.79571
#
# Poissons Ratio (x) = 0.33249 0.15292
# Poissons Ratio (y) = 0.55839 0.49969
# Poissons Ratio (z) = 0.15611 0.30374
#
# Static dielectric constant tensor:
#      x y z
#    x 3.086430 0.000000 0.000000 
#    y 0.000000 -37.674690 0.000000 
#    z 0.000000 0.000000 3.858550 
# 
# 
# High freq. dielectric constant tensor:
#      x y z
#    x 1.636140 0.000000 0.000000 
#    y 0.000000 1.628370 0.000000 
#    z 0.000000 0.000000 1.649770 
# 
# From -- ./inp_files/30308.got.cif
#   From: 2010.03.12/outbox.cif.g09.slc.cpg/sg51_16_cif.got.tgz:30308.got - 2010.04.16 13:43:02.
