data_PCOD8210799
_publ_section_title
;
Structure prediction by ZEFSAII (Michael W. Deem and Ramdas Pophale) SiO2 
 PCOD8210799
Probable space group: P M M A
;
_chemical_formula_sum "Si O2"
_cell_formula_units_Z 64
_cell_length_a 8.923390
_cell_length_b 14.078711
_cell_length_c 31.045088
_cell_angle_alpha 90.000000
_cell_angle_beta 90.000000
_cell_angle_gamma 90.000000
_cell_volume 3900.189095
_symmetry_space_group_name_H-M "P M M A"
_symmetry_group_IT_number 51
_symmetry_cell_setting 'orthorhombic'
loop_
_space_group_symop_operation_xyz
x,y,z
1/2-x,-y,z
1/2+x,-y,-z
-x,y,-z
-x,-y,-z
1/2+x,y,-z
1/2-x,y,z
x,-y,z
loop_
_atom_site_type_symbol
_atom_site_label
_atom_site_fract_x
_atom_site_fract_y
_atom_site_fract_z
Si Si1 0.424210 0.107903 0.243097
Si Si2 0.574538 0.608392 0.127974
Si Si3 0.076029 0.388909 0.293905
Si Si4 0.581107 0.613139 0.957752
Si Si5 0.079441 0.105892 0.668140
Si Si6 0.573336 0.714524 0.213981
Si Si7 0.575804 0.703080 0.375500
Si Si8 0.925814 0.390974 0.544695
O O1 0.250000 0.131754 0.237750
O O2 0.468248 0.126324 0.292576
O O3 0.522367 0.175688 0.212445
O O4 0.460475 0.000000 0.229660
O O5 0.750000 0.615424 0.119907
O O6 0.524589 0.500000 0.136157
O O7 0.496023 0.651625 0.085669
O O8 0.523295 0.668402 0.169102
O O9 0.250000 0.363138 0.299916
O O10 0.051389 0.500000 0.287154
O O11 0.012835 0.336726 0.252305
O O12 0.986655 0.356873 0.335826
O O13 0.750000 0.650202 0.958479
O O14 0.571362 0.500000 0.958348
O O15 0.500000 0.655072 0.000000
O O16 0.250000 0.115522 0.685421
O O17 0.049207 0.184172 0.631545
O O18 0.051625 0.000000 0.649046
O O19 0.750000 0.704950 0.221649
O O20 0.750000 0.678545 0.380899
O O21 0.489174 0.676457 0.418519
O O22 0.750000 0.375380 0.540759
O O23 0.965361 0.500000 0.555941
O O24 0.000000 0.360111 0.500000
#
# Coordination Sequence:
#
# PCOD8210799 Si02
#       8
#     8   8   8   8   8   8   8   8
#     4  10  20  33  50  71  95 125 162 205 249 292
#     4   9  18  31  45  63  91 127 165 202 241 288
#     4  11  23  35  47  67  98 134 168 203 240 282
#     4   9  16  26  42  63  87 118 158 202 245 286
#     4   9  18  33  52  74  99 127 161 200 243 290
#     4  11  21  33  49  69  95 130 166 203 246 292
#     4  11  21  33  53  78 101 129 163 201 243 288
#     4  10  21  37  56  77 102 131 162 199 242 288
#
# _framework density 16.409459999999999
#
# number of rings (size 3 to 8) (size 9 to 14) (size 15 to 20)
#    0.000    2.000    1.250    3.000    0.000    7.500 
#    0.000    1.250    0.000    0.375    0.000    0.000 
#    0.000    0.500    0.000    1.625    0.000    2.375 
#
# Total GULP energy -793711.825828 kJ/mol
# GULP energy per Si atom -12401.747279 kJ/mol
# Density = 1.637211 g / cm^3
# Si number density = 16.409460 Si / 1000 Ang^3
#
#
#
# Elastic Constant Matrix: (Units=GPa)
#
#
# Indices 1 2 3 4 5 6 
#
# 1 64.2206 32.4084 43.7208 0.0000 0.0000 0.0000
# 2 32.4084 80.1945 49.2264 0.0000 0.0000 0.0000
# 3 43.7208 49.2264 121.4018 0.0000 0.0000 0.0000
# 4 0.0000 0.0000 0.0000 26.1533 0.0000 0.0000
# 5 0.0000 0.0000 0.0000 0.0000 31.9964 0.0000
# 6 0.0000 0.0000 0.0000 0.0000 0.0000 22.9523
#
#
#
# Elastic Compliance Matrix: (Units=1/GPa)
#
#
# Indices 1 2 3 4 5 6 
#
# 1 0.022273 -0.005428 -0.005820 0.000000 0.000000 0.000000
# 2 -0.005428 0.017925 -0.005313 0.000000 0.000000 0.000000
# 3 -0.005820 -0.005313 0.012488 0.000000 0.000000 0.000000
# 4 0.000000 0.000000 0.000000 0.038236 0.000000 0.000000
# 5 0.000000 0.000000 0.000000 0.000000 0.031253 0.000000
# 6 0.000000 0.000000 0.000000 0.000000 0.000000 0.043569
#
#
# Mechanical properties :
#
#
# Convention : Reuss Voigt Hill
#
# Bulk Modulus (GPa) = 51.11993 57.39203 54.25598
# Shear Modulus (GPa) = 24.34415 25.58448 24.96431
#
# Velocity S-wave (km/s) = 3.85586 3.95287 3.90466
# Velocity P-wave (km/s) = 7.14450 7.47559 7.31192
#
# Compressibility (1/GPa) = 0.01956184
#
# Stress axis : x y z
#
# Youngs Moduli (GPa) = 44.89733 55.78817 80.07954
#
# Poissons Ratio (x) = 0.30284 0.46607
# Poissons Ratio (y) = 0.24372 0.42549
# Poissons Ratio (z) = 0.26131 0.29642
#
# Static dielectric constant tensor:
#      x y z
#    x 3.256350 0.000000 0.000000 
#    y 0.000000 3.156360 0.000000 
#    z 0.000000 0.000000 3.589600 
# 
# 
# High freq. dielectric constant tensor:
#      x y z
#    x 1.647830 0.000000 0.000000 
#    y 0.000000 1.613050 0.000000 
#    z 0.000000 0.000000 1.617990 
# 
# From -- ./inp_files/37640.got.cif
#   From: 2010.03.12/outbox.cif.g09.slc.cpg/sg51_19_cif.got.tgz:37640.got - 2010.04.16 13:43:02.
