data_PCOD8210840
_publ_section_title
;
Structure prediction by ZEFSAII (Michael W. Deem and Ramdas Pophale) SiO2 
 PCOD8210840
Probable space group: P M M A
;
_chemical_formula_sum "Si O2"
_cell_formula_units_Z 64
_cell_length_a 13.960459
_cell_length_b 9.042209
_cell_length_c 28.714452
_cell_angle_alpha 90.000000
_cell_angle_beta 90.000000
_cell_angle_gamma 90.000000
_cell_volume 3624.722561
_symmetry_space_group_name_H-M "P M M A"
_symmetry_group_IT_number 51
_symmetry_cell_setting 'orthorhombic'
loop_
_space_group_symop_operation_xyz
x,y,z
1/2-x,-y,z
1/2+x,-y,-z
-x,y,-z
-x,-y,-z
1/2+x,y,-z
1/2-x,y,z
x,-y,z
loop_
_atom_site_type_symbol
_atom_site_label
_atom_site_fract_x
_atom_site_fract_y
_atom_site_fract_z
Si Si1 0.363755 0.164379 0.018351
Si Si2 0.855757 0.825082 0.520453
Si Si3 0.360965 0.172441 0.753640
Si Si4 0.860029 0.174527 0.878575
Si Si5 0.469683 0.675380 0.837015
Si Si6 0.639897 0.673182 0.071399
Si Si7 0.041116 0.175134 0.572685
Si Si8 0.639858 0.326917 0.342503
O O1 0.250000 0.163372 0.015022
O O2 0.390580 0.228326 0.069330
O O3 0.404872 0.000000 0.013025
O O4 0.407217 0.258128 0.975467
O O5 0.750000 0.757760 0.530906
O O6 0.891415 0.772339 0.469798
O O7 0.931514 0.778968 0.560338
O O8 0.850797 0.000000 0.519117
O O9 0.250000 0.200115 0.765252
O O10 0.423099 0.252747 0.792199
O O11 0.388531 0.243097 0.704451
O O12 0.386253 0.000000 0.752307
O O13 0.750000 0.213097 0.868360
O O14 0.921901 0.265884 0.841343
O O15 0.878048 0.000000 0.873494
O O16 0.467410 0.500000 0.831581
O O17 0.413186 0.731265 0.882697
O O18 0.750000 0.721806 0.076487
O O19 0.628952 0.500000 0.066305
O O20 0.070923 0.265369 0.617800
O O21 0.050692 0.000000 0.581801
O O22 0.750000 0.293931 0.355915
O O23 0.621677 0.500000 0.335421
#
# Coordination Sequence:
#
# PCOD8210840 Si02
#       8
#     8   8   8   8   8   8   8   8
#     4   8  15  29  48  68  91 122 160 200 237 273
#     4   8  14  25  43  70 104 139 174 213 254 292
#     4  10  21  37  57  79 101 127 161 200 243 296
#     4   9  19  36  54  71  94 125 163 206 246 285
#     4  11  22  34  51  75 102 130 159 196 245 299
#     4   9  18  31  46  67  98 132 159 186 229 289
#     4   9  16  27  47  73  99 133 177 217 249 290
#     4  10  20  33  50  73 102 133 162 200 252 300
#
# _framework density 17.656524000000001
#
# number of rings (size 3 to 8) (size 9 to 14) (size 15 to 20)
#    0.000    2.750    0.000    3.375    0.000    4.750 
#    0.000    6.250    0.000    1.875    0.000    1.750 
#    0.000    0.000    0.000    0.000    0.000    0.000 
#
# Total GULP energy -793451.478688 kJ/mol
# GULP energy per Si atom -12397.679354 kJ/mol
# Density = 1.761634 g / cm^3
# Si number density = 17.656524 Si / 1000 Ang^3
#
#
#
# Elastic Constant Matrix: (Units=GPa)
#
#
# Indices 1 2 3 4 5 6 
#
# 1 103.1186 43.6303 72.9019 0.0000 0.0000 0.0000
# 2 43.6303 67.9349 57.0705 0.0000 0.0000 0.0000
# 3 72.9019 57.0705 130.3958 0.0000 0.0000 0.0000
# 4 0.0000 0.0000 0.0000 54.6480 0.0000 0.0000
# 5 0.0000 0.0000 0.0000 0.0000 31.0918 0.0000
# 6 0.0000 0.0000 0.0000 0.0000 0.0000 20.0343
#
#
#
# Elastic Compliance Matrix: (Units=1/GPa)
#
#
# Indices 1 2 3 4 5 6 
#
# 1 0.016903 -0.004613 -0.007431 0.000000 0.000000 0.000000
# 2 -0.004613 0.024538 -0.008161 0.000000 0.000000 0.000000
# 3 -0.007431 -0.008161 0.015395 0.000000 0.000000 0.000000
# 4 0.000000 0.000000 0.000000 0.018299 0.000000 0.000000
# 5 0.000000 0.000000 0.000000 0.000000 0.032163 0.000000
# 6 0.000000 0.000000 0.000000 0.000000 0.000000 0.049914
#
#
# Mechanical properties :
#
#
# Convention : Reuss Voigt Hill
#
# Bulk Modulus (GPa) = 60.87592 72.07275 66.47433
# Shear Modulus (GPa) = 24.61871 29.67793 27.14832
#
# Velocity S-wave (km/s) = 3.73810 4.10426 3.92545
# Velocity P-wave (km/s) = 7.29273 7.96040 7.63387
#
# Compressibility (1/GPa) = 0.01642686
#
# Stress axis : x y z
#
# Youngs Moduli (GPa) = 59.16112 40.75288 64.95506
#
# Poissons Ratio (x) = 0.18799 0.48269
# Poissons Ratio (y) = 0.27291 0.53007
# Poissons Ratio (z) = 0.43964 0.33257
#
# Static dielectric constant tensor:
#      x y z
#    x 3.438090 0.000000 0.000000 
#    y 0.000000 3.134730 0.000000 
#    z 0.000000 0.000000 3.219680 
# 
# 
# High freq. dielectric constant tensor:
#      x y z
#    x 1.680290 0.000000 0.000000 
#    y 0.000000 1.670290 0.000000 
#    z 0.000000 0.000000 1.671290 
# 
# From -- ./inp_files/35795.got.cif
#   From: 2010.03.12/outbox.cif.g09.slc.cpg/sg51_18_cif.got.tgz:35795.got - 2010.04.16 13:43:02.
