data_PCOD8210175
_publ_section_title
;
Structure prediction by ZEFSAII (Michael W. Deem and Ramdas Pophale) SiO2 
 PCOD8210175
Probable space group: P M M A
;
_chemical_formula_sum "Si O2"
_cell_formula_units_Z 56
_cell_length_a 9.946333
_cell_length_b 18.969353
_cell_length_c 17.697573
_cell_angle_alpha 90.000000
_cell_angle_beta 90.000000
_cell_angle_gamma 90.000000
_cell_volume 3339.098465
_symmetry_space_group_name_H-M "P M M A"
_symmetry_group_IT_number 51
_symmetry_cell_setting 'orthorhombic'
loop_
_space_group_symop_operation_xyz
x,y,z
1/2-x,-y,z
1/2+x,-y,-z
-x,y,-z
-x,-y,-z
1/2+x,y,-z
1/2-x,y,z
x,-y,z
loop_
_atom_site_type_symbol
_atom_site_label
_atom_site_fract_x
_atom_site_fract_y
_atom_site_fract_z
Si Si1 0.497251 0.920528 0.720084
Si Si2 0.903083 0.421403 0.569416
Si Si3 0.092895 0.192592 0.935473
Si Si4 0.396543 0.920668 0.119451
Si Si5 0.894921 0.777037 0.232650
Si Si6 0.403514 0.284453 0.343385
Si Si7 0.404166 0.146489 0.430816
O O1 0.601782 0.916629 0.789187
O O2 0.390494 0.858903 0.739486
O O3 0.570200 0.903993 0.640832
O O4 0.433457 0.000000 0.715766
O O5 0.750000 0.410593 0.541333
O O6 0.922880 0.500000 0.603664
O O7 0.939726 0.363489 0.631678
O O8 0.000000 0.408950 0.500000
O O9 0.250000 0.183443 0.959551
O O10 0.083747 0.233948 0.856731
O O11 0.019924 0.117778 0.921504
O O12 0.000000 0.230848 0.000000
O O13 0.250000 0.889610 0.095302
O O14 0.409573 0.000000 0.091598
O O15 0.750000 0.745874 0.255490
O O16 0.010032 0.731112 0.269961
O O17 0.250000 0.277524 0.318013
O O18 0.434873 0.227927 0.409319
O O19 0.500000 0.124307 0.500000
O O20 0.250000 0.137277 0.457089
#
# Coordination Sequence:
#
# PCOD8210175 Si02
#       7
#     8   8   8   8   8   8   8
#     4   9  18  32  48  63  81 108 145 189 235 280
#     4   9  17  29  46  71 102 132 161 191 223 261
#     4  10  20  32  46  65  89 114 140 175 220 267
#     4   9  17  30  48  65  80 105 141 178 221 274
#     4   9  19  33  49  70  90 112 147 188 226 266
#     4   9  18  32  49  67  90 123 156 185 220 264
#     4  10  20  31  43  61  84 111 147 188 229 272
#
# _framework density 16.770993000000001
#
# number of rings (size 3 to 8) (size 9 to 14) (size 15 to 20)
#    0.000    2.714    0.000    1.286    0.000    8.857 
#    0.000    2.857    0.000    0.000    0.000    0.000 
#    0.000    0.571    0.000    1.286    0.000    2.000 
#
# Total GULP energy -693798.728496 kJ/mol
# GULP energy per Si atom -12389.263009 kJ/mol
# Density = 1.673282 g / cm^3
# Si number density = 16.770993 Si / 1000 Ang^3
#
#
#
# Elastic Constant Matrix: (Units=GPa)
#
#
# Indices 1 2 3 4 5 6 
#
# 1 102.9419 31.7864 47.7603 0.0000 0.0000 0.0000
# 2 31.7864 76.4689 32.1883 0.0000 0.0000 0.0000
# 3 47.7603 32.1883 87.7374 0.0000 0.0000 0.0000
# 4 0.0000 0.0000 0.0000 15.8992 0.0000 0.0000
# 5 0.0000 0.0000 0.0000 0.0000 24.1026 0.0000
# 6 0.0000 0.0000 0.0000 0.0000 0.0000 16.1656
#
#
#
# Elastic Compliance Matrix: (Units=1/GPa)
#
#
# Indices 1 2 3 4 5 6 
#
# 1 0.013551 -0.002989 -0.006280 0.000000 0.000000 0.000000
# 2 -0.002989 0.016125 -0.004288 0.000000 0.000000 0.000000
# 3 -0.006280 -0.004288 0.016389 0.000000 0.000000 0.000000
# 4 0.000000 0.000000 0.000000 0.062896 0.000000 0.000000
# 5 0.000000 0.000000 0.000000 0.000000 0.041489 0.000000
# 6 0.000000 0.000000 0.000000 0.000000 0.000000 0.061860
#
#
# Mechanical properties :
#
#
# Convention : Reuss Voigt Hill
#
# Bulk Modulus (GPa) = 52.77066 54.51313 53.64189
# Shear Modulus (GPa) = 20.34653 21.59437 20.97045
#
# Velocity S-wave (km/s) = 3.48688 3.59221 3.53994
# Velocity P-wave (km/s) = 6.90976 7.05551 6.98302
#
# Compressibility (1/GPa) = 0.01894992
#
# Stress axis : x y z
#
# Youngs Moduli (GPa) = 73.79647 62.01547 61.01520
#
# Poissons Ratio (x) = 0.18539 0.38316
# Poissons Ratio (y) = 0.22061 0.26166
# Poissons Ratio (z) = 0.46342 0.26595
#
# Static dielectric constant tensor:
#      x y z
#    x 3.359020 0.000000 0.000000 
#    y 0.000000 2.994630 0.000000 
#    z 0.000000 0.000000 3.148800 
# 
# 
# High freq. dielectric constant tensor:
#      x y z
#    x 1.655140 0.000000 0.000000 
#    y 0.000000 1.604770 0.000000 
#    z 0.000000 0.000000 1.641240 
# 
# From -- ./inp_files/29161.got.cif
#   From: 2010.03.12/outbox.cif.g09.slc.cpg/sg51_15_cif.got.tgz:29161.got - 2010.04.16 13:43:02.
