data_PCOD8210683
_publ_section_title
;
Structure prediction by ZEFSAII (Michael W. Deem and Ramdas Pophale) SiO2 
 PCOD8210683
Probable space group: P M M A
;
_chemical_formula_sum "Si O2"
_cell_formula_units_Z 64
_cell_length_a 9.155119
_cell_length_b 13.605691
_cell_length_c 34.423701
_cell_angle_alpha 90.000000
_cell_angle_beta 90.000000
_cell_angle_gamma 90.000000
_cell_volume 4287.875412
_symmetry_space_group_name_H-M "P M M A"
_symmetry_group_IT_number 51
_symmetry_cell_setting 'orthorhombic'
loop_
_space_group_symop_operation_xyz
x,y,z
1/2-x,-y,z
1/2+x,-y,-z
-x,y,-z
-x,-y,-z
1/2+x,y,-z
1/2-x,y,z
x,-y,z
loop_
_atom_site_type_symbol
_atom_site_label
_atom_site_fract_x
_atom_site_fract_y
_atom_site_fract_z
Si Si1 0.920164 0.700673 0.654987
Si Si2 0.421900 0.798303 0.539942
Si Si3 0.414887 0.383014 0.811583
Si Si4 0.582247 0.889784 0.609621
Si Si5 0.420002 0.385774 0.264690
Si Si6 0.581413 0.390494 0.414500
Si Si7 0.584574 0.617141 0.037771
Si Si8 0.415337 0.382787 0.113346
O O1 0.750000 0.677874 0.652322
O O2 0.957473 0.813808 0.644160
O O3 0.974891 0.677454 0.698416
O O4 0.994997 0.626768 0.625075
O O5 0.500000 0.824449 0.500000
O O6 0.250000 0.812981 0.534848
O O7 0.479442 0.872670 0.572613
O O8 0.464336 0.686916 0.552245
O O9 0.250000 0.342438 0.813390
O O10 0.416309 0.500000 0.812713
O O11 0.490487 0.345875 0.772142
O O12 0.504327 0.341551 0.848349
O O13 0.750000 0.874318 0.596521
O O14 0.555918 0.000000 0.625386
O O15 0.250000 0.368992 0.255803
O O16 0.452648 0.500000 0.273037
O O17 0.750000 0.376342 0.404007
O O18 0.547659 0.500000 0.430171
O O19 0.750000 0.657666 0.037582
O O20 0.585778 0.500000 0.037695
O O21 0.501572 0.657071 0.075804
O O22 0.500000 0.657280 0.000000
O O23 0.250000 0.342463 0.112412
O O24 0.414902 0.500000 0.113520
#
# Coordination Sequence:
#
# PCOD8210683 Si02
#       8
#     8   8   8   8   8   8   8   8
#     4   9  17  29  45  64  83 103 129 158 187 222
#     4  10  20  33  48  66  87 109 133 160 188 220
#     4   9  16  24  33  46  64  87 115 144 175 214
#     4   9  18  33  51  68  85 105 129 158 192 227
#     4   9  16  25  37  54  76  99 121 146 177 215
#     4   9  18  31  45  62  85 110 133 157 186 219
#     4   9  15  21  28  38  52  71  99 137 181 227
#     4   9  15  22  31  41  55  77 105 139 180 223
#
# _framework density 14.925806
#
# number of rings (size 3 to 8) (size 9 to 14) (size 15 to 20)
#    0.000    2.875    0.000    1.875    0.000    7.000 
#    0.000    1.250    0.000    0.000    0.000    0.000 
#    0.000    0.000    0.000    0.000    0.000    0.000 
#
# Total GULP energy -793499.420342 kJ/mol
# GULP energy per Si atom -12398.428443 kJ/mol
# Density = 1.489183 g / cm^3
# Si number density = 14.925806 Si / 1000 Ang^3
#
#
#
# Elastic Constant Matrix: (Units=GPa)
#
#
# Indices 1 2 3 4 5 6 
#
# 1 89.5900 15.5932 58.9181 0.0000 0.0000 0.0000
# 2 15.5932 45.1446 21.8046 0.0000 0.0000 0.0000
# 3 58.9181 21.8046 127.8219 0.0000 0.0000 0.0000
# 4 0.0000 0.0000 0.0000 7.1066 0.0000 0.0000
# 5 0.0000 0.0000 0.0000 0.0000 29.4296 0.0000
# 6 0.0000 0.0000 0.0000 0.0000 0.0000 11.0992
#
#
#
# Elastic Compliance Matrix: (Units=1/GPa)
#
#
# Indices 1 2 3 4 5 6 
#
# 1 0.016210 -0.002169 -0.007102 0.000000 0.000000 0.000000
# 2 -0.002169 0.024430 -0.003168 0.000000 0.000000 0.000000
# 3 -0.007102 -0.003168 0.011637 0.000000 0.000000 0.000000
# 4 0.000000 0.000000 0.000000 0.140714 0.000000 0.000000
# 5 0.000000 0.000000 0.000000 0.000000 0.033979 0.000000
# 6 0.000000 0.000000 0.000000 0.000000 0.000000 0.090097
#
#
# Mechanical properties :
#
#
# Convention : Reuss Voigt Hill
#
# Bulk Modulus (GPa) = 36.49558 50.57647 43.53603
# Shear Modulus (GPa) = 14.24187 20.60979 17.42583
#
# Velocity S-wave (km/s) = 3.09233 3.71996 3.42057
# Velocity P-wave (km/s) = 6.10364 7.23945 6.69567
#
# Compressibility (1/GPa) = 0.02740058
#
# Stress axis : x y z
#
# Youngs Moduli (GPa) = 61.69078 40.93295 85.93089
#
# Poissons Ratio (x) = 0.08878 0.61026
# Poissons Ratio (y) = 0.13380 0.27221
# Poissons Ratio (z) = 0.43812 0.12967
#
# Static dielectric constant tensor:
#      x y z
#    x 3.019900 0.000000 0.000000 
#    y 0.000000 2.511140 0.000000 
#    z 0.000000 0.000000 2.968200 
# 
# 
# High freq. dielectric constant tensor:
#      x y z
#    x 1.584370 0.000000 0.000000 
#    y 0.000000 1.505760 0.000000 
#    z 0.000000 0.000000 1.572760 
# 
# From -- ./inp_files/37545.got.cif
#   From: 2010.03.12/outbox.cif.g09.slc.cpg/sg51_19_cif.got.tgz:37545.got - 2010.04.16 13:43:02.
