data_PCOD8210552
_publ_section_title
;
Structure prediction by ZEFSAII (Michael W. Deem and Ramdas Pophale) SiO2 
 PCOD8210552
Probable space group: P M M A
;
_chemical_formula_sum "Si O2"
_cell_formula_units_Z 64
_cell_length_a 9.156226
_cell_length_b 15.751235
_cell_length_c 23.130078
_cell_angle_alpha 90.000000
_cell_angle_beta 90.000000
_cell_angle_gamma 90.000000
_cell_volume 3335.863043
_symmetry_space_group_name_H-M "P M M A"
_symmetry_group_IT_number 51
_symmetry_cell_setting 'orthorhombic'
loop_
_space_group_symop_operation_xyz
x,y,z
1/2-x,-y,z
1/2+x,-y,-z
-x,y,-z
-x,-y,-z
1/2+x,y,-z
1/2-x,y,z
x,-y,z
loop_
_atom_site_type_symbol
_atom_site_label
_atom_site_fract_x
_atom_site_fract_y
_atom_site_fract_z
Si Si1 0.922493 0.738832 0.058772
Si Si2 0.091928 0.402603 0.740107
Si Si3 0.576449 0.404728 0.386027
Si Si4 0.417149 0.681779 0.168164
Si Si5 0.576919 0.768197 0.441398
Si Si6 0.585029 0.908296 0.117088
Si Si7 0.420137 0.097482 0.656412
Si Si8 0.582197 0.861237 0.774400
O O1 0.750000 0.724763 0.052876
O O2 0.967230 0.836533 0.072161
O O3 0.985887 0.682001 0.110415
O O4 0.000000 0.710536 0.000000
O O5 0.250000 0.357311 0.753228
O O6 0.125444 0.500000 0.732518
O O7 0.026713 0.373782 0.678085
O O8 0.976368 0.392687 0.791498
O O9 0.750000 0.409479 0.387254
O O10 0.514389 0.500000 0.402628
O O11 0.521679 0.328326 0.427318
O O12 0.250000 0.666454 0.150315
O O13 0.438157 0.763879 0.207928
O O14 0.500000 0.797454 0.500000
O O15 0.750000 0.770013 0.449628
O O16 0.528865 0.837019 0.393187
O O17 0.750000 0.886747 0.136690
O O18 0.487754 0.915647 0.174257
O O19 0.576032 0.000000 0.085655
O O20 0.250000 0.109428 0.669633
O O21 0.505119 0.120207 0.714406
O O22 0.453979 0.000000 0.637678
O O23 0.750000 0.887566 0.768556
#
# Coordination Sequence:
#
# PCOD8210552 Si02
#       8
#     8   8   8   8   8   8   8   8
#     4  10  20  34  51  70  95 130 173 215 252 294
#     4   9  17  31  54  82 107 132 165 202 242 295
#     4   8  15  30  53  79 105 133 164 199 245 304
#     4  10  20  33  50  74 105 137 167 203 250 303
#     4  10  21  36  53  73  99 132 171 213 253 298
#     4   9  18  32  49  70  98 132 166 201 248 307
#     4  10  21  36  53  72  96 131 173 214 260 314
#     4  10  20  32  49  76 104 129 163 209 258 304
#
# _framework density 19.18544
#
# number of rings (size 3 to 8) (size 9 to 14) (size 15 to 20)
#    0.000    2.500    0.000    3.000    0.000    6.500 
#    0.000    0.625    0.000    1.125    0.000    0.000 
#    0.000    0.000    0.000    0.000    0.000    0.000 
#
# Total GULP energy -793200.811971 kJ/mol
# GULP energy per Si atom -12393.762687 kJ/mol
# Density = 1.914177 g / cm^3
# Si number density = 19.185440 Si / 1000 Ang^3
#
#
#
# Elastic Constant Matrix: (Units=GPa)
#
#
# Indices 1 2 3 4 5 6 
#
# 1 68.9211 17.3709 40.7277 0.0000 0.0000 0.0000
# 2 17.3709 48.5619 31.6265 0.0000 0.0000 0.0000
# 3 40.7277 31.6265 102.2879 0.0000 0.0000 0.0000
# 4 0.0000 0.0000 0.0000 15.0608 0.0000 0.0000
# 5 0.0000 0.0000 0.0000 0.0000 33.2422 0.0000
# 6 0.0000 0.0000 0.0000 0.0000 0.0000 16.6207
#
#
#
# Elastic Compliance Matrix: (Units=1/GPa)
#
#
# Indices 1 2 3 4 5 6 
#
# 1 0.019188 -0.002364 -0.006909 0.000000 0.000000 0.000000
# 2 -0.002364 0.026076 -0.007121 0.000000 0.000000 0.000000
# 3 -0.006909 -0.007121 0.014729 0.000000 0.000000 0.000000
# 4 0.000000 0.000000 0.000000 0.066397 0.000000 0.000000
# 5 0.000000 0.000000 0.000000 0.000000 0.030082 0.000000
# 6 0.000000 0.000000 0.000000 0.000000 0.000000 0.060166
#
#
# Mechanical properties :
#
#
# Convention : Reuss Voigt Hill
#
# Bulk Modulus (GPa) = 36.75893 44.35791 40.55842
# Shear Modulus (GPa) = 19.34275 21.65446 20.49860
#
# Velocity S-wave (km/s) = 3.17866 3.36325 3.27225
# Velocity P-wave (km/s) = 5.71605 6.18488 5.95508
#
# Compressibility (1/GPa) = 0.02720428
#
# Stress axis : x y z
#
# Youngs Moduli (GPa) = 52.11593 38.35000 67.89286
#
# Poissons Ratio (x) = 0.09066 0.46908
# Poissons Ratio (y) = 0.12320 0.48347
# Poissons Ratio (z) = 0.36007 0.27309
#
# Static dielectric constant tensor:
#      x y z
#    x 3.348320 0.000000 0.000000 
#    y 0.000000 3.575610 0.000000 
#    z 0.000000 0.000000 3.398380 
# 
# 
# High freq. dielectric constant tensor:
#      x y z
#    x 1.732160 0.000000 0.000000 
#    y 0.000000 1.740660 0.000000 
#    z 0.000000 0.000000 1.737820 
# 
# From -- ./inp_files/32347.got.cif
#   From: 2010.03.12/outbox.cif.g09.slc.cpg/sg51_17_cif.got.tgz:32347.got - 2010.04.16 13:43:02.
