data_PCOD8210426
_publ_section_title
;
Structure prediction by ZEFSAII (Michael W. Deem and Ramdas Pophale) SiO2 
 PCOD8210426
Probable space group: P M M A
;
_chemical_formula_sum "Si O2"
_cell_formula_units_Z 48
_cell_length_a 15.159181
_cell_length_b 9.271247
_cell_length_c 18.250126
_cell_angle_alpha 90.000000
_cell_angle_beta 90.000000
_cell_angle_gamma 90.000000
_cell_volume 2564.955041
_symmetry_space_group_name_H-M "P M M A"
_symmetry_group_IT_number 51
_symmetry_cell_setting 'orthorhombic'
loop_
_space_group_symop_operation_xyz
x,y,z
1/2-x,-y,z
1/2+x,-y,-z
-x,y,-z
-x,-y,-z
1/2+x,y,-z
1/2-x,y,z
x,-y,z
loop_
_atom_site_type_symbol
_atom_site_label
_atom_site_fract_x
_atom_site_fract_y
_atom_site_fract_z
Si Si1 0.997532 0.333811 0.330721
Si Si2 0.346823 0.832998 0.106171
Si Si3 0.350423 0.666955 0.553692
Si Si4 0.509544 0.666314 0.163899
Si Si5 0.591205 0.841230 0.043324
Si Si6 0.648608 0.169585 0.594383
O O1 0.023458 0.500000 0.344123
O O2 0.084097 0.237802 0.345207
O O3 0.915884 0.286402 0.381520
O O4 0.964350 0.309265 0.248060
O O5 0.250000 0.809512 0.140596
O O6 0.414298 0.736692 0.151274
O O7 0.376878 0.000000 0.112460
O O8 0.340563 0.789852 0.019499
O O9 0.250000 0.696821 0.579298
O O10 0.363352 0.500000 0.532312
O O11 0.375386 0.761901 0.483725
O O12 0.502474 0.500000 0.142930
O O13 0.585814 0.735127 0.112866
O O14 0.615739 0.000000 0.073527
O O15 0.500000 0.844174 0.000000
O O16 0.750000 0.204015 0.615881
O O17 0.631798 0.000000 0.589991
#
# Coordination Sequence:
#
# PCOD8210426 Si02
#       6
#     8   8   8   8   8   8
#     4  10  21  35  51  74 104 138 172 204 247 304
#     4   9  18  33  52  72  95 126 164 203 243 292
#     4   9  18  35  57  75  95 130 173 212 251 300
#     4  10  20  32  47  71 102 130 159 200 245 289
#     4   8  15  30  50  68  88 120 159 193 230 281
#     4  10  21  35  52  77 105 131 165 211 257 299
#
# _framework density 18.713778000000001
#
# number of rings (size 3 to 8) (size 9 to 14) (size 15 to 20)
#    0.000    2.667    0.000    2.500    0.000    9.000 
#    0.000    4.167    0.000    1.000    0.000    0.000 
#    0.000    0.000    0.000    0.000    0.000    0.000 
#
# Total GULP energy -595053.201765 kJ/mol
# GULP energy per Si atom -12396.941703 kJ/mol
# Density = 1.867118 g / cm^3
# Si number density = 18.713778 Si / 1000 Ang^3
#
#
#
# Elastic Constant Matrix: (Units=GPa)
#
#
# Indices 1 2 3 4 5 6 
#
# 1 44.7904 19.3971 13.2292 0.0000 0.0000 0.0000
# 2 19.3971 77.5194 35.7020 0.0000 0.0000 0.0000
# 3 13.2292 35.7020 73.5368 0.0000 0.0000 0.0000
# 4 0.0000 0.0000 0.0000 9.8027 0.0000 0.0000
# 5 0.0000 0.0000 0.0000 0.0000 18.8806 0.0000
# 6 0.0000 0.0000 0.0000 0.0000 0.0000 19.3287
#
#
#
# Elastic Compliance Matrix: (Units=1/GPa)
#
#
# Indices 1 2 3 4 5 6 
#
# 1 0.025244 -0.005442 -0.001899 0.000000 0.000000 0.000000
# 2 -0.005442 0.017788 -0.007657 0.000000 0.000000 0.000000
# 3 -0.001899 -0.007657 0.017658 0.000000 0.000000 0.000000
# 4 0.000000 0.000000 0.000000 0.102013 0.000000 0.000000
# 5 0.000000 0.000000 0.000000 0.000000 0.052965 0.000000
# 6 0.000000 0.000000 0.000000 0.000000 0.000000 0.051737
#
#
# Mechanical properties :
#
#
# Convention : Reuss Voigt Hill
#
# Bulk Modulus (GPa) = 32.58042 36.94477 34.76260
# Shear Modulus (GPa) = 16.25320 18.10361 17.17840
#
# Velocity S-wave (km/s) = 2.95026 3.11367 3.03306
# Velocity P-wave (km/s) = 5.39008 5.71939 5.55718
#
# Compressibility (1/GPa) = 0.03069328
#
# Stress axis : x y z
#
# Youngs Moduli (GPa) = 39.61358 56.21705 56.63197
#
# Poissons Ratio (x) = 0.30592 0.10756
# Poissons Ratio (y) = 0.21557 0.43364
# Poissons Ratio (z) = 0.07524 0.43046
#
# Static dielectric constant tensor:
#      x y z
#    x 3.807800 0.000000 0.000000 
#    y 0.000000 3.425530 0.000000 
#    z 0.000000 0.000000 3.433860 
# 
# 
# High freq. dielectric constant tensor:
#      x y z
#    x 1.717120 0.000000 0.000000 
#    y 0.000000 1.722640 0.000000 
#    z 0.000000 0.000000 1.718360 
# 
# From -- ./inp_files/29426.got.cif
#   From: 2010.03.12/outbox.cif.g09.slc.cpg/sg51_15_cif.got.tgz:29426.got - 2010.04.16 13:43:02.
