data_PCOD8210893
_publ_section_title
;
Structure prediction by ZEFSAII (Michael W. Deem and Ramdas Pophale) SiO2 
 PCOD8210893
Probable space group: P M M A
;
_chemical_formula_sum "Si O2"
_cell_formula_units_Z 64
_cell_length_a 8.885450
_cell_length_b 27.897125
_cell_length_c 13.794130
_cell_angle_alpha 90.000000
_cell_angle_beta 90.000000
_cell_angle_gamma 90.000000
_cell_volume 3419.268382
_symmetry_space_group_name_H-M "P M M A"
_symmetry_group_IT_number 51
_symmetry_cell_setting 'orthorhombic'
loop_
_space_group_symop_operation_xyz
x,y,z
1/2-x,-y,z
1/2+x,-y,-z
-x,y,-z
-x,-y,-z
1/2+x,y,-z
1/2-x,y,z
x,-y,z
loop_
_atom_site_type_symbol
_atom_site_label
_atom_site_fract_x
_atom_site_fract_y
_atom_site_fract_z
Si Si1 0.425664 0.685224 0.104094
Si Si2 0.572227 0.141255 0.100129
Si Si3 0.573884 0.220481 0.775466
Si Si4 0.575260 0.054498 0.592174
Si Si5 0.574180 0.633052 0.274491
Si Si6 0.573452 0.273091 0.395484
Si Si7 0.424391 0.555794 0.399352
Si Si8 0.925958 0.944176 0.806359
O O1 0.250000 0.674664 0.095314
O O2 0.458174 0.737343 0.148272
O O3 0.499080 0.644896 0.171787
O O4 0.500000 0.682345 0.000000
O O5 0.750000 0.146518 0.093335
O O6 0.507598 0.173037 0.187012
O O7 0.525590 0.086066 0.118728
O O8 0.500000 0.159238 0.000000
O O9 0.750000 0.210396 0.762480
O O10 0.503365 0.233057 0.671631
O O11 0.500000 0.081836 0.500000
O O12 0.750000 0.057271 0.574097
O O13 0.535078 0.075568 0.697928
O O14 0.517384 0.000000 0.593851
O O15 0.750000 0.625663 0.257930
O O16 0.539879 0.674598 0.352051
O O17 0.501955 0.584010 0.312084
O O18 0.500000 0.269980 0.500000
O O19 0.750000 0.262655 0.402094
O O20 0.500000 0.571127 0.500000
O O21 0.250000 0.569582 0.405813
O O22 0.449251 0.500000 0.377935
O O23 0.750000 0.936391 0.828627
O O24 0.967911 0.000000 0.817621
#
# Coordination Sequence:
#
# PCOD8210893 Si02
#       8
#     8   8   8   8   8   8   8   8
#     4  10  20  34  55  81 108 138 175 221 271 322
#     4  12  25  40  59  81 106 137 174 216 264 318
#     4  10  21  38  59  82 109 141 177 218 263 313
#     4   8  14  26  47  74 102 131 161 196 239 285
#     4  10  20  33  52  78 109 145 185 228 273 324
#     4  10  20  34  54  82 115 149 183 220 266 320
#     4  10  20  33  50  74 106 144 186 231 277 326
#     4   9  19  37  58  80 108 140 175 216 260 307
#
# _framework density 18.717455000000001
#
# number of rings (size 3 to 8) (size 9 to 14) (size 15 to 20)
#    0.000    2.125    0.000    4.500    0.000    6.750 
#    0.000    1.875    0.000    1.875    0.000    0.000 
#    0.000    0.000    0.000    0.000    0.000    0.000 
#
# Total GULP energy -793683.419153 kJ/mol
# GULP energy per Si atom -12401.303424 kJ/mol
# Density = 1.867485 g / cm^3
# Si number density = 18.717455 Si / 1000 Ang^3
#
#
#
# Elastic Constant Matrix: (Units=GPa)
#
#
# Indices 1 2 3 4 5 6 
#
# 1 123.0793 47.5990 68.3525 0.0000 0.0000 0.0000
# 2 47.5990 66.2051 41.0483 0.0000 0.0000 0.0000
# 3 68.3525 41.0483 130.5373 0.0000 0.0000 0.0000
# 4 0.0000 0.0000 0.0000 30.9129 0.0000 0.0000
# 5 0.0000 0.0000 0.0000 0.0000 40.1166 0.0000
# 6 0.0000 0.0000 0.0000 0.0000 0.0000 28.9237
#
#
#
# Elastic Compliance Matrix: (Units=1/GPa)
#
#
# Indices 1 2 3 4 5 6 
#
# 1 0.013422 -0.006574 -0.004961 0.000000 0.000000 0.000000
# 2 -0.006574 0.021983 -0.003470 0.000000 0.000000 0.000000
# 3 -0.004961 -0.003470 0.011350 0.000000 0.000000 0.000000
# 4 0.000000 0.000000 0.000000 0.032349 0.000000 0.000000
# 5 0.000000 0.000000 0.000000 0.000000 0.024927 0.000000
# 6 0.000000 0.000000 0.000000 0.000000 0.000000 0.034574
#
#
# Mechanical properties :
#
#
# Convention : Reuss Voigt Hill
#
# Bulk Modulus (GPa) = 59.72332 70.42460 65.07396
# Shear Modulus (GPa) = 28.70310 30.84543 29.77427
#
# Velocity S-wave (km/s) = 3.92023 4.06390 3.99271
# Velocity P-wave (km/s) = 7.24348 7.72833 7.48983
#
# Compressibility (1/GPa) = 0.01674388
#
# Stress axis : x y z
#
# Youngs Moduli (GPa) = 74.50188 45.49001 88.10925
#
# Poissons Ratio (x) = 0.29907 0.43711
# Poissons Ratio (y) = 0.48980 0.30575
# Poissons Ratio (z) = 0.36960 0.15786
#
# Static dielectric constant tensor:
#      x y z
#    x 3.562240 0.000000 0.000000 
#    y 0.000000 3.260800 0.000000 
#    z 0.000000 0.000000 3.233840 
# 
# 
# High freq. dielectric constant tensor:
#      x y z
#    x 1.737280 0.000000 0.000000 
#    y 0.000000 1.704750 0.000000 
#    z 0.000000 0.000000 1.732090 
# 
# From -- ./inp_files/14860.got.cif
#   From: 2010.03.12/outbox.cif.g09.slc.cpg/sg51_8_cif.got.tgz:14860.got - 2010.04.16 13:43:02.
