data_PCOD8210395
_publ_section_title
;
Structure prediction by ZEFSAII (Michael W. Deem and Ramdas Pophale) SiO2 
 PCOD8210395
Probable space group: P M M A
;
_chemical_formula_sum "Si O2"
_cell_formula_units_Z 56
_cell_length_a 9.091305
_cell_length_b 18.885679
_cell_length_c 18.518741
_cell_angle_alpha 90.000000
_cell_angle_beta 90.000000
_cell_angle_gamma 90.000000
_cell_volume 3179.583901
_symmetry_space_group_name_H-M "P M M A"
_symmetry_group_IT_number 51
_symmetry_cell_setting 'orthorhombic'
loop_
_space_group_symop_operation_xyz
x,y,z
1/2-x,-y,z
1/2+x,-y,-z
-x,y,-z
-x,-y,-z
1/2+x,y,-z
1/2-x,y,z
x,-y,z
loop_
_atom_site_type_symbol
_atom_site_label
_atom_site_fract_x
_atom_site_fract_y
_atom_site_fract_z
Si Si1 0.918563 0.801270 0.791945
Si Si2 0.417055 0.720325 0.354458
Si Si3 0.575221 0.291520 0.927254
Si Si4 0.079379 0.580869 0.858006
Si Si5 0.918180 0.421272 0.710009
Si Si6 0.577197 0.160940 0.427829
Si Si7 0.076520 0.079980 0.715316
O O1 0.750000 0.823646 0.798521
O O2 0.945288 0.747378 0.726564
O O3 0.972688 0.762781 0.864445
O O4 0.009065 0.873376 0.779681
O O5 0.250000 0.735640 0.379101
O O6 0.451881 0.636153 0.352795
O O7 0.524482 0.758992 0.410668
O O8 0.750000 0.295819 0.935840
O O9 0.513943 0.369774 0.911053
O O10 0.500000 0.262807 0.000000
O O11 0.250000 0.602172 0.862162
O O12 0.053894 0.500000 0.882759
O O13 0.026578 0.591400 0.776261
O O14 0.750000 0.410518 0.737603
O O15 0.940183 0.500000 0.677345
O O16 0.500000 0.132291 0.500000
O O17 0.750000 0.160686 0.439798
O O18 0.527092 0.109907 0.362679
O O19 0.250000 0.083613 0.722706
O O20 0.017932 0.000000 0.722345
#
# Coordination Sequence:
#
# PCOD8210395 Si02
#       7
#     8   8   8   8   8   8   8
#     4   9  18  33  52  75 101 129 166 207 248 298
#     4   9  16  30  50  72  98 130 167 208 250 298
#     4  11  22  36  52  73 100 134 173 215 260 308
#     4  10  20  32  47  70 100 134 172 213 258 307
#     4   9  16  28  48  72  98 130 167 211 260 303
#     4  10  20  33  50  75 105 138 168 200 241 291
#     4   9  19  35  55  80 107 134 164 198 241 293
#
# _framework density 17.612366999999999
#
# number of rings (size 3 to 8) (size 9 to 14) (size 15 to 20)
#    0.000    2.429    1.429    1.286    0.000    4.000 
#    0.000    0.000    0.000    0.857    0.000    0.000 
#    0.000    0.000    0.000    0.000    0.000    0.000 
#
# Total GULP energy -694410.076471 kJ/mol
# GULP energy per Si atom -12400.179937 kJ/mol
# Density = 1.757228 g / cm^3
# Si number density = 17.612367 Si / 1000 Ang^3
#
#
#
# Elastic Constant Matrix: (Units=GPa)
#
#
# Indices 1 2 3 4 5 6 
#
# 1 68.8925 41.1772 36.8101 0.0000 0.0000 0.0000
# 2 41.1772 117.9463 42.4246 0.0000 0.0000 0.0000
# 3 36.8101 42.4246 71.6179 0.0000 0.0000 0.0000
# 4 0.0000 0.0000 0.0000 18.7997 0.0000 0.0000
# 5 0.0000 0.0000 0.0000 0.0000 29.7205 0.0000
# 6 0.0000 0.0000 0.0000 0.0000 0.0000 27.3928
#
#
#
# Elastic Compliance Matrix: (Units=1/GPa)
#
#
# Indices 1 2 3 4 5 6 
#
# 1 0.021772 -0.004544 -0.008499 0.000000 0.000000 0.000000
# 2 -0.004544 0.011723 -0.004609 0.000000 0.000000 0.000000
# 3 -0.008499 -0.004609 0.021061 0.000000 0.000000 0.000000
# 4 0.000000 0.000000 0.000000 0.053192 0.000000 0.000000
# 5 0.000000 0.000000 0.000000 0.000000 0.033647 0.000000
# 6 0.000000 0.000000 0.000000 0.000000 0.000000 0.036506
#
#
# Mechanical properties :
#
#
# Convention : Reuss Voigt Hill
#
# Bulk Modulus (GPa) = 51.93930 55.47560 53.70745
# Shear Modulus (GPa) = 22.76643 24.38560 23.57602
#
# Velocity S-wave (km/s) = 3.59923 3.72502 3.66267
# Velocity P-wave (km/s) = 6.84302 7.07584 6.96040
#
# Compressibility (1/GPa) = 0.01925324
#
# Stress axis : x y z
#
# Youngs Moduli (GPa) = 45.92964 85.30563 47.48083
#
# Poissons Ratio (x) = 0.38765 0.40353
# Poissons Ratio (y) = 0.20871 0.21882
# Poissons Ratio (z) = 0.39034 0.39313
#
# Static dielectric constant tensor:
#      x y z
#    x 3.274080 0.000000 0.000000 
#    y 0.000000 3.417980 0.000000 
#    z 0.000000 0.000000 3.076110 
# 
# 
# High freq. dielectric constant tensor:
#      x y z
#    x 1.684160 0.000000 0.000000 
#    y 0.000000 1.677400 0.000000 
#    z 0.000000 0.000000 1.652910 
# 
# From -- ./inp_files/28201.got.cif
#   From: 2010.03.12/outbox.cif.g09.slc.cpg/sg51_15_cif.got.tgz:28201.got - 2010.04.16 13:43:02.
