data_PCOD8210596
_publ_section_title
;
Structure prediction by ZEFSAII (Michael W. Deem and Ramdas Pophale) SiO2 
 PCOD8210596
Probable space group: P M M A
;
_chemical_formula_sum "Si O2"
_cell_formula_units_Z 40
_cell_length_a 9.599095
_cell_length_b 12.472525
_cell_length_c 19.009840
_cell_angle_alpha 90.000000
_cell_angle_beta 90.000000
_cell_angle_gamma 90.000000
_cell_volume 2275.952188
_symmetry_space_group_name_H-M "P M M A"
_symmetry_group_IT_number 51
_symmetry_cell_setting 'orthorhombic'
loop_
_space_group_symop_operation_xyz
x,y,z
1/2-x,-y,z
1/2+x,-y,-z
-x,y,-z
-x,-y,-z
1/2+x,y,-z
1/2-x,y,z
x,-y,z
loop_
_atom_site_type_symbol
_atom_site_label
_atom_site_fract_x
_atom_site_fract_y
_atom_site_fract_z
Si Si1 0.911058 0.694358 0.329645
Si Si2 0.407049 0.000000 0.067075
Si Si3 0.088661 0.500000 0.569844
Si Si4 0.089603 0.877660 0.565856
Si Si5 0.088527 0.766976 0.070613
Si Si6 0.413577 0.624068 0.200027
O O1 0.750000 0.683869 0.307138
O O2 0.951706 0.603541 0.385249
O O3 0.944078 0.808616 0.365084
O O4 0.005399 0.684597 0.261331
O O5 0.435603 0.113808 0.106380
O O6 0.250000 0.000000 0.039538
O O7 0.500000 0.000000 0.000000
O O8 0.250000 0.500000 0.548461
O O9 0.000000 0.500000 0.500000
O O10 0.250000 0.864002 0.543841
O O11 0.000000 0.836169 0.500000
O O12 0.051945 0.000000 0.584578
O O13 0.250000 0.750996 0.050528
O O14 0.041261 0.678521 0.126844
O O15 0.000000 0.751041 0.000000
O O16 0.250000 0.638041 0.213928
O O17 0.457583 0.500000 0.196977
#
# Coordination Sequence:
#
# PCOD8210596 Si02
#       6
#     8   4   4   8   8   8
#     4  10  20  35  52  72 102 136 170 208 250 300
#     4   8  14  28  50  72  98 126 155 198 245 290
#     4  10  20  32  50  76  99 126 167 210 249 292
#     4   9  18  33  53  76 103 133 166 207 253 301
#     4   9  18  33  53  77 102 130 166 206 249 297
#     4  10  21  36  52  72 102 137 171 210 254 299
#
# _framework density 17.575061000000002
#
# number of rings (size 3 to 8) (size 9 to 14) (size 15 to 20)
#    0.000    2.600    1.000    0.600    0.000    2.800 
#    1.800    0.000    0.000    0.000    0.000    0.000 
#    0.000    0.000    0.000    0.000    0.000    0.000 
#
# Total GULP energy -495841.511037 kJ/mol
# GULP energy per Si atom -12396.037776 kJ/mol
# Density = 1.753506 g / cm^3
# Si number density = 17.575061 Si / 1000 Ang^3
#
#
#
# Elastic Constant Matrix: (Units=GPa)
#
#
# Indices 1 2 3 4 5 6 
#
# 1 57.6738 41.6673 60.4641 0.0000 0.0000 0.0000
# 2 41.6673 104.9622 64.5111 0.0000 0.0000 0.0000
# 3 60.4641 64.5111 123.5749 0.0000 0.0000 0.0000
# 4 0.0000 0.0000 0.0000 7.7550 0.0000 0.0000
# 5 0.0000 0.0000 0.0000 0.0000 35.4765 0.0000
# 6 0.0000 0.0000 0.0000 0.0000 0.0000 17.3732
#
#
#
# Elastic Compliance Matrix: (Units=1/GPa)
#
#
# Indices 1 2 3 4 5 6 
#
# 1 0.037513 -0.005316 -0.015579 0.000000 0.000000 0.000000
# 2 -0.005316 0.014782 -0.005115 0.000000 0.000000 0.000000
# 3 -0.015579 -0.005115 0.018386 0.000000 0.000000 0.000000
# 4 0.000000 0.000000 0.000000 0.128950 0.000000 0.000000
# 5 0.000000 0.000000 0.000000 0.000000 0.028188 0.000000
# 6 0.000000 0.000000 0.000000 0.000000 0.000000 0.057560
#
#
# Mechanical properties :
#
#
# Convention : Reuss Voigt Hill
#
# Bulk Modulus (GPa) = 53.59671 68.83290 61.21481
# Shear Modulus (GPa) = 14.55100 20.09216 17.32158
#
# Velocity S-wave (km/s) = 2.88051 3.38482 3.14280
# Velocity P-wave (km/s) = 6.45176 7.38418 6.93366
#
# Compressibility (1/GPa) = 0.01865786
#
# Stress axis : x y z
#
# Youngs Moduli (GPa) = 26.65752 67.65125 54.39061
#
# Poissons Ratio (x) = 0.35966 0.84737
# Poissons Ratio (y) = 0.14172 0.27823
# Poissons Ratio (z) = 0.41531 0.34606
#
# Static dielectric constant tensor:
#      x y z
#    x 3.265770 0.000000 0.000000 
#    y 0.000000 3.818540 0.000000 
#    z 0.000000 0.000000 2.739210 
# 
# 
# High freq. dielectric constant tensor:
#      x y z
#    x 1.678990 0.000000 0.000000 
#    y 0.000000 1.697940 0.000000 
#    z 0.000000 0.000000 1.656220 
# 
# From -- ./inp_files/31406.got.cif
#   From: 2010.03.12/outbox.cif.g09.slc.cpg/sg51_16_cif.got.tgz:31406.got - 2010.04.16 13:43:02.
