data_PCOD8210741
_publ_section_title
;
Structure prediction by ZEFSAII (Michael W. Deem and Ramdas Pophale) SiO2 
 PCOD8210741
Probable space group: P M M A
;
_chemical_formula_sum "Si O2"
_cell_formula_units_Z 64
_cell_length_a 19.974365
_cell_length_b 9.318971
_cell_length_c 19.798178
_cell_angle_alpha 90.000000
_cell_angle_beta 90.000000
_cell_angle_gamma 90.000000
_cell_volume 3685.243310
_symmetry_space_group_name_H-M "P M M A"
_symmetry_group_IT_number 51
_symmetry_cell_setting 'orthorhombic'
loop_
_space_group_symop_operation_xyz
x,y,z
1/2-x,-y,z
1/2+x,-y,-z
-x,y,-z
-x,-y,-z
1/2+x,y,-z
1/2-x,y,z
x,-y,z
loop_
_atom_site_type_symbol
_atom_site_label
_atom_site_fract_x
_atom_site_fract_y
_atom_site_fract_z
Si Si1 0.173797 0.332495 0.569008
Si Si2 0.171522 0.336285 0.081828
Si Si3 0.935415 0.333358 0.324226
Si Si4 0.571674 0.168387 0.827842
Si Si5 0.938354 0.331236 0.169408
Si Si6 0.566367 0.833398 0.672549
Si Si7 0.823803 0.330154 0.070602
Si Si8 0.673752 0.167760 0.563775
O O1 0.250000 0.290700 0.587164
O O2 0.166798 0.500000 0.553683
O O3 0.128513 0.285200 0.632188
O O4 0.148829 0.249432 0.502822
O O5 0.250000 0.322081 0.095715
O O6 0.147985 0.500000 0.094609
O O7 0.134453 0.228592 0.131613
O O8 0.154595 0.288637 0.005290
O O9 0.951048 0.500000 0.333354
O O10 0.919375 0.295978 0.246584
O O11 0.000252 0.249914 0.350786
O O12 0.504711 0.247328 0.852937
O O13 0.585136 0.203154 0.749451
O O14 0.564105 0.000000 0.841287
O O15 0.950579 0.500000 0.157942
O O16 0.877982 0.270545 0.123521
O O17 0.628319 0.783324 0.626550
O O18 0.550848 0.000000 0.663094
O O19 0.750000 0.265880 0.087282
O O20 0.819409 0.500000 0.076564
O O21 0.750000 0.209975 0.581642
O O22 0.666758 0.000000 0.549310
#
# Coordination Sequence:
#
# PCOD8210741 Si02
#       8
#     8   8   8   8   8   8   8   8
#     4   9  18  32  48  69  98 126 151 185 232 280
#     4   9  18  33  51  71  96 124 156 196 238 280
#     4   9  18  31  48  71  97 124 154 190 230 274
#     4  10  20  33  49  70  97 127 158 194 237 284
#     4   9  17  31  51  72  95 125 160 196 233 275
#     4   9  19  34  50  68  92 123 157 195 234 272
#     4   8  15  29  50  74  96 121 158 200 236 273
#     4   9  18  33  51  69  89 117 156 196 230 270
#
# _framework density 17.36656
#
# number of rings (size 3 to 8) (size 9 to 14) (size 15 to 20)
#    0.000    3.000    0.000    1.125    0.000    3.750 
#    0.000    9.375    0.000    2.625    0.000    3.500 
#    0.000    0.000    0.000    0.000    0.000    0.000 
#
# Total GULP energy -793614.376224 kJ/mol
# GULP energy per Si atom -12400.224629 kJ/mol
# Density = 1.732703 g / cm^3
# Si number density = 17.366560 Si / 1000 Ang^3
#
#
#
# Elastic Constant Matrix: (Units=GPa)
#
#
# Indices 1 2 3 4 5 6 
#
# 1 112.6232 44.8753 79.1329 0.0000 0.0000 0.0000
# 2 44.8753 45.2833 40.5659 0.0000 0.0000 0.0000
# 3 79.1329 40.5659 101.0068 0.0000 0.0000 0.0000
# 4 0.0000 0.0000 0.0000 23.4087 0.0000 0.0000
# 5 0.0000 0.0000 0.0000 0.0000 35.3881 0.0000
# 6 0.0000 0.0000 0.0000 0.0000 0.0000 21.3600
#
#
#
# Elastic Compliance Matrix: (Units=1/GPa)
#
#
# Indices 1 2 3 4 5 6 
#
# 1 0.022365 -0.010101 -0.013465 0.000000 0.000000 0.000000
# 2 -0.010101 0.039055 -0.007771 0.000000 0.000000 0.000000
# 3 -0.013465 -0.007771 0.023570 0.000000 0.000000 0.000000
# 4 0.000000 0.000000 0.000000 0.042719 0.000000 0.000000
# 5 0.000000 0.000000 0.000000 0.000000 0.028258 0.000000
# 6 0.000000 0.000000 0.000000 0.000000 0.000000 0.046816
#
#
# Mechanical properties :
#
#
# Convention : Reuss Voigt Hill
#
# Bulk Modulus (GPa) = 44.81187 65.34018 55.07603
# Shear Modulus (GPa) = 18.32188 22.32063 20.32126
#
# Velocity S-wave (km/s) = 3.25161 3.58895 3.42444
# Velocity P-wave (km/s) = 6.32115 7.40810 6.88610
#
# Compressibility (1/GPa) = 0.02231551
#
# Stress axis : x y z
#
# Youngs Moduli (GPa) = 44.71301 25.60470 42.42638
#
# Poissons Ratio (x) = 0.25864 0.57126
# Poissons Ratio (y) = 0.45166 0.32971
# Poissons Ratio (z) = 0.60205 0.19898
#
# Static dielectric constant tensor:
#      x y z
#    x 3.413110 0.000000 0.000000 
#    y 0.000000 3.074230 0.000000 
#    z 0.000000 0.000000 3.322200 
# 
# 
# High freq. dielectric constant tensor:
#      x y z
#    x 1.674010 0.000000 0.000000 
#    y 0.000000 1.653510 0.000000 
#    z 0.000000 0.000000 1.671010 
# 
# From -- ./inp_files/33952.got.cif
#   From: 2010.03.12/outbox.cif.g09.slc.cpg/sg51_17_cif.got.tgz:33952.got - 2010.04.16 13:43:02.
