data_PCOD8210406
_publ_section_title
;
Structure prediction by ZEFSAII (Michael W. Deem and Ramdas Pophale) SiO2 
 PCOD8210406
Probable space group: P M M A
;
_chemical_formula_sum "Si O2"
_cell_formula_units_Z 48
_cell_length_a 9.200694
_cell_length_b 9.315737
_cell_length_c 31.062594
_cell_angle_alpha 90.000000
_cell_angle_beta 90.000000
_cell_angle_gamma 90.000000
_cell_volume 2662.413621
_symmetry_space_group_name_H-M "P M M A"
_symmetry_group_IT_number 51
_symmetry_cell_setting 'orthorhombic'
loop_
_space_group_symop_operation_xyz
x,y,z
1/2-x,-y,z
1/2+x,-y,-z
-x,y,-z
-x,-y,-z
1/2+x,y,-z
1/2-x,y,z
x,-y,z
loop_
_atom_site_type_symbol
_atom_site_label
_atom_site_fract_x
_atom_site_fract_y
_atom_site_fract_z
Si Si1 0.913079 0.828679 0.124272
Si Si2 0.585509 0.670985 0.541399
Si Si3 0.589030 0.829576 0.795139
Si Si4 0.418467 0.167540 0.301286
Si Si5 0.585798 0.171130 0.958485
Si Si6 0.081918 0.668563 0.625570
O O1 0.750000 0.769107 0.119874
O O2 0.979809 0.768158 0.168869
O O3 0.007108 0.770392 0.084315
O O4 0.913331 0.000000 0.124381
O O5 0.500000 0.731973 0.500000
O O6 0.750000 0.730482 0.540976
O O7 0.585374 0.500000 0.540179
O O8 0.505059 0.726765 0.584129
O O9 0.750000 0.768021 0.804502
O O10 0.538614 0.785197 0.747248
O O11 0.595406 0.000000 0.797832
O O12 0.250000 0.203932 0.310378
O O13 0.521953 0.255879 0.332221
O O14 0.447880 0.000000 0.308409
O O15 0.750000 0.230511 0.959554
O O16 0.586267 0.000000 0.958674
O O17 0.500000 0.230091 0.000000
O O18 0.250000 0.707625 0.619126
O O19 0.058535 0.500000 0.631283
#
# Coordination Sequence:
#
# PCOD8210406 Si02
#       6
#     8   8   8   8   8   8
#     4   9  15  21  30  45  64  87 119 159 201 246
#     4   9  16  27  45  68  93 120 150 185 223 262
#     4   8  14  25  39  54  73  98 130 169 211 253
#     4   9  18  32  49  68  90 118 153 191 230 272
#     4   9  15  21  28  38  55  81 114 154 200 247
#     4  10  20  32  47  70  98 125 154 187 223 266
#
# _framework density 18.028755
#
# number of rings (size 3 to 8) (size 9 to 14) (size 15 to 20)
#    0.000    3.000    0.000    3.000    0.000    8.000 
#    0.000    1.667    0.000    0.500    0.000    0.000 
#    0.000    0.000    0.000    0.000    0.000    0.833 
#
# Total GULP energy -595061.962143 kJ/mol
# GULP energy per Si atom -12397.124211 kJ/mol
# Density = 1.798772 g / cm^3
# Si number density = 18.028755 Si / 1000 Ang^3
#
#
#
# Elastic Constant Matrix: (Units=GPa)
#
#
# Indices 1 2 3 4 5 6 
#
# 1 171.1173 21.0431 107.1380 0.0000 0.0000 0.0000
# 2 21.0431 9.8785 20.3836 0.0000 0.0000 0.0000
# 3 107.1380 20.3836 176.6214 0.0000 0.0000 0.0000
# 4 0.0000 0.0000 0.0000 -14.8562 0.0000 0.0000
# 5 0.0000 0.0000 0.0000 0.0000 42.9413 0.0000
# 6 0.0000 0.0000 0.0000 0.0000 0.0000 13.8119
#
#
#
# Elastic Compliance Matrix: (Units=1/GPa)
#
#
# Indices 1 2 3 4 5 6 
#
# 1 0.010404 -0.011997 -0.004926 0.000000 0.000000 0.000000
# 2 -0.011997 0.146706 -0.009654 0.000000 0.000000 0.000000
# 3 -0.004926 -0.009654 0.009764 0.000000 0.000000 0.000000
# 4 0.000000 0.000000 0.000000 -0.067312 0.000000 0.000000
# 5 0.000000 0.000000 0.000000 0.000000 0.023288 0.000000
# 6 0.000000 0.000000 0.000000 0.000000 0.000000 0.072401
#
#
# Mechanical properties :
#
#
# Convention : Reuss Voigt Hill
#
# Bulk Modulus (GPa) = 8.79355 72.74961 40.77158
# Shear Modulus (GPa) = 17.46353 22.31624 19.88988
#
# Velocity S-wave (km/s) = 3.11569 3.52207 3.32510
# Velocity P-wave (km/s) = 4.22273 7.54848 6.11601
#
# Compressibility (1/GPa) = 0.11371978
#
# Stress axis : x y z
#
# Youngs Moduli (GPa) = 96.12036 6.81637 102.41461
#
# Poissons Ratio (x) = 0.08177 0.50452
# Poissons Ratio (y) = 1.15313 0.98870
# Poissons Ratio (z) = 0.47352 0.06580
#
# Static dielectric constant tensor:
#      x y z
#    x 3.558950 0.000000 0.000000 
#    y 0.000000 2.548100 0.000000 
#    z 0.000000 0.000000 3.596570 
# 
# 
# High freq. dielectric constant tensor:
#      x y z
#    x 1.710920 0.000000 0.000000 
#    y 0.000000 1.609310 0.000000 
#    z 0.000000 0.000000 1.718030 
# 
# From -- ./inp_files/36136.got.cif
#   From: 2010.03.12/outbox.cif.g09.slc.cpg/sg51_19_cif.got.tgz:36136.got - 2010.04.16 13:43:02.
