data_PCOD8210944
_publ_section_title
;
Structure prediction by ZEFSAII (Michael W. Deem and Ramdas Pophale) SiO2 
 PCOD8210944
Probable space group: P M M A
;
_chemical_formula_sum "Si O2"
_cell_formula_units_Z 48
_cell_length_a 9.659972
_cell_length_b 9.122522
_cell_length_c 30.929038
_cell_angle_alpha 90.000000
_cell_angle_beta 90.000000
_cell_angle_gamma 90.000000
_cell_volume 2725.569114
_symmetry_space_group_name_H-M "P M M A"
_symmetry_group_IT_number 51
_symmetry_cell_setting 'orthorhombic'
loop_
_space_group_symop_operation_xyz
x,y,z
1/2-x,-y,z
1/2+x,-y,-z
-x,y,-z
-x,-y,-z
1/2+x,y,-z
1/2-x,y,z
x,-y,z
loop_
_atom_site_type_symbol
_atom_site_label
_atom_site_fract_x
_atom_site_fract_y
_atom_site_fract_z
Si Si1 0.584867 0.836525 0.632536
Si Si2 0.590502 0.831546 0.040427
Si Si3 0.414564 0.664012 0.285559
Si Si4 0.911703 0.828526 0.800016
Si Si5 0.595876 0.174951 0.537768
Si Si6 0.589394 0.328875 0.127796
O O1 0.750000 0.841607 0.633806
O O2 0.524929 0.732330 0.670115
O O3 0.538893 0.777029 0.585155
O O4 0.526337 0.000000 0.640510
O O5 0.750000 0.811029 0.027560
O O6 0.549598 0.730485 0.080647
O O7 0.557811 0.000000 0.052556
O O8 0.500000 0.778710 0.000000
O O9 0.250000 0.662528 0.287879
O O10 0.473628 0.500000 0.280362
O O11 0.463964 0.760446 0.245092
O O12 0.750000 0.796141 0.807612
O O13 0.996559 0.755291 0.838094
O O14 0.943159 0.000000 0.798817
O O15 0.500000 0.241139 0.500000
O O16 0.750000 0.237151 0.530270
O O17 0.598402 0.000000 0.536123
O O18 0.750000 0.297208 0.137955
O O19 0.554887 0.500000 0.129754
#
# Coordination Sequence:
#
# PCOD8210944 Si02
#       6
#     8   8   8   8   8   8
#     4   8  13  22  37  57  81 110 145 183 223 269
#     4   9  18  33  52  73  98 129 165 203 240 279
#     4   9  16  26  42  65  92 119 149 189 234 277
#     4  10  20  33  51  75 100 126 159 200 243 285
#     4   8  13  21  35  56  80 106 138 177 219 262
#     4  10  21  36  53  74 102 135 167 198 237 287
#
# _framework density 17.611001000000002
#
# number of rings (size 3 to 8) (size 9 to 14) (size 15 to 20)
#    0.000    3.000    0.000    2.500    0.000    5.000 
#    0.000    1.667    0.000    1.500    0.000    2.333 
#    0.000    0.000    0.000    0.000    0.000    0.000 
#
# Total GULP energy -595064.526340 kJ/mol
# GULP energy per Si atom -12397.177632 kJ/mol
# Density = 1.757092 g / cm^3
# Si number density = 17.611001 Si / 1000 Ang^3
#
#
#
# Elastic Constant Matrix: (Units=GPa)
#
#
# Indices 1 2 3 4 5 6 
#
# 1 46.5113 38.5919 64.3605 0.0000 0.0000 0.0000
# 2 38.5919 106.2919 82.6940 0.0000 0.0000 0.0000
# 3 64.3605 82.6940 178.5022 0.0000 0.0000 0.0000
# 4 0.0000 0.0000 0.0000 4.8941 0.0000 0.0000
# 5 0.0000 0.0000 0.0000 0.0000 27.2747 0.0000
# 6 0.0000 0.0000 0.0000 0.0000 0.0000 15.6931
#
#
#
# Elastic Compliance Matrix: (Units=1/GPa)
#
#
# Indices 1 2 3 4 5 6 
#
# 1 0.045100 -0.005822 -0.013564 0.000000 0.000000 0.000000
# 2 -0.005822 0.015461 -0.005063 0.000000 0.000000 0.000000
# 3 -0.013564 -0.005063 0.012839 0.000000 0.000000 0.000000
# 4 0.000000 0.000000 0.000000 0.204329 0.000000 0.000000
# 5 0.000000 0.000000 0.000000 0.000000 0.036664 0.000000
# 6 0.000000 0.000000 0.000000 0.000000 0.000000 0.063722
#
#
# Mechanical properties :
#
#
# Convention : Reuss Voigt Hill
#
# Bulk Modulus (GPa) = 40.81485 78.06648 59.44067
# Shear Modulus (GPa) = 11.48945 19.28298 15.38622
#
# Velocity S-wave (km/s) = 2.55699 3.31258 2.95900
# Velocity P-wave (km/s) = 5.65187 7.68475 6.74533
#
# Compressibility (1/GPa) = 0.02450088
#
# Stress axis : x y z
#
# Youngs Moduli (GPa) = 22.17271 64.67799 77.88994
#
# Poissons Ratio (x) = 0.37655 1.05652
# Poissons Ratio (y) = 0.12909 0.39439
# Poissons Ratio (z) = 0.30076 0.32750
#
# Static dielectric constant tensor:
#      x y z
#    x 2.964300 0.000000 0.000000 
#    y 0.000000 3.262150 0.000000 
#    z 0.000000 0.000000 3.552530 
# 
# 
# High freq. dielectric constant tensor:
#      x y z
#    x 1.637030 0.000000 0.000000 
#    y 0.000000 1.669130 0.000000 
#    z 0.000000 0.000000 1.697130 
# 
# From -- ./inp_files/36503.got.cif
#   From: 2010.03.12/outbox.cif.g09.slc.cpg/sg51_19_cif.got.tgz:36503.got - 2010.04.16 13:43:02.
