data_PCOD8210560
_publ_section_title
;
Structure prediction by ZEFSAII (Michael W. Deem and Ramdas Pophale) SiO2 
 PCOD8210560
Probable space group: P M M A
;
_chemical_formula_sum "Si O2"
_cell_formula_units_Z 56
_cell_length_a 9.170475
_cell_length_b 14.356286
_cell_length_c 23.138167
_cell_angle_alpha 90.000000
_cell_angle_beta 90.000000
_cell_angle_gamma 90.000000
_cell_volume 3046.231356
_symmetry_space_group_name_H-M "P M M A"
_symmetry_group_IT_number 51
_symmetry_cell_setting 'orthorhombic'
loop_
_space_group_symop_operation_xyz
x,y,z
1/2-x,-y,z
1/2+x,-y,-z
-x,y,-z
-x,-y,-z
1/2+x,y,-z
1/2-x,y,z
x,-y,z
loop_
_atom_site_type_symbol
_atom_site_label
_atom_site_fract_x
_atom_site_fract_y
_atom_site_fract_z
Si Si1 0.082671 0.285914 0.557370
Si Si2 0.579745 0.393797 0.787305
Si Si3 0.082906 0.891405 0.265180
Si Si4 0.920744 0.106202 0.057898
Si Si5 0.084263 0.895719 0.620044
Si Si6 0.414630 0.609268 0.345090
Si Si7 0.077280 0.223148 0.831595
O O1 0.250000 0.312533 0.548578
O O2 0.060059 0.175374 0.567249
O O3 0.000000 0.318126 0.500000
O O4 0.026479 0.339546 0.613404
O O5 0.750000 0.381760 0.800568
O O6 0.531132 0.500000 0.799003
O O7 0.546476 0.365550 0.721021
O O8 0.487901 0.327314 0.829655
O O9 0.250000 0.857971 0.260829
O O10 0.026146 0.868634 0.329105
O O11 0.985378 0.836518 0.220469
O O12 0.066804 0.000000 0.251353
O O13 0.750000 0.113877 0.046904
O O14 0.971641 0.174181 0.109045
O O15 0.965134 0.000000 0.073705
O O16 0.000000 0.139918 0.000000
O O17 0.250000 0.888045 0.643648
O O18 0.052011 0.000000 0.597110
O O19 0.250000 0.641562 0.359194
O O20 0.430082 0.500000 0.354958
O O21 0.250000 0.227492 0.825813
#
# Coordination Sequence:
#
# PCOD8210560 Si02
#       7
#     8   8   8   8   8   8   8
#     4  11  23  36  52  74  98 128 166 207 251 301
#     4   9  19  36  57  81 108 137 170 211 259 309
#     4  10  20  32  49  76 106 136 171 209 253 308
#     4   9  19  35  53  75 106 144 183 220 258 300
#     4   9  19  36  54  72  98 131 166 207 256 306
#     4   9  19  37  58  77 100 130 162 202 254 306
#     4  11  21  32  51  79 110 142 174 213 261 310
#
# _framework density 18.383371
#
# number of rings (size 3 to 8) (size 9 to 14) (size 15 to 20)
#    0.000    2.286    0.000    3.429    0.000    7.714 
#    0.000    2.857    0.000    0.429    0.000    0.000 
#    0.000    0.000    0.000    0.000    0.000    0.000 
#
# Total GULP energy -694507.116153 kJ/mol
# GULP energy per Si atom -12401.912788 kJ/mol
# Density = 1.834153 g / cm^3
# Si number density = 18.383371 Si / 1000 Ang^3
#
#
#
# Elastic Constant Matrix: (Units=GPa)
#
#
# Indices 1 2 3 4 5 6 
#
# 1 82.8930 49.4660 46.3414 0.0000 0.0000 0.0000
# 2 49.4660 74.4432 59.3333 0.0000 0.0000 0.0000
# 3 46.3414 59.3333 78.8921 0.0000 0.0000 0.0000
# 4 0.0000 0.0000 0.0000 24.6407 0.0000 0.0000
# 5 0.0000 0.0000 0.0000 0.0000 30.6365 0.0000
# 6 0.0000 0.0000 0.0000 0.0000 0.0000 32.0251
#
#
#
# Elastic Compliance Matrix: (Units=1/GPa)
#
#
# Indices 1 2 3 4 5 6 
#
# 1 0.020614 -0.010102 -0.004511 0.000000 0.000000 0.000000
# 2 -0.010102 0.038486 -0.023010 0.000000 0.000000 0.000000
# 3 -0.004511 -0.023010 0.032631 0.000000 0.000000 0.000000
# 4 0.000000 0.000000 0.000000 0.040583 0.000000 0.000000
# 5 0.000000 0.000000 0.000000 0.000000 0.032641 0.000000
# 6 0.000000 0.000000 0.000000 0.000000 0.000000 0.031225
#
#
# Mechanical properties :
#
#
# Convention : Reuss Voigt Hill
#
# Bulk Modulus (GPa) = 60.66649 60.72330 60.69490
# Shear Modulus (GPa) = 18.05564 22.86629 20.46097
#
# Velocity S-wave (km/s) = 3.13736 3.53066 3.33981
# Velocity P-wave (km/s) = 6.79680 7.05153 6.92534
#
# Compressibility (1/GPa) = 0.01648356
#
# Stress axis : x y z
#
# Youngs Moduli (GPa) = 48.51041 25.98378 30.64575
#
# Poissons Ratio (x) = 0.26249 0.13825
# Poissons Ratio (y) = 0.49006 0.70517
# Poissons Ratio (z) = 0.21884 0.59789
#
# Static dielectric constant tensor:
#      x y z
#    x 3.422640 0.000000 0.000000 
#    y 0.000000 3.524020 0.000000 
#    z 0.000000 0.000000 3.214700 
# 
# 
# High freq. dielectric constant tensor:
#      x y z
#    x 1.717110 0.000000 0.000000 
#    y 0.000000 1.719350 0.000000 
#    z 0.000000 0.000000 1.691570 
# 
# From -- ./inp_files/31905.got.cif
#   From: 2010.03.12/outbox.cif.g09.slc.cpg/sg51_16_cif.got.tgz:31905.got - 2010.04.16 13:43:02.
