data_PCOD8210534
_publ_section_title
;
Structure prediction by ZEFSAII (Michael W. Deem and Ramdas Pophale) SiO2 
 PCOD8210534
Probable space group: P M M A
;
_chemical_formula_sum "Si O2"
_cell_formula_units_Z 44
_cell_length_a 9.323118
_cell_length_b 17.880536
_cell_length_c 14.083863
_cell_angle_alpha 90.000000
_cell_angle_beta 90.000000
_cell_angle_gamma 90.000000
_cell_volume 2347.813017
_symmetry_space_group_name_H-M "P M M A"
_symmetry_group_IT_number 51
_symmetry_cell_setting 'orthorhombic'
loop_
_space_group_symop_operation_xyz
x,y,z
1/2-x,-y,z
1/2+x,-y,-z
-x,y,-z
-x,-y,-z
1/2+x,y,-z
1/2-x,y,z
x,-y,z
loop_
_atom_site_type_symbol
_atom_site_label
_atom_site_fract_x
_atom_site_fract_y
_atom_site_fract_z
Si Si1 0.916165 0.361846 0.227567
Si Si2 0.583350 0.224251 0.094032
Si Si3 0.417030 0.500000 0.902520
Si Si4 0.421090 0.082786 0.793576
Si Si5 0.092295 0.088310 0.585079
Si Si6 0.917627 0.587157 0.595126
O O1 0.750000 0.370955 0.257631
O O2 0.945569 0.283314 0.176932
O O3 0.962187 0.427175 0.156123
O O4 0.015446 0.364521 0.320004
O O5 0.750000 0.220988 0.067791
O O6 0.525711 0.143612 0.130248
O O7 0.500000 0.248180 0.000000
O O8 0.250000 0.500000 0.926729
O O9 0.500000 0.500000 0.000000
O O10 0.250000 0.082340 0.786819
O O11 0.478733 0.104484 0.688266
O O12 0.476669 0.000000 0.823825
O O13 0.250000 0.124941 0.579020
O O14 0.000000 0.124565 0.500000
O O15 0.104792 0.000000 0.570786
O O16 0.750000 0.605743 0.583997
O O17 0.943271 0.500000 0.617336
O O18 0.000000 0.610774 0.500000
#
# Coordination Sequence:
#
# PCOD8210534 Si02
#       6
#     8   8   4   8   8   8
#     4  10  20  35  53  75 106 141 176 216 261 312
#     4  10  21  36  54  75 101 136 175 220 273 321
#     4  10  20  32  49  72  99 132 171 216 260 304
#     4   8  15  30  51  73  99 134 174 213 260 320
#     4   8  13  23  42  67  93 121 153 191 238 293
#     4  10  20  34  56  84 111 142 178 216 257 306
#
# _framework density 18.740843999999999
#
# number of rings (size 3 to 8) (size 9 to 14) (size 15 to 20)
#    0.000    2.727    0.909    2.182    0.000    2.545 
#    0.000    1.818    0.000    3.273    0.000    0.000 
#    0.000    0.000    0.000    0.000    0.000    0.000 
#
# Total GULP energy -545517.491633 kJ/mol
# GULP energy per Si atom -12398.124810 kJ/mol
# Density = 1.869819 g / cm^3
# Si number density = 18.740844 Si / 1000 Ang^3
#
#
#
# Elastic Constant Matrix: (Units=GPa)
#
#
# Indices 1 2 3 4 5 6 
#
# 1 77.5588 32.4312 67.1762 0.0000 0.0000 0.0000
# 2 32.4312 83.8680 44.1907 0.0000 0.0000 0.0000
# 3 67.1762 44.1907 130.2585 0.0000 0.0000 0.0000
# 4 0.0000 0.0000 0.0000 19.7774 0.0000 0.0000
# 5 0.0000 0.0000 0.0000 0.0000 38.2058 0.0000
# 6 0.0000 0.0000 0.0000 0.0000 0.0000 10.6702
#
#
#
# Elastic Compliance Matrix: (Units=1/GPa)
#
#
# Indices 1 2 3 4 5 6 
#
# 1 0.024058 -0.003368 -0.011265 0.000000 0.000000 0.000000
# 2 -0.003368 0.014990 -0.003349 0.000000 0.000000 0.000000
# 3 -0.011265 -0.003349 0.014623 0.000000 0.000000 0.000000
# 4 0.000000 0.000000 0.000000 0.050563 0.000000 0.000000
# 5 0.000000 0.000000 0.000000 0.000000 0.026174 0.000000
# 6 0.000000 0.000000 0.000000 0.000000 0.000000 0.093719
#
#
# Mechanical properties :
#
#
# Convention : Reuss Voigt Hill
#
# Bulk Modulus (GPa) = 56.46921 64.36461 60.41691
# Shear Modulus (GPa) = 18.79755 23.58983 21.19369
#
# Velocity S-wave (km/s) = 3.17049 3.55172 3.36651
# Velocity P-wave (km/s) = 6.60301 7.15812 6.88616
#
# Compressibility (1/GPa) = 0.01770877
#
# Stress axis : x y z
#
# Youngs Moduli (GPa) = 41.56541 66.71002 68.38773
#
# Poissons Ratio (x) = 0.22466 0.77037
# Poissons Ratio (y) = 0.13998 0.22901
# Poissons Ratio (z) = 0.46822 0.22339
#
# Static dielectric constant tensor:
#      x y z
#    x 3.399130 0.000000 0.000000 
#    y 0.000000 3.391140 0.000000 
#    z 0.000000 0.000000 3.451530 
# 
# 
# High freq. dielectric constant tensor:
#      x y z
#    x 1.702740 0.000000 0.000000 
#    y 0.000000 1.709890 0.000000 
#    z 0.000000 0.000000 1.734720 
# 
# From -- ./inp_files/20962.got.cif
#   From: 2010.03.12/outbox.cif.g09.slc.cpg/sg51_11_cif.got.tgz:20962.got - 2010.04.16 13:43:02.
