data_PCOD8210327
_publ_section_title
;
Structure prediction by ZEFSAII (Michael W. Deem and Ramdas Pophale) SiO2 
 PCOD8210327
Probable space group: P M M A
;
_chemical_formula_sum "Si O2"
_cell_formula_units_Z 40
_cell_length_a 18.740525
_cell_length_b 9.196292
_cell_length_c 13.576783
_cell_angle_alpha 90.000000
_cell_angle_beta 90.000000
_cell_angle_gamma 90.000000
_cell_volume 2339.868130
_symmetry_space_group_name_H-M "P M M A"
_symmetry_group_IT_number 51
_symmetry_cell_setting 'orthorhombic'
loop_
_space_group_symop_operation_xyz
x,y,z
1/2-x,-y,z
1/2+x,-y,-z
-x,y,-z
-x,-y,-z
1/2+x,y,-z
1/2-x,y,z
x,-y,z
loop_
_atom_site_type_symbol
_atom_site_label
_atom_site_fract_x
_atom_site_fract_y
_atom_site_fract_z
Si Si1 0.471376 0.162162 0.283131
Si Si2 0.329410 0.830159 0.836427
Si Si3 0.033991 0.331952 0.893819
Si Si4 0.373742 0.840140 0.627095
Si Si5 0.920907 0.663004 0.544265
O O1 0.482295 0.250314 0.182318
O O2 0.544536 0.149607 0.341390
O O3 0.416159 0.246593 0.353985
O O4 0.442121 0.000000 0.259396
O O5 0.250000 0.801926 0.879152
O O6 0.386638 0.736459 0.896842
O O7 0.329282 0.783244 0.721223
O O8 0.350939 0.000000 0.844259
O O9 0.040086 0.500000 0.862411
O O10 0.000000 0.313133 0.000000
O O11 0.365921 0.732078 0.534782
O O12 0.346712 0.000000 0.594550
O O13 0.895298 0.500000 0.566678
O O14 0.000000 0.662923 0.500000
#
# Coordination Sequence:
#
# PCOD8210327 Si02
#       5
#     8   8   8   8   8
#     4   9  16  26  41  60  84 115 149 185 225 268
#     4   9  18  32  49  69  93 122 156 193 234 283
#     4  10  20  32  46  67  95 124 156 198 246 290
#     4   8  14  24  38  58  85 114 143 176 215 261
#     4   9  15  22  35  57  85 114 142 172 208 254
#
# _framework density 17.09498
#
# number of rings (size 3 to 8) (size 9 to 14) (size 15 to 20)
#    0.000    3.000    0.000    3.000    0.000    9.200 
#    0.000    0.000    0.000    0.000    0.000    1.400 
#    0.000    8.000    0.000    0.000    0.000    0.000 
#
# Total GULP energy -495784.337924 kJ/mol
# GULP energy per Si atom -12394.608448 kJ/mol
# Density = 1.705607 g / cm^3
# Si number density = 17.094980 Si / 1000 Ang^3
#
#
#
# Elastic Constant Matrix: (Units=GPa)
#
#
# Indices 1 2 3 4 5 6 
#
# 1 43.5930 34.4765 28.5440 0.0000 0.0000 0.0000
# 2 34.4765 141.3538 65.8192 0.0000 0.0000 0.0000
# 3 28.5440 65.8192 85.1796 0.0000 0.0000 0.0000
# 4 0.0000 0.0000 0.0000 29.6081 0.0000 0.0000
# 5 0.0000 0.0000 0.0000 0.0000 12.5837 0.0000
# 6 0.0000 0.0000 0.0000 0.0000 0.0000 11.1001
#
#
#
# Elastic Compliance Matrix: (Units=1/GPa)
#
#
# Indices 1 2 3 4 5 6 
#
# 1 0.030938 -0.004246 -0.007086 0.000000 0.000000 0.000000
# 2 -0.004246 0.011633 -0.007566 0.000000 0.000000 0.000000
# 3 -0.007086 -0.007566 0.019961 0.000000 0.000000 0.000000
# 4 0.000000 0.000000 0.000000 0.033775 0.000000 0.000000
# 5 0.000000 0.000000 0.000000 0.000000 0.079468 0.000000
# 6 0.000000 0.000000 0.000000 0.000000 0.000000 0.090089
#
#
# Mechanical properties :
#
#
# Convention : Reuss Voigt Hill
#
# Bulk Modulus (GPa) = 40.42918 58.64507 49.53712
# Shear Modulus (GPa) = 16.03051 20.07750 18.05400
#
# Velocity S-wave (km/s) = 3.06556 3.43077 3.25329
# Velocity P-wave (km/s) = 6.01925 7.07626 6.56905
#
# Compressibility (1/GPa) = 0.02473461
#
# Stress axis : x y z
#
# Youngs Moduli (GPa) = 32.32310 85.96117 50.09768
#
# Poissons Ratio (x) = 0.36500 0.35501
# Poissons Ratio (y) = 0.13725 0.37905
# Poissons Ratio (z) = 0.22905 0.65040
#
# Static dielectric constant tensor:
#      x y z
#    x 2.853070 0.000000 0.000000 
#    y 0.000000 3.467990 0.000000 
#    z 0.000000 0.000000 3.091350 
# 
# 
# High freq. dielectric constant tensor:
#      x y z
#    x 1.602470 0.000000 0.000000 
#    y 0.000000 1.672480 0.000000 
#    z 0.000000 0.000000 1.643920 
# 
# From -- ./inp_files/17883.got.cif
#   From: 2010.03.12/outbox.cif.g09.slc.cpg/sg51_9_cif.got.tgz:17883.got - 2010.04.16 13:43:02.
