data_PCOD8210763
_publ_section_title
;
Structure prediction by ZEFSAII (Michael W. Deem and Ramdas Pophale) SiO2 
 PCOD8210763
Probable space group: P M M A
;
_chemical_formula_sum "Si O2"
_cell_formula_units_Z 56
_cell_length_a 17.900173
_cell_length_b 8.859688
_cell_length_c 19.513980
_cell_angle_alpha 90.000000
_cell_angle_beta 90.000000
_cell_angle_gamma 90.000000
_cell_volume 3094.721072
_symmetry_space_group_name_H-M "P M M A"
_symmetry_group_IT_number 51
_symmetry_cell_setting 'orthorhombic'
loop_
_space_group_symop_operation_xyz
x,y,z
1/2-x,-y,z
1/2+x,-y,-z
-x,y,-z
-x,-y,-z
1/2+x,y,-z
1/2-x,y,z
x,-y,z
loop_
_atom_site_type_symbol
_atom_site_label
_atom_site_fract_x
_atom_site_fract_y
_atom_site_fract_z
Si Si1 0.529231 0.677658 0.155865
Si Si2 0.831875 0.174019 0.516855
Si Si3 0.164326 0.323100 0.941383
Si Si4 0.836100 0.677956 0.656169
Si Si5 0.964035 0.174119 0.431686
Si Si6 0.430461 0.831460 0.050090
Si Si7 0.974523 0.820532 0.710258
O O1 0.524735 0.500000 0.165287
O O2 0.607644 0.725281 0.119646
O O3 0.455804 0.730399 0.114182
O O4 0.525948 0.757473 0.229144
O O5 0.750000 0.233847 0.499884
O O6 0.864402 0.267159 0.581302
O O7 0.875908 0.196142 0.445481
O O8 0.833505 0.000000 0.540114
O O9 0.250000 0.278939 0.922399
O O10 0.156828 0.500000 0.955135
O O11 0.140807 0.240626 0.011778
O O12 0.750000 0.727956 0.668710
O O13 0.844806 0.500000 0.661916
O O14 0.889547 0.756609 0.712725
O O15 0.000000 0.248790 0.500000
O O16 0.987405 0.245499 0.359361
O O17 0.989114 0.000000 0.428721
O O18 0.409075 0.000000 0.075012
O O19 0.500000 0.837860 0.000000
O O20 0.973660 0.000000 0.715000
#
# Coordination Sequence:
#
# PCOD8210763 Si02
#       7
#     8   8   8   8   8   8   8
#     4  10  20  35  54  77 109 145 180 216 259 311
#     4   9  16  29  50  71  92 124 166 210 259 314
#     4   9  18  34  57  83 110 144 181 213 251 302
#     4  10  20  33  49  71  98 125 159 209 267 322
#     4   9  16  29  48  72  98 126 167 219 265 309
#     4   9  17  31  53  80 107 134 169 211 253 297
#     4  11  21  34  53  74 102 139 179 220 266 319
#
# _framework density 18.095329
#
# number of rings (size 3 to 8) (size 9 to 14) (size 15 to 20)
#    0.000    2.429    1.429    1.714    0.000    3.429 
#    0.000    3.571    0.000    5.143    0.000    0.000 
#    0.000    0.000    0.000    0.000    0.000    0.000 
#
# Total GULP energy -694035.862310 kJ/mol
# GULP energy per Si atom -12393.497541 kJ/mol
# Density = 1.805414 g / cm^3
# Si number density = 18.095329 Si / 1000 Ang^3
#
#
#
# Elastic Constant Matrix: (Units=GPa)
#
#
# Indices 1 2 3 4 5 6 
#
# 1 105.2047 36.1764 58.6938 0.0000 0.0000 0.0000
# 2 36.1764 69.2042 36.6078 0.0000 0.0000 0.0000
# 3 58.6938 36.6078 109.4995 0.0000 0.0000 0.0000
# 4 0.0000 0.0000 0.0000 19.9643 0.0000 0.0000
# 5 0.0000 0.0000 0.0000 0.0000 24.4450 0.0000
# 6 0.0000 0.0000 0.0000 0.0000 0.0000 20.9970
#
#
#
# Elastic Compliance Matrix: (Units=1/GPa)
#
#
# Indices 1 2 3 4 5 6 
#
# 1 0.014507 -0.004216 -0.006367 0.000000 0.000000 0.000000
# 2 -0.004216 0.018780 -0.004019 0.000000 0.000000 0.000000
# 3 -0.006367 -0.004019 0.013889 0.000000 0.000000 0.000000
# 4 0.000000 0.000000 0.000000 0.050089 0.000000 0.000000
# 5 0.000000 0.000000 0.000000 0.000000 0.040908 0.000000
# 6 0.000000 0.000000 0.000000 0.000000 0.000000 0.047626
#
#
# Mechanical properties :
#
#
# Convention : Reuss Voigt Hill
#
# Bulk Modulus (GPa) = 55.63856 60.76272 58.20064
# Shear Modulus (GPa) = 22.62533 23.24327 22.93430
#
# Velocity S-wave (km/s) = 3.53985 3.58787 3.56394
# Velocity P-wave (km/s) = 6.89359 7.12852 7.01204
#
# Compressibility (1/GPa) = 0.01797315
#
# Stress axis : x y z
#
# Youngs Moduli (GPa) = 68.93320 53.24944 72.00155
#
# Poissons Ratio (x) = 0.22448 0.45840
# Poissons Ratio (y) = 0.29060 0.28935
# Poissons Ratio (z) = 0.43887 0.21399
#
# Static dielectric constant tensor:
#      x y z
#    x 3.520780 0.000000 0.000000 
#    y 0.000000 3.266060 0.000000 
#    z 0.000000 0.000000 3.316390 
# 
# 
# High freq. dielectric constant tensor:
#      x y z
#    x 1.699980 0.000000 0.000000 
#    y 0.000000 1.690900 0.000000 
#    z 0.000000 0.000000 1.680820 
# 
# From -- ./inp_files/33725.got.cif
#   From: 2010.03.12/outbox.cif.g09.slc.cpg/sg51_17_cif.got.tgz:33725.got - 2010.04.16 13:43:02.
