data_PCOD8210467
_publ_section_title
;
Structure prediction by ZEFSAII (Michael W. Deem and Ramdas Pophale) SiO2 
 PCOD8210467
Probable space group: P M M A
;
_chemical_formula_sum "Si O2"
_cell_formula_units_Z 48
_cell_length_a 8.791116
_cell_length_b 23.308527
_cell_length_c 13.736200
_cell_angle_alpha 90.000000
_cell_angle_beta 90.000000
_cell_angle_gamma 90.000000
_cell_volume 2814.656784
_symmetry_space_group_name_H-M "P M M A"
_symmetry_group_IT_number 51
_symmetry_cell_setting 'orthorhombic'
loop_
_space_group_symop_operation_xyz
x,y,z
1/2-x,-y,z
1/2+x,-y,-z
-x,y,-z
-x,-y,-z
1/2+x,y,-z
1/2-x,y,z
x,-y,z
loop_
_atom_site_type_symbol
_atom_site_label
_atom_site_fract_x
_atom_site_fract_y
_atom_site_fract_z
Si Si1 0.071795 0.564687 0.399341
Si Si2 0.928645 0.732162 0.101274
Si Si3 0.070341 0.222699 0.604404
Si Si4 0.924956 0.662131 0.288434
Si Si5 0.073140 0.933573 0.896990
Si Si6 0.930473 0.164969 0.785084
O O1 0.250000 0.567300 0.412064
O O2 0.016394 0.500000 0.375770
O O3 0.000000 0.586915 0.500000
O O4 0.022819 0.605866 0.311387
O O5 0.750000 0.744106 0.091265
O O6 0.960708 0.681623 0.178506
O O7 0.007654 0.790638 0.134883
O O8 0.000000 0.711496 0.000000
O O9 0.250000 0.212953 0.603214
O O10 0.029353 0.287037 0.637840
O O11 0.000000 0.210569 0.500000
O O12 0.996709 0.177899 0.678790
O O13 0.750000 0.645672 0.301291
O O14 0.250000 0.916985 0.900166
O O15 0.986993 0.898212 0.813631
O O16 0.048584 0.000000 0.871666
O O17 0.000000 0.917637 0.000000
O O18 0.750000 0.167901 0.782174
#
# Coordination Sequence:
#
# PCOD8210467 Si02
#       6
#     8   8   8   8   8   8
#     4  10  20  32  48  71  98 128 161 198 240 287
#     4  10  20  34  51  73 100 129 163 201 244 292
#     4  10  20  34  51  74 102 130 164 202 244 292
#     4   9  19  33  50  72  98 128 160 198 241 287
#     4  10  20  34  52  74 101 132 165 203 246 291
#     4  11  21  33  51  74 101 133 166 201 243 289
#
# _framework density 17.053588999999999
#
# number of rings (size 3 to 8) (size 9 to 14) (size 15 to 20)
#    0.000    2.000    0.000    5.500    0.000    7.333 
#    0.000    0.000    0.000    1.000    0.000    0.000 
#    0.000    0.000    0.000    0.000    0.000    0.000 
#
# Total GULP energy -595392.264680 kJ/mol
# GULP energy per Si atom -12404.005514 kJ/mol
# Density = 1.701477 g / cm^3
# Si number density = 17.053589 Si / 1000 Ang^3
#
#
#
# Elastic Constant Matrix: (Units=GPa)
#
#
# Indices 1 2 3 4 5 6 
#
# 1 113.6083 51.2305 59.4696 0.0000 0.0000 0.0000
# 2 51.2305 90.5236 60.7847 0.0000 0.0000 0.0000
# 3 59.4696 60.7847 130.8338 0.0000 0.0000 0.0000
# 4 0.0000 0.0000 0.0000 8.1420 0.0000 0.0000
# 5 0.0000 0.0000 0.0000 0.0000 34.2252 0.0000
# 6 0.0000 0.0000 0.0000 0.0000 0.0000 29.7617
#
#
#
# Elastic Compliance Matrix: (Units=1/GPa)
#
#
# Indices 1 2 3 4 5 6 
#
# 1 0.012881 -0.004881 -0.003587 0.000000 0.000000 0.000000
# 2 -0.004881 0.017905 -0.006100 0.000000 0.000000 0.000000
# 3 -0.003587 -0.006100 0.012108 0.000000 0.000000 0.000000
# 4 0.000000 0.000000 0.000000 0.122820 0.000000 0.000000
# 5 0.000000 0.000000 0.000000 0.000000 0.029218 0.000000
# 6 0.000000 0.000000 0.000000 0.000000 0.000000 0.033600
#
#
# Mechanical properties :
#
#
# Convention : Reuss Voigt Hill
#
# Bulk Modulus (GPa) = 72.68786 75.32615 74.00701
# Shear Modulus (GPa) = 19.06537 25.32450 22.19493
#
# Velocity S-wave (km/s) = 3.34723 3.85774 3.61152
# Velocity P-wave (km/s) = 7.59304 8.00681 7.80267
#
# Compressibility (1/GPa) = 0.01375746
#
# Stress axis : x y z
#
# Youngs Moduli (GPa) = 77.63352 55.84958 82.59072
#
# Poissons Ratio (x) = 0.27260 0.29628
# Poissons Ratio (y) = 0.37893 0.50381
# Poissons Ratio (z) = 0.27849 0.34068
#
# Static dielectric constant tensor:
#      x y z
#    x 3.282610 0.000000 0.000000 
#    y 0.000000 3.126460 0.000000 
#    z 0.000000 0.000000 3.233780 
# 
# 
# High freq. dielectric constant tensor:
#      x y z
#    x 1.675640 0.000000 0.000000 
#    y 0.000000 1.645710 0.000000 
#    z 0.000000 0.000000 1.650170 
# 
# From -- ./inp_files/14451.got.cif
#   From: 2010.03.12/outbox.cif.g09.slc.cpg/sg51_8_cif.got.tgz:14451.got - 2010.04.16 13:43:02.
