data_PCOD8210477
_publ_section_title
;
Structure prediction by ZEFSAII (Michael W. Deem and Ramdas Pophale) SiO2 
 PCOD8210477
Probable space group: P M M A
;
_chemical_formula_sum "Si O2"
_cell_formula_units_Z 64
_cell_length_a 9.024974
_cell_length_b 28.735416
_cell_length_c 14.033290
_cell_angle_alpha 90.000000
_cell_angle_beta 90.000000
_cell_angle_gamma 90.000000
_cell_volume 3639.342660
_symmetry_space_group_name_H-M "P M M A"
_symmetry_group_IT_number 51
_symmetry_cell_setting 'orthorhombic'
loop_
_space_group_symop_operation_xyz
x,y,z
1/2-x,-y,z
1/2+x,-y,-z
-x,y,-z
-x,-y,-z
1/2+x,y,-z
1/2-x,y,z
x,-y,z
loop_
_atom_site_type_symbol
_atom_site_label
_atom_site_fract_x
_atom_site_fract_y
_atom_site_fract_z
Si Si1 0.425898 0.138248 0.896835
Si Si2 0.917688 0.367118 0.403311
Si Si3 0.409466 0.446062 0.083922
Si Si4 0.078949 0.263480 0.602332
Si Si5 0.573715 0.551714 0.707475
Si Si6 0.920107 0.947623 0.230642
Si Si7 0.423849 0.811952 0.274461
Si Si8 0.578054 0.098251 0.601412
O O1 0.250000 0.146127 0.905511
O O2 0.465326 0.087195 0.854748
O O3 0.495157 0.176283 0.825067
O O4 0.500000 0.143361 0.000000
O O5 0.750000 0.383427 0.419422
O O6 0.925992 0.316185 0.355384
O O7 0.000000 0.359639 0.500000
O O8 0.000673 0.407957 0.350870
O O9 0.250000 0.421268 0.087193
O O10 0.388018 0.500000 0.058767
O O11 0.488700 0.441251 0.185763
O O12 0.500000 0.420814 0.000000
O O13 0.250000 0.247354 0.590248
O O14 0.000000 0.257756 0.500000
O O15 0.995391 0.234412 0.682987
O O16 0.750000 0.556300 0.705899
O O17 0.528946 0.500000 0.669899
O O18 0.750000 0.939097 0.259152
O O19 0.015388 0.940105 0.325916
O O20 0.947695 0.000000 0.193499
O O21 0.250000 0.804725 0.254423
O O22 0.452136 0.851469 0.353146
O O23 0.500000 0.094730 0.500000
O O24 0.750000 0.088328 0.585900
#
# Coordination Sequence:
#
# PCOD8210477 Si02
#       8
#     8   8   8   8   8   8   8   8
#     4  10  20  35  55  78 105 135 169 211 256 302
#     4  10  21  35  51  72  99 132 169 207 246 293
#     4   8  14  25  42  65  91 118 150 190 235 280
#     4  10  20  34  53  78 105 132 163 201 248 301
#     4   9  18  32  49  70  98 132 169 209 252 296
#     4   9  19  35  52  71  98 134 175 215 254 297
#     4  10  20  34  54  79 103 129 164 205 252 304
#     4  10  20  32  48  72 101 132 166 205 250 302
#
# _framework density 17.585592999999999
#
# number of rings (size 3 to 8) (size 9 to 14) (size 15 to 20)
#    0.000    2.500    0.000    3.000    0.000    6.250 
#    0.000    1.250    0.000    0.750    0.000    1.750 
#    0.000    0.000    0.000    0.000    0.000    0.000 
#
# Total GULP energy -793245.643426 kJ/mol
# GULP energy per Si atom -12394.463179 kJ/mol
# Density = 1.754557 g / cm^3
# Si number density = 17.585593 Si / 1000 Ang^3
#
#
#
# Elastic Constant Matrix: (Units=GPa)
#
#
# Indices 1 2 3 4 5 6 
#
# 1 79.9274 40.2504 42.7039 0.0000 0.0000 0.0000
# 2 40.2504 92.9564 47.0199 0.0000 0.0000 0.0000
# 3 42.7039 47.0199 98.6409 0.0000 0.0000 0.0000
# 4 0.0000 0.0000 0.0000 16.4850 0.0000 0.0000
# 5 0.0000 0.0000 0.0000 0.0000 38.5489 0.0000
# 6 0.0000 0.0000 0.0000 0.0000 0.0000 17.0337
#
#
#
# Elastic Compliance Matrix: (Units=1/GPa)
#
#
# Indices 1 2 3 4 5 6 
#
# 1 0.017912 -0.005051 -0.005347 0.000000 0.000000 0.000000
# 2 -0.005051 0.015600 -0.005249 0.000000 0.000000 0.000000
# 3 -0.005347 -0.005249 0.014955 0.000000 0.000000 0.000000
# 4 0.000000 0.000000 0.000000 0.060661 0.000000 0.000000
# 5 0.000000 0.000000 0.000000 0.000000 0.025941 0.000000
# 6 0.000000 0.000000 0.000000 0.000000 0.000000 0.058707
#
#
# Mechanical properties :
#
#
# Convention : Reuss Voigt Hill
#
# Bulk Modulus (GPa) = 58.23427 59.05256 58.64341
# Shear Modulus (GPa) = 21.66429 23.85024 22.75726
#
# Velocity S-wave (km/s) = 3.51370 3.68671 3.60124
# Velocity P-wave (km/s) = 7.04614 7.19551 7.12122
#
# Compressibility (1/GPa) = 0.01717202
#
# Stress axis : x y z
#
# Youngs Moduli (GPa) = 55.82929 64.10130 66.86868
#
# Poissons Ratio (x) = 0.32380 0.35751
# Poissons Ratio (y) = 0.28202 0.35102
# Poissons Ratio (z) = 0.29849 0.33650
#
# Static dielectric constant tensor:
#      x y z
#    x 3.599780 0.000000 0.000000 
#    y 0.000000 3.259790 0.000000 
#    z 0.000000 0.000000 3.218050 
# 
# 
# High freq. dielectric constant tensor:
#      x y z
#    x 1.692050 0.000000 0.000000 
#    y 0.000000 1.662150 0.000000 
#    z 0.000000 0.000000 1.671490 
# 
# From -- ./inp_files/14858.got.cif
#   From: 2010.03.12/outbox.cif.g09.slc.cpg/sg51_8_cif.got.tgz:14858.got - 2010.04.16 13:43:02.
