data_PCOD8210292
_publ_section_title
;
Structure prediction by ZEFSAII (Michael W. Deem and Ramdas Pophale) SiO2 
 PCOD8210292
Probable space group: P M M A
;
_chemical_formula_sum "Si O2"
_cell_formula_units_Z 64
_cell_length_a 9.093200
_cell_length_b 19.185150
_cell_length_c 23.270930
_cell_angle_alpha 90.000000
_cell_angle_beta 90.000000
_cell_angle_gamma 90.000000
_cell_volume 4059.716270
_symmetry_space_group_name_H-M "P M M A"
_symmetry_group_IT_number 51
_symmetry_cell_setting 'orthorhombic'
loop_
_space_group_symop_operation_xyz
x,y,z
1/2-x,-y,z
1/2+x,-y,-z
-x,y,-z
-x,-y,-z
1/2+x,y,-z
1/2-x,y,z
x,-y,z
loop_
_atom_site_type_symbol
_atom_site_label
_atom_site_fract_x
_atom_site_fract_y
_atom_site_fract_z
Si Si1 0.577202 0.794372 0.442224
Si Si2 0.922199 0.703476 0.333043
Si Si3 0.077775 0.419972 0.942058
Si Si4 0.923390 0.925571 0.743646
Si Si5 0.081247 0.647543 0.161870
Si Si6 0.922253 0.420786 0.717564
Si Si7 0.579256 0.778093 0.769427
Si Si8 0.079898 0.079503 0.386677
O O1 0.500000 0.767599 0.500000
O O2 0.750000 0.800943 0.452128
O O3 0.538553 0.737103 0.394094
O O4 0.517013 0.870591 0.426213
O O5 0.750000 0.695762 0.323668
O O6 0.993978 0.626745 0.328823
O O7 0.984441 0.753040 0.283872
O O8 0.250000 0.409899 0.950079
O O9 0.035519 0.500000 0.929156
O O10 0.024006 0.372886 0.889804
O O11 0.000000 0.393958 0.000000
O O12 0.750000 0.933590 0.742030
O O13 0.967437 0.858628 0.782829
O O14 0.977458 0.912469 0.678693
O O15 0.989206 0.000000 0.766872
O O16 0.250000 0.633273 0.144351
O O17 0.038116 0.602953 0.217855
O O18 0.053290 0.729602 0.174944
O O19 0.750000 0.411969 0.706818
O O20 0.974470 0.500000 0.709201
O O21 0.750000 0.773318 0.750814
O O22 0.250000 0.101777 0.391811
O O23 0.057851 0.000000 0.407514
#
# Coordination Sequence:
#
# PCOD8210292 Si02
#       8
#     8   8   8   8   8   8   8   8
#     4  11  23  35  48  65  86 115 149 186 226 271
#     4  10  20  32  46  67  91 113 142 182 228 271
#     4  10  20  32  46  64  89 125 163 195 226 259
#     4   8  13  23  43  68  90 116 151 185 218 262
#     4   9  17  28  44  68  96 124 153 185 217 256
#     4   9  18  32  51  73  94 119 148 178 218 268
#     4   9  16  28  47  67  91 123 153 184 224 268
#     4   9  17  30  49  69  88 114 148 185 223 265
#
# _framework density 15.764649
#
# number of rings (size 3 to 8) (size 9 to 14) (size 15 to 20)
#    0.000    2.625    1.250    3.000    0.000    5.500 
#    0.000    0.000    0.000    0.750    0.000    0.000 
#    0.000    0.500    0.000    0.875    0.000    1.250 
#
# Total GULP energy -793342.427304 kJ/mol
# GULP energy per Si atom -12395.975427 kJ/mol
# Density = 1.572877 g / cm^3
# Si number density = 15.764649 Si / 1000 Ang^3
#
#
#
# Elastic Constant Matrix: (Units=GPa)
#
#
# Indices 1 2 3 4 5 6 
#
# 1 60.6000 40.7486 44.6079 0.0000 0.0000 0.0000
# 2 40.7486 133.3094 54.4505 0.0000 0.0000 0.0000
# 3 44.6079 54.4505 79.8609 0.0000 0.0000 0.0000
# 4 0.0000 0.0000 0.0000 19.6781 0.0000 0.0000
# 5 0.0000 0.0000 0.0000 0.0000 24.9431 0.0000
# 6 0.0000 0.0000 0.0000 0.0000 0.0000 17.2285
#
#
#
# Elastic Compliance Matrix: (Units=1/GPa)
#
#
# Indices 1 2 3 4 5 6 
#
# 1 0.028924 -0.003108 -0.014037 0.000000 0.000000 0.000000
# 2 -0.003108 0.010731 -0.005580 0.000000 0.000000 0.000000
# 3 -0.014037 -0.005580 0.024167 0.000000 0.000000 0.000000
# 4 0.000000 0.000000 0.000000 0.050818 0.000000 0.000000
# 5 0.000000 0.000000 0.000000 0.000000 0.040091 0.000000
# 6 0.000000 0.000000 0.000000 0.000000 0.000000 0.058043
#
#
# Mechanical properties :
#
#
# Convention : Reuss Voigt Hill
#
# Bulk Modulus (GPa) = 54.43254 61.48715 57.95984
# Shear Modulus (GPa) = 18.91432 21.30081 20.10757
#
# Velocity S-wave (km/s) = 3.46756 3.67982 3.57527
# Velocity P-wave (km/s) = 7.11584 7.55928 7.34091
#
# Compressibility (1/GPa) = 0.01837137
#
# Stress axis : x y z
#
# Youngs Moduli (GPa) = 34.57304 93.19125 41.37791
#
# Poissons Ratio (x) = 0.28961 0.58084
# Poissons Ratio (y) = 0.10744 0.23091
# Poissons Ratio (z) = 0.48531 0.52005
#
# Static dielectric constant tensor:
#      x y z
#    x 2.898720 0.000000 0.000000 
#    y 0.000000 3.382020 0.000000 
#    z 0.000000 0.000000 2.762420 
# 
# 
# High freq. dielectric constant tensor:
#      x y z
#    x 1.599170 0.000000 0.000000 
#    y 0.000000 1.610500 0.000000 
#    z 0.000000 0.000000 1.568900 
# 
# From -- ./inp_files/35088.got.cif
#   From: 2010.03.12/outbox.cif.g09.slc.cpg/sg51_18_cif.got.tgz:35088.got - 2010.04.16 13:43:02.
