data_PCOD8210376
_publ_section_title
;
Structure prediction by ZEFSAII (Michael W. Deem and Ramdas Pophale) SiO2 
 PCOD8210376
Probable space group: P M M A
;
_chemical_formula_sum "Si O2"
_cell_formula_units_Z 64
_cell_length_a 17.031441
_cell_length_b 9.714402
_cell_length_c 20.862804
_cell_angle_alpha 90.000000
_cell_angle_beta 90.000000
_cell_angle_gamma 90.000000
_cell_volume 3451.756440
_symmetry_space_group_name_H-M "P M M A"
_symmetry_group_IT_number 51
_symmetry_cell_setting 'orthorhombic'
loop_
_space_group_symop_operation_xyz
x,y,z
1/2-x,-y,z
1/2+x,-y,-z
-x,y,-z
-x,-y,-z
1/2+x,y,-z
1/2-x,y,z
x,-y,z
loop_
_atom_site_type_symbol
_atom_site_label
_atom_site_fract_x
_atom_site_fract_y
_atom_site_fract_z
Si Si1 0.155780 0.654646 0.013536
Si Si2 0.591474 0.657179 0.489389
Si Si3 0.657400 0.155164 0.597817
Si Si4 0.344176 0.344833 0.288739
Si Si5 0.656589 0.845268 0.098131
Si Si6 0.843361 0.154713 0.239658
Si Si7 0.340878 0.658159 0.646665
Si Si8 0.835874 0.336848 0.849196
O O1 0.250000 0.660582 0.015726
O O2 0.127198 0.500000 0.999260
O O3 0.120250 0.748397 0.956949
O O4 0.122537 0.707063 0.083448
O O5 0.500000 0.675766 0.500000
O O6 0.618585 0.500000 0.504171
O O7 0.637790 0.763396 0.533420
O O8 0.610420 0.696356 0.416414
O O9 0.750000 0.146774 0.604503
O O10 0.622285 0.239198 0.658445
O O11 0.622073 0.000000 0.596232
O O12 0.250000 0.343114 0.286265
O O13 0.372656 0.500000 0.306054
O O14 0.378339 0.298238 0.218398
O O15 0.750000 0.837918 0.095737
O O16 0.627587 0.797559 0.168905
O O17 0.627828 0.000000 0.084744
O O18 0.750000 0.160316 0.240806
O O19 0.876994 0.254673 0.294503
O O20 0.872600 0.000000 0.253777
O O21 0.250000 0.693890 0.633596
O O22 0.351551 0.500000 0.665734
O O23 0.750000 0.267022 0.847949
O O24 0.825869 0.500000 0.851154
#
# Coordination Sequence:
#
# PCOD8210376 Si02
#       8
#     8   8   8   8   8   8   8   8
#     4   8  12  17  26  41  63  94 132 170 205 243
#     4  10  21  36  52  69  90 117 147 179 219 268
#     4  10  20  32  47  69  94 118 147 184 223 263
#     4   8  13  23  40  58  77 106 143 180 216 254
#     4   8  13  20  28  41  65  97 132 167 202 242
#     4   8  14  24  37  53  75 104 137 172 209 250
#     4   9  17  29  46  67  87 107 137 178 217 253
#     4   7  10  17  29  46  68  96 133 173 209 246
#
# _framework density 18.541284999999998
#
# number of rings (size 3 to 8) (size 9 to 14) (size 15 to 20)
#    0.000    3.500    0.000    3.000    0.000    2.500 
#    0.000    4.375    0.000    3.750    0.000    0.000 
#    0.000    0.000    0.000    1.125    0.000   24.750 
#
# Total GULP energy -792846.111545 kJ/mol
# GULP energy per Si atom -12388.220493 kJ/mol
# Density = 1.849908 g / cm^3
# Si number density = 18.541285 Si / 1000 Ang^3
#
#
#
# Elastic Constant Matrix: (Units=GPa)
#
#
# Indices 1 2 3 4 5 6 
#
# 1 4.4178 5.3792 3.4182 0.0000 0.0000 0.0000
# 2 5.3792 106.2940 90.3302 0.0000 0.0000 0.0000
# 3 3.4182 90.3302 166.0711 0.0000 0.0000 0.0000
# 4 0.0000 0.0000 0.0000 12.0618 0.0000 0.0000
# 5 0.0000 0.0000 0.0000 0.0000 -0.1935 0.0000
# 6 0.0000 0.0000 0.0000 0.0000 0.0000 6.8713
#
#
#
# Elastic Compliance Matrix: (Units=1/GPa)
#
#
# Indices 1 2 3 4 5 6 
#
# 1 0.242092 -0.014908 0.003126 0.000000 0.000000 0.000000
# 2 -0.014908 0.018412 -0.009708 0.000000 0.000000 0.000000
# 3 0.003126 -0.009708 0.011238 0.000000 0.000000 0.000000
# 4 0.000000 0.000000 0.000000 0.082907 0.000000 0.000000
# 5 0.000000 0.000000 0.000000 0.000000 -5.166985 0.000000
# 6 0.000000 0.000000 0.000000 0.000000 0.000000 0.145533
#
#
# Mechanical properties :
#
#
# Convention : Reuss Voigt Hill
#
# Bulk Modulus (GPa) = 4.37136 52.78199 28.57668
# Shear Modulus (GPa) = -1.09949 15.59159 7.24605
#
# Velocity S-wave (km/s) = -0.77090 2.90299 1.97903
# Velocity P-wave (km/s) = 1.25315 6.30600 4.54620
#
# Compressibility (1/GPa) = 0.22876174
#
# Stress axis : x y z
#
# Youngs Moduli (GPa) = 4.13066 54.31108 88.98629
#
# Poissons Ratio (x) = 0.80967 -0.27817
# Poissons Ratio (y) = 0.06158 0.86389
# Poissons Ratio (z) = -0.01291 0.52726
#
# Static dielectric constant tensor:
#      x y z
#    x 2.640040 0.000000 0.000000 
#    y 0.000000 3.463890 0.000000 
#    z 0.000000 0.000000 3.995820 
# 
# 
# High freq. dielectric constant tensor:
#      x y z
#    x 1.640620 0.000000 0.000000 
#    y 0.000000 1.703020 0.000000 
#    z 0.000000 0.000000 1.743670 
# 
# From -- ./inp_files/34156.got.cif
#   From: 2010.03.12/outbox.cif.g09.slc.cpg/sg51_18_cif.got.tgz:34156.got - 2010.04.16 13:43:02.
