data_PCOD8210433
_publ_section_title
;
Structure prediction by ZEFSAII (Michael W. Deem and Ramdas Pophale) SiO2 
 PCOD8210433
Probable space group: P M M A
;
_chemical_formula_sum "Si O2"
_cell_formula_units_Z 64
_cell_length_a 23.040830
_cell_length_b 9.189396
_cell_length_c 17.894601
_cell_angle_alpha 90.000000
_cell_angle_beta 90.000000
_cell_angle_gamma 90.000000
_cell_volume 3788.847330
_symmetry_space_group_name_H-M "P M M A"
_symmetry_group_IT_number 51
_symmetry_cell_setting 'orthorhombic'
loop_
_space_group_symop_operation_xyz
x,y,z
1/2-x,-y,z
1/2+x,-y,-z
-x,y,-z
-x,-y,-z
1/2+x,y,-z
1/2-x,y,z
x,-y,z
loop_
_atom_site_type_symbol
_atom_site_label
_atom_site_fract_x
_atom_site_fract_y
_atom_site_fract_z
Si Si1 0.628801 0.833408 0.856073
Si Si2 0.817066 0.670711 0.720868
Si Si3 0.819073 0.836832 0.574236
Si Si4 0.609328 0.327086 0.132315
Si Si5 0.814647 0.673183 0.269680
Si Si6 0.316882 0.833129 0.988347
Si Si7 0.999068 0.831244 0.914188
Si Si8 0.180919 0.337885 0.566274
O O1 0.645007 0.727044 0.789301
O O2 0.671409 0.800238 0.924959
O O3 0.563370 0.799608 0.879783
O O4 0.636016 0.000000 0.829614
O O5 0.750000 0.711138 0.735222
O O6 0.826010 0.500000 0.711701
O O7 0.840461 0.745679 0.645509
O O8 0.750000 0.836560 0.570826
O O9 0.844537 0.765433 0.498496
O O10 0.843603 0.000000 0.580574
O O11 0.606056 0.500000 0.130144
O O12 0.641493 0.269053 0.206756
O O13 0.544953 0.261937 0.132983
O O14 0.644224 0.273415 0.060323
O O15 0.750000 0.735353 0.253012
O O16 0.811700 0.500000 0.269294
O O17 0.836737 0.724198 0.351797
O O18 0.250000 0.801999 0.970574
O O19 0.334105 0.000000 0.970369
O O20 0.016352 0.000000 0.909105
O O21 0.000000 0.779464 0.000000
O O22 0.250000 0.344903 0.561952
O O23 0.155512 0.500000 0.554109
#
# Coordination Sequence:
#
# PCOD8210433 Si02
#       8
#     8   8   8   8   8   8   8   8
#     4  10  20  35  54  70  89 124 166 206 245 287
#     4  10  20  32  47  71 103 132 158 194 240 291
#     4   9  16  26  42  66  97 130 162 194 230 277
#     4  11  21  32  50  74 100 127 162 206 249 291
#     4   8  15  28  45  68 100 134 162 192 237 291
#     4  10  20  34  51  70  95 129 165 197 239 297
#     4  10  20  38  57  69  89 124 167 210 250 294
#     4   8  13  24  43  64  90 127 165 194 226 275
#
# _framework density 16.891680000000001
#
# number of rings (size 3 to 8) (size 9 to 14) (size 15 to 20)
#    0.000    2.500    1.250    2.625    0.000    4.750 
#    0.000    1.250    0.000    3.000    0.000    0.875 
#    0.000    7.000    0.000    0.000    0.000    0.000 
#
# Total GULP energy -793576.166032 kJ/mol
# GULP energy per Si atom -12399.627594 kJ/mol
# Density = 1.685323 g / cm^3
# Si number density = 16.891680 Si / 1000 Ang^3
#
#
#
# Elastic Constant Matrix: (Units=GPa)
#
#
# Indices 1 2 3 4 5 6 
#
# 1 56.9788 30.4343 35.8764 0.0000 0.0000 0.0000
# 2 30.4343 76.9671 52.5042 0.0000 0.0000 0.0000
# 3 35.8764 52.5042 119.9737 0.0000 0.0000 0.0000
# 4 0.0000 0.0000 0.0000 21.3480 0.0000 0.0000
# 5 0.0000 0.0000 0.0000 0.0000 8.3409 0.0000
# 6 0.0000 0.0000 0.0000 0.0000 0.0000 22.9742
#
#
#
# Elastic Compliance Matrix: (Units=1/GPa)
#
#
# Indices 1 2 3 4 5 6 
#
# 1 0.023680 -0.006462 -0.004253 0.000000 0.000000 0.000000
# 2 -0.006462 0.020286 -0.006945 0.000000 0.000000 0.000000
# 3 -0.004253 -0.006945 0.012646 0.000000 0.000000 0.000000
# 4 0.000000 0.000000 0.000000 0.046843 0.000000 0.000000
# 5 0.000000 0.000000 0.000000 0.000000 0.119891 0.000000
# 6 0.000000 0.000000 0.000000 0.000000 0.000000 0.043527
#
#
# Mechanical properties :
#
#
# Convention : Reuss Voigt Hill
#
# Bulk Modulus (GPa) = 46.96811 54.61659 50.79235
# Shear Modulus (GPa) = 16.16601 19.53961 17.85281
#
# Velocity S-wave (km/s) = 3.09696 3.40481 3.25453
# Velocity P-wave (km/s) = 6.37605 6.91813 6.65262
#
# Compressibility (1/GPa) = 0.02129104
#
# Stress axis : x y z
#
# Youngs Moduli (GPa) = 42.22972 49.29606 79.07382
#
# Poissons Ratio (x) = 0.31856 0.33631
# Poissons Ratio (y) = 0.27290 0.54918
# Poissons Ratio (z) = 0.17961 0.34237
#
# Static dielectric constant tensor:
#      x y z
#    x 2.944160 0.000000 0.000000 
#    y 0.000000 3.129590 0.000000 
#    z 0.000000 0.000000 3.355900 
# 
# 
# High freq. dielectric constant tensor:
#      x y z
#    x 1.613490 0.000000 0.000000 
#    y 0.000000 1.644450 0.000000 
#    z 0.000000 0.000000 1.659000 
# 
# From -- ./inp_files/30906.got.cif
#   From: 2010.03.12/outbox.cif.g09.slc.cpg/sg51_16_cif.got.tgz:30906.got - 2010.04.16 13:43:02.
