data_PCOD8210924
_publ_section_title
;
Structure prediction by ZEFSAII (Michael W. Deem and Ramdas Pophale) SiO2 
 PCOD8210924
Probable space group: P M M A
;
_chemical_formula_sum "Si O2"
_cell_formula_units_Z 64
_cell_length_a 8.842844
_cell_length_b 28.283167
_cell_length_c 14.071628
_cell_angle_alpha 90.000000
_cell_angle_beta 90.000000
_cell_angle_gamma 90.000000
_cell_volume 3519.365294
_symmetry_space_group_name_H-M "P M M A"
_symmetry_group_IT_number 51
_symmetry_cell_setting 'orthorhombic'
loop_
_space_group_symop_operation_xyz
x,y,z
1/2-x,-y,z
1/2+x,-y,-z
-x,y,-z
-x,-y,-z
1/2+x,y,-z
1/2-x,y,z
x,-y,z
loop_
_atom_site_type_symbol
_atom_site_label
_atom_site_fract_x
_atom_site_fract_y
_atom_site_fract_z
Si Si1 0.077277 0.551749 0.900322
Si Si2 0.428865 0.803439 0.101943
Si Si3 0.572860 0.052836 0.598311
Si Si4 0.573469 0.141128 0.713745
Si Si5 0.928646 0.446856 0.598968
Si Si6 0.426250 0.721966 0.781774
Si Si7 0.074568 0.220310 0.597700
Si Si8 0.572870 0.378654 0.764248
O O1 0.250000 0.571123 0.905952
O O2 0.077923 0.500000 0.850277
O O3 0.964163 0.587291 0.850171
O O4 0.000000 0.545450 0.000000
O O5 0.250000 0.801178 0.089586
O O6 0.477717 0.843872 0.179330
O O7 0.486642 0.752636 0.138816
O O8 0.500000 0.816435 0.000000
O O9 0.500000 0.071055 0.500000
O O10 0.750000 0.052959 0.580277
O O11 0.532942 0.086672 0.688346
O O12 0.514413 0.000000 0.623609
O O13 0.750000 0.151600 0.703374
O O14 0.490066 0.170682 0.632797
O O15 0.750000 0.445737 0.590391
O O16 0.981681 0.500000 0.628800
O O17 0.985279 0.406796 0.671536
O O18 0.000000 0.431937 0.500000
O O19 0.250000 0.725049 0.806720
O O20 0.461882 0.740526 0.676550
O O21 0.480556 0.668621 0.782415
O O22 0.250000 0.213806 0.579289
O O23 0.000000 0.237255 0.500000
O O24 0.750000 0.367054 0.759787
#
# Coordination Sequence:
#
# PCOD8210924 Si02
#       8
#     8   8   8   8   8   8   8   8
#     4  10  21  37  57  80 104 130 161 198 241 292
#     4  10  20  36  57  78 100 129 168 214 263 310
#     4   9  17  29  46  72 107 144 178 212 254 303
#     4   9  18  32  51  75 102 134 174 216 256 303
#     4   9  19  35  54  76 102 133 169 207 245 288
#     4  10  22  38  53  74 102 131 167 207 250 302
#     4  10  20  33  51  73 100 134 169 209 253 299
#     4  11  22  36  55  78 105 135 166 204 251 300
#
# _framework density 18.185096999999999
#
# number of rings (size 3 to 8) (size 9 to 14) (size 15 to 20)
#    0.000    2.250    0.000    2.625    0.000    6.750 
#    0.000    6.250    0.000    0.375    0.000    0.000 
#    0.000    0.000    0.000    0.000    0.000    0.375 
#
# Total GULP energy -793381.466911 kJ/mol
# GULP energy per Si atom -12396.585420 kJ/mol
# Density = 1.814371 g / cm^3
# Si number density = 18.185097 Si / 1000 Ang^3
#
#
#
# Elastic Constant Matrix: (Units=GPa)
#
#
# Indices 1 2 3 4 5 6 
#
# 1 42.4279 21.2143 32.0002 0.0000 0.0000 0.0000
# 2 21.2143 108.4216 57.5341 0.0000 0.0000 0.0000
# 3 32.0002 57.5341 113.2208 0.0000 0.0000 0.0000
# 4 0.0000 0.0000 0.0000 27.3888 0.0000 0.0000
# 5 0.0000 0.0000 0.0000 0.0000 33.2958 0.0000
# 6 0.0000 0.0000 0.0000 0.0000 0.0000 26.7755
#
#
#
# Elastic Compliance Matrix: (Units=1/GPa)
#
#
# Indices 1 2 3 4 5 6 
#
# 1 0.030235 -0.001891 -0.007585 0.000000 0.000000 0.000000
# 2 -0.001891 0.012747 -0.005943 0.000000 0.000000 0.000000
# 3 -0.007585 -0.005943 0.013996 0.000000 0.000000 0.000000
# 4 0.000000 0.000000 0.000000 0.036511 0.000000 0.000000
# 5 0.000000 0.000000 0.000000 0.000000 0.030034 0.000000
# 6 0.000000 0.000000 0.000000 0.000000 0.000000 0.037348
#
#
# Mechanical properties :
#
#
# Convention : Reuss Voigt Hill
#
# Bulk Modulus (GPa) = 38.25430 53.95195 46.10313
# Shear Modulus (GPa) = 24.94735 27.71347 26.33041
#
# Velocity S-wave (km/s) = 3.70788 3.90804 3.80927
# Velocity P-wave (km/s) = 6.27797 7.07787 6.68989
#
# Compressibility (1/GPa) = 0.02614085
#
# Stress axis : x y z
#
# Youngs Moduli (GPa) = 33.07371 78.45033 71.44946
#
# Poissons Ratio (x) = 0.14837 0.54191
# Poissons Ratio (y) = 0.06255 0.42462
# Poissons Ratio (z) = 0.25085 0.46622
#
# Static dielectric constant tensor:
#      x y z
#    x 3.542610 0.000000 0.000000 
#    y 0.000000 3.482910 0.000000 
#    z 0.000000 0.000000 3.407540 
# 
# 
# High freq. dielectric constant tensor:
#      x y z
#    x 1.711530 0.000000 0.000000 
#    y 0.000000 1.698270 0.000000 
#    z 0.000000 0.000000 1.699940 
# 
# From -- ./inp_files/14872.got.cif
#   From: 2010.03.12/outbox.cif.g09.slc.cpg/sg51_8_cif.got.tgz:14872.got - 2010.04.16 13:43:02.
