data_PCOD8210818
_publ_section_title
;
Structure prediction by ZEFSAII (Michael W. Deem and Ramdas Pophale) SiO2 
 PCOD8210818
Probable space group: P M M A
;
_chemical_formula_sum "Si O2"
_cell_formula_units_Z 64
_cell_length_a 8.949980
_cell_length_b 14.382557
_cell_length_c 28.716032
_cell_angle_alpha 90.000000
_cell_angle_beta 90.000000
_cell_angle_gamma 90.000000
_cell_volume 3696.430945
_symmetry_space_group_name_H-M "P M M A"
_symmetry_group_IT_number 51
_symmetry_cell_setting 'orthorhombic'
loop_
_space_group_symop_operation_xyz
x,y,z
1/2-x,-y,z
1/2+x,-y,-z
-x,y,-z
-x,-y,-z
1/2+x,y,-z
1/2-x,y,z
x,-y,z
loop_
_atom_site_type_symbol
_atom_site_label
_atom_site_fract_x
_atom_site_fract_y
_atom_site_fract_z
Si Si1 0.075310 0.894171 0.861435
Si Si2 0.922314 0.892122 0.689434
Si Si3 0.575949 0.107370 0.406455
Si Si4 0.917590 0.110653 0.954642
Si Si5 0.073210 0.397418 0.369921
Si Si6 0.575022 0.392535 0.735087
Si Si7 0.574152 0.220255 0.229135
Si Si8 0.072471 0.731364 0.453006
O O1 0.250000 0.892300 0.871223
O O2 0.029932 0.825544 0.819878
O O3 0.996474 0.854917 0.907582
O O4 0.024031 0.000000 0.849567
O O5 0.750000 0.865888 0.680535
O O6 0.013983 0.864069 0.643885
O O7 0.984414 0.834662 0.732045
O O8 0.942632 0.000000 0.701481
O O9 0.750000 0.131676 0.408552
O O10 0.487115 0.164092 0.445775
O O11 0.544364 0.000000 0.416881
O O12 0.750000 0.149251 0.954833
O O13 0.921601 0.000000 0.956494
O O14 0.000000 0.152073 0.000000
O O15 0.250000 0.402599 0.373397
O O16 0.005971 0.500000 0.379137
O O17 0.029690 0.364374 0.317891
O O18 0.011141 0.328569 0.409350
O O19 0.750000 0.375548 0.743541
O O20 0.534170 0.500000 0.744786
O O21 0.479378 0.327660 0.769877
O O22 0.750000 0.212606 0.238394
O O23 0.250000 0.730110 0.457311
O O24 0.000000 0.690170 0.500000
#
# Coordination Sequence:
#
# PCOD8210818 Si02
#       8
#     8   8   8   8   8   8   8   8
#     4   9  18  31  44  62  94 134 172 208 247 289
#     4  10  20  33  50  72  98 129 163 196 233 284
#     4  10  21  37  55  73  94 121 156 198 238 276
#     4   9  16  26  42  63  88 123 167 211 251 290
#     4   8  16  33  55  75  94 119 151 186 227 276
#     4   9  18  34  55  75  95 123 161 203 245 291
#     4  11  21  31  47  71 101 134 165 203 248 290
#     4  11  22  35  53  75  99 125 152 186 229 279
#
# _framework density 17.313998999999999
#
# number of rings (size 3 to 8) (size 9 to 14) (size 15 to 20)
#    0.000    2.375    0.000    3.750    0.000    6.250 
#    0.000    1.875    0.000    2.625    0.000    0.000 
#    0.000    0.500    0.000    1.625    0.000    2.375 
#
# Total GULP energy -793614.818845 kJ/mol
# GULP energy per Si atom -12400.231544 kJ/mol
# Density = 1.727459 g / cm^3
# Si number density = 17.313999 Si / 1000 Ang^3
#
#
#
# Elastic Constant Matrix: (Units=GPa)
#
#
# Indices 1 2 3 4 5 6 
#
# 1 62.1467 33.8089 35.9296 0.0000 0.0000 0.0000
# 2 33.8089 69.4627 53.9811 0.0000 0.0000 0.0000
# 3 35.9296 53.9811 100.0981 0.0000 0.0000 0.0000
# 4 0.0000 0.0000 0.0000 16.0364 0.0000 0.0000
# 5 0.0000 0.0000 0.0000 0.0000 31.7239 0.0000
# 6 0.0000 0.0000 0.0000 0.0000 0.0000 21.0856
#
#
#
# Elastic Compliance Matrix: (Units=1/GPa)
#
#
# Indices 1 2 3 4 5 6 
#
# 1 0.022682 -0.008113 -0.003767 0.000000 0.000000 0.000000
# 2 -0.008113 0.027684 -0.012017 0.000000 0.000000 0.000000
# 3 -0.003767 -0.012017 0.017823 0.000000 0.000000 0.000000
# 4 0.000000 0.000000 0.000000 0.062358 0.000000 0.000000
# 5 0.000000 0.000000 0.000000 0.000000 0.031522 0.000000
# 6 0.000000 0.000000 0.000000 0.000000 0.000000 0.047426
#
#
# Mechanical properties :
#
#
# Convention : Reuss Voigt Hill
#
# Bulk Modulus (GPa) = 49.03042 53.23852 51.13447
# Shear Modulus (GPa) = 18.93319 20.96836 19.95078
#
# Velocity S-wave (km/s) = 3.31043 3.48381 3.39822
# Velocity P-wave (km/s) = 6.55681 6.85552 6.70783
#
# Compressibility (1/GPa) = 0.02039550
#
# Stress axis : x y z
#
# Youngs Moduli (GPa) = 44.08771 36.12220 56.10757
#
# Poissons Ratio (x) = 0.29305 0.21133
# Poissons Ratio (y) = 0.35767 0.67426
# Poissons Ratio (z) = 0.16606 0.43409
#
# Static dielectric constant tensor:
#      x y z
#    x 3.185600 0.000000 0.000000 
#    y 0.000000 3.271190 0.000000 
#    z 0.000000 0.000000 3.249980 
# 
# 
# High freq. dielectric constant tensor:
#      x y z
#    x 1.667390 0.000000 0.000000 
#    y 0.000000 1.649130 0.000000 
#    z 0.000000 0.000000 1.658700 
# 
# From -- ./inp_files/34981.got.cif
#   From: 2010.03.12/outbox.cif.g09.slc.cpg/sg51_18_cif.got.tgz:34981.got - 2010.04.16 13:43:02.
