data_PCOD8210289
_publ_section_title
;
Structure prediction by ZEFSAII (Michael W. Deem and Ramdas Pophale) SiO2 
 PCOD8210289
Probable space group: P M M A
;
_chemical_formula_sum "Si O2"
_cell_formula_units_Z 44
_cell_length_a 8.797865
_cell_length_b 13.001501
_cell_length_c 22.012262
_cell_angle_alpha 90.000000
_cell_angle_beta 90.000000
_cell_angle_gamma 90.000000
_cell_volume 2517.882507
_symmetry_space_group_name_H-M "P M M A"
_symmetry_group_IT_number 51
_symmetry_cell_setting 'orthorhombic'
loop_
_space_group_symop_operation_xyz
x,y,z
1/2-x,-y,z
1/2+x,-y,-z
-x,y,-z
-x,-y,-z
1/2+x,y,-z
1/2-x,y,z
x,-y,z
loop_
_atom_site_type_symbol
_atom_site_label
_atom_site_fract_x
_atom_site_fract_y
_atom_site_fract_z
Si Si1 0.427683 0.681743 0.643896
Si Si2 0.926923 0.116180 0.059367
Si Si3 0.070613 0.883413 0.312251
Si Si4 0.079355 0.814581 0.178826
Si Si5 0.080838 0.387652 0.239553
Si Si6 0.431391 0.500000 0.433645
O O1 0.250000 0.683268 0.628014
O O2 0.490236 0.800033 0.643318
O O3 0.453781 0.636168 0.710631
O O4 0.512658 0.605625 0.597690
O O5 0.750000 0.124825 0.050989
O O6 0.969667 0.164289 0.123405
O O7 0.986870 0.000000 0.061589
O O8 0.000000 0.171379 0.000000
O O9 0.250000 0.866029 0.318027
O O10 0.021891 0.866157 0.241835
O O11 0.024439 0.000000 0.331370
O O12 0.250000 0.853298 0.164213
O O13 0.072228 0.691577 0.184499
O O14 0.250000 0.380244 0.270002
O O15 0.051594 0.500000 0.211877
O O16 0.250000 0.500000 0.435110
O O17 0.500000 0.500000 0.500000
#
# Coordination Sequence:
#
# PCOD8210289 Si02
#       6
#     8   8   8   8   8   4
#     4  11  21  33  52  81 112 141 175 216 263 307
#     4  10  20  32  46  64  88 121 159 201 251 304
#     4   9  18  33  53  77 107 145 181 212 256 313
#     4   9  17  29  47  72  98 127 165 208 253 302
#     4   9  17  31  51  72  99 136 170 204 249 302
#     4  12  24  40  60  82 110 142 179 220 261 306
#
# _framework density 17.475000000000001
#
# number of rings (size 3 to 8) (size 9 to 14) (size 15 to 20)
#    0.000    2.182    0.909    4.636    0.000    5.091 
#    0.000    0.000    0.000    1.091    0.000    0.000 
#    0.000    0.000    0.000    0.000    0.000    0.000 
#
# Total GULP energy -545288.425856 kJ/mol
# GULP energy per Si atom -12392.918769 kJ/mol
# Density = 1.743523 g / cm^3
# Si number density = 17.475000 Si / 1000 Ang^3
#
#
#
# Elastic Constant Matrix: (Units=GPa)
#
#
# Indices 1 2 3 4 5 6 
#
# 1 87.0716 47.1085 40.4601 0.0000 0.0000 0.0000
# 2 47.1085 141.9338 44.9595 0.0000 0.0000 0.0000
# 3 40.4601 44.9595 85.4660 0.0000 0.0000 0.0000
# 4 0.0000 0.0000 0.0000 18.7017 0.0000 0.0000
# 5 0.0000 0.0000 0.0000 0.0000 29.2411 0.0000
# 6 0.0000 0.0000 0.0000 0.0000 0.0000 23.6042
#
#
#
# Elastic Compliance Matrix: (Units=1/GPa)
#
#
# Indices 1 2 3 4 5 6 
#
# 1 0.016057 -0.003506 -0.005757 0.000000 0.000000 0.000000
# 2 -0.003506 0.009220 -0.003190 0.000000 0.000000 0.000000
# 3 -0.005757 -0.003190 0.016104 0.000000 0.000000 0.000000
# 4 0.000000 0.000000 0.000000 0.053471 0.000000 0.000000
# 5 0.000000 0.000000 0.000000 0.000000 0.034198 0.000000
# 6 0.000000 0.000000 0.000000 0.000000 0.000000 0.042365
#
#
# Mechanical properties :
#
#
# Convention : Reuss Voigt Hill
#
# Bulk Modulus (GPa) = 60.70083 64.39196 62.54639
# Shear Modulus (GPa) = 24.77535 26.43895 25.60715
#
# Velocity S-wave (km/s) = 3.76940 3.89390 3.83215
# Velocity P-wave (km/s) = 7.33183 7.55941 7.44649
#
# Compressibility (1/GPa) = 0.01647424
#
# Stress axis : x y z
#
# Youngs Moduli (GPa) = 62.27941 108.46354 62.09487
#
# Poissons Ratio (x) = 0.38023 0.35749
# Poissons Ratio (y) = 0.21833 0.19811
# Poissons Ratio (z) = 0.35855 0.34605
#
# Static dielectric constant tensor:
#      x y z
#    x 3.226660 0.000000 0.000000 
#    y 0.000000 3.623400 0.000000 
#    z 0.000000 0.000000 3.040410 
# 
# 
# High freq. dielectric constant tensor:
#      x y z
#    x 1.675450 0.000000 0.000000 
#    y 0.000000 1.679430 0.000000 
#    z 0.000000 0.000000 1.642620 
# 
# From -- ./inp_files/31616.got.cif
#   From: 2010.03.12/outbox.cif.g09.slc.cpg/sg51_16_cif.got.tgz:31616.got - 2010.04.16 13:43:02.
