data_PCOD8210810
_publ_section_title
;
Structure prediction by ZEFSAII (Michael W. Deem and Ramdas Pophale) SiO2 
 PCOD8210810
Probable space group: P M M A
;
_chemical_formula_sum "Si O2"
_cell_formula_units_Z 40
_cell_length_a 9.201086
_cell_length_b 8.920972
_cell_length_c 26.103919
_cell_angle_alpha 90.000000
_cell_angle_beta 90.000000
_cell_angle_gamma 90.000000
_cell_volume 2142.678340
_symmetry_space_group_name_H-M "P M M A"
_symmetry_group_IT_number 51
_symmetry_cell_setting 'orthorhombic'
loop_
_space_group_symop_operation_xyz
x,y,z
1/2-x,-y,z
1/2+x,-y,-z
-x,y,-z
-x,-y,-z
1/2+x,y,-z
1/2-x,y,z
x,-y,z
loop_
_atom_site_type_symbol
_atom_site_label
_atom_site_fract_x
_atom_site_fract_y
_atom_site_fract_z
Si Si1 0.918618 0.824735 0.551589
Si Si2 0.586426 0.678720 0.743529
Si Si3 0.587323 0.678204 0.047402
Si Si4 0.913806 0.678244 0.159695
Si Si5 0.415096 0.322058 0.644385
O O1 0.750000 0.779591 0.546915
O O2 0.000000 0.775899 0.500000
O O3 0.991161 0.735688 0.597415
O O4 0.937928 0.000000 0.562100
O O5 0.750000 0.741256 0.737863
O O6 0.587679 0.500000 0.744487
O O7 0.518129 0.743507 0.796165
O O8 0.489466 0.737578 0.696405
O O9 0.750000 0.738305 0.042243
O O10 0.583242 0.500000 0.043471
O O11 0.526235 0.727369 0.103418
O O12 0.500000 0.750867 0.000000
O O13 0.750000 0.739152 0.167947
O O14 0.910424 0.500000 0.163102
O O15 0.250000 0.260573 0.641636
O O16 0.415581 0.500000 0.643099
#
# Coordination Sequence:
#
# PCOD8210810 Si02
#       5
#     8   8   8   8   8
#     4  10  21  37  56  76  98 125 156 189 226 270
#     4   9  16  25  38  57  80 106 138 178 222 266
#     4   8  13  19  26  37  55  82 119 164 210 254
#     4   8  13  21  31  43  63  93 128 167 213 263
#     4  10  20  33  50  72  97 125 156 191 231 273
#
# _framework density 18.668223999999999
#
# number of rings (size 3 to 8) (size 9 to 14) (size 15 to 20)
#    0.000    3.000    0.000    3.000    0.000    6.000 
#    0.000    4.000    0.000    0.000    0.000    0.000 
#    0.000    0.000    0.000    0.000    0.000    1.000 
#
# Total GULP energy -495770.712787 kJ/mol
# GULP energy per Si atom -12394.267820 kJ/mol
# Density = 1.862573 g / cm^3
# Si number density = 18.668224 Si / 1000 Ang^3
#
#
#
# Elastic Constant Matrix: (Units=GPa)
#
#
# Indices 1 2 3 4 5 6 
#
# 1 144.8363 12.2499 91.5988 0.0000 0.0000 0.0000
# 2 12.2499 5.0968 13.6413 0.0000 0.0000 0.0000
# 3 91.5988 13.6413 182.1244 0.0000 0.0000 0.0000
# 4 0.0000 0.0000 0.0000 -4.3528 0.0000 0.0000
# 5 0.0000 0.0000 0.0000 0.0000 43.7388 0.0000
# 6 0.0000 0.0000 0.0000 0.0000 0.0000 12.1817
#
#
#
# Elastic Compliance Matrix: (Units=1/GPa)
#
#
# Indices 1 2 3 4 5 6 
#
# 1 0.010912 -0.014431 -0.004407 0.000000 0.000000 0.000000
# 2 -0.014431 0.264480 -0.012552 0.000000 0.000000 0.000000
# 3 -0.004407 -0.012552 0.008648 0.000000 0.000000 0.000000
# 4 0.000000 0.000000 0.000000 -0.229737 0.000000 0.000000
# 5 0.000000 0.000000 0.000000 0.000000 0.022863 0.000000
# 6 0.000000 0.000000 0.000000 0.000000 0.000000 0.082091
#
#
# Mechanical properties :
#
#
# Convention : Reuss Voigt Hill
#
# Bulk Modulus (GPa) = 4.51959 63.00417 33.76188
# Shear Modulus (GPa) = 16.90396 24.61803 20.76099
#
# Velocity S-wave (km/s) = 3.01241 3.63535 3.33844
# Velocity P-wave (km/s) = 3.81126 7.17243 5.74323
#
# Compressibility (1/GPa) = 0.22125920
#
# Stress axis : x y z
#
# Youngs Moduli (GPa) = 91.64034 3.78101 115.63925
#
# Poissons Ratio (x) = 0.05456 0.50967
# Poissons Ratio (y) = 1.32244 1.45149
# Poissons Ratio (z) = 0.40389 0.04746
#
# Static dielectric constant tensor:
#      x y z
#    x 3.727180 0.000000 0.000000 
#    y 0.000000 2.696040 0.000000 
#    z 0.000000 0.000000 3.836870 
# 
# 
# High freq. dielectric constant tensor:
#      x y z
#    x 1.732740 0.000000 0.000000 
#    y 0.000000 1.643950 0.000000 
#    z 0.000000 0.000000 1.747600 
# 
# From -- ./inp_files/34332.got.cif
#   From: 2010.03.12/outbox.cif.g09.slc.cpg/sg51_18_cif.got.tgz:34332.got - 2010.04.16 13:43:02.
