data_PCOD8210082
_publ_section_title
;
Structure prediction by ZEFSAII (Michael W. Deem and Ramdas Pophale) SiO2 
 PCOD8210082
Probable space group: P M M A
;
_chemical_formula_sum "Si O2"
_cell_formula_units_Z 64
_cell_length_a 24.611080
_cell_length_b 15.339647
_cell_length_c 8.555434
_cell_angle_alpha 90.000000
_cell_angle_beta 90.000000
_cell_angle_gamma 90.000000
_cell_volume 3229.892612
_symmetry_space_group_name_H-M "P M M A"
_symmetry_group_IT_number 51
_symmetry_cell_setting 'orthorhombic'
loop_
_space_group_symop_operation_xyz
x,y,z
1/2-x,-y,z
1/2+x,-y,-z
-x,y,-z
-x,-y,-z
1/2+x,y,-z
1/2-x,y,z
x,-y,z
loop_
_atom_site_type_symbol
_atom_site_label
_atom_site_fract_x
_atom_site_fract_y
_atom_site_fract_z
Si Si1 0.506541 0.671860 0.174336
Si Si2 0.119038 0.404937 0.849776
Si Si3 0.308185 0.261963 0.695259
Si Si4 0.146667 0.239241 0.387818
Si Si5 0.363704 0.098573 0.811348
Si Si6 0.452350 0.821272 0.604867
Si Si7 0.813222 0.099688 0.859542
Si Si8 0.890696 0.597422 0.794057
O O1 0.554935 0.602423 0.175166
O O2 0.516514 0.745150 0.303458
O O3 0.454282 0.616353 0.219010
O O4 0.500000 0.713848 0.000000
O O5 0.137925 0.500000 0.786808
O O6 0.146543 0.326523 0.758506
O O7 0.132657 0.396929 0.031419
O O8 0.250000 0.290260 0.763683
O O9 0.305654 0.262584 0.508217
O O10 0.319977 0.162167 0.736690
O O11 0.092950 0.214107 0.485695
O O12 0.164714 0.160551 0.277475
O O13 0.141181 0.329057 0.297080
O O14 0.423976 0.118644 0.739497
O O15 0.348315 0.000000 0.766615
O O16 0.356134 0.112515 0.997780
O O17 0.500000 0.868335 0.500000
O O18 0.750000 0.122397 0.903987
O O19 0.816108 0.000000 0.800849
O O20 0.880084 0.500000 0.726410
#
# Coordination Sequence:
#
# PCOD8210082 Si02
#       8
#     8   8   8   8   8   8   8   8
#     4  10  19  36  62  87 116 156 204 248 295 349
#     4  10  20  37  60  89 120 154 202 253 300 355
#     4  11  23  39  60  86 118 158 200 247 309 365
#     4  11  22  37  59  88 128 159 196 250 309 363
#     4  10  22  40  64  90 117 153 201 251 298 357
#     4  11  22  38  58  92 126 166 201 239 305 371
#     4  10  22  42  68  94 117 152 206 261 309 359
#     4  10  21  36  59  89 120 158 202 249 297 353
#
# _framework density 19.814900999999999
#
# number of rings (size 3 to 8) (size 9 to 14) (size 15 to 20)
#    0.000    1.625    3.750    1.875    1.750    5.250 
#    0.000    1.250    0.000    4.500    0.000    0.000 
#    0.000    0.000    0.000    0.000    0.000    0.000 
#
# Total GULP energy -793011.225150 kJ/mol
# GULP energy per Si atom -12390.800393 kJ/mol
# Density = 1.976980 g / cm^3
# Si number density = 19.814901 Si / 1000 Ang^3
#
#
#
# Elastic Constant Matrix: (Units=GPa)
#
#
# Indices 1 2 3 4 5 6 
#
# 1 82.9454 40.8819 43.3404 0.0000 0.0000 0.0000
# 2 40.8819 140.9486 70.1822 0.0000 0.0000 0.0000
# 3 43.3404 70.1822 105.3080 0.0000 0.0000 0.0000
# 4 0.0000 0.0000 0.0000 -7.4213 0.0000 0.0000
# 5 0.0000 0.0000 0.0000 0.0000 24.0832 0.0000
# 6 0.0000 0.0000 0.0000 0.0000 0.0000 17.3175
#
#
#
# Elastic Compliance Matrix: (Units=1/GPa)
#
#
# Indices 1 2 3 4 5 6 
#
# 1 0.015728 -0.002004 -0.005138 0.000000 0.000000 0.000000
# 2 -0.002004 0.010874 -0.006422 0.000000 0.000000 0.000000
# 3 -0.005138 -0.006422 0.015890 0.000000 0.000000 0.000000
# 4 0.000000 0.000000 0.000000 -0.134747 0.000000 0.000000
# 5 0.000000 0.000000 0.000000 0.000000 0.041523 0.000000
# 6 0.000000 0.000000 0.000000 0.000000 0.000000 0.057745
#
#
# Mechanical properties :
#
#
# Convention : Reuss Voigt Hill
#
# Bulk Modulus (GPa) = 65.08180 70.89012 67.98596
# Shear Modulus (GPa) = 127.34911 18.44904 72.89907
#
# Velocity S-wave (km/s) = 8.02551 3.05465 6.07206
# Velocity P-wave (km/s) = 10.89930 6.94946 9.14029
#
# Compressibility (1/GPa) = 0.01536528
#
# Stress axis : x y z
#
# Youngs Moduli (GPa) = 63.57981 91.96498 62.93101
#
# Poissons Ratio (x) = 0.18427 0.32332
# Poissons Ratio (y) = 0.12740 0.40415
# Poissons Ratio (z) = 0.32665 0.59061
#
# Static dielectric constant tensor:
#      x y z
#    x 3.744620 0.000000 0.000000 
#    y 0.000000 3.604470 0.000000 
#    z 0.000000 0.000000 3.823680 
# 
# 
# High freq. dielectric constant tensor:
#      x y z
#    x 1.765920 0.000000 0.000000 
#    y 0.000000 1.768630 0.000000 
#    z 0.000000 0.000000 1.778610 
# 
# From -- ./inp_files/11850.got.cif
#   From: 2010.03.12/outbox.cif.g09.slc.cpg/sg51_6_cif.got.tgz:11850.got - 2010.04.16 13:43:02.
