data_PCOD8210493
_publ_section_title
;
Structure prediction by ZEFSAII (Michael W. Deem and Ramdas Pophale) SiO2 
 PCOD8210493
Probable space group: P M M A
;
_chemical_formula_sum "Si O2"
_cell_formula_units_Z 48
_cell_length_a 18.014187
_cell_length_b 9.414233
_cell_length_c 15.677639
_cell_angle_alpha 90.000000
_cell_angle_beta 90.000000
_cell_angle_gamma 90.000000
_cell_volume 2658.766937
_symmetry_space_group_name_H-M "P M M A"
_symmetry_group_IT_number 51
_symmetry_cell_setting 'orthorhombic'
loop_
_space_group_symop_operation_xyz
x,y,z
1/2-x,-y,z
1/2+x,-y,-z
-x,y,-z
-x,-y,-z
1/2+x,y,-z
1/2-x,y,z
x,-y,z
loop_
_atom_site_type_symbol
_atom_site_label
_atom_site_fract_x
_atom_site_fract_y
_atom_site_fract_z
Si Si1 0.405608 0.167711 0.678413
Si Si2 0.164866 0.661875 0.825741
Si Si3 0.576636 0.831653 0.688799
Si Si4 0.163645 0.167300 0.147759
Si Si5 0.082707 0.168335 0.494123
Si Si6 0.086057 0.333879 0.997503
O O1 0.351754 0.242937 0.744205
O O2 0.490711 0.216557 0.694187
O O3 0.377148 0.214065 0.582603
O O4 0.398130 0.000000 0.691019
O O5 0.250000 0.681068 0.852394
O O6 0.146444 0.500000 0.801741
O O7 0.115427 0.712375 0.905033
O O8 0.623049 0.769847 0.767975
O O9 0.614129 0.778737 0.598178
O O10 0.580931 0.000000 0.692202
O O11 0.250000 0.203264 0.156122
O O12 0.130495 0.245141 0.066608
O O13 0.149819 0.000000 0.137040
O O14 0.000000 0.229070 0.500000
O O15 0.079854 0.000000 0.492240
O O16 0.099866 0.500000 0.014877
O O17 0.000000 0.293563 0.000000
#
# Coordination Sequence:
#
# PCOD8210493 Si02
#       6
#     8   8   8   8   8   8
#     4   9  16  28  50  75  94 120 163 206 234 264
#     4  10  21  35  48  65  95 130 154 182 238 299
#     4   8  14  27  47  71 100 129 156 193 240 281
#     4  10  20  32  48  73 102 130 159 192 236 289
#     4   7  11  22  43  70  96 122 154 193 235 273
#     4  10  21  37  56  74  91 119 162 205 243 287
#
# _framework density 18.053481999999999
#
# number of rings (size 3 to 8) (size 9 to 14) (size 15 to 20)
#    0.000    3.000    0.000    3.500    0.000    2.333 
#    0.000    0.833    0.000    8.500    0.000    0.000 
#    0.000    0.000    0.000    0.000    0.000    0.000 
#
# Total GULP energy -594699.214371 kJ/mol
# GULP energy per Si atom -12389.566966 kJ/mol
# Density = 1.801239 g / cm^3
# Si number density = 18.053482 Si / 1000 Ang^3
#
#
#
# Elastic Constant Matrix: (Units=GPa)
#
#
# Indices 1 2 3 4 5 6 
#
# 1 55.0760 21.1022 32.4929 0.0000 0.0000 0.0000
# 2 21.1022 29.9807 37.1912 0.0000 0.0000 0.0000
# 3 32.4929 37.1912 135.5651 0.0000 0.0000 0.0000
# 4 0.0000 0.0000 0.0000 0.2079 0.0000 0.0000
# 5 0.0000 0.0000 0.0000 0.0000 13.7875 0.0000
# 6 0.0000 0.0000 0.0000 0.0000 0.0000 18.4902
#
#
#
# Elastic Compliance Matrix: (Units=1/GPa)
#
#
# Indices 1 2 3 4 5 6 
#
# 1 0.025140 -0.015493 -0.001775 0.000000 0.000000 0.000000
# 2 -0.015493 0.060110 -0.012777 0.000000 0.000000 0.000000
# 3 -0.001775 -0.012777 0.011307 0.000000 0.000000 0.000000
# 4 0.000000 0.000000 0.000000 4.809910 0.000000 0.000000
# 5 0.000000 0.000000 0.000000 0.000000 0.072529 0.000000
# 6 0.000000 0.000000 0.000000 0.000000 0.000000 0.054083
#
#
# Mechanical properties :
#
#
# Convention : Reuss Voigt Hill
#
# Bulk Modulus (GPa) = 27.42241 44.68825 36.05533
# Shear Modulus (GPa) = 0.97937 15.15283 8.06610
#
# Velocity S-wave (km/s) = 0.73733 2.90026 2.11603
# Velocity P-wave (km/s) = 3.99342 6.00186 5.09754
#
# Compressibility (1/GPa) = 0.03646652
#
# Stress axis : x y z
#
# Youngs Moduli (GPa) = 39.77705 16.63625 88.43766
#
# Poissons Ratio (x) = 0.25774 0.15701
# Poissons Ratio (y) = 0.61625 1.12999
# Poissons Ratio (z) = 0.07062 0.21257
#
# Static dielectric constant tensor:
#      x y z
#    x 3.676480 0.000000 0.000000 
#    y 0.000000 2.922520 0.000000 
#    z 0.000000 0.000000 3.885950 
# 
# 
# High freq. dielectric constant tensor:
#      x y z
#    x 1.681210 0.000000 0.000000 
#    y 0.000000 1.653240 0.000000 
#    z 0.000000 0.000000 1.725740 
# 
# From -- ./inp_files/24828.got.cif
#   From: 2010.03.12/outbox.cif.g09.slc.cpg/sg51_13_cif.got.tgz:24828.got - 2010.04.16 13:43:02.
