data_PCOD8210321
_publ_section_title
;
Structure prediction by ZEFSAII (Michael W. Deem and Ramdas Pophale) SiO2 
 PCOD8210321
Probable space group: P M M A
;
_chemical_formula_sum "Si O2"
_cell_formula_units_Z 64
_cell_length_a 8.906488
_cell_length_b 14.084680
_cell_length_c 31.015335
_cell_angle_alpha 90.000000
_cell_angle_beta 90.000000
_cell_angle_gamma 90.000000
_cell_volume 3890.719735
_symmetry_space_group_name_H-M "P M M A"
_symmetry_group_IT_number 51
_symmetry_cell_setting 'orthorhombic'
loop_
_space_group_symop_operation_xyz
x,y,z
1/2-x,-y,z
1/2+x,-y,-z
-x,y,-z
-x,-y,-z
1/2+x,y,-z
1/2-x,y,z
x,-y,z
loop_
_atom_site_type_symbol
_atom_site_label
_atom_site_fract_x
_atom_site_fract_y
_atom_site_fract_z
Si Si1 0.419271 0.612879 0.957447
Si Si2 0.073055 0.391846 0.456447
Si Si3 0.424023 0.611665 0.129792
Si Si4 0.926439 0.719515 0.207590
Si Si5 0.425735 0.107470 0.663636
Si Si6 0.924192 0.610349 0.294255
Si Si7 0.072471 0.282383 0.372165
Si Si8 0.924998 0.108051 0.754863
O O1 0.250000 0.653156 0.954835
O O2 0.415896 0.500000 0.959728
O O3 0.513124 0.646849 0.916079
O O4 0.500000 0.654250 0.000000
O O5 0.250000 0.385393 0.461346
O O6 0.020162 0.500000 0.448756
O O7 0.015518 0.330534 0.416169
O O8 0.000000 0.350578 0.500000
O O9 0.250000 0.639058 0.132839
O O10 0.449605 0.500000 0.135723
O O11 0.516688 0.664329 0.166219
O O12 0.750000 0.734997 0.203710
O O13 0.970672 0.659073 0.249576
O O14 0.006771 0.822169 0.209276
O O15 0.250000 0.127051 0.666489
O O16 0.499800 0.177771 0.629101
O O17 0.493152 0.130390 0.710150
O O18 0.461790 0.000000 0.649235
O O19 0.750000 0.627973 0.304820
O O20 0.962509 0.500000 0.290013
O O21 0.022391 0.653773 0.332222
O O22 0.250000 0.272665 0.371214
O O23 0.750000 0.128093 0.748333
O O24 0.954828 0.000000 0.769743
#
# Coordination Sequence:
#
# PCOD8210321 Si02
#       8
#     8   8   8   8   8   8   8   8
#     4   9  16  27  44  65  90 122 163 210 255 297
#     4   9  19  35  53  75 101 129 160 195 237 285
#     4  10  20  32  46  66  95 133 173 209 249 296
#     4  11  21  33  49  69  97 132 168 203 242 291
#     4  10  20  34  52  74  99 127 161 199 240 288
#     4  10  21  34  47  67  97 133 169 200 234 281
#     4  11  21  33  52  76 101 127 160 201 244 288
#     4  10  20  34  52  73  96 124 161 204 248 291
#
# _framework density 16.449399
#
# number of rings (size 3 to 8) (size 9 to 14) (size 15 to 20)
#    0.000    2.000    1.250    3.000    0.000    6.500 
#    0.000    1.250    0.000    0.375    0.000    0.000 
#    0.000    0.500    0.000    1.875    0.000    2.875 
#
# Total GULP energy -793784.158105 kJ/mol
# GULP energy per Si atom -12402.877470 kJ/mol
# Density = 1.641196 g / cm^3
# Si number density = 16.449399 Si / 1000 Ang^3
#
#
#
# Elastic Constant Matrix: (Units=GPa)
#
#
# Indices 1 2 3 4 5 6 
#
# 1 68.7817 36.6277 42.8275 0.0000 0.0000 0.0000
# 2 36.6277 82.2084 47.9704 0.0000 0.0000 0.0000
# 3 42.8275 47.9704 118.9046 0.0000 0.0000 0.0000
# 4 0.0000 0.0000 0.0000 7.4677 0.0000 0.0000
# 5 0.0000 0.0000 0.0000 0.0000 31.6277 0.0000
# 6 0.0000 0.0000 0.0000 0.0000 0.0000 26.7253
#
#
#
# Elastic Compliance Matrix: (Units=1/GPa)
#
#
# Indices 1 2 3 4 5 6 
#
# 1 0.021097 -0.006495 -0.004979 0.000000 0.000000 0.000000
# 2 -0.006495 0.017909 -0.004886 0.000000 0.000000 0.000000
# 3 -0.004979 -0.004886 0.012174 0.000000 0.000000 0.000000
# 4 0.000000 0.000000 0.000000 0.133910 0.000000 0.000000
# 5 0.000000 0.000000 0.000000 0.000000 0.031618 0.000000
# 6 0.000000 0.000000 0.000000 0.000000 0.000000 0.037418
#
#
# Mechanical properties :
#
#
# Convention : Reuss Voigt Hill
#
# Bulk Modulus (GPa) = 54.16451 58.30509 56.23480
# Shear Modulus (GPa) = 17.06494 22.66209 19.86351
#
# Velocity S-wave (km/s) = 3.22440 3.71574 3.47876
# Velocity P-wave (km/s) = 6.84556 7.34378 7.09904
#
# Compressibility (1/GPa) = 0.01846227
#
# Stress axis : x y z
#
# Youngs Moduli (GPa) = 47.39930 55.83829 82.13913
#
# Poissons Ratio (x) = 0.36265 0.40895
# Poissons Ratio (y) = 0.30784 0.40132
# Poissons Ratio (z) = 0.23599 0.27281
#
# Static dielectric constant tensor:
#      x y z
#    x 3.215270 0.000000 0.000000 
#    y 0.000000 3.096680 0.000000 
#    z 0.000000 0.000000 3.085430 
# 
# 
# High freq. dielectric constant tensor:
#      x y z
#    x 1.649040 0.000000 0.000000 
#    y 0.000000 1.614580 0.000000 
#    z 0.000000 0.000000 1.621450 
# 
# From -- ./inp_files/37666.got.cif
#   From: 2010.03.12/outbox.cif.g09.slc.cpg/sg51_19_cif.got.tgz:37666.got - 2010.04.16 13:43:02.
