data_PCOD8210435
_publ_section_title
;
Structure prediction by ZEFSAII (Michael W. Deem and Ramdas Pophale) SiO2 
 PCOD8210435
Probable space group: P M M A
;
_chemical_formula_sum "Si O2"
_cell_formula_units_Z 64
_cell_length_a 14.296048
_cell_length_b 9.073495
_cell_length_c 28.024494
_cell_angle_alpha 90.000000
_cell_angle_beta 90.000000
_cell_angle_gamma 90.000000
_cell_volume 3635.200603
_symmetry_space_group_name_H-M "P M M A"
_symmetry_group_IT_number 51
_symmetry_cell_setting 'orthorhombic'
loop_
_space_group_symop_operation_xyz
x,y,z
1/2-x,-y,z
1/2+x,-y,-z
-x,y,-z
-x,-y,-z
1/2+x,y,-z
1/2-x,y,z
x,-y,z
loop_
_atom_site_type_symbol
_atom_site_label
_atom_site_fract_x
_atom_site_fract_y
_atom_site_fract_z
Si Si1 0.028104 0.673554 0.611851
Si Si2 0.140612 0.831743 0.969538
Si Si3 0.644866 0.331766 0.934372
Si Si4 0.540096 0.329558 0.115029
Si Si5 0.357215 0.173779 0.800447
Si Si6 0.642393 0.328981 0.296634
Si Si7 0.640791 0.832716 0.467652
Si Si8 0.355192 0.171887 0.422969
O O1 0.020247 0.500000 0.611052
O O2 0.080642 0.728213 0.659322
O O3 0.084518 0.722437 0.565389
O O4 0.924352 0.741193 0.611959
O O5 0.250000 0.820390 0.958877
O O6 0.089408 0.727926 0.932334
O O7 0.105738 0.000000 0.964626
O O8 0.116965 0.775542 0.022438
O O9 0.750000 0.296602 0.915846
O O10 0.638504 0.500000 0.953000
O O11 0.571891 0.307100 0.891149
O O12 0.566208 0.500000 0.122395
O O13 0.573551 0.239195 0.160514
O O14 0.250000 0.218612 0.812226
O O15 0.387723 0.236392 0.749382
O O16 0.369280 0.000000 0.799886
O O17 0.750000 0.299794 0.310156
O O18 0.624450 0.500000 0.285487
O O19 0.750000 0.810321 0.458384
O O20 0.616197 0.796570 0.522355
O O21 0.610919 0.000000 0.455555
O O22 0.250000 0.228001 0.413226
O O23 0.362590 0.000000 0.411861
#
# Coordination Sequence:
#
# PCOD8210435 Si02
#       8
#     8   8   8   8   8   8   8   8
#     4  11  21  31  49  77 104 130 163 205 253 301
#     4  10  20  32  47  71 103 135 166 202 243 285
#     4   9  19  35  51  69  97 132 169 205 239 281
#     4  11  21  32  51  75  98 130 167 200 242 294
#     4  10  21  36  54  77 102 126 156 197 243 290
#     4   9  19  36  54  73 101 132 158 190 239 298
#     4   9  18  32  49  70  99 136 174 207 242 291
#     4   9  19  35  51  68  96 136 177 212 245 286
#
# _framework density 17.605630999999999
#
# number of rings (size 3 to 8) (size 9 to 14) (size 15 to 20)
#    0.000    2.250    0.000    3.750    0.000    9.500 
#    0.000    2.500    0.000    0.750    0.000    1.750 
#    0.000    0.000    0.000    0.000    0.000    0.000 
#
# Total GULP energy -793730.854012 kJ/mol
# GULP energy per Si atom -12402.044594 kJ/mol
# Density = 1.756556 g / cm^3
# Si number density = 17.605631 Si / 1000 Ang^3
#
#
#
# Elastic Constant Matrix: (Units=GPa)
#
#
# Indices 1 2 3 4 5 6 
#
# 1 85.7532 44.5114 74.9928 0.0000 0.0000 0.0000
# 2 44.5114 64.2694 45.6877 0.0000 0.0000 0.0000
# 3 74.9928 45.6877 93.9717 0.0000 0.0000 0.0000
# 4 0.0000 0.0000 0.0000 4.3289 0.0000 0.0000
# 5 0.0000 0.0000 0.0000 0.0000 29.9151 0.0000
# 6 0.0000 0.0000 0.0000 0.0000 0.0000 27.5794
#
#
#
# Elastic Compliance Matrix: (Units=1/GPa)
#
#
# Indices 1 2 3 4 5 6 
#
# 1 0.041042 -0.007857 -0.028933 0.000000 0.000000 0.000000
# 2 -0.007857 0.025281 -0.006021 0.000000 0.000000 0.000000
# 3 -0.028933 -0.006021 0.036659 0.000000 0.000000 0.000000
# 4 0.000000 0.000000 0.000000 0.231006 0.000000 0.000000
# 5 0.000000 0.000000 0.000000 0.000000 0.033428 0.000000
# 6 0.000000 0.000000 0.000000 0.000000 0.000000 0.036259
#
#
# Mechanical properties :
#
#
# Convention : Reuss Voigt Hill
#
# Bulk Modulus (GPa) = 57.60564 63.81977 60.71271
# Shear Modulus (GPa) = 10.09926 17.61817 13.85872
#
# Velocity S-wave (km/s) = 2.39767 3.16684 2.80871
# Velocity P-wave (km/s) = 6.36052 7.04983 6.71403
#
# Compressibility (1/GPa) = 0.01735941
#
# Stress axis : x y z
#
# Youngs Moduli (GPa) = 24.36509 39.55466 27.27849
#
# Poissons Ratio (x) = 0.31077 0.78926
# Poissons Ratio (y) = 0.19143 0.16426
# Poissons Ratio (z) = 0.70496 0.23818
#
# Static dielectric constant tensor:
#      x y z
#    x 3.453900 0.000000 0.000000 
#    y 0.000000 3.287770 0.000000 
#    z 0.000000 0.000000 3.139690 
# 
# 
# High freq. dielectric constant tensor:
#      x y z
#    x 1.684770 0.000000 0.000000 
#    y 0.000000 1.686180 0.000000 
#    z 0.000000 0.000000 1.658220 
# 
# From -- ./inp_files/35674.got.cif
#   From: 2010.03.12/outbox.cif.g09.slc.cpg/sg51_18_cif.got.tgz:35674.got - 2010.04.16 13:43:02.
