data_PCOD8210676
_publ_section_title
;
Structure prediction by ZEFSAII (Michael W. Deem and Ramdas Pophale) SiO2 
 PCOD8210676
Probable space group: P M M A
;
_chemical_formula_sum "Si O2"
_cell_formula_units_Z 56
_cell_length_a 15.467001
_cell_length_b 8.798533
_cell_length_c 21.531572
_cell_angle_alpha 90.000000
_cell_angle_beta 90.000000
_cell_angle_gamma 90.000000
_cell_volume 2930.165288
_symmetry_space_group_name_H-M "P M M A"
_symmetry_group_IT_number 51
_symmetry_cell_setting 'orthorhombic'
loop_
_space_group_symop_operation_xyz
x,y,z
1/2-x,-y,z
1/2+x,-y,-z
-x,y,-z
-x,-y,-z
1/2+x,y,-z
1/2-x,y,z
x,-y,z
loop_
_atom_site_type_symbol
_atom_site_label
_atom_site_fract_x
_atom_site_fract_y
_atom_site_fract_z
Si Si1 0.848294 0.676109 0.057614
Si Si2 0.000253 0.678798 0.850131
Si Si3 0.996849 0.819028 0.284150
Si Si4 0.155170 0.180003 0.628972
Si Si5 0.849188 0.177605 0.927038
Si Si6 0.097934 0.819402 0.497401
Si Si7 0.154841 0.180350 0.365179
O O1 0.750000 0.706417 0.080928
O O2 0.861287 0.500000 0.039982
O O3 0.915758 0.727645 0.110106
O O4 0.869673 0.774593 0.997247
O O5 0.995888 0.500000 0.842032
O O6 0.911410 0.733295 0.880809
O O7 0.011169 0.754786 0.784040
O O8 0.916473 0.754560 0.324222
O O9 0.084335 0.757043 0.316630
O O10 0.996270 0.000000 0.280724
O O11 0.250000 0.226824 0.653710
O O12 0.144405 0.245146 0.559073
O O13 0.143910 0.000000 0.625994
O O14 0.750000 0.218226 0.910030
O O15 0.867050 0.000000 0.919806
O O16 0.140342 0.753019 0.434526
O O17 0.000000 0.764008 0.500000
O O18 0.104536 0.000000 0.496231
O O19 0.250000 0.229870 0.341902
O O20 0.145963 0.000000 0.368420
#
# Coordination Sequence:
#
# PCOD8210676 Si02
#       7
#     8   8   8   8   8   8   8
#     4   9  19  37  59  82 109 140 175 216 260 308
#     4  11  23  37  55  78 106 144 185 218 257 307
#     4  10  20  33  47  68 100 135 172 215 258 305
#     4   9  16  26  42  66  97 131 166 209 265 321
#     4  10  21  37  59  87 114 138 168 211 263 314
#     4   9  13  21  39  64  96 128 158 202 261 319
#     4   9  16  26  42  65  94 128 164 205 257 312
#
# _framework density 19.111550000000001
#
# number of rings (size 3 to 8) (size 9 to 14) (size 15 to 20)
#    0.000    2.429    1.429    1.714    0.000    6.571 
#    0.000    1.429    0.000    0.000    0.000    2.000 
#    0.000    2.286    0.000    0.000    0.000    0.000 
#
# Total GULP energy -694260.874569 kJ/mol
# GULP energy per Si atom -12397.515617 kJ/mol
# Density = 1.906805 g / cm^3
# Si number density = 19.111550 Si / 1000 Ang^3
#
#
#
# Elastic Constant Matrix: (Units=GPa)
#
#
# Indices 1 2 3 4 5 6 
#
# 1 139.9283 27.5292 71.5111 0.0000 0.0000 0.0000
# 2 27.5292 15.1690 16.1923 0.0000 0.0000 0.0000
# 3 71.5111 16.1923 120.0100 0.0000 0.0000 0.0000
# 4 0.0000 0.0000 0.0000 -26.5387 0.0000 0.0000
# 5 0.0000 0.0000 0.0000 0.0000 19.6161 0.0000
# 6 0.0000 0.0000 0.0000 0.0000 0.0000 15.0757
#
#
#
# Elastic Compliance Matrix: (Units=1/GPa)
#
#
# Indices 1 2 3 4 5 6 
#
# 1 0.013756 -0.018944 -0.005641 0.000000 0.000000 0.000000
# 2 -0.018944 0.103104 -0.002623 0.000000 0.000000 0.000000
# 3 -0.005641 -0.002623 0.012048 0.000000 0.000000 0.000000
# 4 0.000000 0.000000 0.000000 -0.037681 0.000000 0.000000
# 5 0.000000 0.000000 0.000000 0.000000 0.050979 0.000000
# 6 0.000000 0.000000 0.000000 0.000000 0.000000 0.066332
#
#
# Mechanical properties :
#
#
# Convention : Reuss Voigt Hill
#
# Bulk Modulus (GPa) = 13.42424 56.17471 34.79947
# Shear Modulus (GPa) = 17.37410 12.28893 14.83151
#
# Velocity S-wave (km/s) = 3.01838 2.53852 2.78879
# Velocity P-wave (km/s) = 4.38029 6.16838 5.34957
#
# Compressibility (1/GPa) = 0.07449209
#
# Stress axis : x y z
#
# Youngs Moduli (GPa) = 72.69336 9.69896 83.00166
#
# Poissons Ratio (x) = 0.18374 0.46822
# Poissons Ratio (y) = 1.37709 0.21772
# Poissons Ratio (z) = 0.41007 0.02544
#
# Static dielectric constant tensor:
#      x y z
#    x 3.822690 0.000000 0.000000 
#    y 0.000000 3.002500 0.000000 
#    z 0.000000 0.000000 3.527630 
# 
# 
# High freq. dielectric constant tensor:
#      x y z
#    x 1.762520 0.000000 0.000000 
#    y 0.000000 1.688980 0.000000 
#    z 0.000000 0.000000 1.743440 
# 
# From -- ./inp_files/33324.got.cif
#   From: 2010.03.12/outbox.cif.g09.slc.cpg/sg51_17_cif.got.tgz:33324.got - 2010.04.16 13:43:02.
