data_PCOD8210309
_publ_section_title
;
Structure prediction by ZEFSAII (Michael W. Deem and Ramdas Pophale) SiO2 
 PCOD8210309
Probable space group: P M M A
;
_chemical_formula_sum "Si O2"
_cell_formula_units_Z 56
_cell_length_a 19.546407
_cell_length_b 9.149732
_cell_length_c 18.563685
_cell_angle_alpha 90.000000
_cell_angle_beta 90.000000
_cell_angle_gamma 90.000000
_cell_volume 3320.010839
_symmetry_space_group_name_H-M "P M M A"
_symmetry_group_IT_number 51
_symmetry_cell_setting 'orthorhombic'
loop_
_space_group_symop_operation_xyz
x,y,z
1/2-x,-y,z
1/2+x,-y,-z
-x,y,-z
-x,-y,-z
1/2+x,y,-z
1/2-x,y,z
x,-y,z
loop_
_atom_site_type_symbol
_atom_site_label
_atom_site_fract_x
_atom_site_fract_y
_atom_site_fract_z
Si Si1 0.143868 0.160183 0.259222
Si Si2 0.421509 0.835124 0.523112
Si Si3 0.825495 0.170954 0.897707
Si Si4 0.612222 0.663502 0.611249
Si Si5 0.455078 0.334932 0.658502
Si Si6 0.009065 0.162998 0.790322
Si Si7 0.540635 0.668995 0.926695
O O1 0.177974 0.219855 0.186020
O O2 0.159225 0.268216 0.325467
O O3 0.063362 0.147511 0.247652
O O4 0.173454 0.000000 0.278390
O O5 0.500000 0.835328 0.500000
O O6 0.377300 0.756414 0.461308
O O7 0.411382 0.749333 0.597955
O O8 0.394581 0.000000 0.532883
O O9 0.750000 0.199461 0.931690
O O10 0.883411 0.263995 0.938325
O O11 0.845751 0.000000 0.902287
O O12 0.638032 0.500000 0.596351
O O13 0.533884 0.662985 0.635747
O O14 0.427332 0.500000 0.665557
O O15 0.443318 0.253757 0.735108
O O16 0.002254 0.247744 0.865628
O O17 0.039481 0.000000 0.803941
O O18 0.548054 0.500000 0.904500
O O19 0.500000 0.688736 0.000000
#
# Coordination Sequence:
#
# PCOD8210309 Si02
#       7
#     8   8   8   8   8   8   8
#     4   8  14  24  37  53  74 100 131 168 208 249
#     4   9  15  21  29  42  63  93 129 166 203 243
#     4   9  18  32  49  68  89 115 149 187 226 270
#     4   9  15  21  30  45  66  94 129 166 202 240
#     4   9  15  22  32  47  69  96 128 167 208 249
#     4   9  16  26  40  56  75 103 139 175 212 257
#     4  10  20  32  46  66  91 118 149 185 227 277
#
# _framework density 16.867414
#
# number of rings (size 3 to 8) (size 9 to 14) (size 15 to 20)
#    0.000    3.000    0.000    3.000    0.000   10.000 
#    0.000    0.000    0.000    0.000    0.000    0.000 
#    0.000    0.000    0.000    1.286    0.000   23.429 
#
# Total GULP energy -694086.050694 kJ/mol
# GULP energy per Si atom -12394.393762 kJ/mol
# Density = 1.682902 g / cm^3
# Si number density = 16.867414 Si / 1000 Ang^3
#
#
#
# Elastic Constant Matrix: (Units=GPa)
#
#
# Indices 1 2 3 4 5 6 
#
# 1 32.1784 26.9430 24.4072 0.0000 0.0000 0.0000
# 2 26.9430 152.0393 66.9935 0.0000 0.0000 0.0000
# 3 24.4072 66.9935 91.8609 0.0000 0.0000 0.0000
# 4 0.0000 0.0000 0.0000 31.0856 0.0000 0.0000
# 5 0.0000 0.0000 0.0000 0.0000 7.1505 0.0000
# 6 0.0000 0.0000 0.0000 0.0000 0.0000 6.6106
#
#
#
# Elastic Compliance Matrix: (Units=1/GPa)
#
#
# Indices 1 2 3 4 5 6 
#
# 1 0.040188 -0.003561 -0.008081 0.000000 0.000000 0.000000
# 2 -0.003561 0.010007 -0.006352 0.000000 0.000000 0.000000
# 3 -0.008081 -0.006352 0.017666 0.000000 0.000000 0.000000
# 4 0.000000 0.000000 0.000000 0.032169 0.000000 0.000000
# 5 0.000000 0.000000 0.000000 0.000000 0.139850 0.000000
# 6 0.000000 0.000000 0.000000 0.000000 0.000000 0.151272
#
#
# Mechanical properties :
#
#
# Convention : Reuss Voigt Hill
#
# Bulk Modulus (GPa) = 31.37468 56.97400 44.17434
# Shear Modulus (GPa) = 11.42169 19.48501 15.45335
#
# Velocity S-wave (km/s) = 2.60502 3.40249 3.03011
# Velocity P-wave (km/s) = 5.26207 7.02046 6.20388
#
# Compressibility (1/GPa) = 0.03187284
#
# Stress axis : x y z
#
# Youngs Moduli (GPa) = 24.88327 99.92794 56.60744
#
# Poissons Ratio (x) = 0.35585 0.45743
# Poissons Ratio (y) = 0.08861 0.35957
# Poissons Ratio (z) = 0.20107 0.63474
#
# Static dielectric constant tensor:
#      x y z
#    x 2.630480 0.000000 0.000000 
#    y 0.000000 3.459880 0.000000 
#    z 0.000000 0.000000 3.111880 
# 
# 
# High freq. dielectric constant tensor:
#      x y z
#    x 1.572820 0.000000 0.000000 
#    y 0.000000 1.667380 0.000000 
#    z 0.000000 0.000000 1.640880 
# 
# From -- ./inp_files/30479.got.cif
#   From: 2010.03.12/outbox.cif.g09.slc.cpg/sg51_16_cif.got.tgz:30479.got - 2010.04.16 13:43:02.
