data_PCOD8210466
_publ_section_title
;
Structure prediction by ZEFSAII (Michael W. Deem and Ramdas Pophale) SiO2 
 PCOD8210466
Probable space group: P M M A
;
_chemical_formula_sum "Si O2"
_cell_formula_units_Z 48
_cell_length_a 8.595358
_cell_length_b 18.359618
_cell_length_c 17.477711
_cell_angle_alpha 90.000000
_cell_angle_beta 90.000000
_cell_angle_gamma 90.000000
_cell_volume 2758.113694
_symmetry_space_group_name_H-M "P M M A"
_symmetry_group_IT_number 51
_symmetry_cell_setting 'orthorhombic'
loop_
_space_group_symop_operation_xyz
x,y,z
1/2-x,-y,z
1/2+x,-y,-z
-x,y,-z
-x,-y,-z
1/2+x,y,-z
1/2-x,y,z
x,-y,z
loop_
_atom_site_type_symbol
_atom_site_label
_atom_site_fract_x
_atom_site_fract_y
_atom_site_fract_z
Si Si1 0.569566 0.291496 0.811812
Si Si2 0.933320 0.314708 0.417060
Si Si3 0.568280 0.083317 0.792369
Si Si4 0.570115 0.809507 0.311462
Si Si5 0.430566 0.581348 0.290745
Si Si6 0.566736 0.188323 0.081194
O O1 0.750000 0.269338 0.799260
O O2 0.455528 0.246698 0.757182
O O3 0.544438 0.376524 0.790614
O O4 0.513531 0.266526 0.896176
O O5 0.750000 0.317718 0.420509
O O6 0.986435 0.233907 0.387655
O O7 0.000000 0.329893 0.500000
O O8 0.987468 0.378258 0.360617
O O9 0.750000 0.090785 0.808733
O O10 0.528125 0.117756 0.708467
O O11 0.475104 0.125255 0.858351
O O12 0.513823 0.000000 0.791941
O O13 0.750000 0.831253 0.317204
O O14 0.250000 0.578676 0.311462
O O15 0.499169 0.500000 0.281520
O O16 0.750000 0.198302 0.076283
O O17 0.500000 0.163449 0.000000
#
# Coordination Sequence:
#
# PCOD8210466 Si02
#       6
#     8   8   8   8   8   8
#     4   9  16  29  49  70  93 122 158 196 232 276
#     4  10  20  32  48  71  97 127 161 198 239 282
#     4  10  20  33  50  73  99 126 156 190 232 282
#     4   9  17  30  48  69  92 121 160 198 232 275
#     4   9  18  32  50  72  98 128 159 193 236 284
#     4  11  21  33  50  71  97 127 159 195 235 279
#
# _framework density 17.403198
#
# number of rings (size 3 to 8) (size 9 to 14) (size 15 to 20)
#    0.000    2.333    0.000    5.500    0.000    5.000 
#    0.000    0.000    0.000    1.000    0.000    0.000 
#    0.000    0.000    0.000    0.000    0.000    0.000 
#
# Total GULP energy -594760.324190 kJ/mol
# GULP energy per Si atom -12390.840087 kJ/mol
# Density = 1.736359 g / cm^3
# Si number density = 17.403198 Si / 1000 Ang^3
#
#
#
# Elastic Constant Matrix: (Units=GPa)
#
#
# Indices 1 2 3 4 5 6 
#
# 1 62.9468 42.3360 24.4095 0.0000 0.0000 0.0000
# 2 42.3360 138.6342 64.5190 0.0000 0.0000 0.0000
# 3 24.4095 64.5190 41.7859 0.0000 0.0000 0.0000
# 4 0.0000 0.0000 0.0000 20.5297 0.0000 0.0000
# 5 0.0000 0.0000 0.0000 0.0000 24.1376 0.0000
# 6 0.0000 0.0000 0.0000 0.0000 0.0000 23.0049
#
#
#
# Elastic Compliance Matrix: (Units=1/GPa)
#
#
# Indices 1 2 3 4 5 6 
#
# 1 0.020775 -0.002474 -0.008315 0.000000 0.000000 0.000000
# 2 -0.002474 0.025926 -0.038586 0.000000 0.000000 0.000000
# 3 -0.008315 -0.038586 0.088367 0.000000 0.000000 0.000000
# 4 0.000000 0.000000 0.000000 0.048710 0.000000 0.000000
# 5 0.000000 0.000000 0.000000 0.000000 0.041429 0.000000
# 6 0.000000 0.000000 0.000000 0.000000 0.000000 0.043469
#
#
# Mechanical properties :
#
#
# Convention : Reuss Voigt Hill
#
# Bulk Modulus (GPa) = 27.53514 56.21068 41.87291
# Shear Modulus (GPa) = 13.17409 21.00794 17.09102
#
# Velocity S-wave (km/s) = 2.75433 3.47815 3.13719
# Velocity P-wave (km/s) = 5.09621 6.96414 6.10207
#
# Compressibility (1/GPa) = 0.03631723
#
# Stress axis : x y z
#
# Youngs Moduli (GPa) = 48.13435 38.57093 11.31648
#
# Poissons Ratio (x) = 0.09544 0.09410
# Poissons Ratio (y) = 0.11910 0.43665
# Poissons Ratio (z) = 0.40025 1.48828
#
# Static dielectric constant tensor:
#      x y z
#    x 3.259220 0.000000 0.000000 
#    y 0.000000 3.556890 0.000000 
#    z 0.000000 0.000000 3.318060 
# 
# 
# High freq. dielectric constant tensor:
#      x y z
#    x 1.684180 0.000000 0.000000 
#    y 0.000000 1.662670 0.000000 
#    z 0.000000 0.000000 1.649100 
# 
# From -- ./inp_files/27850.got.cif
#   From: 2010.03.12/outbox.cif.g09.slc.cpg/sg51_14_cif.got.tgz:27850.got - 2010.04.16 13:43:02.
