data_PCOD8210586
_publ_section_title
;
Structure prediction by ZEFSAII (Michael W. Deem and Ramdas Pophale) SiO2 
 PCOD8210586
Probable space group: P M M A
;
_chemical_formula_sum "Si O2"
_cell_formula_units_Z 52
_cell_length_a 9.928279
_cell_length_b 17.082573
_cell_length_c 17.979616
_cell_angle_alpha 90.000000
_cell_angle_beta 90.000000
_cell_angle_gamma 90.000000
_cell_volume 3049.352776
_symmetry_space_group_name_H-M "P M M A"
_symmetry_group_IT_number 51
_symmetry_cell_setting 'orthorhombic'
loop_
_space_group_symop_operation_xyz
x,y,z
1/2-x,-y,z
1/2+x,-y,-z
-x,y,-z
-x,-y,-z
1/2+x,y,-z
1/2-x,y,z
x,-y,z
loop_
_atom_site_type_symbol
_atom_site_label
_atom_site_fract_x
_atom_site_fract_y
_atom_site_fract_z
Si Si1 0.902924 0.828393 0.930379
Si Si2 0.905318 0.780841 0.773802
Si Si3 0.250000 0.408680 0.609718
Si Si4 0.250000 0.592970 0.435850
Si Si5 0.899967 0.000000 0.933767
Si Si6 0.507328 0.320642 0.643600
Si Si7 0.401060 0.911543 0.715058
Si Si8 0.096832 0.833399 0.564565
O O1 0.750000 0.819684 0.959899
O O2 0.928933 0.767434 0.862580
O O3 0.924338 0.916123 0.893176
O O4 0.000000 0.810919 0.000000
O O5 0.750000 0.801496 0.757782
O O6 0.945774 0.704164 0.726583
O O7 0.993649 0.854591 0.751944
O O8 0.250000 0.500000 0.620515
O O9 0.250000 0.385831 0.522815
O O10 0.378415 0.375169 0.652523
O O11 0.250000 0.500000 0.422968
O O12 0.119540 0.630095 0.398785
O O13 0.750000 0.000000 0.966657
O O14 0.000000 0.000000 0.000000
O O15 0.469507 0.245341 0.595768
O O16 0.250000 0.893307 0.744997
O O17 0.401968 0.900637 0.626310
O O18 0.442837 0.000000 0.734296
O O19 0.250000 0.816812 0.536491
O O20 0.000000 0.864865 0.500000
#
# Coordination Sequence:
#
# PCOD8210586 Si02
#       8
#     8   8   4   4   4   8   8   8
#     4   9  18  32  50  75 102 132 172 214 257 311
#     4  10  21  35  53  75 105 141 173 212 260 311
#     4  11  22  36  56  82 108 140 175 212 254 306
#     4  11  22  36  56  80 108 140 171 210 258 308
#     4   8  14  26  44  66  98 130 159 203 254 296
#     4  11  21  36  52  76 109 138 172 212 254 310
#     4   9  20  36  49  67  95 129 175 224 267 306
#     4  10  20  32  50  69  92 129 170 216 267 308
#
# _framework density 17.052799
#
# number of rings (size 3 to 8) (size 9 to 14) (size 15 to 20)
#    0.000    2.154    1.538    1.846    3.231    3.077 
#    0.000    0.000    0.000    0.000    0.000    0.000 
#    0.000    3.692    0.000    0.000    0.000    0.000 
#
# Total GULP energy -644404.659140 kJ/mol
# GULP energy per Si atom -12392.397291 kJ/mol
# Density = 1.701399 g / cm^3
# Si number density = 17.052799 Si / 1000 Ang^3
#
#
#
# Elastic Constant Matrix: (Units=GPa)
#
#
# Indices 1 2 3 4 5 6 
#
# 1 122.2627 41.6976 53.5614 0.0000 0.0000 0.0000
# 2 41.6976 66.7921 36.0601 0.0000 0.0000 0.0000
# 3 53.5614 36.0601 90.8741 0.0000 0.0000 0.0000
# 4 0.0000 0.0000 0.0000 20.2394 0.0000 0.0000
# 5 0.0000 0.0000 0.0000 0.0000 25.9336 0.0000
# 6 0.0000 0.0000 0.0000 0.0000 0.0000 28.8961
#
#
#
# Elastic Compliance Matrix: (Units=1/GPa)
#
#
# Indices 1 2 3 4 5 6 
#
# 1 0.012088 -0.004708 -0.005256 0.000000 0.000000 0.000000
# 2 -0.004708 0.020888 -0.005513 0.000000 0.000000 0.000000
# 3 -0.005256 -0.005513 0.016290 0.000000 0.000000 0.000000
# 4 0.000000 0.000000 0.000000 0.049409 0.000000 0.000000
# 5 0.000000 0.000000 0.000000 0.000000 0.038560 0.000000
# 6 0.000000 0.000000 0.000000 0.000000 0.000000 0.034607
#
#
# Mechanical properties :
#
#
# Convention : Reuss Voigt Hill
#
# Bulk Modulus (GPa) = 54.61636 60.28524 57.45080
# Shear Modulus (GPa) = 23.93495 24.92115 24.42805
#
# Velocity S-wave (km/s) = 3.75050 3.82699 3.78894
# Velocity P-wave (km/s) = 7.13108 7.41327 7.27355
#
# Compressibility (1/GPa) = 0.01830953
#
# Stress axis : x y z
#
# Youngs Moduli (GPa) = 82.73003 47.87464 61.38756
#
# Poissons Ratio (x) = 0.22542 0.32265
# Poissons Ratio (y) = 0.38953 0.33846
# Poissons Ratio (z) = 0.43483 0.26395
#
# Static dielectric constant tensor:
#      x y z
#    x 3.436140 0.000000 0.000000 
#    y 0.000000 3.683000 0.000000 
#    z 0.000000 0.000000 -3.484260 
# 
# 
# High freq. dielectric constant tensor:
#      x y z
#    x 1.680650 0.000000 0.000000 
#    y 0.000000 1.633620 0.000000 
#    z 0.000000 0.000000 1.637160 
# 
# From -- ./inp_files/28005.got.cif
#   From: 2010.03.12/outbox.cif.g09.slc.cpg/sg51_15_cif.got.tgz:28005.got - 2010.04.16 13:43:02.
