data_PCOD8210024
_publ_section_title
;
Structure prediction by ZEFSAII (Michael W. Deem and Ramdas Pophale) SiO2 
 PCOD8210024
Probable space group: P M M A
;
_chemical_formula_sum "Si O2"
_cell_formula_units_Z 52
_cell_length_a 9.191206
_cell_length_b 19.530118
_cell_length_c 15.048167
_cell_angle_alpha 90.000000
_cell_angle_beta 90.000000
_cell_angle_gamma 90.000000
_cell_volume 2701.226300
_symmetry_space_group_name_H-M "P M M A"
_symmetry_group_IT_number 51
_symmetry_cell_setting 'orthorhombic'
loop_
_space_group_symop_operation_xyz
x,y,z
1/2-x,-y,z
1/2+x,-y,-z
-x,y,-z
-x,-y,-z
1/2+x,y,-z
1/2-x,y,z
x,-y,z
loop_
_atom_site_type_symbol
_atom_site_label
_atom_site_fract_x
_atom_site_fract_y
_atom_site_fract_z
Si Si1 0.083377 0.000000 0.589513
Si Si2 0.582604 0.732826 0.589492
Si Si3 0.420793 0.696874 0.217573
Si Si4 0.923402 0.203777 0.087028
Si Si5 0.581136 0.577298 0.912363
Si Si6 0.911444 0.920441 0.856962
Si Si7 0.909461 0.118111 0.659874
O O1 0.000000 0.000000 0.500000
O O2 0.040604 0.067272 0.642056
O O3 0.250000 0.000000 0.569520
O O4 0.500000 0.709746 0.500000
O O5 0.750000 0.721909 0.567018
O O6 0.538571 0.689337 0.677587
O O7 0.547283 0.810851 0.614864
O O8 0.250000 0.716893 0.208153
O O9 0.518588 0.755761 0.172979
O O10 0.457341 0.624510 0.171758
O O11 0.750000 0.209685 0.080779
O O12 0.970694 0.123259 0.088060
O O13 0.000000 0.236986 0.000000
O O14 0.750000 0.580684 0.935117
O O15 0.531747 0.500000 0.888630
O O16 0.500000 0.604465 0.000000
O O17 0.750000 0.918145 0.901358
O O18 0.899353 0.879113 0.765178
O O19 0.961821 0.000000 0.846845
O O20 0.750000 0.094120 0.623170
#
# Coordination Sequence:
#
# PCOD8210024 Si02
#       7
#     4   8   8   8   8   8   8
#     4  12  24  34  48  72 101 132 175 226 284 344
#     4  10  21  36  56  79 107 143 183 230 278 329
#     4  10  20  38  60  83 116 153 189 231 282 331
#     4  12  25  39  58  83 112 145 188 234 281 337
#     4   9  18  33  57  89 122 154 188 226 273 331
#     4  10  20  38  61  79 103 140 181 229 288 345
#     4  10  19  36  56  74  99 134 175 223 286 342
#
# _framework density 19.250516000000001
#
# number of rings (size 3 to 8) (size 9 to 14) (size 15 to 20)
#    0.000    1.692    2.308    3.000    0.000    5.538 
#    0.000    0.000    0.000    0.462    0.000    0.000 
#    0.000    0.000    0.000    0.000    0.000    0.000 
#
# Total GULP energy -644484.908239 kJ/mol
# GULP energy per Si atom -12393.940543 kJ/mol
# Density = 1.920670 g / cm^3
# Si number density = 19.250516 Si / 1000 Ang^3
#
#
#
# Elastic Constant Matrix: (Units=GPa)
#
#
# Indices 1 2 3 4 5 6 
#
# 1 108.3166 42.8518 55.6567 0.0000 0.0000 0.0000
# 2 42.8518 85.9450 53.0224 0.0000 0.0000 0.0000
# 3 55.6567 53.0224 133.9452 0.0000 0.0000 0.0000
# 4 0.0000 0.0000 0.0000 15.5036 0.0000 0.0000
# 5 0.0000 0.0000 0.0000 0.0000 32.3707 0.0000
# 6 0.0000 0.0000 0.0000 0.0000 0.0000 18.6716
#
#
#
# Elastic Compliance Matrix: (Units=1/GPa)
#
#
# Indices 1 2 3 4 5 6 
#
# 1 0.012736 -0.004082 -0.003676 0.000000 0.000000 0.000000
# 2 -0.004082 0.016703 -0.004916 0.000000 0.000000 0.000000
# 3 -0.003676 -0.004916 0.010939 0.000000 0.000000 0.000000
# 4 0.000000 0.000000 0.000000 0.064501 0.000000 0.000000
# 5 0.000000 0.000000 0.000000 0.000000 0.030892 0.000000
# 6 0.000000 0.000000 0.000000 0.000000 0.000000 0.053557
#
#
# Mechanical properties :
#
#
# Convention : Reuss Voigt Hill
#
# Bulk Modulus (GPa) = 66.53208 70.14095 68.33652
# Shear Modulus (GPa) = 22.75954 25.08757 23.92356
#
# Velocity S-wave (km/s) = 3.44216 3.61392 3.52909
# Velocity P-wave (km/s) = 7.10170 7.34363 7.22368
#
# Compressibility (1/GPa) = 0.01503034
#
# Stress axis : x y z
#
# Youngs Moduli (GPa) = 78.51690 59.86774 91.41449
#
# Poissons Ratio (x) = 0.24439 0.33605
# Poissons Ratio (y) = 0.32052 0.44938
# Poissons Ratio (z) = 0.28864 0.29430
#
# Static dielectric constant tensor:
#      x y z
#    x 3.345160 0.000000 0.000000 
#    y 0.000000 3.444300 0.000000 
#    z 0.000000 0.000000 4.164350 
# 
# 
# High freq. dielectric constant tensor:
#      x y z
#    x 1.741130 0.000000 0.000000 
#    y 0.000000 1.727850 0.000000 
#    z 0.000000 0.000000 1.749230 
# 
# From -- ./inp_files/21616.got.cif
#   From: 2010.03.12/outbox.cif.g09.slc.cpg/sg51_11_cif.got.tgz:21616.got - 2010.04.16 13:43:02.
