data_PCOD8210854
_publ_section_title
;
Structure prediction by ZEFSAII (Michael W. Deem and Ramdas Pophale) SiO2 
 PCOD8210854
Probable space group: P M M A
;
_chemical_formula_sum "Si O2"
_cell_formula_units_Z 64
_cell_length_a 19.028854
_cell_length_b 9.340635
_cell_length_c 21.226739
_cell_angle_alpha 90.000000
_cell_angle_beta 90.000000
_cell_angle_gamma 90.000000
_cell_volume 3772.874121
_symmetry_space_group_name_H-M "P M M A"
_symmetry_group_IT_number 51
_symmetry_cell_setting 'orthorhombic'
loop_
_space_group_symop_operation_xyz
x,y,z
1/2-x,-y,z
1/2+x,-y,-z
-x,y,-z
-x,-y,-z
1/2+x,y,-z
1/2-x,y,z
x,-y,z
loop_
_atom_site_type_symbol
_atom_site_label
_atom_site_fract_x
_atom_site_fract_y
_atom_site_fract_z
Si Si1 0.667975 0.663150 0.106276
Si Si2 0.828590 0.668041 0.962571
Si Si3 0.615504 0.839975 0.728904
Si Si4 0.985081 0.666211 0.303981
Si Si5 0.173142 0.163169 0.400267
Si Si6 0.911354 0.160696 0.862525
Si Si7 0.564616 0.167239 0.192630
Si Si8 0.463492 0.332754 0.436658
O O1 0.750000 0.680537 0.120737
O O2 0.644135 0.500000 0.119069
O O3 0.626404 0.770311 0.150560
O O4 0.651710 0.705587 0.034227
O O5 0.750000 0.725642 0.947257
O O6 0.830711 0.500000 0.951729
O O7 0.886665 0.736947 0.917879
O O8 0.562925 0.710523 0.715982
O O9 0.675793 0.827879 0.676437
O O10 0.640735 0.823202 0.801549
O O11 0.579227 0.000000 0.723880
O O12 0.971884 0.500000 0.289557
O O13 0.930953 0.759209 0.262107
O O14 0.982090 0.698922 0.379166
O O15 0.250000 0.216673 0.423600
O O16 0.111385 0.255897 0.430005
O O17 0.160617 0.000000 0.421533
O O18 0.990111 0.201242 0.840482
O O19 0.909341 0.000000 0.889298
O O20 0.577458 0.000000 0.201417
O O21 0.500000 0.276106 0.500000
O O22 0.446367 0.500000 0.440442
#
# Coordination Sequence:
#
# PCOD8210854 Si02
#       8
#     8   8   8   8   8   8   8   8
#     4   9  19  36  54  70  90 119 157 199 245 296
#     4   9  19  34  48  64  90 123 158 198 241 285
#     4   8  15  28  43  62  92 125 154 187 228 272
#     4   9  16  28  48  71  94 120 151 187 227 273
#     4   9  17  29  46  69  97 129 165 202 238 279
#     4   9  18  30  45  68  96 126 158 191 230 278
#     4  10  20  33  50  73  99 123 152 195 241 283
#     4   9  18  32  50  73 100 130 164 199 236 280
#
# _framework density 16.963194999999999
#
# number of rings (size 3 to 8) (size 9 to 14) (size 15 to 20)
#    0.000    3.000    0.000    2.250    0.000    5.500 
#    0.000    5.000    0.000    0.750    0.000    1.750 
#    0.000    0.000    0.000    0.000    0.000    0.000 
#
# Total GULP energy -792979.250744 kJ/mol
# GULP energy per Si atom -12390.300793 kJ/mol
# Density = 1.692459 g / cm^3
# Si number density = 16.963195 Si / 1000 Ang^3
#
#
#
# Elastic Constant Matrix: (Units=GPa)
#
#
# Indices 1 2 3 4 5 6 
#
# 1 67.0537 40.7561 56.3495 0.0000 0.0000 0.0000
# 2 40.7561 75.7070 61.7887 0.0000 0.0000 0.0000
# 3 56.3495 61.7887 119.3403 0.0000 0.0000 0.0000
# 4 0.0000 0.0000 0.0000 22.6782 0.0000 0.0000
# 5 0.0000 0.0000 0.0000 0.0000 18.6085 0.0000
# 6 0.0000 0.0000 0.0000 0.0000 0.0000 26.7414
#
#
#
# Elastic Compliance Matrix: (Units=1/GPa)
#
#
# Indices 1 2 3 4 5 6 
#
# 1 0.026753 -0.007087 -0.008963 0.000000 0.000000 0.000000
# 2 -0.007087 0.024753 -0.009469 0.000000 0.000000 0.000000
# 3 -0.008963 -0.009469 0.017514 0.000000 0.000000 0.000000
# 4 0.000000 0.000000 0.000000 0.044095 0.000000 0.000000
# 5 0.000000 0.000000 0.000000 0.000000 0.053739 0.000000
# 6 0.000000 0.000000 0.000000 0.000000 0.000000 0.037395
#
#
# Mechanical properties :
#
#
# Convention : Reuss Voigt Hill
#
# Bulk Modulus (GPa) = 55.61341 64.43215 60.02278
# Shear Modulus (GPa) = 19.13648 20.48607 19.81127
#
# Velocity S-wave (km/s) = 3.36239 3.47894 3.42116
# Velocity P-wave (km/s) = 6.92316 7.36229 7.14610
#
# Compressibility (1/GPa) = 0.01798128
#
# Stress axis : x y z
#
# Youngs Moduli (GPa) = 37.37890 40.39990 57.09698
#
# Poissons Ratio (x) = 0.28633 0.51174
# Poissons Ratio (y) = 0.26492 0.54066
# Poissons Ratio (z) = 0.33501 0.38256
#
# Static dielectric constant tensor:
#      x y z
#    x 2.912640 0.000000 0.000000 
#    y 0.000000 3.151250 0.000000 
#    z 0.000000 0.000000 3.331610 
# 
# 
# High freq. dielectric constant tensor:
#      x y z
#    x 1.623100 0.000000 0.000000 
#    y 0.000000 1.657500 0.000000 
#    z 0.000000 0.000000 1.652010 
# 
# From -- ./inp_files/33904.got.cif
#   From: 2010.03.12/outbox.cif.g09.slc.cpg/sg51_17_cif.got.tgz:33904.got - 2010.04.16 13:43:02.
