data_PCOD8210234
_publ_section_title
;
Structure prediction by ZEFSAII (Michael W. Deem and Ramdas Pophale) SiO2 
 PCOD8210234
Probable space group: P M M A
;
_chemical_formula_sum "Si O2"
_cell_formula_units_Z 44
_cell_length_a 19.003343
_cell_length_b 15.266894
_cell_length_c 7.323299
_cell_angle_alpha 90.000000
_cell_angle_beta 90.000000
_cell_angle_gamma 90.000000
_cell_volume 2124.650323
_symmetry_space_group_name_H-M "P M M A"
_symmetry_group_IT_number 51
_symmetry_cell_setting 'orthorhombic'
loop_
_space_group_symop_operation_xyz
x,y,z
1/2-x,-y,z
1/2+x,-y,-z
-x,y,-z
-x,-y,-z
1/2+x,y,-z
1/2-x,y,z
x,-y,z
loop_
_atom_site_type_symbol
_atom_site_label
_atom_site_fract_x
_atom_site_fract_y
_atom_site_fract_z
Si Si1 0.970772 0.599017 0.299816
Si Si2 0.583100 0.000000 0.557732
Si Si3 0.000000 0.730662 0.000000
Si Si4 0.669993 0.834774 0.551784
Si Si5 0.356169 0.186232 0.023951
Si Si6 0.670415 0.000000 0.923370
Si Si7 0.173410 0.315015 0.721455
O O1 0.988672 0.500000 0.240076
O O2 0.886438 0.610880 0.274037
O O3 0.000000 0.617257 0.500000
O O4 0.011333 0.667931 0.173665
O O5 0.500000 0.000000 0.500000
O O6 0.617851 0.088793 0.480926
O O7 0.607188 0.000000 0.772573
O O8 0.062874 0.797777 0.983131
O O9 0.750000 0.863327 0.510812
O O10 0.662834 0.809116 0.763501
O O11 0.649002 0.749704 0.438449
O O12 0.337469 0.087686 0.953955
O O13 0.315994 0.260834 0.910025
O O14 0.750000 0.000000 0.834465
O O15 0.250000 0.357960 0.679610
#
# Coordination Sequence:
#
# PCOD8210234 Si02
#       7
#     8   4   4   8   8   4   8
#     4  10  21  38  59  81 109 142 175 217 272 334
#     4  10  20  31  50  77 105 140 183 230 268 306
#     4  10  21  35  56  84 108 138 180 223 271 322
#     4  10  20  36  55  74 105 147 185 221 267 322
#     4  10  20  35  55  78 110 145 183 228 266 313
#     4  10  20  36  56  76 108 156 194 220 268 326
#     4  10  21  35  56  84 107 137 181 225 272 321
#
# _framework density 20.709291
#
# number of rings (size 3 to 8) (size 9 to 14) (size 15 to 20)
#    0.000    2.000    0.000    4.909    0.000    8.000 
#    0.000    0.909    0.000    0.000    0.000    5.727 
#    0.000    0.000    0.000    0.000    0.000    0.000 
#
# Total GULP energy -545168.580307 kJ/mol
# GULP energy per Si atom -12390.195007 kJ/mol
# Density = 2.066216 g / cm^3
# Si number density = 20.709291 Si / 1000 Ang^3
#
#
#
# Elastic Constant Matrix: (Units=GPa)
#
#
# Indices 1 2 3 4 5 6 
#
# 1 101.8969 28.4790 17.0230 0.0000 0.0000 0.0000
# 2 28.4790 71.0188 25.4212 0.0000 0.0000 0.0000
# 3 17.0230 25.4212 72.2051 0.0000 0.0000 0.0000
# 4 0.0000 0.0000 0.0000 10.3461 0.0000 0.0000
# 5 0.0000 0.0000 0.0000 0.0000 18.7159 0.0000
# 6 0.0000 0.0000 0.0000 0.0000 0.0000 -29.5858
#
#
#
# Elastic Compliance Matrix: (Units=1/GPa)
#
#
# Indices 1 2 3 4 5 6 
#
# 1 0.011144 -0.004037 -0.001206 0.000000 0.000000 0.000000
# 2 -0.004037 0.017574 -0.005235 0.000000 0.000000 0.000000
# 3 -0.001206 -0.005235 0.015977 0.000000 0.000000 0.000000
# 4 0.000000 0.000000 0.000000 0.096654 0.000000 0.000000
# 5 0.000000 0.000000 0.000000 0.000000 0.053431 0.000000
# 6 0.000000 0.000000 0.000000 0.000000 0.000000 -0.033800
#
#
# Mechanical properties :
#
#
# Convention : Reuss Voigt Hill
#
# Bulk Modulus (GPa) = 42.12717 42.99633 42.56175
# Shear Modulus (GPa) = 26.33683 11.50842 18.92263
#
# Velocity S-wave (km/s) = 3.57001 2.35991 3.02607
# Velocity P-wave (km/s) = 6.11389 5.31343 5.72766
#
# Compressibility (1/GPa) = 0.02373765
#
# Stress axis : x y z
#
# Youngs Moduli (GPa) = 89.73768 56.90340 62.59013
#
# Poissons Ratio (x) = 0.22972 0.07548
# Poissons Ratio (y) = 0.36227 0.32768
# Poissons Ratio (z) = 0.10821 0.29791
#
# Static dielectric constant tensor:
#      x y z
#    x 3.855620 0.000000 0.000000 
#    y 0.000000 3.748810 0.000000 
#    z 0.000000 0.000000 3.744520 
# 
# 
# High freq. dielectric constant tensor:
#      x y z
#    x 1.817920 0.000000 0.000000 
#    y 0.000000 1.800380 0.000000 
#    z 0.000000 0.000000 1.802650 
# 
# From -- ./inp_files/9538.got.cif
#   From: 2010.03.12/outbox.cif.g09.slc.cpg/sg51_5_cif.got.tgz:9538.got - 2010.04.16 13:43:02.
