data_PCOD8210100
_publ_section_title
;
Structure prediction by ZEFSAII (Michael W. Deem and Ramdas Pophale) SiO2 
 PCOD8210100
Probable space group: P M M A
;
_chemical_formula_sum "Si O2"
_cell_formula_units_Z 64
_cell_length_a 14.995090
_cell_length_b 17.937598
_cell_length_c 11.967733
_cell_angle_alpha 90.000000
_cell_angle_beta 90.000000
_cell_angle_gamma 90.000000
_cell_volume 3219.031711
_symmetry_space_group_name_H-M "P M M A"
_symmetry_group_IT_number 51
_symmetry_cell_setting 'orthorhombic'
loop_
_space_group_symop_operation_xyz
x,y,z
1/2-x,-y,z
1/2+x,-y,-z
-x,y,-z
-x,-y,-z
1/2+x,y,-z
1/2-x,y,z
x,-y,z
loop_
_atom_site_type_symbol
_atom_site_label
_atom_site_fract_x
_atom_site_fract_y
_atom_site_fract_z
Si Si1 0.653258 0.192851 0.314409
Si Si2 0.505711 0.085489 0.375028
Si Si3 0.961817 0.585164 0.256466
Si Si4 0.102288 0.234961 0.122221
Si Si5 0.648948 0.917033 0.791224
Si Si6 0.147366 0.663442 0.557576
Si Si7 0.095810 0.280879 0.882364
Si Si8 0.850439 0.646789 0.703020
O O1 0.750000 0.157717 0.340977
O O2 0.581389 0.127951 0.306007
O O3 0.624988 0.251846 0.409226
O O4 0.663166 0.238136 0.198479
O O5 0.500000 0.117373 0.500000
O O6 0.410800 0.098384 0.317285
O O7 0.534883 0.000000 0.376345
O O8 0.938002 0.500000 0.231875
O O9 0.919168 0.608474 0.375640
O O10 0.918171 0.633524 0.156360
O O11 0.069876 0.593615 0.254112
O O12 0.132112 0.148106 0.117957
O O13 0.146190 0.275353 0.229128
O O14 0.996413 0.236463 0.130271
O O15 0.133191 0.277066 0.008606
O O16 0.750000 0.914100 0.748859
O O17 0.627796 0.000000 0.841947
O O18 0.250000 0.642749 0.586915
O O19 0.129291 0.659584 0.426588
O O20 0.750000 0.612551 0.718303
#
# Coordination Sequence:
#
# PCOD8210100 Si02
#       8
#     8   8   8   8   8   8   8   8
#     4  10  20  35  57  81 111 151 194 242 288 336
#     4  10  22  37  54  81 120 158 192 236 287 340
#     4  10  21  38  61  86 115 151 188 234 290 348
#     4  10  19  37  60  83 112 153 194 237 288 336
#     4  10  21  37  58  86 118 153 196 241 289 345
#     4   9  20  36  55  83 115 149 195 242 285 337
#     4   9  20  38  59  85 112 144 192 239 284 340
#     4  10  21  35  55  86 119 153 191 235 286 343
#
# _framework density 19.881755999999999
#
# number of rings (size 3 to 8) (size 9 to 14) (size 15 to 20)
#    0.000    2.250    1.250    0.750    1.750    3.250 
#    0.000    9.375    0.000    0.000    0.000    0.000 
#    0.000    0.000    0.000    0.000    0.000    0.000 
#
# Total GULP energy -793345.794873 kJ/mol
# GULP energy per Si atom -12396.028045 kJ/mol
# Density = 1.983650 g / cm^3
# Si number density = 19.881756 Si / 1000 Ang^3
#
#
#
# Elastic Constant Matrix: (Units=GPa)
#
#
# Indices 1 2 3 4 5 6 
#
# 1 94.6683 52.7282 25.7579 0.0000 0.0000 0.0000
# 2 52.7282 125.7371 62.2175 0.0000 0.0000 0.0000
# 3 25.7579 62.2175 115.2973 0.0000 0.0000 0.0000
# 4 0.0000 0.0000 0.0000 16.4305 0.0000 0.0000
# 5 0.0000 0.0000 0.0000 0.0000 15.6210 0.0000
# 6 0.0000 0.0000 0.0000 0.0000 0.0000 17.1366
#
#
#
# Elastic Compliance Matrix: (Units=1/GPa)
#
#
# Indices 1 2 3 4 5 6 
#
# 1 0.013783 -0.005807 0.000054 0.000000 0.000000 0.000000
# 2 -0.005807 0.013297 -0.005878 0.000000 0.000000 0.000000
# 3 0.000054 -0.005878 0.011833 0.000000 0.000000 0.000000
# 4 0.000000 0.000000 0.000000 0.060862 0.000000 0.000000
# 5 0.000000 0.000000 0.000000 0.000000 0.064016 0.000000
# 6 0.000000 0.000000 0.000000 0.000000 0.000000 0.058355
#
#
# Mechanical properties :
#
#
# Convention : Reuss Voigt Hill
#
# Bulk Modulus (GPa) = 63.89104 68.56775 66.22940
# Shear Modulus (GPa) = 19.95023 22.83757 21.39390
#
# Velocity S-wave (km/s) = 3.17115 3.39288 3.28389
# Velocity P-wave (km/s) = 6.75378 7.06481 6.91104
#
# Compressibility (1/GPa) = 0.01565165
#
# Stress axis : x y z
#
# Youngs Moduli (GPa) = 72.55534 75.20656 84.50926
#
# Poissons Ratio (x) = 0.43670 -0.00459
# Poissons Ratio (y) = 0.42130 0.49675
# Poissons Ratio (z) = -0.00394 0.44207
#
# Static dielectric constant tensor:
#      x y z
#    x 3.703710 0.000000 0.000000 
#    y 0.000000 3.455100 0.000000 
#    z 0.000000 0.000000 3.611600 
# 
# 
# High freq. dielectric constant tensor:
#      x y z
#    x 1.785260 0.000000 0.000000 
#    y 0.000000 1.758280 0.000000 
#    z 0.000000 0.000000 1.763060 
# 
# From -- ./inp_files/16891.got.cif
#   From: 2010.03.12/outbox.cif.g09.slc.cpg/sg51_9_cif.got.tgz:16891.got - 2010.04.16 13:43:02.
