data_PCOD8210557
_publ_section_title
;
Structure prediction by ZEFSAII (Michael W. Deem and Ramdas Pophale) SiO2 
 PCOD8210557
Probable space group: P M M A
;
_chemical_formula_sum "Si O2"
_cell_formula_units_Z 48
_cell_length_a 30.991086
_cell_length_b 9.136101
_cell_length_c 9.120842
_cell_angle_alpha 90.000000
_cell_angle_beta 90.000000
_cell_angle_gamma 90.000000
_cell_volume 2582.454151
_symmetry_space_group_name_H-M "P M M A"
_symmetry_group_IT_number 51
_symmetry_cell_setting 'orthorhombic'
loop_
_space_group_symop_operation_xyz
x,y,z
1/2-x,-y,z
1/2+x,-y,-z
-x,y,-z
-x,-y,-z
1/2+x,y,-z
1/2-x,y,z
x,-y,z
loop_
_atom_site_type_symbol
_atom_site_label
_atom_site_fract_x
_atom_site_fract_y
_atom_site_fract_z
Si Si1 0.456372 0.169619 0.921034
Si Si2 0.880083 0.325995 0.583956
Si Si3 0.119917 0.325995 0.083955
Si Si4 0.702453 0.326076 0.414498
Si Si5 0.043628 0.169620 0.578966
Si Si6 0.797547 0.326075 0.085502
O O1 0.461498 0.202393 0.750000
O O2 0.446950 0.000000 0.952871
O O3 0.500000 0.220871 0.000000
O O4 0.417478 0.263549 0.983286
O O5 0.882054 0.500000 0.575531
O O6 0.885584 0.269956 0.750000
O O7 0.834187 0.266138 0.523855
O O8 0.917477 0.263545 0.483286
O O9 0.117948 0.500000 0.075534
O O10 0.165812 0.266136 0.023852
O O11 0.750000 0.271136 0.465820
O O12 0.701864 0.500000 0.414514
O O13 0.692846 0.268741 0.250000
O O14 0.000000 0.220874 0.500000
O O15 0.053049 0.000000 0.547128
O O16 0.750000 0.271133 0.034179
O O17 0.798136 0.500000 0.085481
#
# Coordination Sequence:
#
# PCOD8210557 Si02
#       6
#     8   8   8   8   8   8
#     4  10  21  37  56  75  96 127 166 205 248 298
#     4  10  20  32  49  76 106 134 165 202 245 291
#     4  10  20  32  49  76 106 134 165 202 245 291
#     4   8  14  26  45  69  98 132 167 202 242 288
#     4  10  21  37  56  75  96 127 166 205 248 298
#     4   8  14  26  45  69  98 132 167 202 242 288
#
# _framework density 18.586970999999998
#
# number of rings (size 3 to 8) (size 9 to 14) (size 15 to 20)
#    0.000    2.667    0.000    3.000    0.000    5.333 
#    0.000    3.333    0.000    1.000    0.000    7.000 
#    0.000    0.000    0.000    0.000    0.000    0.000 
#
# Total GULP energy -595110.928268 kJ/mol
# GULP energy per Si atom -12398.144339 kJ/mol
# Density = 1.854467 g / cm^3
# Si number density = 18.586971 Si / 1000 Ang^3
#
#
#
# Elastic Constant Matrix: (Units=GPa)
#
#
# Indices 1 2 3 4 5 6 
#
# 1 156.7778 27.4776 74.5271 0.0000 0.0000 0.0000
# 2 27.4776 16.9009 23.6122 0.0000 0.0000 0.0000
# 3 74.5271 23.6122 119.0293 0.0000 0.0000 0.0000
# 4 0.0000 0.0000 0.0000 21.7427 0.0000 0.0000
# 5 0.0000 0.0000 0.0000 0.0000 43.1101 0.0000
# 6 0.0000 0.0000 0.0000 0.0000 0.0000 -21.0965
#
#
#
# Elastic Compliance Matrix: (Units=1/GPa)
#
#
# Indices 1 2 3 4 5 6 
#
# 1 0.010317 -0.010720 -0.004333 0.000000 0.000000 0.000000
# 2 -0.010720 0.092992 -0.011735 0.000000 0.000000 0.000000
# 3 -0.004333 -0.011735 0.013442 0.000000 0.000000 0.000000
# 4 0.000000 0.000000 0.000000 0.045992 0.000000 0.000000
# 5 0.000000 0.000000 0.000000 0.000000 0.023196 0.000000
# 6 0.000000 0.000000 0.000000 0.000000 0.000000 -0.047401
#
#
# Mechanical properties :
#
#
# Convention : Reuss Voigt Hill
#
# Bulk Modulus (GPa) = 15.82907 60.43797 38.13352
# Shear Modulus (GPa) = 23.45508 19.89068 21.67288
#
# Velocity S-wave (km/s) = 3.55619 3.27485 3.41842
# Velocity P-wave (km/s) = 5.03951 6.84737 6.01179
#
# Compressibility (1/GPa) = 0.06317489
#
# Stress axis : x y z
#
# Youngs Moduli (GPa) = 96.92619 10.75366 74.39108
#
# Poissons Ratio (x) = 0.11527 0.32236
# Poissons Ratio (y) = 1.03900 0.87300
# Poissons Ratio (z) = 0.42001 0.12620
#
# Static dielectric constant tensor:
#      x y z
#    x 3.764680 0.000000 0.000000 
#    y 0.000000 2.961770 0.000000 
#    z 0.000000 0.000000 3.639740 
# 
# 
# High freq. dielectric constant tensor:
#      x y z
#    x 1.739610 0.000000 0.000000 
#    y 0.000000 1.671790 0.000000 
#    z 0.000000 0.000000 1.730990 
# 
# From -- ./inp_files/12308.got.cif
#   From: 2010.03.12/outbox.cif.g09.slc.cpg/sg51_7_cif.got.tgz:12308.got - 2010.04.16 13:43:02.
