data_PCOD8210464
_publ_section_title
;
Structure prediction by ZEFSAII (Michael W. Deem and Ramdas Pophale) SiO2 
 PCOD8210464
Probable space group: P M M A
;
_chemical_formula_sum "Si O2"
_cell_formula_units_Z 56
_cell_length_a 8.695381
_cell_length_b 29.041121
_cell_length_c 13.666659
_cell_angle_alpha 90.000000
_cell_angle_beta 90.000000
_cell_angle_gamma 90.000000
_cell_volume 3451.154091
_symmetry_space_group_name_H-M "P M M A"
_symmetry_group_IT_number 51
_symmetry_cell_setting 'orthorhombic'
loop_
_space_group_symop_operation_xyz
x,y,z
1/2-x,-y,z
1/2+x,-y,-z
-x,y,-z
-x,-y,-z
1/2+x,y,-z
1/2-x,y,z
x,-y,z
loop_
_atom_site_type_symbol
_atom_site_label
_atom_site_fract_x
_atom_site_fract_y
_atom_site_fract_z
Si Si1 0.432323 0.228755 0.289242
Si Si2 0.070164 0.950132 0.393462
Si Si3 0.567762 0.724611 0.105507
Si Si4 0.067902 0.141787 0.608830
Si Si5 0.926884 0.631772 0.209034
Si Si6 0.569904 0.448442 0.898355
Si Si7 0.929717 0.313173 0.398629
O O1 0.250000 0.226995 0.287222
O O2 0.495466 0.239547 0.181437
O O3 0.499586 0.180030 0.320327
O O4 0.485845 0.266606 0.367445
O O5 0.250000 0.938275 0.400921
O O6 0.000000 0.954691 0.500000
O O7 0.982434 0.907332 0.342602
O O8 0.045313 0.000000 0.339687
O O9 0.750000 0.730733 0.106591
O O10 0.521167 0.672913 0.137000
O O11 0.500000 0.735754 0.000000
O O12 0.250000 0.146190 0.604084
O O13 0.000000 0.147136 0.500000
O O14 0.750000 0.619801 0.191870
O O15 0.959236 0.646489 0.320417
O O16 0.023454 0.585938 0.188277
O O17 0.750000 0.448456 0.910296
O O18 0.509253 0.500000 0.874142
O O19 0.500000 0.430345 0.000000
O O20 0.750000 0.302087 0.408181
O O21 0.000000 0.331012 0.500000
#
# Coordination Sequence:
#
# PCOD8210464 Si02
#       7
#     8   8   8   8   8   8   8
#     4  11  21  33  48  67  92 123 157 192 231 272
#     4   9  16  26  40  59  84 115 152 191 230 274
#     4  10  20  34  50  71  96 122 153 187 227 273
#     4  11  20  30  44  63  90 123 158 195 233 275
#     4   9  19  33  50  71  95 122 152 186 223 268
#     4  10  20  32  48  71  97 123 151 185 226 272
#     4  10  20  34  50  70  94 121 155 192 230 271
#
# _framework density 16.226455000000001
#
# number of rings (size 3 to 8) (size 9 to 14) (size 15 to 20)
#    0.000    2.000    0.000    6.857    0.000    6.286 
#    0.000    0.000    0.000    0.429    0.000    0.000 
#    0.000    0.571    0.000    2.143    0.000    3.571 
#
# Total GULP energy -694329.107426 kJ/mol
# GULP energy per Si atom -12398.734061 kJ/mol
# Density = 1.618952 g / cm^3
# Si number density = 16.226455 Si / 1000 Ang^3
#
#
#
# Elastic Constant Matrix: (Units=GPa)
#
#
# Indices 1 2 3 4 5 6 
#
# 1 113.7210 52.5245 44.5788 0.0000 0.0000 0.0000
# 2 52.5245 121.6853 53.8949 0.0000 0.0000 0.0000
# 3 44.5788 53.8949 95.5760 0.0000 0.0000 0.0000
# 4 0.0000 0.0000 0.0000 20.0355 0.0000 0.0000
# 5 0.0000 0.0000 0.0000 0.0000 27.1075 0.0000
# 6 0.0000 0.0000 0.0000 0.0000 0.0000 29.0008
#
#
#
# Elastic Compliance Matrix: (Units=1/GPa)
#
#
# Indices 1 2 3 4 5 6 
#
# 1 0.011805 -0.003541 -0.003509 0.000000 0.000000 0.000000
# 2 -0.003541 0.012016 -0.005124 0.000000 0.000000 0.000000
# 3 -0.003509 -0.005124 0.014989 0.000000 0.000000 0.000000
# 4 0.000000 0.000000 0.000000 0.049911 0.000000 0.000000
# 5 0.000000 0.000000 0.000000 0.000000 0.036890 0.000000
# 6 0.000000 0.000000 0.000000 0.000000 0.000000 0.034482
#
#
# Mechanical properties :
#
#
# Convention : Reuss Voigt Hill
#
# Bulk Modulus (GPa) = 69.15181 70.33096 69.74138
# Shear Modulus (GPa) = 26.41844 27.22769 26.82306
#
# Velocity S-wave (km/s) = 4.03936 4.10076 4.07018
# Velocity P-wave (km/s) = 8.02898 8.11536 8.07229
#
# Compressibility (1/GPa) = 0.01446094
#
# Stress axis : x y z
#
# Youngs Moduli (GPa) = 84.71287 83.22312 66.71555
#
# Poissons Ratio (x) = 0.29471 0.23411
# Poissons Ratio (y) = 0.29998 0.34185
# Poissons Ratio (z) = 0.29726 0.42644
#
# Static dielectric constant tensor:
#      x y z
#    x 3.224170 0.000000 0.000000 
#    y 0.000000 3.433490 0.000000 
#    z 0.000000 0.000000 2.798380 
# 
# 
# High freq. dielectric constant tensor:
#      x y z
#    x 1.644290 0.000000 0.000000 
#    y 0.000000 1.624910 0.000000 
#    z 0.000000 0.000000 1.589540 
# 
# From -- ./inp_files/22547.got.cif
#   From: 2010.03.12/outbox.cif.g09.slc.cpg/sg51_12_cif.got.tgz:22547.got - 2010.04.16 13:43:02.
