data_PCOD8210500
_publ_section_title
;
Structure prediction by ZEFSAII (Michael W. Deem and Ramdas Pophale) SiO2 
 PCOD8210500
Probable space group: P M M A
;
_chemical_formula_sum "Si O2"
_cell_formula_units_Z 48
_cell_length_a 18.155126
_cell_length_b 9.186353
_cell_length_c 16.257297
_cell_angle_alpha 90.000000
_cell_angle_beta 90.000000
_cell_angle_gamma 90.000000
_cell_volume 2711.382177
_symmetry_space_group_name_H-M "P M M A"
_symmetry_group_IT_number 51
_symmetry_cell_setting 'orthorhombic'
loop_
_space_group_symop_operation_xyz
x,y,z
1/2-x,-y,z
1/2+x,-y,-z
-x,y,-z
-x,-y,-z
1/2+x,y,-z
1/2-x,y,z
x,-y,z
loop_
_atom_site_type_symbol
_atom_site_label
_atom_site_fract_x
_atom_site_fract_y
_atom_site_fract_z
Si Si1 0.667916 0.671773 0.160149
Si Si2 0.046035 0.164841 0.746790
Si Si3 0.037486 0.171004 0.415442
Si Si4 0.608042 0.167955 0.823533
Si Si5 0.163314 0.335069 0.024551
Si Si6 0.165533 0.669419 0.332079
O O1 0.750000 0.731175 0.178214
O O2 0.667225 0.500000 0.167721
O O3 0.613482 0.735098 0.227704
O O4 0.643756 0.716424 0.067854
O O5 0.020204 0.210855 0.655920
O O6 0.978676 0.186431 0.809202
O O7 0.074363 0.000000 0.747432
O O8 0.113764 0.256698 0.401053
O O9 0.000000 0.220985 0.500000
O O10 0.056401 0.000000 0.414459
O O11 0.622744 0.225979 0.914458
O O12 0.654361 0.258061 0.756912
O O13 0.632084 0.000000 0.816251
O O14 0.250000 0.326842 0.039454
O O15 0.135653 0.500000 0.039862
O O16 0.250000 0.691143 0.359678
O O17 0.145225 0.500000 0.324631
#
# Coordination Sequence:
#
# PCOD8210500 Si02
#       6
#     8   8   8   8   8   8
#     4   9  19  35  52  70  95 130 170 208 246 291
#     4   9  19  34  51  73  98 125 160 202 247 295
#     4   9  19  37  58  78 102 132 166 204 248 301
#     4  10  20  32  48  73 103 133 167 206 248 296
#     4   9  18  32  48  68  97 132 170 209 246 287
#     4  10  20  33  51  77 107 136 167 204 247 297
#
# _framework density 17.703149
#
# number of rings (size 3 to 8) (size 9 to 14) (size 15 to 20)
#    0.000    2.667    0.000    3.500    0.000    9.000 
#    0.000    5.833    0.000    5.000    0.000    0.000 
#    0.000    0.000    0.000    0.000    0.000    0.000 
#
# Total GULP energy -595233.927861 kJ/mol
# GULP energy per Si atom -12400.706830 kJ/mol
# Density = 1.766286 g / cm^3
# Si number density = 17.703149 Si / 1000 Ang^3
#
#
#
# Elastic Constant Matrix: (Units=GPa)
#
#
# Indices 1 2 3 4 5 6 
#
# 1 98.8235 57.4028 69.8803 0.0000 0.0000 0.0000
# 2 57.4028 82.8428 50.5934 0.0000 0.0000 0.0000
# 3 69.8803 50.5934 109.5163 0.0000 0.0000 0.0000
# 4 0.0000 0.0000 0.0000 28.9303 0.0000 0.0000
# 5 0.0000 0.0000 0.0000 0.0000 24.9647 0.0000
# 6 0.0000 0.0000 0.0000 0.0000 0.0000 19.8975
#
#
#
# Elastic Compliance Matrix: (Units=1/GPa)
#
#
# Indices 1 2 3 4 5 6 
#
# 1 0.022923 -0.009683 -0.010154 0.000000 0.000000 0.000000
# 2 -0.009683 0.020905 -0.003479 0.000000 0.000000 0.000000
# 3 -0.010154 -0.003479 0.017217 0.000000 0.000000 0.000000
# 4 0.000000 0.000000 0.000000 0.034566 0.000000 0.000000
# 5 0.000000 0.000000 0.000000 0.000000 0.040057 0.000000
# 6 0.000000 0.000000 0.000000 0.000000 0.000000 0.050258
#
#
# Mechanical properties :
#
#
# Convention : Reuss Voigt Hill
#
# Bulk Modulus (GPa) = 69.37563 71.88172 70.62868
# Shear Modulus (GPa) = 21.06482 22.31221 21.68852
#
# Velocity S-wave (km/s) = 3.45322 3.55400 3.50397
# Velocity P-wave (km/s) = 7.42786 7.58507 7.50687
#
# Compressibility (1/GPa) = 0.01441428
#
# Stress axis : x y z
#
# Youngs Moduli (GPa) = 43.62346 47.83495 58.08108
#
# Poissons Ratio (x) = 0.46318 0.58974
# Poissons Ratio (y) = 0.42240 0.20207
# Poissons Ratio (z) = 0.44294 0.16643
#
# Static dielectric constant tensor:
#      x y z
#    x 3.206200 0.000000 0.000000 
#    y 0.000000 3.253450 0.000000 
#    z 0.000000 0.000000 3.245280 
# 
# 
# High freq. dielectric constant tensor:
#      x y z
#    x 1.679280 0.000000 0.000000 
#    y 0.000000 1.686000 0.000000 
#    z 0.000000 0.000000 1.675110 
# 
# From -- ./inp_files/24780.got.cif
#   From: 2010.03.12/outbox.cif.g09.slc.cpg/sg51_13_cif.got.tgz:24780.got - 2010.04.16 13:43:02.
