data_PCOD8210084
_publ_section_title
;
Structure prediction by ZEFSAII (Michael W. Deem and Ramdas Pophale) SiO2 
 PCOD8210084
Probable space group: P M M A
;
_chemical_formula_sum "Si O2"
_cell_formula_units_Z 48
_cell_length_a 30.811063
_cell_length_b 8.454921
_cell_length_c 8.921553
_cell_angle_alpha 90.000000
_cell_angle_beta 90.000000
_cell_angle_gamma 90.000000
_cell_volume 2324.110088
_symmetry_space_group_name_H-M "P M M A"
_symmetry_group_IT_number 51
_symmetry_cell_setting 'orthorhombic'
loop_
_space_group_symop_operation_xyz
x,y,z
1/2-x,-y,z
1/2+x,-y,-z
-x,y,-z
-x,-y,-z
1/2+x,y,-z
1/2-x,y,z
x,-y,z
loop_
_atom_site_type_symbol
_atom_site_label
_atom_site_fract_x
_atom_site_fract_y
_atom_site_fract_z
Si Si1 0.830270 0.184023 0.674645
Si Si2 0.835070 0.187993 0.334850
Si Si3 0.581872 0.185386 0.152931
Si Si4 0.494273 0.817168 0.327396
Si Si5 0.412396 0.318788 0.172469
Si Si6 0.750000 0.681631 0.847118
Si Si7 0.250000 0.185330 0.827326
O O1 0.835695 0.248171 0.505607
O O2 0.874844 0.207313 0.763237
O O3 0.792344 0.282457 0.750928
O O4 0.817554 0.000000 0.677130
O O5 0.877789 0.249787 0.250174
O O6 0.792853 0.258409 0.250461
O O7 0.834977 0.000000 0.332329
O O8 0.538639 0.223147 0.243969
O O9 0.586428 0.000000 0.117391
O O10 0.579852 0.281305 0.000350
O O11 0.500000 0.773970 0.500000
O O12 0.456613 0.709463 0.261452
O O13 0.481242 0.000000 0.305937
O O14 0.398268 0.500000 0.191283
O O15 0.750000 0.500000 0.895181
O O16 0.750000 0.784946 0.996607
O O17 0.250000 0.000000 0.798595
#
# Coordination Sequence:
#
# PCOD8210084 Si02
#       7
#     8   8   8   8   8   4   4
#     4  11  22  41  66  89 115 154 201 245 291 347
#     4   9  19  36  62  91 114 144 197 254 294 338
#     4  10  20  37  61  87 116 154 200 247 293 347
#     4  10  21  39  63  88 114 152 203 251 294 349
#     4  12  25  39  57  87 124 158 193 240 298 355
#     4  12  25  40  58  90 128 158 193 238 292 350
#     4  10  19  36  62  90 118 154 197 238 288 350
#
# _framework density 20.653067
#
# number of rings (size 3 to 8) (size 9 to 14) (size 15 to 20)
#    0.000    1.500    0.000    5.750    0.000    8.333 
#    0.000    5.833    0.000    0.000    0.000    0.000 
#    0.000    0.000    0.000    0.000    0.000    0.000 
#
# Total GULP energy -595493.022364 kJ/mol
# GULP energy per Si atom -12406.104633 kJ/mol
# Density = 2.060606 g / cm^3
# Si number density = 20.653067 Si / 1000 Ang^3
#
#
#
# Elastic Constant Matrix: (Units=GPa)
#
#
# Indices 1 2 3 4 5 6 
#
# 1 145.9559 16.4606 59.2864 0.0000 0.0000 0.0000
# 2 16.4606 40.4246 14.6006 0.0000 0.0000 0.0000
# 3 59.2864 14.6006 154.4814 0.0000 0.0000 0.0000
# 4 0.0000 0.0000 0.0000 -2.0264 0.0000 0.0000
# 5 0.0000 0.0000 0.0000 0.0000 40.2015 0.0000
# 6 0.0000 0.0000 0.0000 0.0000 0.0000 23.3963
#
#
#
# Elastic Compliance Matrix: (Units=1/GPa)
#
#
# Indices 1 2 3 4 5 6 
#
# 1 0.008321 -0.002314 -0.002975 0.000000 0.000000 0.000000
# 2 -0.002314 0.026255 -0.001594 0.000000 0.000000 0.000000
# 3 -0.002975 -0.001594 0.007765 0.000000 0.000000 0.000000
# 4 0.000000 0.000000 0.000000 -0.493491 0.000000 0.000000
# 5 0.000000 0.000000 0.000000 0.000000 0.024875 0.000000
# 6 0.000000 0.000000 0.000000 0.000000 0.000000 0.042742
#
#
# Mechanical properties :
#
#
# Convention : Reuss Voigt Hill
#
# Bulk Modulus (GPa) = 34.99254 57.95078 46.47166
# Shear Modulus (GPa) = -13.87948 29.01524 7.56788
#
# Velocity S-wave (km/s) = -2.59517 3.75225 1.91631
# Velocity P-wave (km/s) = 2.82842 6.84782 5.23892
#
# Compressibility (1/GPa) = 0.02857752
#
# Stress axis : x y z
#
# Youngs Moduli (GPa) = 120.18409 38.08784 128.77555
#
# Poissons Ratio (x) = 0.08812 0.38305
# Poissons Ratio (y) = 0.27807 0.20521
# Poissons Ratio (z) = 0.35750 0.06069
#
# Static dielectric constant tensor:
#      x y z
#    x 3.946300 0.000000 0.000000 
#    y 0.000000 3.395600 0.000000 
#    z 0.000000 0.000000 3.882180 
# 
# 
# High freq. dielectric constant tensor:
#      x y z
#    x 1.826640 0.000000 0.000000 
#    y 0.000000 1.779180 0.000000 
#    z 0.000000 0.000000 1.826230 
# 
# From -- ./inp_files/12966.got.cif
#   From: 2010.03.12/outbox.cif.g09.slc.cpg/sg51_7_cif.got.tgz:12966.got - 2010.04.16 13:43:02.
