data_PCOD8210819
_publ_section_title
;
Structure prediction by ZEFSAII (Michael W. Deem and Ramdas Pophale) SiO2 
 PCOD8210819
Probable space group: P M M A
;
_chemical_formula_sum "Si O2"
_cell_formula_units_Z 64
_cell_length_a 13.914460
_cell_length_b 9.147875
_cell_length_c 28.628776
_cell_angle_alpha 90.000000
_cell_angle_beta 90.000000
_cell_angle_gamma 90.000000
_cell_volume 3644.092218
_symmetry_space_group_name_H-M "P M M A"
_symmetry_group_IT_number 51
_symmetry_cell_setting 'orthorhombic'
loop_
_space_group_symop_operation_xyz
x,y,z
1/2-x,-y,z
1/2+x,-y,-z
-x,y,-z
-x,-y,-z
1/2+x,y,-z
1/2-x,y,z
x,-y,z
loop_
_atom_site_type_symbol
_atom_site_label
_atom_site_fract_x
_atom_site_fract_y
_atom_site_fract_z
Si Si1 0.364462 0.835008 0.021586
Si Si2 0.855938 0.827029 0.520437
Si Si3 0.360667 0.170423 0.752845
Si Si4 0.642970 0.332089 0.887759
Si Si5 0.458338 0.668616 0.836033
Si Si6 0.636495 0.666868 0.068092
Si Si7 0.041463 0.173079 0.573039
Si Si8 0.639368 0.328417 0.342460
O O1 0.250000 0.824608 0.020285
O O2 0.400747 0.753915 0.068094
O O3 0.401802 0.000000 0.023165
O O4 0.406984 0.761131 0.974695
O O5 0.750000 0.760810 0.531190
O O6 0.890842 0.774425 0.469514
O O7 0.931721 0.781147 0.560450
O O8 0.851593 0.000000 0.518916
O O9 0.250000 0.200934 0.765950
O O10 0.427287 0.228391 0.794071
O O11 0.389797 0.255581 0.706235
O O12 0.380353 0.000000 0.744887
O O13 0.750000 0.277229 0.873772
O O14 0.645683 0.500000 0.903376
O O15 0.572954 0.310867 0.843439
O O16 0.431991 0.500000 0.824756
O O17 0.405572 0.722510 0.882927
O O18 0.750000 0.685491 0.070751
O O19 0.605802 0.500000 0.059474
O O20 0.070911 0.260668 0.618634
O O21 0.050956 0.000000 0.581989
O O22 0.750000 0.293054 0.354835
O O23 0.620634 0.500000 0.338737
#
# Coordination Sequence:
#
# PCOD8210819 Si02
#       8
#     8   8   8   8   8   8   8   8
#     4   9  17  29  45  65  90 120 153 190 230 270
#     4   8  14  25  43  70 104 139 172 207 248 291
#     4  10  21  36  54  76 100 124 151 188 236 289
#     4   9  18  33  51  69  91 121 156 192 231 276
#     4  10  20  33  51  73  95 122 155 191 233 282
#     4   9  17  29  45  65  91 122 151 180 221 278
#     4   9  16  27  47  73  99 132 174 213 245 283
#     4  10  20  33  50  72  99 130 161 197 242 287
#
# _framework density 17.562671999999999
#
# number of rings (size 3 to 8) (size 9 to 14) (size 15 to 20)
#    0.000    2.750    0.000    2.625    0.000    5.500 
#    0.000    5.000    0.000    1.875    0.000    0.000 
#    0.000    0.000    0.000    0.000    0.000    0.000 
#
# Total GULP energy -793535.078940 kJ/mol
# GULP energy per Si atom -12398.985608 kJ/mol
# Density = 1.752270 g / cm^3
# Si number density = 17.562672 Si / 1000 Ang^3
#
#
#
# Elastic Constant Matrix: (Units=GPa)
#
#
# Indices 1 2 3 4 5 6 
#
# 1 85.6765 36.2618 63.2921 0.0000 0.0000 0.0000
# 2 36.2618 81.0594 62.3030 0.0000 0.0000 0.0000
# 3 63.2921 62.3030 128.2693 0.0000 0.0000 0.0000
# 4 0.0000 0.0000 0.0000 28.4303 0.0000 0.0000
# 5 0.0000 0.0000 0.0000 0.0000 27.8196 0.0000
# 6 0.0000 0.0000 0.0000 0.0000 0.0000 16.9499
#
#
#
# Elastic Compliance Matrix: (Units=1/GPa)
#
#
# Indices 1 2 3 4 5 6 
#
# 1 0.018571 -0.002018 -0.008184 0.000000 0.000000 0.000000
# 2 -0.002018 0.019905 -0.008673 0.000000 0.000000 0.000000
# 3 -0.008184 -0.008673 0.016047 0.000000 0.000000 0.000000
# 4 0.000000 0.000000 0.000000 0.035174 0.000000 0.000000
# 5 0.000000 0.000000 0.000000 0.000000 0.035946 0.000000
# 6 0.000000 0.000000 0.000000 0.000000 0.000000 0.058997
#
#
# Mechanical properties :
#
#
# Convention : Reuss Voigt Hill
#
# Bulk Modulus (GPa) = 59.61277 68.74656 64.17967
# Shear Modulus (GPa) = 21.93173 23.51651 22.72412
#
# Velocity S-wave (km/s) = 3.53763 3.66321 3.60097
# Velocity P-wave (km/s) = 7.12060 7.55782 7.34247
#
# Compressibility (1/GPa) = 0.01677493
#
# Stress axis : x y z
#
# Youngs Moduli (GPa) = 53.84642 50.23795 62.31840
#
# Poissons Ratio (x) = 0.10138 0.50999
# Poissons Ratio (y) = 0.10866 0.54047
# Poissons Ratio (z) = 0.44065 0.43570
#
# Static dielectric constant tensor:
#      x y z
#    x 3.494830 0.000000 0.000000 
#    y 0.000000 3.140460 0.000000 
#    z 0.000000 0.000000 3.116810 
# 
# 
# High freq. dielectric constant tensor:
#      x y z
#    x 1.678900 0.000000 0.000000 
#    y 0.000000 1.666520 0.000000 
#    z 0.000000 0.000000 1.662140 
# 
# From -- ./inp_files/35796.got.cif
#   From: 2010.03.12/outbox.cif.g09.slc.cpg/sg51_18_cif.got.tgz:35796.got - 2010.04.16 13:43:02.
