data_PCOD8210805
_publ_section_title
;
Structure prediction by ZEFSAII (Michael W. Deem and Ramdas Pophale) SiO2 
 PCOD8210805
Probable space group: P M M A
;
_chemical_formula_sum "Si O2"
_cell_formula_units_Z 52
_cell_length_a 9.042005
_cell_length_b 15.066827
_cell_length_c 23.192318
_cell_angle_alpha 90.000000
_cell_angle_beta 90.000000
_cell_angle_gamma 90.000000
_cell_volume 3159.589789
_symmetry_space_group_name_H-M "P M M A"
_symmetry_group_IT_number 51
_symmetry_cell_setting 'orthorhombic'
loop_
_space_group_symop_operation_xyz
x,y,z
1/2-x,-y,z
1/2+x,-y,-z
-x,y,-z
-x,-y,-z
1/2+x,y,-z
1/2-x,y,z
x,-y,z
loop_
_atom_site_type_symbol
_atom_site_label
_atom_site_fract_x
_atom_site_fract_y
_atom_site_fract_z
Si Si1 0.418636 0.159620 0.887213
Si Si2 0.418809 0.345048 0.941132
Si Si3 0.423524 0.778682 0.225145
Si Si4 0.574175 0.102251 0.318354
Si Si5 0.081594 0.402026 0.172423
Si Si6 0.421868 0.000000 0.059928
Si Si7 0.089101 0.104078 0.552932
O O1 0.250000 0.124514 0.884033
O O2 0.431040 0.239465 0.932587
O O3 0.471855 0.184818 0.824334
O O4 0.532843 0.085687 0.905291
O O5 0.250000 0.375789 0.946794
O O6 0.485014 0.392303 0.885080
O O7 0.500000 0.373251 0.000000
O O8 0.250000 0.801610 0.216609
O O9 0.482246 0.824869 0.282894
O O10 0.449599 0.671538 0.222380
O O11 0.750000 0.117565 0.312243
O O12 0.519284 0.119645 0.383880
O O13 0.536848 0.000000 0.300112
O O14 0.250000 0.391667 0.151485
O O15 0.051641 0.500000 0.198999
O O16 0.250000 0.000000 0.048658
O O17 0.500000 0.000000 0.000000
O O18 0.250000 0.148805 0.551522
O O19 0.000000 0.148427 0.500000
O O20 0.104030 0.000000 0.541884
#
# Coordination Sequence:
#
# PCOD8210805 Si02
#       7
#     8   8   8   8   8   4   8
#     4  10  21  36  51  66  88 120 152 188 235 279
#     4  10  20  33  51  72  92 115 144 180 227 283
#     4  10  20  33  50  72  95 120 156 199 235 275
#     4   9  18  31  46  66  97 136 168 194 229 276
#     4   9  19  36  54  70  91 119 149 187 238 288
#     4  12  24  36  50  68  88 114 153 194 231 276
#     4   8  14  25  41  62  90 126 165 199 231 265
#
# _framework density 16.457833000000001
#
# number of rings (size 3 to 8) (size 9 to 14) (size 15 to 20)
#    0.000    2.462    0.000    3.462    1.077    5.231 
#    0.000    1.538    0.000    0.000    0.000    0.000 
#    0.000    0.615    0.000    1.385    0.000    2.154 
#
# Total GULP energy -644392.661816 kJ/mol
# GULP energy per Si atom -12392.166573 kJ/mol
# Density = 1.642037 g / cm^3
# Si number density = 16.457833 Si / 1000 Ang^3
#
#
#
# Elastic Constant Matrix: (Units=GPa)
#
#
# Indices 1 2 3 4 5 6 
#
# 1 95.9343 39.7917 40.2460 0.0000 0.0000 0.0000
# 2 39.7917 89.6969 41.5584 0.0000 0.0000 0.0000
# 3 40.2460 41.5584 91.2963 0.0000 0.0000 0.0000
# 4 0.0000 0.0000 0.0000 7.1684 0.0000 0.0000
# 5 0.0000 0.0000 0.0000 0.0000 29.0983 0.0000
# 6 0.0000 0.0000 0.0000 0.0000 0.0000 18.1994
#
#
#
# Elastic Compliance Matrix: (Units=1/GPa)
#
#
# Indices 1 2 3 4 5 6 
#
# 1 0.013951 -0.004232 -0.004224 0.000000 0.000000 0.000000
# 2 -0.004232 0.015412 -0.005150 0.000000 0.000000 0.000000
# 3 -0.004224 -0.005150 0.015160 0.000000 0.000000 0.000000
# 4 0.000000 0.000000 0.000000 0.139501 0.000000 0.000000
# 5 0.000000 0.000000 0.000000 0.000000 0.034366 0.000000
# 6 0.000000 0.000000 0.000000 0.000000 0.000000 0.054947
#
#
# Mechanical properties :
#
#
# Convention : Reuss Voigt Hill
#
# Bulk Modulus (GPa) = 57.76559 57.79107 57.77833
# Shear Modulus (GPa) = 16.32283 21.24863 18.78573
#
# Velocity S-wave (km/s) = 3.15270 3.59708 3.38219
# Velocity P-wave (km/s) = 6.95902 7.24174 7.10179
#
# Compressibility (1/GPa) = 0.01731134
#
# Stress axis : x y z
#
# Youngs Moduli (GPa) = 71.67915 64.88332 65.96520
#
# Poissons Ratio (x) = 0.27460 0.27860
# Poissons Ratio (y) = 0.30336 0.33972
# Poissons Ratio (z) = 0.30274 0.33415
#
# Static dielectric constant tensor:
#      x y z
#    x 3.266380 0.000000 0.000000 
#    y 0.000000 3.108010 0.000000 
#    z 0.000000 0.000000 2.956730 
# 
# 
# High freq. dielectric constant tensor:
#      x y z
#    x 1.644920 0.000000 0.000000 
#    y 0.000000 1.610260 0.000000 
#    z 0.000000 0.000000 1.615870 
# 
# From -- ./inp_files/31733.got.cif
#   From: 2010.03.12/outbox.cif.g09.slc.cpg/sg51_16_cif.got.tgz:31733.got - 2010.04.16 13:43:02.
