data_PCOD8210807
_publ_section_title
;
Structure prediction by ZEFSAII (Michael W. Deem and Ramdas Pophale) SiO2 
 PCOD8210807
Probable space group: P M M A
;
_chemical_formula_sum "Si O2"
_cell_formula_units_Z 48
_cell_length_a 9.404838
_cell_length_b 9.166030
_cell_length_c 30.933578
_cell_angle_alpha 90.000000
_cell_angle_beta 90.000000
_cell_angle_gamma 90.000000
_cell_volume 2666.629935
_symmetry_space_group_name_H-M "P M M A"
_symmetry_group_IT_number 51
_symmetry_cell_setting 'orthorhombic'
loop_
_space_group_symop_operation_xyz
x,y,z
1/2-x,-y,z
1/2+x,-y,-z
-x,y,-z
-x,-y,-z
1/2+x,y,-z
1/2-x,y,z
x,-y,z
loop_
_atom_site_type_symbol
_atom_site_label
_atom_site_fract_x
_atom_site_fract_y
_atom_site_fract_z
Si Si1 0.082691 0.166884 0.216786
Si Si2 0.915097 0.669674 0.458089
Si Si3 0.584470 0.329892 0.289296
Si Si4 0.410194 0.825947 0.959294
Si Si5 0.080905 0.164678 0.626149
Si Si6 0.592491 0.826994 0.880182
O O1 0.250000 0.183720 0.224503
O O2 0.042471 0.215451 0.168025
O O3 0.999087 0.274395 0.247823
O O4 0.035415 0.000000 0.225351
O O5 0.750000 0.703224 0.466115
O O6 0.941790 0.500000 0.448911
O O7 0.976099 0.757017 0.416993
O O8 0.000000 0.723792 0.500000
O O9 0.750000 0.295343 0.282335
O O10 0.556378 0.500000 0.295727
O O11 0.524052 0.248752 0.331705
O O12 0.250000 0.764618 0.962188
O O13 0.482154 0.764748 0.915406
O O14 0.408530 0.000000 0.959135
O O15 0.500000 0.767473 0.000000
O O16 0.250000 0.169405 0.625860
O O17 0.022592 0.000000 0.627325
O O18 0.750000 0.762934 0.889610
O O19 0.601123 0.000000 0.883675
#
# Coordination Sequence:
#
# PCOD8210807 Si02
#       6
#     8   8   8   8   8   8
#     4   9  18  32  49  69  94 124 157 195 242 292
#     4   9  17  30  48  69  94 124 157 193 234 281
#     4  10  20  33  50  72  96 123 158 198 238 284
#     4   9  15  21  31  50  78 113 151 188 227 273
#     4   9  17  30  49  71  94 123 159 197 237 281
#     4   8  14  25  39  55  79 112 148 186 229 277
#
# _framework density 18.000250000000001
#
# number of rings (size 3 to 8) (size 9 to 14) (size 15 to 20)
#    0.000    3.000    0.000    2.500    0.000    6.333 
#    0.000    2.500    0.000    3.000    0.000    0.000 
#    0.000    0.667    0.000    2.167    0.000    4.833 
#
# Total GULP energy -595116.833788 kJ/mol
# GULP energy per Si atom -12398.267371 kJ/mol
# Density = 1.795928 g / cm^3
# Si number density = 18.000250 Si / 1000 Ang^3
#
#
#
# Elastic Constant Matrix: (Units=GPa)
#
#
# Indices 1 2 3 4 5 6 
#
# 1 74.6236 30.4982 71.5228 0.0000 0.0000 0.0000
# 2 30.4982 62.8000 57.0477 0.0000 0.0000 0.0000
# 3 71.5228 57.0477 178.4946 0.0000 0.0000 0.0000
# 4 0.0000 0.0000 0.0000 9.4954 0.0000 0.0000
# 5 0.0000 0.0000 0.0000 0.0000 32.7939 0.0000
# 6 0.0000 0.0000 0.0000 0.0000 0.0000 16.1554
#
#
#
# Elastic Compliance Matrix: (Units=1/GPa)
#
#
# Indices 1 2 3 4 5 6 
#
# 1 0.022394 -0.003838 -0.007746 0.000000 0.000000 0.000000
# 2 -0.003838 0.023096 -0.005843 0.000000 0.000000 0.000000
# 3 -0.007746 -0.005843 0.010574 0.000000 0.000000 0.000000
# 4 0.000000 0.000000 0.000000 0.105314 0.000000 0.000000
# 5 0.000000 0.000000 0.000000 0.000000 0.030493 0.000000
# 6 0.000000 0.000000 0.000000 0.000000 0.000000 0.061899
#
#
# Mechanical properties :
#
#
# Convention : Reuss Voigt Hill
#
# Bulk Modulus (GPa) = 47.15415 70.45063 58.80239
# Shear Modulus (GPa) = 16.90925 22.14558 19.52742
#
# Velocity S-wave (km/s) = 3.06827 3.51136 3.29727
# Velocity P-wave (km/s) = 6.22942 7.46078 6.87273
#
# Compressibility (1/GPa) = 0.02120704
#
# Stress axis : x y z
#
# Youngs Moduli (GPa) = 44.65498 43.29766 94.57133
#
# Poissons Ratio (x) = 0.16620 0.73259
# Poissons Ratio (y) = 0.17141 0.55263
# Poissons Ratio (z) = 0.34592 0.25301
#
# Static dielectric constant tensor:
#      x y z
#    x 3.279730 0.000000 0.000000 
#    y 0.000000 2.989300 0.000000 
#    z 0.000000 0.000000 3.574210 
# 
# 
# High freq. dielectric constant tensor:
#      x y z
#    x 1.676370 0.000000 0.000000 
#    y 0.000000 1.658040 0.000000 
#    z 0.000000 0.000000 1.713770 
# 
# From -- ./inp_files/36946.got.cif
#   From: 2010.03.12/outbox.cif.g09.slc.cpg/sg51_19_cif.got.tgz:36946.got - 2010.04.16 13:43:02.
