data_PCOD8210872
_publ_section_title
;
Structure prediction by ZEFSAII (Michael W. Deem and Ramdas Pophale) SiO2 
 PCOD8210872
Probable space group: P M M A
;
_chemical_formula_sum "Si O2"
_cell_formula_units_Z 64
_cell_length_a 33.335860
_cell_length_b 9.072160
_cell_length_c 11.137185
_cell_angle_alpha 90.000000
_cell_angle_beta 90.000000
_cell_angle_gamma 90.000000
_cell_volume 3368.199432
_symmetry_space_group_name_H-M "P M M A"
_symmetry_group_IT_number 51
_symmetry_cell_setting 'orthorhombic'
loop_
_space_group_symop_operation_xyz
x,y,z
1/2-x,-y,z
1/2+x,-y,-z
-x,y,-z
-x,-y,-z
1/2+x,y,-z
1/2-x,y,z
x,-y,z
loop_
_atom_site_type_symbol
_atom_site_label
_atom_site_fract_x
_atom_site_fract_y
_atom_site_fract_z
Si Si1 0.631201 0.832035 0.343416
Si Si2 0.092166 0.171707 0.902425
Si Si3 0.631824 0.171919 0.851714
Si Si4 0.705294 0.168141 0.491608
Si Si5 0.204026 0.326381 0.266031
Si Si6 0.980191 0.670860 0.213375
Si Si7 0.437251 0.330106 0.537111
Si Si8 0.445993 0.172387 0.294325
O O1 0.623795 0.795964 0.204218
O O2 0.677660 0.805170 0.375185
O O3 0.607000 0.723557 0.429707
O O4 0.617951 0.000000 0.371839
O O5 0.051078 0.259720 0.880428
O O6 0.081043 0.000000 0.912001
O O7 0.113161 0.228608 0.023163
O O8 0.673368 0.256805 0.829386
O O9 0.599456 0.204925 0.747429
O O10 0.642032 0.000000 0.859174
O O11 0.750000 0.206803 0.448529
O O12 0.692122 0.270071 0.601949
O O13 0.701800 0.000000 0.537281
O O14 0.250000 0.280292 0.234844
O O15 0.198838 0.500000 0.263061
O O16 0.984989 0.500000 0.181690
O O17 0.965786 0.696335 0.349564
O O18 0.023055 0.751513 0.201188
O O19 0.436032 0.500000 0.498560
O O20 0.453666 0.237512 0.425857
O O21 0.455223 0.000000 0.295303
#
# Coordination Sequence:
#
# PCOD8210872 Si02
#       8
#     8   8   8   8   8   8   8   8
#     4   9  17  31  52  75  99 131 169 207 252 305
#     4   9  19  37  56  73  99 136 176 215 254 300
#     4  10  22  38  55  77 104 137 177 216 255 300
#     4   9  17  30  50  77 107 133 159 199 251 305
#     4  10  21  36  55  80 108 137 169 206 251 303
#     4  10  21  36  53  75 103 135 171 212 261 311
#     4  10  20  33  50  74 103 132 166 211 260 311
#     4  11  22  34  51  76 105 136 172 214 258 306
#
# _framework density 19.001251
#
# number of rings (size 3 to 8) (size 9 to 14) (size 15 to 20)
#    0.000    2.250    0.000    2.625    0.000    9.250 
#    0.000    3.125    0.000    2.250    0.000    1.750 
#    0.000    0.000    0.000    0.000    0.000    0.000 
#
# Total GULP energy -793695.675912 kJ/mol
# GULP energy per Si atom -12401.494936 kJ/mol
# Density = 1.895800 g / cm^3
# Si number density = 19.001251 Si / 1000 Ang^3
#
#
#
# Elastic Constant Matrix: (Units=GPa)
#
#
# Indices 1 2 3 4 5 6 
#
# 1 88.5705 42.7348 14.7670 0.0000 0.0000 0.0000
# 2 42.7348 80.9696 24.1210 0.0000 0.0000 0.0000
# 3 14.7670 24.1210 45.0517 0.0000 0.0000 0.0000
# 4 0.0000 0.0000 0.0000 16.5023 0.0000 0.0000
# 5 0.0000 0.0000 0.0000 0.0000 22.5177 0.0000
# 6 0.0000 0.0000 0.0000 0.0000 0.0000 27.8073
#
#
#
# Elastic Compliance Matrix: (Units=1/GPa)
#
#
# Indices 1 2 3 4 5 6 
#
# 1 0.015173 -0.007765 -0.000816 0.000000 0.000000 0.000000
# 2 -0.007765 0.018668 -0.007450 0.000000 0.000000 0.000000
# 3 -0.000816 -0.007450 0.026453 0.000000 0.000000 0.000000
# 4 0.000000 0.000000 0.000000 0.060598 0.000000 0.000000
# 5 0.000000 0.000000 0.000000 0.000000 0.044410 0.000000
# 6 0.000000 0.000000 0.000000 0.000000 0.000000 0.035962
#
#
# Mechanical properties :
#
#
# Convention : Reuss Voigt Hill
#
# Bulk Modulus (GPa) = 35.42038 41.98193 38.70116
# Shear Modulus (GPa) = 20.59860 22.23006 21.41433
#
# Velocity S-wave (km/s) = 3.29609 3.42413 3.36072
# Velocity P-wave (km/s) = 5.75909 6.14615 5.95577
#
# Compressibility (1/GPa) = 0.02823233
#
# Stress axis : x y z
#
# Youngs Moduli (GPa) = 65.90606 53.56782 37.80319
#
# Poissons Ratio (x) = 0.41596 0.03084
# Poissons Ratio (y) = 0.51177 0.28162
# Poissons Ratio (z) = 0.05377 0.39906
#
# Static dielectric constant tensor:
#      x y z
#    x 3.555140 0.000000 0.000000 
#    y 0.000000 3.477980 0.000000 
#    z 0.000000 0.000000 3.360880 
# 
# 
# High freq. dielectric constant tensor:
#      x y z
#    x 1.742250 0.000000 0.000000 
#    y 0.000000 1.738700 0.000000 
#    z 0.000000 0.000000 1.724480 
# 
# From -- ./inp_files/19617.got.cif
#   From: 2010.03.12/outbox.cif.g09.slc.cpg/sg51_10_cif.got.tgz:19617.got - 2010.04.16 13:43:02.
