data_PCOD8210006
_publ_section_title
;
Structure prediction by ZEFSAII (Michael W. Deem and Ramdas Pophale) SiO2 
 PCOD8210006
Probable space group: P M M A
;
_chemical_formula_sum "Si O2"
_cell_formula_units_Z 48
_cell_length_a 17.154603
_cell_length_b 15.352824
_cell_length_c 9.012319
_cell_angle_alpha 90.000000
_cell_angle_beta 90.000000
_cell_angle_gamma 90.000000
_cell_volume 2373.588881
_symmetry_space_group_name_H-M "P M M A"
_symmetry_group_IT_number 51
_symmetry_cell_setting 'orthorhombic'
loop_
_space_group_symop_operation_xyz
x,y,z
1/2-x,-y,z
1/2+x,-y,-z
-x,y,-z
-x,-y,-z
1/2+x,y,-z
1/2-x,y,z
x,-y,z
loop_
_atom_site_type_symbol
_atom_site_label
_atom_site_fract_x
_atom_site_fract_y
_atom_site_fract_z
Si Si1 0.080872 0.673781 0.588705
Si Si2 0.162171 0.500000 0.629717
Si Si3 0.404161 0.845088 0.128034
Si Si4 0.841585 0.313710 0.707827
Si Si5 0.656563 0.000000 0.372596
Si Si6 0.162905 0.000000 0.300582
Si Si7 0.922566 0.158018 0.205225
Si Si8 0.835102 0.500000 0.719401
O O1 0.111466 0.586227 0.672528
O O2 0.144796 0.702724 0.466880
O O3 0.074493 0.749971 0.710031
O O4 0.000000 0.657291 0.500000
O O5 0.250000 0.500000 0.703584
O O6 0.175078 0.500000 0.456030
O O7 0.391560 0.751299 0.196919
O O8 0.348608 0.915355 0.201460
O O9 0.490969 0.875998 0.168313
O O10 0.382361 0.834275 0.955510
O O11 0.750000 0.305160 0.739460
O O12 0.876160 0.408689 0.760461
O O13 0.623837 0.086900 0.297883
O O14 0.750000 0.000000 0.359272
O O15 0.619851 0.000000 0.539768
O O16 0.250000 0.000000 0.355917
O O17 0.750000 0.500000 0.794263
#
# Coordination Sequence:
#
# PCOD8210006 Si02
#       8
#     8   4   8   8   4   4   8   4
#     4  11  20  37  62  93 122 162 203 255 304 361
#     4   9  19  35  58  90 126 158 201 257 307 353
#     4  11  23  41  59  85 124 160 200 247 301 372
#     4  10  19  35  60  88 119 159 205 251 297 355
#     4  11  26  43  64  92 120 152 202 259 305 358
#     4  11  24  41  64  90 115 153 202 247 298 361
#     4  11  25  41  60  89 122 160 201 247 309 366
#     4   7  14  29  52  82 113 147 193 243 287 338
#
# _framework density 20.222541
#
# number of rings (size 3 to 8) (size 9 to 14) (size 15 to 20)
#    0.000    1.667    1.667    4.250    0.000    6.667 
#    0.000    0.833    0.000    3.000    0.000    0.000 
#    0.000    0.000    0.000    0.000    0.000    0.000 
#
# Total GULP energy -594788.311121 kJ/mol
# GULP energy per Si atom -12391.423148 kJ/mol
# Density = 2.017651 g / cm^3
# Si number density = 20.222541 Si / 1000 Ang^3
#
#
#
# Elastic Constant Matrix: (Units=GPa)
#
#
# Indices 1 2 3 4 5 6 
#
# 1 72.9725 37.7746 22.7866 0.0000 0.0000 0.0000
# 2 37.7746 152.4976 64.5367 0.0000 0.0000 0.0000
# 3 22.7866 64.5367 113.8162 0.0000 0.0000 0.0000
# 4 0.0000 0.0000 0.0000 2.1792 0.0000 0.0000
# 5 0.0000 0.0000 0.0000 0.0000 17.6388 0.0000
# 6 0.0000 0.0000 0.0000 0.0000 0.0000 35.2301
#
#
#
# Elastic Compliance Matrix: (Units=1/GPa)
#
#
# Indices 1 2 3 4 5 6 
#
# 1 0.015853 -0.003399 -0.001246 0.000000 0.000000 0.000000
# 2 -0.003399 0.009357 -0.004625 0.000000 0.000000 0.000000
# 3 -0.001246 -0.004625 0.011658 0.000000 0.000000 0.000000
# 4 0.000000 0.000000 0.000000 0.458893 0.000000 0.000000
# 5 0.000000 0.000000 0.000000 0.000000 0.056693 0.000000
# 6 0.000000 0.000000 0.000000 0.000000 0.000000 0.028385
#
#
# Mechanical properties :
#
#
# Convention : Reuss Voigt Hill
#
# Bulk Modulus (GPa) = 54.56628 65.49802 60.03215
# Shear Modulus (GPa) = 8.25779 25.28883 16.77331
#
# Velocity S-wave (km/s) = 2.02295 3.54012 2.88312
# Velocity P-wave (km/s) = 5.70069 7.01205 6.39010
#
# Compressibility (1/GPa) = 0.01832634
#
# Stress axis : x y z
#
# Youngs Moduli (GPa) = 63.08083 106.87394 85.77738
#
# Poissons Ratio (x) = 0.36331 0.10690
# Poissons Ratio (y) = 0.21444 0.39672
# Poissons Ratio (z) = 0.07861 0.49429
#
# Static dielectric constant tensor:
#      x y z
#    x 3.712160 0.000000 0.000000 
#    y 0.000000 3.940940 0.000000 
#    z 0.000000 0.000000 3.531030 
# 
# 
# High freq. dielectric constant tensor:
#      x y z
#    x 1.788700 0.000000 0.000000 
#    y 0.000000 1.806820 0.000000 
#    z 0.000000 0.000000 1.766250 
# 
# From -- ./inp_files/9737.got.cif
#   From: 2010.03.12/outbox.cif.g09.slc.cpg/sg51_5_cif.got.tgz:9737.got - 2010.04.16 13:43:02.
