data_PCOD8210910
_publ_section_title
;
Structure prediction by ZEFSAII (Michael W. Deem and Ramdas Pophale) SiO2 
 PCOD8210910
Probable space group: P M M A
;
_chemical_formula_sum "Si O2"
_cell_formula_units_Z 40
_cell_length_a 17.995903
_cell_length_b 7.759345
_cell_length_c 15.476524
_cell_angle_alpha 90.000000
_cell_angle_beta 90.000000
_cell_angle_gamma 90.000000
_cell_volume 2161.086405
_symmetry_space_group_name_H-M "P M M A"
_symmetry_group_IT_number 51
_symmetry_cell_setting 'orthorhombic'
loop_
_space_group_symop_operation_xyz
x,y,z
1/2-x,-y,z
1/2+x,-y,-z
-x,y,-z
-x,-y,-z
1/2+x,y,-z
1/2-x,y,z
x,-y,z
loop_
_atom_site_type_symbol
_atom_site_label
_atom_site_fract_x
_atom_site_fract_y
_atom_site_fract_z
Si Si1 0.165742 0.700029 0.005729
Si Si2 0.833908 0.804526 0.179233
Si Si3 0.889310 0.698701 0.811216
Si Si4 0.484684 0.000000 0.399609
Si Si5 0.964869 0.309697 0.288552
Si Si6 0.333280 0.000000 0.303613
O O1 0.250000 0.753638 0.027774
O O2 0.158864 0.500000 0.985101
O O3 0.116630 0.752363 0.088430
O O4 0.137288 0.796086 0.919776
O O5 0.750000 0.730000 0.183997
O O6 0.884452 0.696715 0.244373
O O7 0.836897 0.000000 0.210916
O O8 0.862059 0.500000 0.797387
O O9 0.975110 0.722685 0.786662
O O10 0.840175 0.827091 0.753531
O O11 0.500000 0.000000 0.500000
O O12 0.524809 0.830513 0.362896
O O13 0.396275 0.000000 0.378519
O O14 0.974926 0.500000 0.329764
O O15 0.250000 0.000000 0.344423
#
# Coordination Sequence:
#
# PCOD8210910 Si02
#       6
#     8   8   8   4   8   4
#     4   9  17  29  45  69 105 147 186 223 260 299
#     4  10  20  33  50  75 109 147 187 229 266 304
#     4   9  19  33  51  78 110 144 182 222 261 309
#     4  10  22  42  61  83 113 135 169 218 272 334
#     4  10  20  37  59  80 105 140 179 219 271 326
#     4  10  20  34  57  83 107 141 175 213 267 320
#
# _framework density 18.509209999999999
#
# number of rings (size 3 to 8) (size 9 to 14) (size 15 to 20)
#    0.000    2.400    1.000    1.200    1.400    3.600 
#    0.000    5.000    0.000    0.000    0.000    0.000 
#    0.000    0.000    0.000    0.000    0.000    0.000 
#
# Total GULP energy -495912.444184 kJ/mol
# GULP energy per Si atom -12397.811105 kJ/mol
# Density = 1.846708 g / cm^3
# Si number density = 18.509210 Si / 1000 Ang^3
#
#
#
# Elastic Constant Matrix: (Units=GPa)
#
#
# Indices 1 2 3 4 5 6 
#
# 1 92.9401 37.6515 60.4753 0.0000 0.0000 0.0000
# 2 37.6515 98.8035 49.6015 0.0000 0.0000 0.0000
# 3 60.4753 49.6015 113.8065 0.0000 0.0000 0.0000
# 4 0.0000 0.0000 0.0000 7.4346 0.0000 0.0000
# 5 0.0000 0.0000 0.0000 0.0000 18.2290 0.0000
# 6 0.0000 0.0000 0.0000 0.0000 0.0000 20.5561
#
#
#
# Elastic Compliance Matrix: (Units=1/GPa)
#
#
# Indices 1 2 3 4 5 6 
#
# 1 0.016906 -0.002474 -0.007905 0.000000 0.000000 0.000000
# 2 -0.002474 0.013318 -0.004490 0.000000 0.000000 0.000000
# 3 -0.007905 -0.004490 0.014945 0.000000 0.000000 0.000000
# 4 0.000000 0.000000 0.000000 0.134506 0.000000 0.000000
# 5 0.000000 0.000000 0.000000 0.000000 0.054858 0.000000
# 6 0.000000 0.000000 0.000000 0.000000 0.000000 0.048647
#
#
# Mechanical properties :
#
#
# Convention : Reuss Voigt Hill
#
# Bulk Modulus (GPa) = 64.80844 66.77853 65.79349
# Shear Modulus (GPa) = 15.72030 19.76538 17.74284
#
# Velocity S-wave (km/s) = 2.91748 3.27137 3.09948
# Velocity P-wave (km/s) = 6.81462 7.10113 6.95935
#
# Compressibility (1/GPa) = 0.01543009
#
# Stress axis : x y z
#
# Youngs Moduli (GPa) = 59.15177 75.08734 66.91400
#
# Poissons Ratio (x) = 0.18574 0.52898
# Poissons Ratio (y) = 0.14632 0.30044
# Poissons Ratio (z) = 0.46761 0.33714
#
# Static dielectric constant tensor:
#      x y z
#    x 3.392310 0.000000 0.000000 
#    y 0.000000 3.550820 0.000000 
#    z 0.000000 0.000000 3.026690 
# 
# 
# High freq. dielectric constant tensor:
#      x y z
#    x 1.711420 0.000000 0.000000 
#    y 0.000000 1.731940 0.000000 
#    z 0.000000 0.000000 1.679440 
# 
# From -- ./inp_files/23836.got.cif
#   From: 2010.03.12/outbox.cif.g09.slc.cpg/sg51_12_cif.got.tgz:23836.got - 2010.04.16 13:43:02.
