data_PCOD8210943
_publ_section_title
;
Structure prediction by ZEFSAII (Michael W. Deem and Ramdas Pophale) SiO2 
 PCOD8210943
Probable space group: P M M A
;
_chemical_formula_sum "Si O2"
_cell_formula_units_Z 56
_cell_length_a 9.337129
_cell_length_b 18.306839
_cell_length_c 18.816801
_cell_angle_alpha 90.000000
_cell_angle_beta 90.000000
_cell_angle_gamma 90.000000
_cell_volume 3216.418216
_symmetry_space_group_name_H-M "P M M A"
_symmetry_group_IT_number 51
_symmetry_cell_setting 'orthorhombic'
loop_
_space_group_symop_operation_xyz
x,y,z
1/2-x,-y,z
1/2+x,-y,-z
-x,y,-z
-x,-y,-z
1/2+x,y,-z
1/2-x,y,z
x,-y,z
loop_
_atom_site_type_symbol
_atom_site_label
_atom_site_fract_x
_atom_site_fract_y
_atom_site_fract_z
Si Si1 0.912763 0.180669 0.565536
Si Si2 0.583153 0.584592 0.717000
Si Si3 0.582984 0.209848 0.069274
Si Si4 0.584912 0.083541 0.858311
Si Si5 0.415975 0.649396 0.432138
Si Si6 0.585776 0.167995 0.720242
Si Si7 0.416400 0.704981 0.789599
O O1 0.750000 0.169791 0.543565
O O2 0.950898 0.265376 0.577557
O O3 0.948633 0.140108 0.640185
O O4 0.000000 0.146249 0.500000
O O5 0.750000 0.603120 0.726753
O O6 0.550607 0.500000 0.728973
O O7 0.531542 0.607653 0.638359
O O8 0.493996 0.627937 0.776754
O O9 0.750000 0.197758 0.052787
O O10 0.516679 0.132427 0.092828
O O11 0.559063 0.271221 0.128989
O O12 0.500000 0.238380 0.000000
O O13 0.750000 0.097748 0.879625
O O14 0.561010 0.102012 0.775125
O O15 0.540936 0.000000 0.870541
O O16 0.500000 0.617425 0.500000
O O17 0.250000 0.634623 0.445958
O O18 0.750000 0.196699 0.723145
O O19 0.483320 0.235155 0.737611
O O20 0.250000 0.697734 0.771345
#
# Coordination Sequence:
#
# PCOD8210943 Si02
#       7
#     8   8   8   8   8   8   8
#     4   9  16  26  42  64  90 122 161 208 253 289
#     4  10  20  34  51  70  96 132 169 203 246 299
#     4  10  21  36  55  80 105 133 162 194 236 284
#     4   9  18  32  52  78 105 134 166 199 237 285
#     4   9  17  29  43  64  93 126 164 204 247 293
#     4   9  16  30  50  69  94 129 167 204 245 292
#     4  10  20  33  51  75 100 123 159 205 245 285
#
# _framework density 17.410672000000002
#
# number of rings (size 3 to 8) (size 9 to 14) (size 15 to 20)
#    0.000    2.571    1.429    0.857    0.000    4.000 
#    0.000    0.000    0.000    0.857    0.000    0.000 
#    0.000    0.000    0.000    0.000    0.000    0.000 
#
# Total GULP energy -694374.224978 kJ/mol
# GULP energy per Si atom -12399.539732 kJ/mol
# Density = 1.737104 g / cm^3
# Si number density = 17.410672 Si / 1000 Ang^3
#
#
#
# Elastic Constant Matrix: (Units=GPa)
#
#
# Indices 1 2 3 4 5 6 
#
# 1 85.9106 34.7160 59.6176 0.0000 0.0000 0.0000
# 2 34.7160 56.2681 30.5129 0.0000 0.0000 0.0000
# 3 59.6176 30.5129 114.1050 0.0000 0.0000 0.0000
# 4 0.0000 0.0000 0.0000 17.6855 0.0000 0.0000
# 5 0.0000 0.0000 0.0000 0.0000 33.0481 0.0000
# 6 0.0000 0.0000 0.0000 0.0000 0.0000 20.1658
#
#
#
# Elastic Compliance Matrix: (Units=1/GPa)
#
#
# Indices 1 2 3 4 5 6 
#
# 1 0.021081 -0.008227 -0.008815 0.000000 0.000000 0.000000
# 2 -0.008227 0.023997 -0.002119 0.000000 0.000000 0.000000
# 3 -0.008815 -0.002119 0.013936 0.000000 0.000000 0.000000
# 4 0.000000 0.000000 0.000000 0.056543 0.000000 0.000000
# 5 0.000000 0.000000 0.000000 0.000000 0.030259 0.000000
# 6 0.000000 0.000000 0.000000 0.000000 0.000000 0.049589
#
#
# Mechanical properties :
#
#
# Convention : Reuss Voigt Hill
#
# Bulk Modulus (GPa) = 48.32360 56.21962 52.27161
# Shear Modulus (GPa) = 20.77940 22.94237 21.86088
#
# Velocity S-wave (km/s) = 3.45843 3.63398 3.54729
# Velocity P-wave (km/s) = 6.61537 7.06882 6.84585
#
# Compressibility (1/GPa) = 0.02069382
#
# Stress axis : x y z
#
# Youngs Moduli (GPa) = 47.43544 41.67257 71.75704
#
# Poissons Ratio (x) = 0.34282 0.63252
# Poissons Ratio (y) = 0.39023 0.15203
# Poissons Ratio (z) = 0.41813 0.08829
#
# Static dielectric constant tensor:
#      x y z
#    x 3.274220 0.000000 0.000000 
#    y 0.000000 2.975220 0.000000 
#    z 0.000000 0.000000 3.389710 
# 
# 
# High freq. dielectric constant tensor:
#      x y z
#    x 1.673510 0.000000 0.000000 
#    y 0.000000 1.638200 0.000000 
#    z 0.000000 0.000000 1.676650 
# 
# From -- ./inp_files/28214.got.cif
#   From: 2010.03.12/outbox.cif.g09.slc.cpg/sg51_15_cif.got.tgz:28214.got - 2010.04.16 13:43:02.
