data_PCOD8210366
_publ_section_title
;
Structure prediction by ZEFSAII (Michael W. Deem and Ramdas Pophale) SiO2 
 PCOD8210366
Probable space group: P M M A
;
_chemical_formula_sum "Si O2"
_cell_formula_units_Z 56
_cell_length_a 9.183427
_cell_length_b 19.554413
_cell_length_c 15.122949
_cell_angle_alpha 90.000000
_cell_angle_beta 90.000000
_cell_angle_gamma 90.000000
_cell_volume 2715.726619
_symmetry_space_group_name_H-M "P M M A"
_symmetry_group_IT_number 51
_symmetry_cell_setting 'orthorhombic'
loop_
_space_group_symop_operation_xyz
x,y,z
1/2-x,-y,z
1/2+x,-y,-z
-x,y,-z
-x,-y,-z
1/2+x,y,-z
1/2-x,y,z
x,-y,z
loop_
_atom_site_type_symbol
_atom_site_label
_atom_site_fract_x
_atom_site_fract_y
_atom_site_fract_z
Si Si1 0.409043 0.926793 0.120273
Si Si2 0.582584 0.224495 0.915993
Si Si3 0.591571 0.149701 0.579079
Si Si4 0.413018 0.924537 0.712534
Si Si5 0.418544 0.577334 0.912930
Si Si6 0.585103 0.309691 0.586082
Si Si7 0.423367 0.691549 0.772332
O O1 0.250000 0.923731 0.168504
O O2 0.424007 0.857246 0.064874
O O3 0.543085 0.929066 0.186384
O O4 0.415611 0.000000 0.066106
O O5 0.750000 0.250143 0.912340
O O6 0.500771 0.245431 0.824578
O O7 0.500000 0.258683 0.000000
O O8 0.500000 0.116357 0.500000
O O9 0.750000 0.115773 0.576018
O O10 0.515896 0.131892 0.670371
O O11 0.602326 0.230041 0.568998
O O12 0.250000 0.896726 0.705030
O O13 0.428025 0.000000 0.668740
O O14 0.250000 0.581217 0.935884
O O15 0.467386 0.500000 0.889693
O O16 0.456667 0.623576 0.828570
O O17 0.500000 0.604539 0.000000
O O18 0.500000 0.341168 0.500000
O O19 0.750000 0.341057 0.593396
O O20 0.493542 0.321446 0.675954
O O21 0.250000 0.705842 0.762690
#
# Coordination Sequence:
#
# PCOD8210366 Si02
#       7
#     8   8   8   8   8   8   8
#     4   9  19  36  54  70  93 131 177 222 270 324
#     4  11  23  37  54  79 111 145 184 232 283 336
#     4  10  20  33  49  68  92 125 163 208 264 323
#     4  10  20  32  47  68  92 120 159 209 264 323
#     4   9  19  36  58  86 120 157 195 232 272 323
#     4  10  21  37  57  82 111 143 183 229 276 328
#     4  11  22  36  58  86 117 152 187 229 281 333
#
# _framework density 20.620632000000001
#
# number of rings (size 3 to 8) (size 9 to 14) (size 15 to 20)
#    0.000    2.000    0.000    3.429    0.000   10.000 
#    0.000    0.000    0.000    0.429    0.000    0.000 
#    0.000    0.000    0.000    0.000    0.000    0.000 
#
# Total GULP energy -693833.458846 kJ/mol
# GULP energy per Si atom -12389.883194 kJ/mol
# Density = 2.057370 g / cm^3
# Si number density = 20.620632 Si / 1000 Ang^3
#
#
#
# Elastic Constant Matrix: (Units=GPa)
#
#
# Indices 1 2 3 4 5 6 
#
# 1 167.7659 30.1890 73.1145 0.0000 0.0000 0.0000
# 2 30.1890 55.8907 19.9726 0.0000 0.0000 0.0000
# 3 73.1145 19.9726 131.2701 0.0000 0.0000 0.0000
# 4 0.0000 0.0000 0.0000 39.6400 0.0000 0.0000
# 5 0.0000 0.0000 0.0000 0.0000 39.1293 0.0000
# 6 0.0000 0.0000 0.0000 0.0000 0.0000 14.0669
#
#
#
# Elastic Compliance Matrix: (Units=1/GPa)
#
#
# Indices 1 2 3 4 5 6 
#
# 1 0.008322 -0.003002 -0.004178 0.000000 0.000000 0.000000
# 2 -0.003002 0.020004 -0.001372 0.000000 0.000000 0.000000
# 3 -0.004178 -0.001372 0.010154 0.000000 0.000000 0.000000
# 4 0.000000 0.000000 0.000000 0.025227 0.000000 0.000000
# 5 0.000000 0.000000 0.000000 0.000000 0.025556 0.000000
# 6 0.000000 0.000000 0.000000 0.000000 0.000000 0.071089
#
#
# Mechanical properties :
#
#
# Convention : Reuss Voigt Hill
#
# Bulk Modulus (GPa) = 46.78197 66.83096 56.80647
# Shear Modulus (GPa) = 27.08848 34.01062 30.54955
#
# Velocity S-wave (km/s) = 3.62838 4.06562 3.85321
# Velocity P-wave (km/s) = 6.34742 7.38371 6.88509
#
# Compressibility (1/GPa) = 0.02137576
#
# Stress axis : x y z
#
# Youngs Moduli (GPa) = 120.16574 49.99092 98.48519
#
# Poissons Ratio (x) = 0.15007 0.41151
# Poissons Ratio (y) = 0.36072 0.13508
# Poissons Ratio (z) = 0.50209 0.06857
#
# Static dielectric constant tensor:
#      x y z
#    x 4.003520 0.000000 0.000000 
#    y 0.000000 3.701260 0.000000 
#    z 0.000000 0.000000 3.544950 
# 
# 
# High freq. dielectric constant tensor:
#      x y z
#    x 1.826060 0.000000 0.000000 
#    y 0.000000 1.780880 0.000000 
#    z 0.000000 0.000000 1.791040 
# 
# From -- ./inp_files/21796.got.cif
#   From: 2010.03.12/outbox.cif.g09.slc.cpg/sg51_11_cif.got.tgz:21796.got - 2010.04.16 13:43:02.
