data_PCOD8210779
_publ_section_title
;
Structure prediction by ZEFSAII (Michael W. Deem and Ramdas Pophale) SiO2 
 PCOD8210779
Probable space group: P M M A
;
_chemical_formula_sum "Si O2"
_cell_formula_units_Z 64
_cell_length_a 23.433463
_cell_length_b 8.836809
_cell_length_c 17.928361
_cell_angle_alpha 90.000000
_cell_angle_beta 90.000000
_cell_angle_gamma 90.000000
_cell_volume 3712.551869
_symmetry_space_group_name_H-M "P M M A"
_symmetry_group_IT_number 51
_symmetry_cell_setting 'orthorhombic'
loop_
_space_group_symop_operation_xyz
x,y,z
1/2-x,-y,z
1/2+x,-y,-z
-x,y,-z
-x,-y,-z
1/2+x,y,-z
1/2-x,y,z
x,-y,z
loop_
_atom_site_type_symbol
_atom_site_label
_atom_site_fract_x
_atom_site_fract_y
_atom_site_fract_z
Si Si1 0.886332 0.679248 0.858878
Si Si2 0.500398 0.820535 0.085906
Si Si3 0.615179 0.679183 0.138141
Si Si4 0.817534 0.833017 0.563259
Si Si5 0.813278 0.679612 0.997811
Si Si6 0.683607 0.823720 0.269338
Si Si7 0.684441 0.178878 0.729843
Si Si8 0.682410 0.667396 0.419792
O O1 0.894327 0.500000 0.860957
O O2 0.947003 0.757313 0.868717
O O3 0.858070 0.728302 0.781718
O O4 0.845962 0.738746 0.925193
O O5 0.554697 0.759252 0.130130
O O6 0.499876 0.000000 0.088463
O O7 0.500000 0.762193 0.000000
O O8 0.606513 0.500000 0.135675
O O9 0.654671 0.738605 0.070941
O O10 0.645094 0.725531 0.214550
O O11 0.750000 0.844462 0.554848
O O12 0.831980 0.770710 0.645688
O O13 0.843404 0.727343 0.498202
O O14 0.844050 0.000000 0.553195
O O15 0.750000 0.750215 0.997372
O O16 0.810176 0.500000 0.997838
O O17 0.750000 0.783935 0.255402
O O18 0.664853 0.778801 0.352855
O O19 0.671612 0.000000 0.257169
O O20 0.750000 0.223030 0.747823
O O21 0.675794 0.000000 0.740256
O O22 0.750000 0.660193 0.426356
O O23 0.657516 0.500000 0.404699
#
# Coordination Sequence:
#
# PCOD8210779 Si02
#       8
#     8   8   8   8   8   8   8   8
#     4  11  21  34  53  75 101 132 172 215 257 302
#     4  11  23  39  57  74  97 128 169 217 263 309
#     4  11  21  35  55  75 100 131 170 215 259 303
#     4   8  14  26  44  66  97 137 173 204 245 299
#     4   9  18  31  48  72 101 131 161 198 249 304
#     4  10  20  33  49  73 107 141 172 207 252 307
#     4   9  18  32  49  73 107 142 173 208 255 308
#     4   9  16  26  43  69 100 134 172 210 249 295
#
# _framework density 17.238816
#
# number of rings (size 3 to 8) (size 9 to 14) (size 15 to 20)
#    0.000    2.250    1.250    3.375    0.000    4.500 
#    0.000    1.250    0.000    3.000    0.000    0.875 
#    0.000    7.000    0.000    0.000    0.000    0.000 
#
# Total GULP energy -793574.928783 kJ/mol
# GULP energy per Si atom -12399.608262 kJ/mol
# Density = 1.719958 g / cm^3
# Si number density = 17.238816 Si / 1000 Ang^3
#
#
#
# Elastic Constant Matrix: (Units=GPa)
#
#
# Indices 1 2 3 4 5 6 
#
# 1 96.1353 30.0117 48.1487 0.0000 0.0000 0.0000
# 2 30.0117 64.6599 35.1100 0.0000 0.0000 0.0000
# 3 48.1487 35.1100 123.2347 0.0000 0.0000 0.0000
# 4 0.0000 0.0000 0.0000 29.7930 0.0000 0.0000
# 5 0.0000 0.0000 0.0000 0.0000 2.7235 0.0000
# 6 0.0000 0.0000 0.0000 0.0000 0.0000 20.2329
#
#
#
# Elastic Compliance Matrix: (Units=1/GPa)
#
#
# Indices 1 2 3 4 5 6 
#
# 1 0.013800 -0.004114 -0.004220 0.000000 0.000000 0.000000
# 2 -0.004114 0.019522 -0.003955 0.000000 0.000000 0.000000
# 3 -0.004220 -0.003955 0.010890 0.000000 0.000000 0.000000
# 4 0.000000 0.000000 0.000000 0.033565 0.000000 0.000000
# 5 0.000000 0.000000 0.000000 0.000000 0.367172 0.000000
# 6 0.000000 0.000000 0.000000 0.000000 0.000000 0.049424
#
#
# Mechanical properties :
#
#
# Convention : Reuss Voigt Hill
#
# Bulk Modulus (GPa) = 50.92767 56.73009 53.82888
# Shear Modulus (GPa) = 9.51484 21.93385 15.72435
#
# Velocity S-wave (km/s) = 2.35189 3.57087 3.02345
# Velocity P-wave (km/s) = 6.08127 7.06975 6.59405
#
# Compressibility (1/GPa) = 0.01963569
#
# Stress axis : x y z
#
# Youngs Moduli (GPa) = 72.46582 51.22343 91.82813
#
# Poissons Ratio (x) = 0.21073 0.38747
# Poissons Ratio (y) = 0.29811 0.36315
# Poissons Ratio (z) = 0.30577 0.20257
#
# Static dielectric constant tensor:
#      x y z
#    x 2.979430 0.000000 0.000000 
#    y 0.000000 3.207690 0.000000 
#    z 0.000000 0.000000 3.376360 
# 
# 
# High freq. dielectric constant tensor:
#      x y z
#    x 1.628170 0.000000 0.000000 
#    y 0.000000 1.665150 0.000000 
#    z 0.000000 0.000000 1.674160 
# 
# From -- ./inp_files/30837.got.cif
#   From: 2010.03.12/outbox.cif.g09.slc.cpg/sg51_16_cif.got.tgz:30837.got - 2010.04.16 13:43:02.
