data_PCOD8210878
_publ_section_title
;
Structure prediction by ZEFSAII (Michael W. Deem and Ramdas Pophale) SiO2 
 PCOD8210878
Probable space group: P M M A
;
_chemical_formula_sum "Si O2"
_cell_formula_units_Z 48
_cell_length_a 9.142358
_cell_length_b 18.198100
_cell_length_c 14.387116
_cell_angle_alpha 90.000000
_cell_angle_beta 90.000000
_cell_angle_gamma 90.000000
_cell_volume 2393.635493
_symmetry_space_group_name_H-M "P M M A"
_symmetry_group_IT_number 51
_symmetry_cell_setting 'orthorhombic'
loop_
_space_group_symop_operation_xyz
x,y,z
1/2-x,-y,z
1/2+x,-y,-z
-x,y,-z
-x,-y,-z
1/2+x,y,-z
1/2-x,y,z
x,-y,z
loop_
_atom_site_type_symbol
_atom_site_label
_atom_site_fract_x
_atom_site_fract_y
_atom_site_fract_z
Si Si1 0.921607 0.218839 0.096467
Si Si2 0.575562 0.081524 0.210488
Si Si3 0.590001 0.416691 0.917596
Si Si4 0.421645 0.415461 0.402785
Si Si5 0.922387 0.350421 0.234949
Si Si6 0.910841 0.087005 0.414107
O O1 0.750000 0.219021 0.077210
O O2 0.977358 0.139450 0.133292
O O3 0.961119 0.276119 0.178578
O O4 0.000000 0.237570 0.000000
O O5 0.750000 0.080779 0.218117
O O6 0.516250 0.104419 0.313383
O O7 0.518299 0.000000 0.182669
O O8 0.750000 0.378625 0.905016
O O9 0.617060 0.500000 0.947020
O O10 0.493137 0.415802 0.825059
O O11 0.500000 0.375688 0.000000
O O12 0.500000 0.402625 0.500000
O O13 0.250000 0.397655 0.410927
O O14 0.445387 0.500000 0.369775
O O15 0.497571 0.356565 0.333888
O O16 0.750000 0.361523 0.248024
O O17 0.750000 0.122670 0.419166
O O18 0.000000 0.121989 0.500000
O O19 0.899815 0.000000 0.425899
#
# Coordination Sequence:
#
# PCOD8210878 Si02
#       6
#     8   8   8   8   8   8
#     4  10  22  38  55  77 105 139 181 228 280 337
#     4   8  15  31  54  76 101 137 179 223 276 337
#     4  10  20  33  50  74 103 135 174 219 264 312
#     4  10  21  38  61  88 116 147 185 227 268 313
#     4  11  22  35  53  77 108 145 181 219 266 323
#     4   8  13  23  43  70  97 125 156 193 242 300
#
# _framework density 20.053180000000001
#
# number of rings (size 3 to 8) (size 9 to 14) (size 15 to 20)
#    0.000    2.500    0.000    3.500    0.000    7.000 
#    0.000    1.667    0.000    3.000    0.000    0.000 
#    0.000    0.000    0.000    0.000    0.000    0.000 
#
# Total GULP energy -594803.599475 kJ/mol
# GULP energy per Si atom -12391.741656 kJ/mol
# Density = 2.000754 g / cm^3
# Si number density = 20.053180 Si / 1000 Ang^3
#
#
#
# Elastic Constant Matrix: (Units=GPa)
#
#
# Indices 1 2 3 4 5 6 
#
# 1 113.3035 42.5168 69.0707 0.0000 0.0000 0.0000
# 2 42.5168 77.1381 56.8125 0.0000 0.0000 0.0000
# 3 69.0707 56.8125 138.7855 0.0000 0.0000 0.0000
# 4 0.0000 0.0000 0.0000 22.7592 0.0000 0.0000
# 5 0.0000 0.0000 0.0000 0.0000 38.5442 0.0000
# 6 0.0000 0.0000 0.0000 0.0000 0.0000 11.8788
#
#
#
# Elastic Compliance Matrix: (Units=1/GPa)
#
#
# Indices 1 2 3 4 5 6 
#
# 1 0.013304 -0.003517 -0.005182 0.000000 0.000000 0.000000
# 2 -0.003517 0.019489 -0.006228 0.000000 0.000000 0.000000
# 3 -0.005182 -0.006228 0.012334 0.000000 0.000000 0.000000
# 4 0.000000 0.000000 0.000000 0.043938 0.000000 0.000000
# 5 0.000000 0.000000 0.000000 0.000000 0.025944 0.000000
# 6 0.000000 0.000000 0.000000 0.000000 0.000000 0.084184
#
#
# Mechanical properties :
#
#
# Convention : Reuss Voigt Hill
#
# Bulk Modulus (GPa) = 65.46855 74.00301 69.73578
# Shear Modulus (GPa) = 21.35508 25.35823 23.35666
#
# Velocity S-wave (km/s) = 3.26685 3.55991 3.41652
# Velocity P-wave (km/s) = 6.85187 7.34035 7.10031
#
# Compressibility (1/GPa) = 0.01527451
#
# Stress axis : x y z
#
# Youngs Moduli (GPa) = 75.16377 51.31162 81.07997
#
# Poissons Ratio (x) = 0.18045 0.42013
# Poissons Ratio (y) = 0.26433 0.50494
# Poissons Ratio (z) = 0.38948 0.31955
#
# Static dielectric constant tensor:
#      x y z
#    x 3.761690 0.000000 0.000000 
#    y 0.000000 3.514580 0.000000 
#    z 0.000000 0.000000 3.776460 
# 
# 
# High freq. dielectric constant tensor:
#      x y z
#    x 1.768880 0.000000 0.000000 
#    y 0.000000 1.754110 0.000000 
#    z 0.000000 0.000000 1.789540 
# 
# From -- ./inp_files/21401.got.cif
#   From: 2010.03.12/outbox.cif.g09.slc.cpg/sg51_11_cif.got.tgz:21401.got - 2010.04.16 13:43:02.
