data_PCOD8210573
_publ_section_title
;
Structure prediction by ZEFSAII (Michael W. Deem and Ramdas Pophale) SiO2 
 PCOD8210573
Probable space group: P M M A
;
_chemical_formula_sum "Si O2"
_cell_formula_units_Z 56
_cell_length_a 23.687475
_cell_length_b 8.982675
_cell_length_c 13.650161
_cell_angle_alpha 90.000000
_cell_angle_beta 90.000000
_cell_angle_gamma 90.000000
_cell_volume 2904.438799
_symmetry_space_group_name_H-M "P M M A"
_symmetry_group_IT_number 51
_symmetry_cell_setting 'orthorhombic'
loop_
_space_group_symop_operation_xyz
x,y,z
1/2-x,-y,z
1/2+x,-y,-z
-x,y,-z
-x,-y,-z
1/2+x,y,-z
1/2-x,y,z
x,-y,z
loop_
_atom_site_type_symbol
_atom_site_label
_atom_site_fract_x
_atom_site_fract_y
_atom_site_fract_z
Si Si1 0.642009 0.672186 0.950413
Si Si2 0.750000 0.177140 0.861230
Si Si3 0.363097 0.672998 0.452917
Si Si4 0.250000 0.323106 0.351226
Si Si5 0.465412 0.167288 0.130538
Si Si6 0.532584 0.165652 0.637904
Si Si7 0.921610 0.672460 0.356645
Si Si8 0.076797 0.328690 0.863304
O O1 0.653313 0.500000 0.923083
O O2 0.695212 0.770216 0.920278
O O3 0.586443 0.726522 0.894740
O O4 0.631249 0.691941 0.067011
O O5 0.750000 0.244089 0.753108
O O6 0.750000 0.000000 0.854176
O O7 0.368225 0.500000 0.430624
O O8 0.303321 0.732523 0.414375
O O9 0.411626 0.749596 0.391723
O O10 0.369486 0.705457 0.569658
O O11 0.250000 0.500000 0.334810
O O12 0.470701 0.165089 0.246144
O O13 0.525004 0.233211 0.091035
O O14 0.456542 0.000000 0.089023
O O15 0.475713 0.243055 0.598297
O O16 0.534899 0.000000 0.594646
O O17 0.937640 0.500000 0.356658
O O18 0.905832 0.724400 0.246341
O O19 0.056919 0.500000 0.862107
#
# Coordination Sequence:
#
# PCOD8210573 Si02
#       8
#     8   4   8   4   8   8   8   8
#     4  11  22  37  57  80 107 142 182 222 267 316
#     4  12  26  42  59  80 106 138 177 220 267 318
#     4  10  20  34  54  78 104 138 177 217 262 310
#     4  10  22  40  59  80 106 136 173 216 261 312
#     4  10  20  33  52  81 114 146 179 219 268 318
#     4  10  20  32  49  77 110 142 176 215 262 314
#     4   9  18  34  54  78 108 139 173 214 260 311
#     4   9  19  35  55  80 110 143 178 218 265 318
#
# _framework density 19.280833000000001
#
# number of rings (size 3 to 8) (size 9 to 14) (size 15 to 20)
#    0.000    2.000    0.000    3.643    0.000    9.714 
#    0.000    0.714    0.000    3.429    0.000    1.000 
#    0.000    0.000    0.000    0.000    0.000    0.000 
#
# Total GULP energy -694391.418190 kJ/mol
# GULP energy per Si atom -12399.846753 kJ/mol
# Density = 1.923695 g / cm^3
# Si number density = 19.280833 Si / 1000 Ang^3
#
#
#
# Elastic Constant Matrix: (Units=GPa)
#
#
# Indices 1 2 3 4 5 6 
#
# 1 135.0361 41.1781 71.4642 0.0000 0.0000 0.0000
# 2 41.1781 55.7242 38.6109 0.0000 0.0000 0.0000
# 3 71.4642 38.6109 76.2917 0.0000 0.0000 0.0000
# 4 0.0000 0.0000 0.0000 17.6596 0.0000 0.0000
# 5 0.0000 0.0000 0.0000 0.0000 30.3433 0.0000
# 6 0.0000 0.0000 0.0000 0.0000 0.0000 12.9904
#
#
#
# Elastic Compliance Matrix: (Units=1/GPa)
#
#
# Indices 1 2 3 4 5 6 
#
# 1 0.014837 -0.002054 -0.012858 0.000000 0.000000 0.000000
# 2 -0.002054 0.027921 -0.012206 0.000000 0.000000 0.000000
# 3 -0.012858 -0.012206 0.031330 0.000000 0.000000 0.000000
# 4 0.000000 0.000000 0.000000 0.056626 0.000000 0.000000
# 5 0.000000 0.000000 0.000000 0.000000 0.032956 0.000000
# 6 0.000000 0.000000 0.000000 0.000000 0.000000 0.076980
#
#
# Mechanical properties :
#
#
# Convention : Reuss Voigt Hill
#
# Bulk Modulus (GPa) = 50.37838 63.28425 56.83132
# Shear Modulus (GPa) = 16.58345 19.91857 18.25101
#
# Velocity S-wave (km/s) = 2.93593 3.21764 3.08000
# Velocity P-wave (km/s) = 6.13827 6.83358 6.49524
#
# Compressibility (1/GPa) = 0.01984978
#
# Stress axis : x y z
#
# Youngs Moduli (GPa) = 67.40017 35.81473 31.91856
#
# Poissons Ratio (x) = 0.07358 0.41041
# Poissons Ratio (y) = 0.13847 0.38961
# Poissons Ratio (z) = 0.86664 0.43717
#
# Static dielectric constant tensor:
#      x y z
#    x 3.472080 0.000000 0.000000 
#    y 0.000000 3.693510 0.000000 
#    z 0.000000 0.000000 3.819330 
# 
# 
# High freq. dielectric constant tensor:
#      x y z
#    x 1.731430 0.000000 0.000000 
#    y 0.000000 1.751510 0.000000 
#    z 0.000000 0.000000 1.766670 
# 
# From -- ./inp_files/25854.got.cif
#   From: 2010.03.12/outbox.cif.g09.slc.cpg/sg51_13_cif.got.tgz:25854.got - 2010.04.16 13:43:02.
