data_PCOD8210960
_publ_section_title
;
Structure prediction by ZEFSAII (Michael W. Deem and Ramdas Pophale) SiO2 
 PCOD8210960
Probable space group: P M M A
;
_chemical_formula_sum "Si O2"
_cell_formula_units_Z 64
_cell_length_a 8.874110
_cell_length_b 19.977172
_cell_length_c 17.875293
_cell_angle_alpha 90.000000
_cell_angle_beta 90.000000
_cell_angle_gamma 90.000000
_cell_volume 3168.925183
_symmetry_space_group_name_H-M "P M M A"
_symmetry_group_IT_number 51
_symmetry_cell_setting 'orthorhombic'
loop_
_space_group_symop_operation_xyz
x,y,z
1/2-x,-y,z
1/2+x,-y,-z
-x,y,-z
-x,-y,-z
1/2+x,y,-z
1/2-x,y,z
x,-y,z
loop_
_atom_site_type_symbol
_atom_site_label
_atom_site_fract_x
_atom_site_fract_y
_atom_site_fract_z
Si Si1 0.072583 0.577509 0.631549
Si Si2 0.074197 0.202466 0.286310
Si Si3 0.076753 0.074211 0.770097
Si Si4 0.085425 0.423527 0.220217
Si Si5 0.573651 0.623990 0.075487
Si Si6 0.571081 0.706194 0.574971
Si Si7 0.422188 0.099833 0.075619
Si Si8 0.419680 0.248093 0.121707
O O1 0.250000 0.586577 0.623837
O O2 0.026562 0.500000 0.613941
O O3 0.022343 0.601919 0.713950
O O4 0.988738 0.629507 0.577495
O O5 0.250000 0.187462 0.293394
O O6 0.016472 0.247984 0.355228
O O7 0.038493 0.241198 0.209280
O O8 0.995056 0.129645 0.284955
O O9 0.250000 0.093530 0.781789
O O10 0.000959 0.070479 0.851415
O O11 0.059144 0.000000 0.733747
O O12 0.250000 0.386222 0.221954
O O13 0.118124 0.500000 0.234303
O O14 0.001776 0.415491 0.142617
O O15 0.750000 0.610303 0.074052
O O16 0.539393 0.702590 0.084170
O O17 0.500000 0.595677 0.000000
O O18 0.500000 0.738574 0.500000
O O19 0.750000 0.704575 0.570025
O O20 0.250000 0.075628 0.075800
O O21 0.434265 0.179531 0.077648
O O22 0.500000 0.072950 0.000000
O O23 0.250000 0.276860 0.113178
#
# Coordination Sequence:
#
# PCOD8210960 Si02
#       8
#     8   8   8   8   8   8   8   8
#     4  10  21  38  61  89 119 152 191 231 273 327
#     4   9  20  38  60  84 111 147 187 229 277 332
#     4  10  21  36  56  83 112 145 188 236 285 338
#     4  10  21  38  58  77 100 134 176 223 275 330
#     4  12  24  35  50  72 100 136 178 228 284 335
#     4  11  23  39  61  90 123 156 190 228 275 330
#     4  10  20  33  51  75 107 147 186 229 279 329
#     4   9  18  34  54  76 102 134 178 226 273 328
#
# _framework density 20.196124000000001
#
# number of rings (size 3 to 8) (size 9 to 14) (size 15 to 20)
#    0.000    1.875    0.000    4.875    0.000    8.750 
#    0.000    0.000    0.000    0.375    0.000    0.000 
#    0.000    0.000    0.000    0.000    0.000    0.000 
#
# Total GULP energy -793476.837442 kJ/mol
# GULP energy per Si atom -12398.075585 kJ/mol
# Density = 2.015016 g / cm^3
# Si number density = 20.196124 Si / 1000 Ang^3
#
#
#
# Elastic Constant Matrix: (Units=GPa)
#
#
# Indices 1 2 3 4 5 6 
#
# 1 112.8783 31.1575 35.6840 0.0000 0.0000 0.0000
# 2 31.1575 71.8901 29.0749 0.0000 0.0000 0.0000
# 3 35.6840 29.0749 102.6395 0.0000 0.0000 0.0000
# 4 0.0000 0.0000 0.0000 44.7101 0.0000 0.0000
# 5 0.0000 0.0000 0.0000 0.0000 32.6474 0.0000
# 6 0.0000 0.0000 0.0000 0.0000 0.0000 25.8094
#
#
#
# Elastic Compliance Matrix: (Units=1/GPa)
#
#
# Indices 1 2 3 4 5 6 
#
# 1 0.010694 -0.003536 -0.002716 0.000000 0.000000 0.000000
# 2 -0.003536 0.016879 -0.003552 0.000000 0.000000 0.000000
# 3 -0.002716 -0.003552 0.011693 0.000000 0.000000 0.000000
# 4 0.000000 0.000000 0.000000 0.022366 0.000000 0.000000
# 5 0.000000 0.000000 0.000000 0.000000 0.030630 0.000000
# 6 0.000000 0.000000 0.000000 0.000000 0.000000 0.038746
#
#
# Mechanical properties :
#
#
# Convention : Reuss Voigt Hill
#
# Bulk Modulus (GPa) = 50.87072 53.24898 52.05985
# Shear Modulus (GPa) = 31.81268 33.39948 32.60608
#
# Velocity S-wave (km/s) = 3.97317 4.07105 4.02241
# Velocity P-wave (km/s) = 6.80376 6.96571 6.88521
#
# Compressibility (1/GPa) = 0.01965767
#
# Stress axis : x y z
#
# Youngs Moduli (GPa) = 93.51175 59.24410 85.51886
#
# Poissons Ratio (x) = 0.20950 0.23228
# Poissons Ratio (y) = 0.33068 0.30376
# Poissons Ratio (z) = 0.25399 0.21044
#
# Static dielectric constant tensor:
#      x y z
#    x 3.790800 0.000000 0.000000 
#    y 0.000000 3.663620 0.000000 
#    z 0.000000 0.000000 3.699070 
# 
# 
# High freq. dielectric constant tensor:
#      x y z
#    x 1.795690 0.000000 0.000000 
#    y 0.000000 1.785250 0.000000 
#    z 0.000000 0.000000 1.774970 
# 
# From -- ./inp_files/28426.got.cif
#   From: 2010.03.12/outbox.cif.g09.slc.cpg/sg51_15_cif.got.tgz:28426.got - 2010.04.16 13:43:02.
