data_PCOD8210516
_publ_section_title
;
Structure prediction by ZEFSAII (Michael W. Deem and Ramdas Pophale) SiO2 
 PCOD8210516
Probable space group: P M M A
;
_chemical_formula_sum "Si O2"
_cell_formula_units_Z 48
_cell_length_a 9.226056
_cell_length_b 9.408137
_cell_length_c 30.398378
_cell_angle_alpha 90.000000
_cell_angle_beta 90.000000
_cell_angle_gamma 90.000000
_cell_volume 2638.579174
_symmetry_space_group_name_H-M "P M M A"
_symmetry_group_IT_number 51
_symmetry_cell_setting 'orthorhombic'
loop_
_space_group_symop_operation_xyz
x,y,z
1/2-x,-y,z
1/2+x,-y,-z
-x,y,-z
-x,-y,-z
1/2+x,y,-z
1/2-x,y,z
x,-y,z
loop_
_atom_site_type_symbol
_atom_site_label
_atom_site_fract_x
_atom_site_fract_y
_atom_site_fract_z
Si Si1 0.914706 0.664941 0.800696
Si Si2 0.920818 0.836906 0.372301
Si Si3 0.582227 0.833566 0.128006
Si Si4 0.918196 0.338971 0.699142
Si Si5 0.085968 0.830715 0.042160
Si Si6 0.419302 0.336246 0.543537
O O1 0.750000 0.709971 0.812020
O O2 0.937849 0.500000 0.811388
O O3 0.948129 0.696321 0.749899
O O4 0.026743 0.755988 0.828630
O O5 0.750000 0.819608 0.367556
O O6 0.977165 0.755288 0.415545
O O7 0.990890 0.771119 0.329092
O O8 0.968363 0.000000 0.376376
O O9 0.750000 0.797941 0.120324
O O10 0.493874 0.776078 0.085957
O O11 0.556694 0.000000 0.134751
O O12 0.750000 0.320480 0.687910
O O13 0.967710 0.500000 0.688528
O O14 0.250000 0.771719 0.041572
O O15 0.085857 0.000000 0.040794
O O16 0.000000 0.770140 0.000000
O O17 0.500000 0.282038 0.500000
O O18 0.250000 0.312743 0.535766
O O19 0.456864 0.500000 0.553427
#
# Coordination Sequence:
#
# PCOD8210516 Si02
#       6
#     8   8   8   8   8   8
#     4   9  19  36  55  74  98 130 168 209 253 301
#     4  10  21  35  51  75 107 138 167 203 250 302
#     4  10  20  32  48  74 105 134 167 207 250 299
#     4   9  19  36  56  76  98 128 169 212 251 297
#     4   9  16  27  45  69  98 132 169 209 252 297
#     4   9  18  33  52  73  98 131 171 211 249 292
#
# _framework density 18.191609
#
# number of rings (size 3 to 8) (size 9 to 14) (size 15 to 20)
#    0.000    2.667    0.000    2.500    0.000    7.000 
#    0.000    6.667    0.000    0.500    0.000    0.000 
#    0.000    0.000    0.000    0.000    0.000    0.000 
#
# Total GULP energy -595297.585886 kJ/mol
# GULP energy per Si atom -12402.033039 kJ/mol
# Density = 1.815020 g / cm^3
# Si number density = 18.191609 Si / 1000 Ang^3
#
#
#
# Elastic Constant Matrix: (Units=GPa)
#
#
# Indices 1 2 3 4 5 6 
#
# 1 91.1098 45.9739 66.3673 0.0000 0.0000 0.0000
# 2 45.9739 72.2747 63.2079 0.0000 0.0000 0.0000
# 3 66.3673 63.2079 129.5939 0.0000 0.0000 0.0000
# 4 0.0000 0.0000 0.0000 21.0056 0.0000 0.0000
# 5 0.0000 0.0000 0.0000 0.0000 40.4547 0.0000
# 6 0.0000 0.0000 0.0000 0.0000 0.0000 26.5321
#
#
#
# Elastic Compliance Matrix: (Units=1/GPa)
#
#
# Indices 1 2 3 4 5 6 
#
# 1 0.018991 -0.006234 -0.006685 0.000000 0.000000 0.000000
# 2 -0.006234 0.026174 -0.009574 0.000000 0.000000 0.000000
# 3 -0.006685 -0.009574 0.015810 0.000000 0.000000 0.000000
# 4 0.000000 0.000000 0.000000 0.047606 0.000000 0.000000
# 5 0.000000 0.000000 0.000000 0.000000 0.024719 0.000000
# 6 0.000000 0.000000 0.000000 0.000000 0.000000 0.037690
#
#
# Mechanical properties :
#
#
# Convention : Reuss Voigt Hill
#
# Bulk Modulus (GPa) = 62.54153 71.56406 67.05280
# Shear Modulus (GPa) = 22.59327 25.42712 24.01019
#
# Velocity S-wave (km/s) = 3.52797 3.74269 3.63692
# Velocity P-wave (km/s) = 7.14489 7.62243 7.38752
#
# Compressibility (1/GPa) = 0.01598937
#
# Stress axis : x y z
#
# Youngs Moduli (GPa) = 52.65666 38.20590 63.25290
#
# Poissons Ratio (x) = 0.23816 0.42286
# Poissons Ratio (y) = 0.32824 0.60557
# Poissons Ratio (z) = 0.35202 0.36577
#
# Static dielectric constant tensor:
#      x y z
#    x 3.333560 0.000000 0.000000 
#    y 0.000000 3.140860 0.000000 
#    z 0.000000 0.000000 3.412680 
# 
# 
# High freq. dielectric constant tensor:
#      x y z
#    x 1.705670 0.000000 0.000000 
#    y 0.000000 1.681110 0.000000 
#    z 0.000000 0.000000 1.715780 
# 
# From -- ./inp_files/36967.got.cif
#   From: 2010.03.12/outbox.cif.g09.slc.cpg/sg51_19_cif.got.tgz:36967.got - 2010.04.16 13:43:02.
