data_PCOD8210302
_publ_section_title
;
Structure prediction by ZEFSAII (Michael W. Deem and Ramdas Pophale) SiO2 
 PCOD8210302
Probable space group: P M M A
;
_chemical_formula_sum "Si O2"
_cell_formula_units_Z 64
_cell_length_a 20.862742
_cell_length_b 9.113193
_cell_length_c 19.187627
_cell_angle_alpha 90.000000
_cell_angle_beta 90.000000
_cell_angle_gamma 90.000000
_cell_volume 3648.070500
_symmetry_space_group_name_H-M "P M M A"
_symmetry_group_IT_number 51
_symmetry_cell_setting 'orthorhombic'
loop_
_space_group_symop_operation_xyz
x,y,z
1/2-x,-y,z
1/2+x,-y,-z
-x,y,-z
-x,-y,-z
1/2+x,y,-z
1/2-x,y,z
x,-y,z
loop_
_atom_site_type_symbol
_atom_site_label
_atom_site_fract_x
_atom_site_fract_y
_atom_site_fract_z
Si Si1 0.948785 0.837876 0.149634
Si Si2 0.490796 0.173824 0.703395
Si Si3 0.452970 0.331016 0.563877
Si Si4 0.117719 0.673853 0.245205
Si Si5 0.822746 0.840024 0.641152
Si Si6 0.402823 0.835979 0.110580
Si Si7 0.823267 0.332521 0.509603
Si Si8 0.074294 0.336015 0.979861
O O1 0.913063 0.725040 0.098217
O O2 0.943489 0.789459 0.230934
O O3 0.022568 0.841897 0.127586
O O4 0.918973 0.000000 0.139321
O O5 0.463051 0.228642 0.630656
O O6 0.556542 0.257494 0.716692
O O7 0.503017 0.000000 0.700978
O O8 0.500000 0.283158 0.500000
O O9 0.468221 0.500000 0.582699
O O10 0.376899 0.310568 0.549606
O O11 0.112495 0.500000 0.242613
O O12 0.175391 0.731511 0.292742
O O13 0.130705 0.733591 0.167840
O O14 0.750000 0.867486 0.622919
O O15 0.851841 0.762970 0.573014
O O16 0.856003 0.000000 0.654378
O O17 0.373663 0.000000 0.112117
O O18 0.388775 0.766227 0.035012
O O19 0.750000 0.289101 0.485454
O O20 0.822660 0.500000 0.535259
O O21 0.102447 0.500000 0.982660
O O22 0.000000 0.337203 0.000000
#
# Coordination Sequence:
#
# PCOD8210302 Si02
#       8
#     8   8   8   8   8   8   8   8
#     4   8  15  26  38  54  79 112 145 178 219 266
#     4  10  20  32  46  65  90 120 153 189 232 280
#     4  10  20  32  47  69  95 123 157 196 237 283
#     4  11  20  30  45  64  90 121 153 189 228 273
#     4  10  20  33  49  68  89 115 150 190 230 274
#     4   9  16  26  39  56  82 115 149 183 219 261
#     4   9  18  33  51  70  94 124 156 192 237 285
#     4   9  15  22  35  56  80 109 146 182 216 259
#
# _framework density 17.543520000000001
#
# number of rings (size 3 to 8) (size 9 to 14) (size 15 to 20)
#    0.000    2.500    0.000    4.125    0.000    7.500 
#    0.000    0.000    0.000    0.000    0.000    0.000 
#    0.000    1.000    0.000    6.500    0.000    5.250 
#
# Total GULP energy -793037.361662 kJ/mol
# GULP energy per Si atom -12391.208776 kJ/mol
# Density = 1.750359 g / cm^3
# Si number density = 17.543520 Si / 1000 Ang^3
#
#
#
# Elastic Constant Matrix: (Units=GPa)
#
#
# Indices 1 2 3 4 5 6 
#
# 1 35.4607 15.6872 20.8494 0.0000 0.0000 0.0000
# 2 15.6872 136.5845 70.4068 0.0000 0.0000 0.0000
# 3 20.8494 70.4068 133.2379 0.0000 0.0000 0.0000
# 4 0.0000 0.0000 0.0000 37.2617 0.0000 0.0000
# 5 0.0000 0.0000 0.0000 0.0000 13.1189 0.0000
# 6 0.0000 0.0000 0.0000 0.0000 0.0000 12.7620
#
#
#
# Elastic Compliance Matrix: (Units=1/GPa)
#
#
# Indices 1 2 3 4 5 6 
#
# 1 0.031271 -0.001469 -0.004117 0.000000 0.000000 0.000000
# 2 -0.001469 0.010131 -0.005124 0.000000 0.000000 0.000000
# 3 -0.004117 -0.005124 0.010857 0.000000 0.000000 0.000000
# 4 0.000000 0.000000 0.000000 0.026837 0.000000 0.000000
# 5 0.000000 0.000000 0.000000 0.000000 0.076226 0.000000
# 6 0.000000 0.000000 0.000000 0.000000 0.000000 0.078357
#
#
# Mechanical properties :
#
#
# Convention : Reuss Voigt Hill
#
# Bulk Modulus (GPa) = 32.42615 57.68553 45.05584
# Shear Modulus (GPa) = 18.84091 25.85117 22.34604
#
# Velocity S-wave (km/s) = 3.28068 3.84284 3.57283
# Velocity P-wave (km/s) = 5.73357 7.25553 6.53898
#
# Compressibility (1/GPa) = 0.03083931
#
# Stress axis : x y z
#
# Youngs Moduli (GPa) = 31.97866 98.70223 92.10510
#
# Poissons Ratio (x) = 0.14503 0.37918
# Poissons Ratio (y) = 0.04699 0.47193
# Poissons Ratio (z) = 0.13165 0.50573
#
# Static dielectric constant tensor:
#      x y z
#    x 2.832160 0.000000 0.000000 
#    y 0.000000 3.588640 0.000000 
#    z 0.000000 0.000000 3.412630 
# 
# 
# High freq. dielectric constant tensor:
#      x y z
#    x 1.613480 0.000000 0.000000 
#    y 0.000000 1.692990 0.000000 
#    z 0.000000 0.000000 1.680800 
# 
# From -- ./inp_files/30590.got.cif
#   From: 2010.03.12/outbox.cif.g09.slc.cpg/sg51_16_cif.got.tgz:30590.got - 2010.04.16 13:43:02.
