data_PCOD8210822
_publ_section_title
;
Structure prediction by ZEFSAII (Michael W. Deem and Ramdas Pophale) SiO2 
 PCOD8210822
Probable space group: P M M A
;
_chemical_formula_sum "Si O2"
_cell_formula_units_Z 48
_cell_length_a 16.550503
_cell_length_b 9.240933
_cell_length_c 18.114173
_cell_angle_alpha 90.000000
_cell_angle_beta 90.000000
_cell_angle_gamma 90.000000
_cell_volume 2770.419465
_symmetry_space_group_name_H-M "P M M A"
_symmetry_group_IT_number 51
_symmetry_cell_setting 'orthorhombic'
loop_
_space_group_symop_operation_xyz
x,y,z
1/2-x,-y,z
1/2+x,-y,-z
-x,y,-z
-x,-y,-z
1/2+x,y,-z
1/2-x,y,z
x,-y,z
loop_
_atom_site_type_symbol
_atom_site_label
_atom_site_fract_x
_atom_site_fract_y
_atom_site_fract_z
Si Si1 0.922970 0.159362 0.700044
Si Si2 0.991898 0.329905 0.417391
Si Si3 0.919097 0.162149 0.200491
Si Si4 0.985888 0.332818 0.913939
Si Si5 0.841632 0.169246 0.843183
Si Si6 0.840503 0.666845 0.322168
O O1 0.852467 0.210544 0.756183
O O2 0.934618 0.266551 0.631356
O O3 0.002880 0.156688 0.748810
O O4 0.904329 0.000000 0.667991
O O5 0.003631 0.500000 0.417341
O O6 0.904446 0.283655 0.384843
O O7 0.000000 0.267301 0.500000
O O8 0.849220 0.241928 0.246853
O O9 0.940398 0.251501 0.126856
O O10 0.890547 0.000000 0.179136
O O11 0.985454 0.500000 0.889282
O O12 0.899285 0.263703 0.894871
O O13 0.000000 0.315030 0.000000
O O14 0.750000 0.202378 0.866565
O O15 0.863737 0.000000 0.853557
O O16 0.750000 0.690885 0.353430
O O17 0.856148 0.500000 0.301800
#
# Coordination Sequence:
#
# PCOD8210822 Si02
#       6
#     8   8   8   8   8   8
#     4   8  15  28  46  67  89 116 151 189 230 277
#     4   9  17  29  45  66  93 125 160 196 235 284
#     4   9  17  30  49  70  91 119 156 195 233 278
#     4  10  20  33  50  73 100 129 160 194 234 284
#     4   9  18  33  52  73  97 125 159 201 244 283
#     4   9  17  30  48  68  92 124 160 201 248 290
#
# _framework density 17.325896
#
# number of rings (size 3 to 8) (size 9 to 14) (size 15 to 20)
#    0.000    3.000    0.000    2.000    0.000    6.333 
#    0.000    1.667    0.000    2.000    0.000    0.000 
#    0.000    0.000    0.000    0.000    0.000    0.000 
#
# Total GULP energy -594991.502831 kJ/mol
# GULP energy per Si atom -12395.656309 kJ/mol
# Density = 1.728646 g / cm^3
# Si number density = 17.325896 Si / 1000 Ang^3
#
#
#
# Elastic Constant Matrix: (Units=GPa)
#
#
# Indices 1 2 3 4 5 6 
#
# 1 72.3974 37.2240 38.5436 0.0000 0.0000 0.0000
# 2 37.2240 87.0565 56.8755 0.0000 0.0000 0.0000
# 3 38.5436 56.8755 105.4951 0.0000 0.0000 0.0000
# 4 0.0000 0.0000 0.0000 23.7381 0.0000 0.0000
# 5 0.0000 0.0000 0.0000 0.0000 18.7703 0.0000
# 6 0.0000 0.0000 0.0000 0.0000 0.0000 21.6445
#
#
#
# Elastic Compliance Matrix: (Units=1/GPa)
#
#
# Indices 1 2 3 4 5 6 
#
# 1 0.018685 -0.005448 -0.003889 0.000000 0.000000 0.000000
# 2 -0.005448 0.019321 -0.008426 0.000000 0.000000 0.000000
# 3 -0.003889 -0.008426 0.015443 0.000000 0.000000 0.000000
# 4 0.000000 0.000000 0.000000 0.042126 0.000000 0.000000
# 5 0.000000 0.000000 0.000000 0.000000 0.053276 0.000000
# 6 0.000000 0.000000 0.000000 0.000000 0.000000 0.046201
#
#
# Mechanical properties :
#
#
# Convention : Reuss Voigt Hill
#
# Bulk Modulus (GPa) = 55.79915 58.91503 57.35709
# Shear Modulus (GPa) = 21.13691 21.65097 21.39394
#
# Velocity S-wave (km/s) = 3.49658 3.53885 3.51778
# Velocity P-wave (km/s) = 6.96972 7.12571 7.04815
#
# Compressibility (1/GPa) = 0.01792142
#
# Stress axis : x y z
#
# Youngs Moduli (GPa) = 53.52017 51.75627 64.75493
#
# Poissons Ratio (x) = 0.28198 0.25185
# Poissons Ratio (y) = 0.29159 0.54563
# Poissons Ratio (z) = 0.20815 0.43610
#
# Static dielectric constant tensor:
#      x y z
#    x 3.201720 0.000000 0.000000 
#    y 0.000000 3.387400 0.000000 
#    z 0.000000 0.000000 3.229910 
# 
# 
# High freq. dielectric constant tensor:
#      x y z
#    x 1.648470 0.000000 0.000000 
#    y 0.000000 1.671970 0.000000 
#    z 0.000000 0.000000 1.655380 
# 
# From -- ./inp_files/30041.got.cif
#   From: 2010.03.12/outbox.cif.g09.slc.cpg/sg51_16_cif.got.tgz:30041.got - 2010.04.16 13:43:02.
