data_PCOD8210912
_publ_section_title
;
Structure prediction by ZEFSAII (Michael W. Deem and Ramdas Pophale) SiO2 
 PCOD8210912
Probable space group: P M M A
;
_chemical_formula_sum "Si O2"
_cell_formula_units_Z 56
_cell_length_a 8.888879
_cell_length_b 22.184734
_cell_length_c 14.867830
_cell_angle_alpha 90.000000
_cell_angle_beta 90.000000
_cell_angle_gamma 90.000000
_cell_volume 2931.897660
_symmetry_space_group_name_H-M "P M M A"
_symmetry_group_IT_number 51
_symmetry_cell_setting 'orthorhombic'
loop_
_space_group_symop_operation_xyz
x,y,z
1/2-x,-y,z
1/2+x,-y,-z
-x,y,-z
-x,-y,-z
1/2+x,y,-z
1/2-x,y,z
x,-y,z
loop_
_atom_site_type_symbol
_atom_site_label
_atom_site_fract_x
_atom_site_fract_y
_atom_site_fract_z
Si Si1 0.072604 0.206135 0.406543
Si Si2 0.571969 0.829676 0.228241
Si Si3 0.423091 0.257006 0.092249
Si Si4 0.074014 0.345140 0.408121
Si Si5 0.926472 0.068017 0.091921
Si Si6 0.923204 0.601035 0.908098
Si Si7 0.922446 0.567698 0.269414
O O1 0.250000 0.195495 0.410510
O O2 0.031292 0.275921 0.388649
O O3 0.000000 0.184218 0.500000
O O4 0.001569 0.166590 0.326737
O O5 0.750000 0.823071 0.237705
O O6 0.507625 0.772092 0.176246
O O7 0.524540 0.890086 0.174946
O O8 0.250000 0.236356 0.090639
O O9 0.439129 0.327809 0.105695
O O10 0.500000 0.235284 0.000000
O O11 0.250000 0.353689 0.417903
O O12 0.000000 0.367978 0.500000
O O13 0.017146 0.385944 0.327669
O O14 0.750000 0.070789 0.077030
O O15 0.981168 0.000000 0.113169
O O16 0.000000 0.092269 0.000000
O O17 0.750000 0.580955 0.908338
O O18 0.011138 0.566907 0.830223
O O19 0.000000 0.580146 0.000000
O O20 0.750000 0.589107 0.267330
O O21 0.935908 0.500000 0.308864
#
# Coordination Sequence:
#
# PCOD8210912 Si02
#       7
#     8   8   8   8   8   8   8
#     4  10  21  37  57  82 110 138 172 215 263 316
#     4  11  21  32  52  80 109 143 179 218 266 314
#     4  10  20  33  50  76 108 138 171 213 262 316
#     4  10  21  38  60  83 107 137 170 209 261 317
#     4   9  19  35  53  76 109 148 188 226 262 304
#     4  10  21  37  56  76 101 136 174 214 262 314
#     4  11  24  39  55  77 104 135 173 216 260 309
#
# _framework density 19.100258
#
# number of rings (size 3 to 8) (size 9 to 14) (size 15 to 20)
#    0.000    1.857    0.000    3.857    0.000   10.857 
#    0.000    0.000    0.000    0.429    0.000    0.000 
#    0.000    0.000    0.000    0.000    0.000    0.000 
#
# Total GULP energy -694677.388176 kJ/mol
# GULP energy per Si atom -12404.953360 kJ/mol
# Density = 1.905678 g / cm^3
# Si number density = 19.100258 Si / 1000 Ang^3
#
#
#
# Elastic Constant Matrix: (Units=GPa)
#
#
# Indices 1 2 3 4 5 6 
#
# 1 88.7640 33.1426 50.4409 0.0000 0.0000 0.0000
# 2 33.1426 57.9663 46.6785 0.0000 0.0000 0.0000
# 3 50.4409 46.6785 146.6112 0.0000 0.0000 0.0000
# 4 0.0000 0.0000 0.0000 17.3607 0.0000 0.0000
# 5 0.0000 0.0000 0.0000 0.0000 42.7818 0.0000
# 6 0.0000 0.0000 0.0000 0.0000 0.0000 16.8386
#
#
#
# Elastic Compliance Matrix: (Units=1/GPa)
#
#
# Indices 1 2 3 4 5 6 
#
# 1 0.015470 -0.006131 -0.003370 0.000000 0.000000 0.000000
# 2 -0.006131 0.025629 -0.006051 0.000000 0.000000 0.000000
# 3 -0.003370 -0.006051 0.009907 0.000000 0.000000 0.000000
# 4 0.000000 0.000000 0.000000 0.057601 0.000000 0.000000
# 5 0.000000 0.000000 0.000000 0.000000 0.023374 0.000000
# 6 0.000000 0.000000 0.000000 0.000000 0.000000 0.059387
#
#
# Mechanical properties :
#
#
# Convention : Reuss Voigt Hill
#
# Bulk Modulus (GPa) = 50.24601 61.54061 55.89331
# Shear Modulus (GPa) = 21.82380 26.26818 24.04599
#
# Velocity S-wave (km/s) = 3.38389 3.71250 3.55200
# Velocity P-wave (km/s) = 6.45222 7.11805 6.79330
#
# Compressibility (1/GPa) = 0.01990208
#
# Stress axis : x y z
#
# Youngs Moduli (GPa) = 64.63971 39.01793 100.94148
#
# Poissons Ratio (x) = 0.23923 0.34022
# Poissons Ratio (y) = 0.39632 0.61075
# Poissons Ratio (z) = 0.21786 0.23608
#
# Static dielectric constant tensor:
#      x y z
#    x 3.596330 0.000000 0.000000 
#    y 0.000000 3.421210 0.000000 
#    z 0.000000 0.000000 3.567770 
# 
# 
# High freq. dielectric constant tensor:
#      x y z
#    x 1.757190 0.000000 0.000000 
#    y 0.000000 1.725220 0.000000 
#    z 0.000000 0.000000 1.746560 
# 
# From -- ./inp_files/21759.got.cif
#   From: 2010.03.12/outbox.cif.g09.slc.cpg/sg51_11_cif.got.tgz:21759.got - 2010.04.16 13:43:02.
