data_PCOD8210236
_publ_section_title
;
Structure prediction by ZEFSAII (Michael W. Deem and Ramdas Pophale) SiO2 
 PCOD8210236
Probable space group: P M M A
;
_chemical_formula_sum "Si O2"
_cell_formula_units_Z 64
_cell_length_a 18.738035
_cell_length_b 20.408759
_cell_length_c 9.426366
_cell_angle_alpha 90.000000
_cell_angle_beta 90.000000
_cell_angle_gamma 90.000000
_cell_volume 3604.831267
_symmetry_space_group_name_H-M "P M M A"
_symmetry_group_IT_number 51
_symmetry_cell_setting 'orthorhombic'
loop_
_space_group_symop_operation_xyz
x,y,z
1/2-x,-y,z
1/2+x,-y,-z
-x,y,-z
-x,-y,-z
1/2+x,y,-z
1/2-x,y,z
x,-y,z
loop_
_atom_site_type_symbol
_atom_site_label
_atom_site_fract_x
_atom_site_fract_y
_atom_site_fract_z
Si Si1 0.578287 0.428056 0.961834
Si Si2 0.405745 0.816015 0.132436
Si Si3 0.831602 0.430776 0.241481
Si Si4 0.670369 0.291283 0.240113
Si Si5 0.832545 0.924647 0.683321
Si Si6 0.428799 0.924674 0.577440
Si Si7 0.568032 0.819850 0.192740
Si Si8 0.169802 0.686386 0.095449
O O1 0.572932 0.500000 0.886297
O O2 0.619658 0.437416 0.106319
O O3 0.500000 0.400387 0.000000
O O4 0.619396 0.375425 0.862133
O O5 0.374228 0.880109 0.205628
O O6 0.485008 0.801598 0.188443
O O7 0.359389 0.752043 0.170619
O O8 0.402495 0.830250 0.965005
O O9 0.750000 0.425621 0.188367
O O10 0.841764 0.500000 0.330370
O O11 0.848136 0.361065 0.320341
O O12 0.750000 0.266572 0.282878
O O13 0.611076 0.237220 0.276821
O O14 0.667074 0.305433 0.073029
O O15 0.750000 0.905460 0.683894
O O16 0.861537 0.913151 0.524856
O O17 0.844970 0.000000 0.728938
O O18 0.500000 0.898762 0.500000
O O19 0.417332 0.886435 0.723240
O O20 0.438081 0.000000 0.620662
O O21 0.250000 0.673732 0.150354
#
# Coordination Sequence:
#
# PCOD8210236 Si02
#       8
#     8   8   8   8   8   8   8   8
#     4   9  16  22  33  55  83 119 162 206 244 285
#     4  10  20  32  50  77 105 133 169 207 248 306
#     4   8  13  22  36  53  79 120 161 191 231 289
#     4   8  15  26  40  62  94 126 157 199 246 290
#     4  10  21  38  58  77 101 133 166 205 254 305
#     4  10  20  37  56  75  99 129 168 209 250 299
#     4  10  20  31  51  77 102 135 166 205 256 298
#     4   9  17  27  41  59  89 131 165 200 244 296
#
# _framework density 17.753952000000002
#
# number of rings (size 3 to 8) (size 9 to 14) (size 15 to 20)
#    0.000    2.750    1.250    1.500    5.250    2.250 
#    0.000    1.250    0.000    1.500    0.000    0.000 
#    0.000    1.500    0.000    3.375    0.000    5.250 
#
# Total GULP energy -792964.527399 kJ/mol
# GULP energy per Si atom -12390.070741 kJ/mol
# Density = 1.771354 g / cm^3
# Si number density = 17.753952 Si / 1000 Ang^3
#
#
#
# Elastic Constant Matrix: (Units=GPa)
#
#
# Indices 1 2 3 4 5 6 
#
# 1 112.4069 63.8903 24.0260 0.0000 0.0000 0.0000
# 2 63.8903 131.8410 37.4048 0.0000 0.0000 0.0000
# 3 24.0260 37.4048 30.9031 0.0000 0.0000 0.0000
# 4 0.0000 0.0000 0.0000 3.5501 0.0000 0.0000
# 5 0.0000 0.0000 0.0000 0.0000 14.1796 0.0000
# 6 0.0000 0.0000 0.0000 0.0000 0.0000 34.0463
#
#
#
# Elastic Compliance Matrix: (Units=1/GPa)
#
#
# Indices 1 2 3 4 5 6 
#
# 1 0.012542 -0.005043 -0.003647 0.000000 0.000000 0.000000
# 2 -0.005043 0.013580 -0.012516 0.000000 0.000000 0.000000
# 3 -0.003647 -0.012516 0.050343 0.000000 0.000000 0.000000
# 4 0.000000 0.000000 0.000000 0.281685 0.000000 0.000000
# 5 0.000000 0.000000 0.000000 0.000000 0.070524 0.000000
# 6 0.000000 0.000000 0.000000 0.000000 0.000000 0.029372
#
#
# Mechanical properties :
#
#
# Convention : Reuss Voigt Hill
#
# Bulk Modulus (GPa) = 29.36535 58.42146 43.89341
# Shear Modulus (GPa) = 9.76927 20.34386 15.05657
#
# Velocity S-wave (km/s) = 2.34831 3.38875 2.91532
# Velocity P-wave (km/s) = 4.89171 6.94904 6.00907
#
# Compressibility (1/GPa) = 0.03405374
#
# Stress axis : x y z
#
# Youngs Moduli (GPa) = 79.73026 73.63872 19.86354
#
# Poissons Ratio (x) = 0.37139 0.07244
# Poissons Ratio (y) = 0.40211 0.24861
# Poissons Ratio (z) = 0.29075 0.92165
#
# Static dielectric constant tensor:
#      x y z
#    x 3.626850 0.000000 0.000000 
#    y 0.000000 3.862600 0.000000 
#    z 0.000000 0.000000 2.672020 
# 
# 
# High freq. dielectric constant tensor:
#      x y z
#    x 1.702300 0.000000 0.000000 
#    y 0.000000 1.708160 0.000000 
#    z 0.000000 0.000000 1.609160 
# 
# From -- ./inp_files/10054.got.cif
#   From: 2010.03.12/outbox.cif.g09.slc.cpg/sg51_6_cif.got.tgz:10054.got - 2010.04.16 13:43:02.
