data_PCOD8210222
_publ_section_title
;
Structure prediction by ZEFSAII (Michael W. Deem and Ramdas Pophale) SiO2 
 PCOD8210222
Probable space group: P M M A
;
_chemical_formula_sum "Si O2"
_cell_formula_units_Z 44
_cell_length_a 9.171064
_cell_length_b 8.022151
_cell_length_c 30.272048
_cell_angle_alpha 90.000000
_cell_angle_beta 90.000000
_cell_angle_gamma 90.000000
_cell_volume 2227.164830
_symmetry_space_group_name_H-M "P M M A"
_symmetry_group_IT_number 51
_symmetry_cell_setting 'orthorhombic'
loop_
_space_group_symop_operation_xyz
x,y,z
1/2-x,-y,z
1/2+x,-y,-z
-x,y,-z
-x,-y,-z
1/2+x,y,-z
1/2-x,y,z
x,-y,z
loop_
_atom_site_type_symbol
_atom_site_label
_atom_site_fract_x
_atom_site_fract_y
_atom_site_fract_z
Si Si1 0.086958 0.805770 0.298833
Si Si2 0.076129 0.813076 0.395507
Si Si3 0.576493 0.500000 0.546699
Si Si4 0.085874 0.198929 0.042826
Si Si5 0.917417 0.309418 0.792571
Si Si6 0.410813 0.807738 0.874255
O O1 0.250000 0.733782 0.302318
O O2 0.010970 0.771866 0.346516
O O3 0.012921 0.715731 0.256649
O O4 0.086918 0.000000 0.288628
O O5 0.250000 0.814773 0.392449
O O6 0.022597 0.667968 0.428398
O O7 0.024021 0.000000 0.410698
O O8 0.750000 0.500000 0.541086
O O9 0.500000 0.500000 0.500000
O O10 0.250000 0.269940 0.041656
O O11 0.006783 0.272751 0.086472
O O12 0.089230 0.000000 0.043657
O O13 0.000000 0.264665 0.000000
O O14 0.750000 0.244757 0.793140
O O15 0.926912 0.500000 0.806537
O O16 0.010369 0.206409 0.827346
O O17 0.250000 0.723458 0.872538
O O18 0.391316 0.000000 0.885472
#
# Coordination Sequence:
#
# PCOD8210222 Si02
#       6
#     8   8   4   8   8   8
#     4   8  14  26  46  72  99 125 158 203 250 294
#     4   8  15  28  47  73 102 132 168 212 261 310
#     4  10  20  32  50  74 102 136 174 216 259 308
#     4   9  16  27  46  72  99 125 158 204 254 301
#     4  10  20  31  47  73 101 128 159 199 249 302
#     4  10  20  33  49  69  96 132 170 205 243 292
#
# _framework density 19.756057999999999
#
# number of rings (size 3 to 8) (size 9 to 14) (size 15 to 20)
#    0.000    2.909    0.000    2.727    1.273    4.727 
#    0.000    0.000    0.000    1.636    0.000    2.545 
#    0.000    0.000    0.000    0.000    0.000    0.000 
#
# Total GULP energy -545231.780780 kJ/mol
# GULP energy per Si atom -12391.631381 kJ/mol
# Density = 1.971109 g / cm^3
# Si number density = 19.756058 Si / 1000 Ang^3
#
#
#
# Elastic Constant Matrix: (Units=GPa)
#
#
# Indices 1 2 3 4 5 6 
#
# 1 87.7693 21.4316 57.4540 0.0000 0.0000 0.0000
# 2 21.4316 60.8028 50.0960 0.0000 0.0000 0.0000
# 3 57.4540 50.0960 174.2339 0.0000 0.0000 0.0000
# 4 0.0000 0.0000 0.0000 3.8263 0.0000 0.0000
# 5 0.0000 0.0000 0.0000 0.0000 25.5621 0.0000
# 6 0.0000 0.0000 0.0000 0.0000 0.0000 7.6326
#
#
#
# Elastic Compliance Matrix: (Units=1/GPa)
#
#
# Indices 1 2 3 4 5 6 
#
# 1 0.014641 -0.001550 -0.004382 0.000000 0.000000 0.000000
# 2 -0.001550 0.021716 -0.005733 0.000000 0.000000 0.000000
# 3 -0.004382 -0.005733 0.008833 0.000000 0.000000 0.000000
# 4 0.000000 0.000000 0.000000 0.261346 0.000000 0.000000
# 5 0.000000 0.000000 0.000000 0.000000 0.039120 0.000000
# 6 0.000000 0.000000 0.000000 0.000000 0.000000 0.131017
#
#
# Mechanical properties :
#
#
# Convention : Reuss Voigt Hill
#
# Bulk Modulus (GPa) = 45.74619 64.52992 55.13806
# Shear Modulus (GPa) = 9.85631 20.32583 15.09107
#
# Velocity S-wave (km/s) = 2.23603 3.21103 2.76682
# Velocity P-wave (km/s) = 5.46555 6.81777 6.17876
#
# Compressibility (1/GPa) = 0.02185974
#
# Stress axis : x y z
#
# Youngs Moduli (GPa) = 68.30360 46.04851 113.21551
#
# Poissons Ratio (x) = 0.07138 0.49612
# Poissons Ratio (y) = 0.10587 0.64904
# Poissons Ratio (z) = 0.29931 0.26399
#
# Static dielectric constant tensor:
#      x y z
#    x 3.317870 0.000000 0.000000 
#    y 0.000000 3.412050 0.000000 
#    z 0.000000 0.000000 3.755530 
# 
# 
# High freq. dielectric constant tensor:
#      x y z
#    x 1.720020 0.000000 0.000000 
#    y 0.000000 1.750030 0.000000 
#    z 0.000000 0.000000 1.782880 
# 
# From -- ./inp_files/36790.got.cif
#   From: 2010.03.12/outbox.cif.g09.slc.cpg/sg51_19_cif.got.tgz:36790.got - 2010.04.16 13:43:02.
