data_PCOD8210713
_publ_section_title
;
Structure prediction by ZEFSAII (Michael W. Deem and Ramdas Pophale) SiO2 
 PCOD8210713
Probable space group: P M M A
;
_chemical_formula_sum "Si O2"
_cell_formula_units_Z 56
_cell_length_a 9.092628
_cell_length_b 18.073338
_cell_length_c 21.360355
_cell_angle_alpha 90.000000
_cell_angle_beta 90.000000
_cell_angle_gamma 90.000000
_cell_volume 3510.235551
_symmetry_space_group_name_H-M "P M M A"
_symmetry_group_IT_number 51
_symmetry_cell_setting 'orthorhombic'
loop_
_space_group_symop_operation_xyz
x,y,z
1/2-x,-y,z
1/2+x,-y,-z
-x,y,-z
-x,-y,-z
1/2+x,y,-z
1/2-x,y,z
x,-y,z
loop_
_atom_site_type_symbol
_atom_site_label
_atom_site_fract_x
_atom_site_fract_y
_atom_site_fract_z
Si Si1 0.412354 0.203853 0.370919
Si Si2 0.576669 0.171372 0.184826
Si Si3 0.425342 0.348312 0.435724
Si Si4 0.084632 0.297643 0.245025
Si Si5 0.577206 0.915504 0.062467
Si Si6 0.577217 0.082724 0.307608
Si Si7 0.581038 0.585829 0.317922
O O1 0.250000 0.173982 0.386377
O O2 0.465056 0.261562 0.424141
O O3 0.411750 0.249243 0.307098
O O4 0.517225 0.132776 0.364821
O O5 0.750000 0.186199 0.186234
O O6 0.493831 0.249824 0.190752
O O7 0.524548 0.134023 0.120492
O O8 0.530393 0.116209 0.240786
O O9 0.500000 0.373842 0.500000
O O10 0.250000 0.360279 0.437575
O O11 0.491926 0.399238 0.381462
O O12 0.250000 0.318899 0.223941
O O13 0.991078 0.371319 0.259165
O O14 0.750000 0.909415 0.052791
O O15 0.529731 0.000000 0.075863
O O16 0.500000 0.885120 0.000000
O O17 0.750000 0.080691 0.314628
O O18 0.511555 0.000000 0.312598
O O19 0.750000 0.611770 0.326555
O O20 0.571670 0.500000 0.301347
#
# Coordination Sequence:
#
# PCOD8210713 Si02
#       7
#     8   8   8   8   8   8   8
#     4   8  16  29  42  59  82 107 135 170 214 258
#     4   9  16  27  43  61  85 117 151 186 222 262
#     4  10  20  33  49  67  87 113 146 179 211 253
#     4   9  17  29  45  65  88 113 143 179 218 259
#     4   9  17  28  41  59  87 124 162 197 232 267
#     4   9  16  25  40  62  83 105 137 177 220 263
#     4  10  20  33  49  69  93 119 144 171 208 255
#
# _framework density 15.953345000000001
#
# number of rings (size 3 to 8) (size 9 to 14) (size 15 to 20)
#    0.000    2.857    0.000    2.571    0.000    8.000 
#    0.000    0.000    0.000    3.000    0.000    0.000 
#    0.000    0.571    0.000    1.857    0.000    2.286 
#
# Total GULP energy -694239.846024 kJ/mol
# GULP energy per Si atom -12397.140108 kJ/mol
# Density = 1.591703 g / cm^3
# Si number density = 15.953345 Si / 1000 Ang^3
#
#
#
# Elastic Constant Matrix: (Units=GPa)
#
#
# Indices 1 2 3 4 5 6 
#
# 1 72.3089 44.5789 27.5780 0.0000 0.0000 0.0000
# 2 44.5789 90.7616 32.6269 0.0000 0.0000 0.0000
# 3 27.5780 32.6269 53.7868 0.0000 0.0000 0.0000
# 4 0.0000 0.0000 0.0000 20.8479 0.0000 0.0000
# 5 0.0000 0.0000 0.0000 0.0000 23.5272 0.0000
# 6 0.0000 0.0000 0.0000 0.0000 0.0000 24.2729
#
#
#
# Elastic Compliance Matrix: (Units=1/GPa)
#
#
# Indices 1 2 3 4 5 6 
#
# 1 0.021169 -0.008307 -0.005815 0.000000 0.000000 0.000000
# 2 -0.008307 0.017350 -0.006265 0.000000 0.000000 0.000000
# 3 -0.005815 -0.006265 0.025374 0.000000 0.000000 0.000000
# 4 0.000000 0.000000 0.000000 0.047966 0.000000 0.000000
# 5 0.000000 0.000000 0.000000 0.000000 0.042504 0.000000
# 6 0.000000 0.000000 0.000000 0.000000 0.000000 0.041198
#
#
# Mechanical properties :
#
#
# Convention : Reuss Voigt Hill
#
# Bulk Modulus (GPa) = 43.25541 47.38053 45.31797
# Shear Modulus (GPa) = 20.48831 21.20117 20.84474
#
# Velocity S-wave (km/s) = 3.58755 3.64943 3.61862
# Velocity P-wave (km/s) = 6.65832 6.89360 6.77698
#
# Compressibility (1/GPa) = 0.02311849
#
# Stress axis : x y z
#
# Youngs Moduli (GPa) = 47.23987 57.63614 39.41061
#
# Poissons Ratio (x) = 0.47878 0.22916
# Poissons Ratio (y) = 0.39242 0.24692
# Poissons Ratio (z) = 0.27469 0.36111
#
# Static dielectric constant tensor:
#      x y z
#    x 3.136930 0.000000 0.000000 
#    y 0.000000 3.064590 0.000000 
#    z 0.000000 0.000000 2.864950 
# 
# 
# High freq. dielectric constant tensor:
#      x y z
#    x 1.620120 0.000000 0.000000 
#    y 0.000000 1.601580 0.000000 
#    z 0.000000 0.000000 1.577060 
# 
# From -- ./inp_files/32210.got.cif
#   From: 2010.03.12/outbox.cif.g09.slc.cpg/sg51_17_cif.got.tgz:32210.got - 2010.04.16 13:43:02.
