data_PCOD8210362
_publ_section_title
;
Structure prediction by ZEFSAII (Michael W. Deem and Ramdas Pophale) SiO2 
 PCOD8210362
Probable space group: P M M A
;
_chemical_formula_sum "Si O2"
_cell_formula_units_Z 48
_cell_length_a 9.359903
_cell_length_b 23.410829
_cell_length_c 13.722986
_cell_angle_alpha 90.000000
_cell_angle_beta 90.000000
_cell_angle_gamma 90.000000
_cell_volume 3007.023077
_symmetry_space_group_name_H-M "P M M A"
_symmetry_group_IT_number 51
_symmetry_cell_setting 'orthorhombic'
loop_
_space_group_symop_operation_xyz
x,y,z
1/2-x,-y,z
1/2+x,-y,-z
-x,y,-z
-x,-y,-z
1/2+x,y,-z
1/2-x,y,z
x,-y,z
loop_
_atom_site_type_symbol
_atom_site_label
_atom_site_fract_x
_atom_site_fract_y
_atom_site_fract_z
Si Si1 0.415248 0.933796 0.597373
Si Si2 0.583977 0.780217 0.904239
Si Si3 0.084091 0.731003 0.402122
Si Si4 0.916603 0.435948 0.902109
Si Si5 0.586889 0.153716 0.710350
Si Si6 0.581026 0.672623 0.788227
O O1 0.500000 0.917291 0.500000
O O2 0.250000 0.917686 0.582055
O O3 0.480512 0.898073 0.686578
O O4 0.434490 0.000000 0.623465
O O5 0.750000 0.776121 0.930837
O O6 0.556999 0.827166 0.820808
O O7 0.524052 0.718933 0.866501
O O8 0.500000 0.799401 0.000000
O O9 0.250000 0.720891 0.423599
O O10 0.056108 0.794751 0.364043
O O11 0.024896 0.686536 0.320362
O O12 0.000000 0.718683 0.500000
O O13 0.750000 0.428807 0.925599
O O14 0.951645 0.500000 0.864874
O O15 0.965693 0.391211 0.819203
O O16 0.000000 0.421623 0.000000
O O17 0.750000 0.132899 0.699136
O O18 0.750000 0.680702 0.784889
#
# Coordination Sequence:
#
# PCOD8210362 Si02
#       6
#     8   8   8   8   8   8
#     4  10  20  32  47  68  92 117 144 175 212 254
#     4   9  17  29  45  65  89 116 144 176 216 258
#     4   9  17  29  44  62  85 112 142 176 213 253
#     4   9  16  26  42  63  85 111 142 174 210 252
#     4   9  18  31  46  65  89 116 144 176 215 256
#     4   8  15  28  43  60  86 116 142 172 212 257
#
# _framework density 15.962631
#
# number of rings (size 3 to 8) (size 9 to 14) (size 15 to 20)
#    0.000    3.000    0.000    3.500    0.000    3.667 
#    0.000    3.333    0.000    1.000    0.000    0.000 
#    0.000    0.000    0.000    0.000    0.000    0.000 
#
# Total GULP energy -595078.492510 kJ/mol
# GULP energy per Si atom -12397.468594 kJ/mol
# Density = 1.592630 g / cm^3
# Si number density = 15.962631 Si / 1000 Ang^3
#
#
#
# Elastic Constant Matrix: (Units=GPa)
#
#
# Indices 1 2 3 4 5 6 
#
# 1 67.3968 48.8034 56.0017 0.0000 0.0000 0.0000
# 2 48.8034 89.2442 59.4801 0.0000 0.0000 0.0000
# 3 56.0017 59.4801 123.4284 0.0000 0.0000 0.0000
# 4 0.0000 0.0000 0.0000 23.6197 0.0000 0.0000
# 5 0.0000 0.0000 0.0000 0.0000 30.4698 0.0000
# 6 0.0000 0.0000 0.0000 0.0000 0.0000 19.1357
#
#
#
# Elastic Compliance Matrix: (Units=1/GPa)
#
#
# Indices 1 2 3 4 5 6 
#
# 1 0.029298 -0.010551 -0.008209 0.000000 0.000000 0.000000
# 2 -0.010551 0.020306 -0.004999 0.000000 0.000000 0.000000
# 3 -0.008209 -0.004999 0.014235 0.000000 0.000000 0.000000
# 4 0.000000 0.000000 0.000000 0.042338 0.000000 0.000000
# 5 0.000000 0.000000 0.000000 0.000000 0.032819 0.000000
# 6 0.000000 0.000000 0.000000 0.000000 0.000000 0.052258
#
#
# Mechanical properties :
#
#
# Convention : Reuss Voigt Hill
#
# Bulk Modulus (GPa) = 61.26083 67.62665 64.44374
# Shear Modulus (GPa) = 20.47393 22.36400 21.41896
#
# Velocity S-wave (km/s) = 3.58525 3.74708 3.66706
# Velocity P-wave (km/s) = 7.45652 7.82166 7.64127
#
# Compressibility (1/GPa) = 0.01632364
#
# Stress axis : x y z
#
# Youngs Moduli (GPa) = 34.13144 49.24546 70.24871
#
# Poissons Ratio (x) = 0.51958 0.57666
# Poissons Ratio (y) = 0.36012 0.35114
# Poissons Ratio (z) = 0.28018 0.24616
#
# Static dielectric constant tensor:
#      x y z
#    x 2.876710 0.000000 0.000000 
#    y 0.000000 3.039130 0.000000 
#    z 0.000000 0.000000 2.971160 
# 
# 
# High freq. dielectric constant tensor:
#      x y z
#    x 1.601170 0.000000 0.000000 
#    y 0.000000 1.604720 0.000000 
#    z 0.000000 0.000000 1.604220 
# 
# From -- ./inp_files/21963.got.cif
#   From: 2010.03.12/outbox.cif.g09.slc.cpg/sg51_11_cif.got.tgz:21963.got - 2010.04.16 13:43:02.
