data_PCOD8210922
_publ_section_title
;
Structure prediction by ZEFSAII (Michael W. Deem and Ramdas Pophale) SiO2 
 PCOD8210922
Probable space group: P M M A
;
_chemical_formula_sum "Si O2"
_cell_formula_units_Z 48
_cell_length_a 22.824112
_cell_length_b 12.694587
_cell_length_c 8.897387
_cell_angle_alpha 90.000000
_cell_angle_beta 90.000000
_cell_angle_gamma 90.000000
_cell_volume 2577.952714
_symmetry_space_group_name_H-M "P M M A"
_symmetry_group_IT_number 51
_symmetry_cell_setting 'orthorhombic'
loop_
_space_group_symop_operation_xyz
x,y,z
1/2-x,-y,z
1/2+x,-y,-z
-x,y,-z
-x,-y,-z
1/2+x,y,-z
1/2-x,y,z
x,-y,z
loop_
_atom_site_type_symbol
_atom_site_label
_atom_site_fract_x
_atom_site_fract_y
_atom_site_fract_z
Si Si1 0.363838 0.121780 0.122179
Si Si2 0.890538 0.746691 0.619647
Si Si3 0.575552 0.118131 0.348428
Si Si4 0.317192 0.618800 0.607782
Si Si5 0.021011 0.773466 0.153039
Si Si6 0.183271 0.809615 0.813944
O O1 0.346505 0.180744 0.279067
O O2 0.434505 0.132161 0.101583
O O3 0.344834 0.000000 0.125244
O O4 0.329774 0.182910 0.990314
O O5 0.925208 0.823987 0.507707
O O6 0.856020 0.655593 0.534056
O O7 0.941289 0.698934 0.731967
O O8 0.535686 0.180603 0.232487
O O9 0.641288 0.113468 0.280523
O O10 0.552489 0.000000 0.372393
O O11 0.250000 0.625110 0.555802
O O12 0.335405 0.500000 0.649991
O O13 0.328353 0.690201 0.754830
O O14 0.000000 0.713825 0.000000
O O15 0.250000 0.843506 0.781914
#
# Coordination Sequence:
#
# PCOD8210922 Si02
#       6
#     8   8   8   8   8   8
#     4  10  20  33  50  79 117 154 182 217 262 324
#     4   9  21  33  51  84 110 140 183 231 280 323
#     4  11  19  31  52  77 111 150 190 229 266 321
#     4   9  19  40  65  82 101 136 187 244 288 326
#     4  10  20  33  50  79 113 149 191 225 260 315
#     4  10  21  35  53  79 107 142 185 228 280 335
#
# _framework density 18.619427000000002
#
# number of rings (size 3 to 8) (size 9 to 14) (size 15 to 20)
#    1.000    1.167    1.667    2.000    0.000    3.333 
#    0.000    0.833    0.000   13.500    0.000    0.000 
#    0.000    0.000    0.000    0.000    0.000    0.000 
#
# Total GULP energy -594644.941077 kJ/mol
# GULP energy per Si atom -12388.436272 kJ/mol
# Density = 1.857705 g / cm^3
# Si number density = 18.619427 Si / 1000 Ang^3
#
#
#
# Elastic Constant Matrix: (Units=GPa)
#
#
# Indices 1 2 3 4 5 6 
#
# 1 78.8122 22.4332 32.0385 0.0000 0.0000 0.0000
# 2 22.4332 81.4174 38.0234 0.0000 0.0000 0.0000
# 3 32.0385 38.0234 114.1163 0.0000 0.0000 0.0000
# 4 0.0000 0.0000 0.0000 18.3409 0.0000 0.0000
# 5 0.0000 0.0000 0.0000 0.0000 38.0617 0.0000
# 6 0.0000 0.0000 0.0000 0.0000 0.0000 16.2243
#
#
#
# Elastic Compliance Matrix: (Units=1/GPa)
#
#
# Indices 1 2 3 4 5 6 
#
# 1 0.014748 -0.002522 -0.003300 0.000000 0.000000 0.000000
# 2 -0.002522 0.014977 -0.004282 0.000000 0.000000 0.000000
# 3 -0.003300 -0.004282 0.011116 0.000000 0.000000 0.000000
# 4 0.000000 0.000000 0.000000 0.054523 0.000000 0.000000
# 5 0.000000 0.000000 0.000000 0.000000 0.026273 0.000000
# 6 0.000000 0.000000 0.000000 0.000000 0.000000 0.061636
#
#
# Mechanical properties :
#
#
# Convention : Reuss Voigt Hill
#
# Bulk Modulus (GPa) = 48.46800 51.03734 49.75267
# Shear Modulus (GPa) = 23.76875 26.64877 25.20876
#
# Velocity S-wave (km/s) = 3.57677 3.78727 3.68352
# Velocity P-wave (km/s) = 6.56849 6.82604 6.69851
#
# Compressibility (1/GPa) = 0.02063217
#
# Stress axis : x y z
#
# Youngs Moduli (GPa) = 67.80632 66.76783 89.95772
#
# Poissons Ratio (x) = 0.16841 0.29687
# Poissons Ratio (y) = 0.17103 0.38522
# Poissons Ratio (z) = 0.22377 0.28592
#
# Static dielectric constant tensor:
#      x y z
#    x 3.411420 0.000000 0.000000 
#    y 0.000000 3.015970 0.000000 
#    z 0.000000 0.000000 3.609560 
# 
# 
# High freq. dielectric constant tensor:
#      x y z
#    x 1.724810 0.000000 0.000000 
#    y 0.000000 1.671280 0.000000 
#    z 0.000000 0.000000 1.737240 
# 
# From -- ./inp_files/11647.got.cif
#   From: 2010.03.12/outbox.cif.g09.slc.cpg/sg51_6_cif.got.tgz:11647.got - 2010.04.16 13:43:02.
