data_PCOD8210520
_publ_section_title
;
Structure prediction by ZEFSAII (Michael W. Deem and Ramdas Pophale) SiO2 
 PCOD8210520
Probable space group: P M M A
;
_chemical_formula_sum "Si O2"
_cell_formula_units_Z 40
_cell_length_a 14.283605
_cell_length_b 8.722894
_cell_length_c 15.983064
_cell_angle_alpha 90.000000
_cell_angle_beta 90.000000
_cell_angle_gamma 90.000000
_cell_volume 1991.399827
_symmetry_space_group_name_H-M "P M M A"
_symmetry_group_IT_number 51
_symmetry_cell_setting 'orthorhombic'
loop_
_space_group_symop_operation_xyz
x,y,z
1/2-x,-y,z
1/2+x,-y,-z
-x,y,-z
-x,-y,-z
1/2+x,y,-z
1/2-x,y,z
x,-y,z
loop_
_atom_site_type_symbol
_atom_site_label
_atom_site_fract_x
_atom_site_fract_y
_atom_site_fract_z
Si Si1 0.475080 0.680881 0.379455
Si Si2 0.646651 0.328019 0.124865
Si Si3 0.141738 0.818160 0.525701
Si Si4 0.896310 0.167280 0.966219
Si Si5 0.025202 0.820906 0.204655
O O1 0.477735 0.500000 0.392753
O O2 0.577956 0.748933 0.400129
O O3 0.395156 0.752220 0.438001
O O4 0.447491 0.721672 0.284946
O O5 0.750000 0.318371 0.164707
O O6 0.606176 0.500000 0.131608
O O7 0.580897 0.213935 0.176081
O O8 0.656835 0.285333 0.026259
O O9 0.250000 0.770066 0.539058
O O10 0.130286 0.000000 0.525086
O O11 0.902338 0.224627 0.869721
O O12 0.847037 0.000000 0.969238
O O13 0.000000 0.148979 0.000000
O O14 0.031522 0.000000 0.226146
#
# Coordination Sequence:
#
# PCOD8210520 Si02
#       5
#     8   8   8   8   8
#     4  11  22  36  58  86 115 145 179 226 279 329
#     4  10  20  32  48  74 106 137 172 217 268 319
#     4  10  21  39  62  84 110 146 184 222 268 328
#     4   8  16  31  50  70  93 128 170 208 249 300
#     4  10  20  35  54  75 102 137 178 220 262 315
#
# _framework density 20.086372999999998
#
# number of rings (size 3 to 8) (size 9 to 14) (size 15 to 20)
#    0.000    2.200    0.000    6.000    0.000    8.400 
#    0.000    1.000    0.000    1.200    0.000    0.000 
#    0.000    0.000    0.000    0.000    0.000    0.000 
#
# Total GULP energy -495828.059868 kJ/mol
# GULP energy per Si atom -12395.701497 kJ/mol
# Density = 2.004066 g / cm^3
# Si number density = 20.086373 Si / 1000 Ang^3
#
#
#
# Elastic Constant Matrix: (Units=GPa)
#
#
# Indices 1 2 3 4 5 6 
#
# 1 52.7906 12.8596 -12.1541 0.0000 0.0000 0.0000
# 2 12.8596 73.3672 3.1955 0.0000 0.0000 0.0000
# 3 -12.1541 3.1955 83.3129 0.0000 0.0000 0.0000
# 4 0.0000 0.0000 0.0000 24.7910 0.0000 0.0000
# 5 0.0000 0.0000 0.0000 0.0000 13.0310 0.0000
# 6 0.0000 0.0000 0.0000 0.0000 0.0000 26.5718
#
#
#
# Elastic Compliance Matrix: (Units=1/GPa)
#
#
# Indices 1 2 3 4 5 6 
#
# 1 0.020579 -0.003744 0.003146 0.000000 0.000000 0.000000
# 2 -0.003744 0.014334 -0.001096 0.000000 0.000000 0.000000
# 3 0.003146 -0.001096 0.012504 0.000000 0.000000 0.000000
# 4 0.000000 0.000000 0.000000 0.040337 0.000000 0.000000
# 5 0.000000 0.000000 0.000000 0.000000 0.076740 0.000000
# 6 0.000000 0.000000 0.000000 0.000000 0.000000 0.037634
#
#
# Mechanical properties :
#
#
# Convention : Reuss Voigt Hill
#
# Bulk Modulus (GPa) = 22.71255 24.14139 23.42697
# Shear Modulus (GPa) = 22.70735 26.58340 24.64537
#
# Velocity S-wave (km/s) = 3.36592 3.64188 3.50661
# Velocity P-wave (km/s) = 5.14177 5.45245 5.29939
#
# Compressibility (1/GPa) = 0.04402852
#
# Stress axis : x y z
#
# Youngs Moduli (GPa) = 48.59306 69.76393 79.97502
#
# Poissons Ratio (x) = 0.26120 -0.25158
# Poissons Ratio (y) = 0.18193 0.08765
# Poissons Ratio (z) = -0.15286 0.07646
#
# Static dielectric constant tensor:
#      x y z
#    x 3.503160 0.000000 0.000000 
#    y 0.000000 3.695550 0.000000 
#    z 0.000000 0.000000 3.833790 
# 
# 
# High freq. dielectric constant tensor:
#      x y z
#    x 1.763600 0.000000 0.000000 
#    y 0.000000 1.790780 0.000000 
#    z 0.000000 0.000000 1.781580 
# 
# From -- ./inp_files/23721.got.cif
#   From: 2010.03.12/outbox.cif.g09.slc.cpg/sg51_12_cif.got.tgz:23721.got - 2010.04.16 13:43:02.
