data_PCOD8210487
_publ_section_title
;
Structure prediction by ZEFSAII (Michael W. Deem and Ramdas Pophale) SiO2 
 PCOD8210487
Probable space group: P M M A
;
_chemical_formula_sum "Si O2"
_cell_formula_units_Z 48
_cell_length_a 13.661576
_cell_length_b 9.353895
_cell_length_c 21.094356
_cell_angle_alpha 90.000000
_cell_angle_beta 90.000000
_cell_angle_gamma 90.000000
_cell_volume 2695.625550
_symmetry_space_group_name_H-M "P M M A"
_symmetry_group_IT_number 51
_symmetry_cell_setting 'orthorhombic'
loop_
_space_group_symop_operation_xyz
x,y,z
1/2-x,-y,z
1/2+x,-y,-z
-x,y,-z
-x,-y,-z
1/2+x,y,-z
1/2-x,y,z
x,-y,z
loop_
_atom_site_type_symbol
_atom_site_label
_atom_site_fract_x
_atom_site_fract_y
_atom_site_fract_z
Si Si1 0.363489 0.166670 0.784290
Si Si2 0.134416 0.339749 0.538585
Si Si3 0.639759 0.163510 0.581109
Si Si4 0.548657 0.164123 0.348335
Si Si5 0.449094 0.669248 0.902633
Si Si6 0.357364 0.669482 0.033397
O O1 0.250000 0.206476 0.775053
O O2 0.422984 0.214125 0.721909
O O3 0.408867 0.254028 0.841366
O O4 0.377059 0.000000 0.798587
O O5 0.250000 0.342388 0.533699
O O6 0.091082 0.500000 0.539533
O O7 0.095119 0.258525 0.475931
O O8 0.107150 0.259331 0.602378
O O9 0.750000 0.209672 0.600869
O O10 0.568384 0.183559 0.641500
O O11 0.638933 0.000000 0.557363
O O12 0.580774 0.000000 0.358682
O O13 0.441171 0.500000 0.892554
O O14 0.561841 0.717908 0.915085
O O15 0.385760 0.721064 0.962884
O O16 0.250000 0.731434 0.051450
O O17 0.355700 0.500000 0.032023
#
# Coordination Sequence:
#
# PCOD8210487 Si02
#       6
#     8   8   8   8   8   8
#     4  10  21  35  49  68  98 131 158 192 241 287
#     4  10  20  32  48  73 101 124 150 193 246 289
#     4   9  18  33  52  71  91 120 159 198 236 282
#     4  10  20  34  51  69  92 126 164 196 230 280
#     4   9  17  30  51  76  98 126 164 199 231 275
#     4   8  14  27  49  76 103 128 157 196 238 277
#
# _framework density 17.806628
#
# number of rings (size 3 to 8) (size 9 to 14) (size 15 to 20)
#    0.000    2.667    0.000    3.000    0.000    6.000 
#    0.000    2.500    0.000    2.500    0.000    0.000 
#    0.000    0.000    0.000    0.000    0.000    0.000 
#
# Total GULP energy -595059.954112 kJ/mol
# GULP energy per Si atom -12397.082377 kJ/mol
# Density = 1.776610 g / cm^3
# Si number density = 17.806628 Si / 1000 Ang^3
#
#
#
# Elastic Constant Matrix: (Units=GPa)
#
#
# Indices 1 2 3 4 5 6 
#
# 1 100.0383 38.0902 58.7512 0.0000 0.0000 0.0000
# 2 38.0902 59.6555 54.4959 0.0000 0.0000 0.0000
# 3 58.7512 54.4959 124.2441 0.0000 0.0000 0.0000
# 4 0.0000 0.0000 0.0000 41.6652 0.0000 0.0000
# 5 0.0000 0.0000 0.0000 0.0000 29.1489 0.0000
# 6 0.0000 0.0000 0.0000 0.0000 0.0000 19.1053
#
#
#
# Elastic Compliance Matrix: (Units=1/GPa)
#
#
# Indices 1 2 3 4 5 6 
#
# 1 0.014704 -0.005067 -0.004730 0.000000 0.000000 0.000000
# 2 -0.005067 0.029716 -0.010638 0.000000 0.000000 0.000000
# 3 -0.004730 -0.010638 0.014952 0.000000 0.000000 0.000000
# 4 0.000000 0.000000 0.000000 0.024001 0.000000 0.000000
# 5 0.000000 0.000000 0.000000 0.000000 0.034307 0.000000
# 6 0.000000 0.000000 0.000000 0.000000 0.000000 0.052342
#
#
# Mechanical properties :
#
#
# Convention : Reuss Voigt Hill
#
# Bulk Modulus (GPa) = 54.05282 65.17916 59.61599
# Shear Modulus (GPa) = 23.03531 26.82391 24.92961
#
# Velocity S-wave (km/s) = 3.60062 3.88545 3.74574
# Velocity P-wave (km/s) = 6.90705 7.53739 7.22909
#
# Compressibility (1/GPa) = 0.01850042
#
# Stress axis : x y z
#
# Youngs Moduli (GPa) = 68.01073 33.65168 66.88260
#
# Poissons Ratio (x) = 0.17051 0.31638
# Poissons Ratio (y) = 0.34461 0.71150
# Poissons Ratio (z) = 0.32172 0.35799
#
# Static dielectric constant tensor:
#      x y z
#    x 3.740160 0.000000 0.000000 
#    y 0.000000 3.213570 0.000000 
#    z 0.000000 0.000000 3.128570 
# 
# 
# High freq. dielectric constant tensor:
#      x y z
#    x 1.705740 0.000000 0.000000 
#    y 0.000000 1.669520 0.000000 
#    z 0.000000 0.000000 1.670720 
# 
# From -- ./inp_files/29442.got.cif
#   From: 2010.03.12/outbox.cif.g09.slc.cpg/sg51_15_cif.got.tgz:29442.got - 2010.04.16 13:43:02.
