data_PCOD8210261
_publ_section_title
;
Structure prediction by ZEFSAII (Michael W. Deem and Ramdas Pophale) SiO2 
 PCOD8210261
Probable space group: P M M A
;
_chemical_formula_sum "Si O2"
_cell_formula_units_Z 48
_cell_length_a 9.037446
_cell_length_b 17.330463
_cell_length_c 18.046994
_cell_angle_alpha 90.000000
_cell_angle_beta 90.000000
_cell_angle_gamma 90.000000
_cell_volume 2826.576570
_symmetry_space_group_name_H-M "P M M A"
_symmetry_group_IT_number 51
_symmetry_cell_setting 'orthorhombic'
loop_
_space_group_symop_operation_xyz
x,y,z
1/2-x,-y,z
1/2+x,-y,-z
-x,y,-z
-x,-y,-z
1/2+x,y,-z
1/2-x,y,z
x,-y,z
loop_
_atom_site_type_symbol
_atom_site_label
_atom_site_fract_x
_atom_site_fract_y
_atom_site_fract_z
Si Si1 0.412544 0.821854 0.567416
Si Si2 0.574583 0.180580 0.204182
Si Si3 0.912884 0.308585 0.311597
Si Si4 0.913782 0.089156 0.673705
Si Si5 0.420427 0.409601 0.424438
Si Si6 0.075822 0.912231 0.078717
O O1 0.500000 0.781977 0.500000
O O2 0.250000 0.850138 0.542745
O O3 0.398822 0.761389 0.632373
O O4 0.511973 0.893901 0.594172
O O5 0.750000 0.174568 0.192524
O O6 0.533115 0.268126 0.233955
O O7 0.523864 0.118483 0.263799
O O8 0.491485 0.156139 0.129222
O O9 0.750000 0.346375 0.300445
O O10 0.021305 0.371407 0.347945
O O11 0.750000 0.128211 0.679528
O O12 0.893858 0.000000 0.684839
O O13 0.500000 0.380908 0.500000
O O14 0.250000 0.387403 0.433837
O O15 0.445804 0.500000 0.414044
O O16 0.250000 0.897778 0.071515
O O17 0.045915 0.000000 0.108775
O O18 0.000000 0.902394 0.000000
#
# Coordination Sequence:
#
# PCOD8210261 Si02
#       6
#     8   8   8   8   8   8
#     4  10  20  32  45  61  81 108 145 187 231 276
#     4  10  20  33  49  69  93 121 154 191 232 279
#     4   9  19  33  48  67  90 119 153 188 229 277
#     4  10  20  32  45  61  81 109 147 188 230 275
#     4  10  20  32  48  71  97 126 159 195 237 284
#     4  10  20  33  50  73 100 130 163 198 238 283
#
# _framework density 16.981673000000001
#
# number of rings (size 3 to 8) (size 9 to 14) (size 15 to 20)
#    0.000    2.167    0.000    4.500    0.000   11.000 
#    0.000    0.000    0.000    0.000    0.000    0.000 
#    0.000    0.667    0.000    2.167    0.000    3.167 
#
# Total GULP energy -594723.051170 kJ/mol
# GULP energy per Si atom -12390.063566 kJ/mol
# Density = 1.694302 g / cm^3
# Si number density = 16.981673 Si / 1000 Ang^3
#
#
#
# Elastic Constant Matrix: (Units=GPa)
#
#
# Indices 1 2 3 4 5 6 
#
# 1 122.2533 41.5172 50.8633 0.0000 0.0000 0.0000
# 2 41.5172 54.2711 31.7847 0.0000 0.0000 0.0000
# 3 50.8633 31.7847 74.5108 0.0000 0.0000 0.0000
# 4 0.0000 0.0000 0.0000 26.2765 0.0000 0.0000
# 5 0.0000 0.0000 0.0000 0.0000 30.0062 0.0000
# 6 0.0000 0.0000 0.0000 0.0000 0.0000 17.2941
#
#
#
# Elastic Compliance Matrix: (Units=1/GPa)
#
#
# Indices 1 2 3 4 5 6 
#
# 1 0.012840 -0.006251 -0.006098 0.000000 0.000000 0.000000
# 2 -0.006251 0.027606 -0.007509 0.000000 0.000000 0.000000
# 3 -0.006098 -0.007509 0.020787 0.000000 0.000000 0.000000
# 4 0.000000 0.000000 0.000000 0.038057 0.000000 0.000000
# 5 0.000000 0.000000 0.000000 0.000000 0.033326 0.000000
# 6 0.000000 0.000000 0.000000 0.000000 0.000000 0.057823
#
#
# Mechanical properties :
#
#
# Convention : Reuss Voigt Hill
#
# Bulk Modulus (GPa) = 46.47686 55.48505 50.98096
# Shear Modulus (GPa) = 21.06801 23.17337 22.12069
#
# Velocity S-wave (km/s) = 3.52608 3.69807 3.61310
# Velocity P-wave (km/s) = 6.63370 7.13994 6.89147
#
# Compressibility (1/GPa) = 0.02151608
#
# Stress axis : x y z
#
# Youngs Moduli (GPa) = 77.88354 36.22458 48.10714
#
# Poissons Ratio (x) = 0.22643 0.29337
# Poissons Ratio (y) = 0.48683 0.36124
# Poissons Ratio (z) = 0.47496 0.27201
#
# Static dielectric constant tensor:
#      x y z
#    x 3.546170 0.000000 0.000000 
#    y 0.000000 3.083320 0.000000 
#    z 0.000000 0.000000 3.487560 
# 
# 
# High freq. dielectric constant tensor:
#      x y z
#    x 1.676510 0.000000 0.000000 
#    y 0.000000 1.622740 0.000000 
#    z 0.000000 0.000000 1.633410 
# 
# From -- ./inp_files/27818.got.cif
#   From: 2010.03.12/outbox.cif.g09.slc.cpg/sg51_14_cif.got.tgz:27818.got - 2010.04.16 13:43:02.
