data_PCOD8210022
_publ_section_title
;
Structure prediction by ZEFSAII (Michael W. Deem and Ramdas Pophale) SiO2 
 PCOD8210022
Probable space group: P M M A
;
_chemical_formula_sum "Si O2"
_cell_formula_units_Z 56
_cell_length_a 9.048511
_cell_length_b 20.893874
_cell_length_c 14.399454
_cell_angle_alpha 90.000000
_cell_angle_beta 90.000000
_cell_angle_gamma 90.000000
_cell_volume 2722.338436
_symmetry_space_group_name_H-M "P M M A"
_symmetry_group_IT_number 51
_symmetry_cell_setting 'orthorhombic'
loop_
_space_group_symop_operation_xyz
x,y,z
1/2-x,-y,z
1/2+x,-y,-z
-x,y,-z
-x,-y,-z
1/2+x,y,-z
1/2-x,y,z
x,-y,z
loop_
_atom_site_type_symbol
_atom_site_label
_atom_site_fract_x
_atom_site_fract_y
_atom_site_fract_z
Si Si1 0.587167 0.777215 0.760738
Si Si2 0.928044 0.133739 0.594137
Si Si3 0.907297 0.869928 0.923184
Si Si4 0.072584 0.000000 0.653800
Si Si5 0.927147 0.000000 0.848123
Si Si6 0.579267 0.427648 0.226104
Si Si7 0.582959 0.576193 0.590650
Si Si8 0.578284 0.313549 0.099145
O O1 0.750000 0.745279 0.745976
O O2 0.526063 0.809390 0.666389
O O3 0.605276 0.838368 0.824672
O O4 0.479014 0.728877 0.814321
O O5 0.750000 0.126523 0.590600
O O6 0.000000 0.160083 0.500000
O O7 0.000926 0.064305 0.611345
O O8 0.750000 0.876341 0.971378
O O9 0.976123 0.939490 0.908111
O O10 0.000000 0.830366 0.000000
O O11 0.250000 0.000000 0.637570
O O12 0.032592 0.000000 0.760449
O O13 0.750000 0.000000 0.822653
O O14 0.750000 0.425936 0.255154
O O15 0.527361 0.500000 0.203584
O O16 0.491217 0.398627 0.314337
O O17 0.550704 0.386363 0.133225
O O18 0.500000 0.604068 0.500000
O O19 0.750000 0.601437 0.587807
O O20 0.574699 0.500000 0.589392
O O21 0.750000 0.298448 0.083947
O O22 0.500000 0.302221 0.000000
#
# Coordination Sequence:
#
# PCOD8210022 Si02
#       8
#     8   8   8   4   4   8   8   8
#     4  10  22  41  63  84 113 154 196 243 294 348
#     4  11  23  42  65  90 122 158 199 247 299 353
#     4  10  20  34  54  79 109 148 189 234 289 339
#     4  12  23  36  59  91 122 159 203 247 298 353
#     4  10  19  36  54  75 114 155 192 239 292 345
#     4   9  19  37  59  85 119 158 200 247 298 354
#     4   9  16  27  48  80 116 153 190 229 276 332
#     4  11  24  41  63  89 118 153 196 245 298 360
#
# _framework density 20.570550000000001
#
# number of rings (size 3 to 8) (size 9 to 14) (size 15 to 20)
#    0.000    1.857    1.429    2.786    0.000    6.571 
#    0.000    0.714    0.000    1.714    0.000    0.000 
#    0.000    0.000    0.000    0.000    0.000    0.000 
#
# Total GULP energy -693833.073038 kJ/mol
# GULP energy per Si atom -12389.876304 kJ/mol
# Density = 2.052373 g / cm^3
# Si number density = 20.570550 Si / 1000 Ang^3
#
#
#
# Elastic Constant Matrix: (Units=GPa)
#
#
# Indices 1 2 3 4 5 6 
#
# 1 117.1917 40.1334 67.8679 0.0000 0.0000 0.0000
# 2 40.1334 73.8082 43.5329 0.0000 0.0000 0.0000
# 3 67.8679 43.5329 144.9513 0.0000 0.0000 0.0000
# 4 0.0000 0.0000 0.0000 14.4162 0.0000 0.0000
# 5 0.0000 0.0000 0.0000 0.0000 37.8965 0.0000
# 6 0.0000 0.0000 0.0000 0.0000 0.0000 23.3935
#
#
#
# Elastic Compliance Matrix: (Units=1/GPa)
#
#
# Indices 1 2 3 4 5 6 
#
# 1 0.012659 -0.004117 -0.004691 0.000000 0.000000 0.000000
# 2 -0.004117 0.017804 -0.003419 0.000000 0.000000 0.000000
# 3 -0.004691 -0.003419 0.010122 0.000000 0.000000 0.000000
# 4 0.000000 0.000000 0.000000 0.069366 0.000000 0.000000
# 5 0.000000 0.000000 0.000000 0.000000 0.026388 0.000000
# 6 0.000000 0.000000 0.000000 0.000000 0.000000 0.042747
#
#
# Mechanical properties :
#
#
# Convention : Reuss Voigt Hill
#
# Bulk Modulus (GPa) = 61.99180 71.00220 66.49700
# Shear Modulus (GPa) = 23.93283 27.43572 25.68428
#
# Velocity S-wave (km/s) = 3.41464 3.65600 3.53738
# Velocity P-wave (km/s) = 6.76372 7.23969 7.00575
#
# Compressibility (1/GPa) = 0.01613116
#
# Stress axis : x y z
#
# Youngs Moduli (GPa) = 78.99217 56.16703 98.79309
#
# Poissons Ratio (x) = 0.23123 0.46343
# Poissons Ratio (y) = 0.32520 0.33782
# Poissons Ratio (z) = 0.37054 0.19206
#
# Static dielectric constant tensor:
#      x y z
#    x 3.845230 0.000000 0.000000 
#    y 0.000000 3.662230 0.000000 
#    z 0.000000 0.000000 3.908020 
# 
# 
# High freq. dielectric constant tensor:
#      x y z
#    x 1.805500 0.000000 0.000000 
#    y 0.000000 1.789210 0.000000 
#    z 0.000000 0.000000 1.812110 
# 
# From -- ./inp_files/21934.got.cif
#   From: 2010.03.12/outbox.cif.g09.slc.cpg/sg51_11_cif.got.tgz:21934.got - 2010.04.16 13:43:02.
