data_PCOD8210642
_publ_section_title
;
Structure prediction by ZEFSAII (Michael W. Deem and Ramdas Pophale) SiO2 
 PCOD8210642
Probable space group: P M M A
;
_chemical_formula_sum "Si O2"
_cell_formula_units_Z 56
_cell_length_a 19.067588
_cell_length_b 14.429237
_cell_length_c 10.018203
_cell_angle_alpha 90.000000
_cell_angle_beta 90.000000
_cell_angle_gamma 90.000000
_cell_volume 2756.315668
_symmetry_space_group_name_H-M "P M M A"
_symmetry_group_IT_number 51
_symmetry_cell_setting 'orthorhombic'
loop_
_space_group_symop_operation_xyz
x,y,z
1/2-x,-y,z
1/2+x,-y,-z
-x,y,-z
-x,-y,-z
1/2+x,y,-z
1/2-x,y,z
x,-y,z
loop_
_atom_site_type_symbol
_atom_site_label
_atom_site_fract_x
_atom_site_fract_y
_atom_site_fract_z
Si Si1 0.829478 0.842759 0.972166
Si Si2 0.668498 0.603380 0.604986
Si Si3 0.672194 0.366717 0.899082
Si Si4 0.418780 0.231062 0.494235
Si Si5 0.074653 0.201973 0.784781
Si Si6 0.940382 0.601421 0.103896
Si Si7 0.568296 0.895925 0.753639
O O1 0.750000 0.881059 0.990959
O O2 0.828406 0.743158 0.905455
O O3 0.872973 0.905202 0.868781
O O4 0.867415 0.839218 0.115726
O O5 0.750000 0.632578 0.603653
O O6 0.658113 0.500000 0.545774
O O7 0.639195 0.605136 0.756569
O O8 0.626163 0.675607 0.515985
O O9 0.750000 0.407645 0.909926
O O10 0.630467 0.411283 0.020169
O O11 0.500000 0.259565 0.500000
O O12 0.399647 0.180767 0.634153
O O13 0.402544 0.160313 0.374045
O O14 0.065998 0.314188 0.792582
O O15 0.000185 0.153827 0.814996
O O16 0.955408 0.500000 0.171753
O O17 0.000000 0.630406 0.000000
O O18 0.549073 0.000000 0.707418
#
# Coordination Sequence:
#
# PCOD8210642 Si02
#       7
#     8   8   8   8   8   8   8
#     4  10  20  37  63  92 119 150 193 245 298 357
#     4  10  20  35  58  86 118 159 202 242 288 344
#     4   9  17  33  56  82 115 153 196 242 284 337
#     4  10  23  39  59  88 121 161 203 248 293 353
#     4  10  22  39  59  87 124 158 196 240 302 357
#     4  10  20  32  52  82 120 159 195 238 289 345
#     4  11  23  42  66  88 114 154 201 250 305 366
#
# _framework density 20.316976
#
# number of rings (size 3 to 8) (size 9 to 14) (size 15 to 20)
#    0.000    2.000    1.429    2.571    2.000    6.286 
#    0.000    0.000    0.000    0.000    0.000    4.000 
#    0.000    0.000    0.000    0.000    0.000    0.000 
#
# Total GULP energy -694274.199031 kJ/mol
# GULP energy per Si atom -12397.753554 kJ/mol
# Density = 2.027073 g / cm^3
# Si number density = 20.316976 Si / 1000 Ang^3
#
#
#
# Elastic Constant Matrix: (Units=GPa)
#
#
# Indices 1 2 3 4 5 6 
#
# 1 100.6334 34.7340 57.3323 0.0000 0.0000 0.0000
# 2 34.7340 97.0525 30.8257 0.0000 0.0000 0.0000
# 3 57.3323 30.8257 113.3317 0.0000 0.0000 0.0000
# 4 0.0000 0.0000 0.0000 6.1375 0.0000 0.0000
# 5 0.0000 0.0000 0.0000 0.0000 27.0094 0.0000
# 6 0.0000 0.0000 0.0000 0.0000 0.0000 10.7034
#
#
#
# Elastic Compliance Matrix: (Units=1/GPa)
#
#
# Indices 1 2 3 4 5 6 
#
# 1 0.014815 -0.003198 -0.006625 0.000000 0.000000 0.000000
# 2 -0.003198 0.011968 -0.001638 0.000000 0.000000 0.000000
# 3 -0.006625 -0.001638 0.012620 0.000000 0.000000 0.000000
# 4 0.000000 0.000000 0.000000 0.162932 0.000000 0.000000
# 5 0.000000 0.000000 0.000000 0.000000 0.037024 0.000000
# 6 0.000000 0.000000 0.000000 0.000000 0.000000 0.093428
#
#
# Mechanical properties :
#
#
# Convention : Reuss Voigt Hill
#
# Bulk Modulus (GPa) = 60.66794 61.86683 61.26739
# Shear Modulus (GPa) = 13.84261 21.31177 17.57719
#
# Velocity S-wave (km/s) = 2.61307 3.24228 2.94453
# Velocity P-wave (km/s) = 6.24737 6.67334 6.46387
#
# Compressibility (1/GPa) = 0.01648317
#
# Stress axis : x y z
#
# Youngs Moduli (GPa) = 67.49858 83.55380 79.23657
#
# Poissons Ratio (x) = 0.26720 0.52493
# Poissons Ratio (y) = 0.21586 0.12975
# Poissons Ratio (z) = 0.44717 0.13682
#
# Static dielectric constant tensor:
#      x y z
#    x 3.945040 0.000000 0.000000 
#    y 0.000000 3.583770 0.000000 
#    z 0.000000 0.000000 3.589430 
# 
# 
# High freq. dielectric constant tensor:
#      x y z
#    x 1.789420 0.000000 0.000000 
#    y 0.000000 1.791940 0.000000 
#    z 0.000000 0.000000 1.779160 
# 
# From -- ./inp_files/11041.got.cif
#   From: 2010.03.12/outbox.cif.g09.slc.cpg/sg51_6_cif.got.tgz:11041.got - 2010.04.16 13:43:02.
