data_PCOD8210691
_publ_section_title
;
Structure prediction by ZEFSAII (Michael W. Deem and Ramdas Pophale) SiO2 
 PCOD8210691
Probable space group: P M M A
;
_chemical_formula_sum "Si O2"
_cell_formula_units_Z 40
_cell_length_a 18.286006
_cell_length_b 8.939954
_cell_length_c 13.803267
_cell_angle_alpha 90.000000
_cell_angle_beta 90.000000
_cell_angle_gamma 90.000000
_cell_volume 2256.503601
_symmetry_space_group_name_H-M "P M M A"
_symmetry_group_IT_number 51
_symmetry_cell_setting 'orthorhombic'
loop_
_space_group_symop_operation_xyz
x,y,z
1/2-x,-y,z
1/2+x,-y,-z
-x,y,-z
-x,-y,-z
1/2+x,y,-z
1/2-x,y,z
x,-y,z
loop_
_atom_site_type_symbol
_atom_site_label
_atom_site_fract_x
_atom_site_fract_y
_atom_site_fract_z
Si Si1 0.033709 0.325399 0.197736
Si Si2 0.603490 0.823862 0.116381
Si Si3 0.831202 0.672510 0.297736
Si Si4 0.333254 0.327541 0.069729
Si Si5 0.524805 0.324893 0.398807
O O1 0.014192 0.500000 0.195006
O O2 0.116333 0.293486 0.163470
O O3 0.022306 0.263130 0.307355
O O4 0.977369 0.245913 0.124715
O O5 0.655308 0.772187 0.203683
O O6 0.595533 0.000000 0.118189
O O7 0.641604 0.776019 0.017471
O O8 0.750000 0.704732 0.338426
O O9 0.840296 0.500000 0.266132
O O10 0.889500 0.711826 0.381665
O O11 0.250000 0.289900 0.098975
O O12 0.341511 0.500000 0.037691
O O13 0.500000 0.247581 0.500000
O O14 0.510293 0.500000 0.407054
#
# Coordination Sequence:
#
# PCOD8210691 Si02
#       5
#     8   8   8   8   8
#     4   9  18  33  51  69  93 127 161 191 229 280
#     4  11  21  31  47  71  96 123 157 197 238 277
#     4   9  17  30  48  70  96 126 158 192 235 285
#     4  10  20  33  48  67  94 128 161 190 225 275
#     4   8  14  27  48  71  93 118 151 192 233 272
#
# _framework density 17.72654
#
# number of rings (size 3 to 8) (size 9 to 14) (size 15 to 20)
#    0.000    2.600    0.000    4.200    0.000    6.400 
#    0.000    1.000    0.000   15.600    0.000    0.000 
#    0.000    6.400    0.000    0.000    0.000    0.000 
#
# Total GULP energy -495872.492563 kJ/mol
# GULP energy per Si atom -12396.812314 kJ/mol
# Density = 1.768619 g / cm^3
# Si number density = 17.726540 Si / 1000 Ang^3
#
#
#
# Elastic Constant Matrix: (Units=GPa)
#
#
# Indices 1 2 3 4 5 6 
#
# 1 162.4328 37.6763 81.4294 0.0000 0.0000 0.0000
# 2 37.6763 59.0104 29.5518 0.0000 0.0000 0.0000
# 3 81.4294 29.5518 107.1178 0.0000 0.0000 0.0000
# 4 0.0000 0.0000 0.0000 -0.2227 0.0000 0.0000
# 5 0.0000 0.0000 0.0000 0.0000 21.4686 0.0000
# 6 0.0000 0.0000 0.0000 0.0000 0.0000 6.1787
#
#
#
# Elastic Compliance Matrix: (Units=1/GPa)
#
#
# Indices 1 2 3 4 5 6 
#
# 1 0.010419 -0.003116 -0.007060 0.000000 0.000000 0.000000
# 2 -0.003116 0.020595 -0.003313 0.000000 0.000000 0.000000
# 3 -0.007060 -0.003313 0.015617 0.000000 0.000000 0.000000
# 4 0.000000 0.000000 0.000000 -4.489699 0.000000 0.000000
# 5 0.000000 0.000000 0.000000 0.000000 0.046580 0.000000
# 6 0.000000 0.000000 0.000000 0.000000 0.000000 0.161847
#
#
# Mechanical properties :
#
#
# Convention : Reuss Voigt Hill
#
# Bulk Modulus (GPa) = 50.88735 69.54177 60.21456
# Shear Modulus (GPa) = -1.19016 17.47848 8.14416
#
# Velocity S-wave (km/s) = -0.82028 3.14348 2.14576
# Velocity P-wave (km/s) = 5.27940 7.24505 6.33888
#
# Compressibility (1/GPa) = 0.01965125
#
# Stress axis : x y z
#
# Youngs Moduli (GPa) = 95.98172 48.55600 64.03410
#
# Poissons Ratio (x) = 0.15131 0.45211
# Poissons Ratio (y) = 0.29910 0.21213
# Poissons Ratio (z) = 0.67767 0.16086
#
# Static dielectric constant tensor:
#      x y z
#    x 3.492280 0.000000 0.000000 
#    y 0.000000 2.993670 0.000000 
#    z 0.000000 0.000000 3.402660 
# 
# 
# High freq. dielectric constant tensor:
#      x y z
#    x 1.692840 0.000000 0.000000 
#    y 0.000000 1.654580 0.000000 
#    z 0.000000 0.000000 1.669480 
# 
# From -- ./inp_files/23711.got.cif
#   From: 2010.03.12/outbox.cif.g09.slc.cpg/sg51_12_cif.got.tgz:23711.got - 2010.04.16 13:43:02.
