data_PCOD8210476
_publ_section_title
;
Structure prediction by ZEFSAII (Michael W. Deem and Ramdas Pophale) SiO2 
 PCOD8210476
Probable space group: P M M A
;
_chemical_formula_sum "Si O2"
_cell_formula_units_Z 52
_cell_length_a 9.550499
_cell_length_b 15.570663
_cell_length_c 19.471921
_cell_angle_alpha 90.000000
_cell_angle_beta 90.000000
_cell_angle_gamma 90.000000
_cell_volume 2895.622667
_symmetry_space_group_name_H-M "P M M A"
_symmetry_group_IT_number 51
_symmetry_cell_setting 'orthorhombic'
loop_
_space_group_symop_operation_xyz
x,y,z
1/2-x,-y,z
1/2+x,-y,-z
-x,y,-z
-x,-y,-z
1/2+x,y,-z
1/2-x,y,z
x,-y,z
loop_
_atom_site_type_symbol
_atom_site_label
_atom_site_fract_x
_atom_site_fract_y
_atom_site_fract_z
Si Si1 0.082894 0.500000 0.428262
Si Si2 0.583844 0.171886 0.696784
Si Si3 0.083868 0.636426 0.316692
Si Si4 0.403166 0.099641 0.442444
Si Si5 0.583746 0.253601 0.930407
Si Si6 0.915778 0.903845 0.837730
Si Si7 0.084754 0.593920 0.167292
O O1 0.250000 0.500000 0.442403
O O2 0.034427 0.582613 0.383185
O O3 0.000000 0.500000 0.500000
O O4 0.750000 0.174172 0.705619
O O5 0.526903 0.266543 0.679320
O O6 0.535019 0.112297 0.633658
O O7 0.519155 0.132658 0.766545
O O8 0.250000 0.632482 0.314855
O O9 0.024516 0.599021 0.244819
O O10 0.500000 0.144138 0.500000
O O11 0.250000 0.143643 0.447018
O O12 0.389709 0.000000 0.458551
O O13 0.750000 0.260389 0.943558
O O14 0.542603 0.161184 0.898458
O O15 0.527779 0.329408 0.880480
O O16 0.500000 0.264371 0.000000
O O17 0.750000 0.908233 0.830526
O O18 0.975011 0.000000 0.852650
O O19 0.250000 0.605291 0.170955
O O20 0.043676 0.500000 0.136814
#
# Coordination Sequence:
#
# PCOD8210476 Si02
#       7
#     4   8   8   8   8   8   8
#     4  10  20  32  48  72 101 128 158 198 241 286
#     4   9  15  25  44  69  92 114 153 203 239 267
#     4   9  15  26  46  70  92 119 156 197 233 269
#     4   9  17  28  42  62  89 118 146 182 229 274
#     4  10  20  33  50  74 102 128 157 196 240 289
#     4   9  16  27  46  72  98 124 159 204 246 281
#     4   9  15  27  49  74  96 121 159 201 238 276
#
# _framework density 17.95814
#
# number of rings (size 3 to 8) (size 9 to 14) (size 15 to 20)
#    0.000    2.769    2.308    0.462    0.000    3.077 
#    0.000    0.000    0.000    1.846    0.000    0.000 
#    0.000    0.000    0.000    0.000    0.000    0.000 
#
# Total GULP energy -644323.257196 kJ/mol
# GULP energy per Si atom -12390.831869 kJ/mol
# Density = 1.791727 g / cm^3
# Si number density = 17.958140 Si / 1000 Ang^3
#
#
#
# Elastic Constant Matrix: (Units=GPa)
#
#
# Indices 1 2 3 4 5 6 
#
# 1 21.8900 17.5345 34.0479 0.0000 0.0000 0.0000
# 2 17.5345 126.9365 61.8504 0.0000 0.0000 0.0000
# 3 34.0479 61.8504 150.9480 0.0000 0.0000 0.0000
# 4 0.0000 0.0000 0.0000 31.9547 0.0000 0.0000
# 5 0.0000 0.0000 0.0000 0.0000 24.9050 0.0000
# 6 0.0000 0.0000 0.0000 0.0000 0.0000 7.2548
#
#
#
# Elastic Compliance Matrix: (Units=1/GPa)
#
#
# Indices 1 2 3 4 5 6 
#
# 1 0.071004 -0.002505 -0.014989 0.000000 0.000000 0.000000
# 2 -0.002505 0.009931 -0.003504 0.000000 0.000000 0.000000
# 3 -0.014989 -0.003504 0.011442 0.000000 0.000000 0.000000
# 4 0.000000 0.000000 0.000000 0.031294 0.000000 0.000000
# 5 0.000000 0.000000 0.000000 0.000000 0.040153 0.000000
# 6 0.000000 0.000000 0.000000 0.000000 0.000000 0.137839
#
#
# Mechanical properties :
#
#
# Convention : Reuss Voigt Hill
#
# Bulk Modulus (GPa) = 19.84902 58.51557 39.18230
# Shear Modulus (GPa) = 13.87141 25.24568 19.55855
#
# Velocity S-wave (km/s) = 2.78228 3.75348 3.30376
# Velocity P-wave (km/s) = 4.62584 7.17216 6.03483
#
# Compressibility (1/GPa) = 0.05038031
#
# Stress axis : x y z
#
# Youngs Moduli (GPa) = 14.08373 100.68985 87.39908
#
# Poissons Ratio (x) = 0.25218 1.31006
# Poissons Ratio (y) = 0.03527 0.30629
# Poissons Ratio (z) = 0.21111 0.35287
#
# Static dielectric constant tensor:
#      x y z
#    x 2.756160 0.000000 0.000000 
#    y 0.000000 3.616840 0.000000 
#    z 0.000000 0.000000 3.394180 
# 
# 
# High freq. dielectric constant tensor:
#      x y z
#    x 1.613460 0.000000 0.000000 
#    y 0.000000 1.707250 0.000000 
#    z 0.000000 0.000000 1.702260 
# 
# From -- ./inp_files/29089.got.cif
#   From: 2010.03.12/outbox.cif.g09.slc.cpg/sg51_15_cif.got.tgz:29089.got - 2010.04.16 13:43:02.
