data_PCOD8210138
_publ_section_title
;
Structure prediction by ZEFSAII (Michael W. Deem and Ramdas Pophale) SiO2 
 PCOD8210138
Probable space group: P M M A
;
_chemical_formula_sum "Si O2"
_cell_formula_units_Z 40
_cell_length_a 17.251171
_cell_length_b 13.888822
_cell_length_c 9.769843
_cell_angle_alpha 90.000000
_cell_angle_beta 90.000000
_cell_angle_gamma 90.000000
_cell_volume 2340.839174
_symmetry_space_group_name_H-M "P M M A"
_symmetry_group_IT_number 51
_symmetry_cell_setting 'orthorhombic'
loop_
_space_group_symop_operation_xyz
x,y,z
1/2-x,-y,z
1/2+x,-y,-z
-x,y,-z
-x,-y,-z
1/2+x,y,-z
1/2-x,y,z
x,-y,z
loop_
_atom_site_type_symbol
_atom_site_label
_atom_site_fract_x
_atom_site_fract_y
_atom_site_fract_z
Si Si1 0.096412 0.112363 0.776125
Si Si2 0.590152 0.894346 0.526131
Si Si3 0.039896 0.393073 0.853667
Si Si4 0.161875 0.742390 0.966138
Si Si5 0.557382 0.773313 0.772463
O O1 0.125226 0.135871 0.620886
O O2 0.158416 0.160605 0.876666
O O3 0.009840 0.150675 0.810457
O O4 0.095416 0.000000 0.804365
O O5 0.500000 0.906379 0.500000
O O6 0.604409 0.810628 0.638520
O O7 0.622594 0.000000 0.573726
O O8 0.050744 0.500000 0.791088
O O9 0.123079 0.343184 0.877340
O O10 0.985893 0.329918 0.750693
O O11 0.000000 0.398690 0.000000
O O12 0.250000 0.713546 0.997293
O O13 0.119155 0.763104 0.107977
#
# Coordination Sequence:
#
# PCOD8210138 Si02
#       5
#     8   8   8   8   8
#     4   9  17  30  47  64  87 122 156 183 218 266
#     4   8  14  26  46  68  87 113 150 185 219 262
#     4   8  15  29  48  68  88 111 143 183 223 265
#     4  10  20  30  42  65  93 120 149 182 223 266
#     4   9  16  28  48  69  88 110 146 192 228 260
#
# _framework density 17.087888
#
# number of rings (size 3 to 8) (size 9 to 14) (size 15 to 20)
#    0.000    3.200    0.000    3.600    0.000    3.200 
#    0.000    1.000    0.000   16.200    0.000    0.000 
#    0.000   22.400    0.000    0.000    0.000    0.000 
#
# Total GULP energy -495586.534289 kJ/mol
# GULP energy per Si atom -12389.663357 kJ/mol
# Density = 1.704900 g / cm^3
# Si number density = 17.087888 Si / 1000 Ang^3
#
#
#
# Elastic Constant Matrix: (Units=GPa)
#
#
# Indices 1 2 3 4 5 6 
#
# 1 67.8960 41.6415 39.2666 0.0000 0.0000 0.0000
# 2 41.6415 141.4337 52.5203 0.0000 0.0000 0.0000
# 3 39.2666 52.5203 70.8596 0.0000 0.0000 0.0000
# 4 0.0000 0.0000 0.0000 17.9537 0.0000 0.0000
# 5 0.0000 0.0000 0.0000 0.0000 1.0627 0.0000
# 6 0.0000 0.0000 0.0000 0.0000 0.0000 6.9783
#
#
#
# Elastic Compliance Matrix: (Units=1/GPa)
#
#
# Indices 1 2 3 4 5 6 
#
# 1 0.022420 -0.002742 -0.010391 0.000000 0.000000 0.000000
# 2 -0.002742 0.010091 -0.005960 0.000000 0.000000 0.000000
# 3 -0.010391 -0.005960 0.024288 0.000000 0.000000 0.000000
# 4 0.000000 0.000000 0.000000 0.055699 0.000000 0.000000
# 5 0.000000 0.000000 0.000000 0.000000 0.941030 0.000000
# 6 0.000000 0.000000 0.000000 0.000000 0.000000 0.143302
#
#
# Mechanical properties :
#
#
# Convention : Reuss Voigt Hill
#
# Bulk Modulus (GPa) = 53.72808 60.78291 57.25549
# Shear Modulus (GPa) = 4.02829 14.98298 9.50564
#
# Velocity S-wave (km/s) = 1.53705 2.96433 2.36112
# Velocity P-wave (km/s) = 5.88732 6.88217 6.40409
#
# Compressibility (1/GPa) = 0.01861224
#
# Stress axis : x y z
#
# Youngs Moduli (GPa) = 44.60306 99.09925 41.17246
#
# Poissons Ratio (x) = 0.27175 0.42784
# Poissons Ratio (y) = 0.12231 0.24537
# Poissons Ratio (z) = 0.46349 0.59060
#
# Static dielectric constant tensor:
#      x y z
#    x 2.855240 0.000000 0.000000 
#    y 0.000000 3.517970 0.000000 
#    z 0.000000 0.000000 3.445810 
# 
# 
# High freq. dielectric constant tensor:
#      x y z
#    x 1.621000 0.000000 0.000000 
#    y 0.000000 1.657470 0.000000 
#    z 0.000000 0.000000 1.644430 
# 
# From -- ./inp_files/9429.got.cif
#   From: 2010.03.12/outbox.cif.g09.slc.cpg/sg51_5_cif.got.tgz:9429.got - 2010.04.16 13:43:02.
