data_PCOD8210879
_publ_section_title
;
Structure prediction by ZEFSAII (Michael W. Deem and Ramdas Pophale) SiO2 
 PCOD8210879
Probable space group: P M M A
;
_chemical_formula_sum "Si O2"
_cell_formula_units_Z 44
_cell_length_a 9.263802
_cell_length_b 7.925519
_cell_length_c 29.782556
_cell_angle_alpha 90.000000
_cell_angle_beta 90.000000
_cell_angle_gamma 90.000000
_cell_volume 2186.648329
_symmetry_space_group_name_H-M "P M M A"
_symmetry_group_IT_number 51
_symmetry_cell_setting 'orthorhombic'
loop_
_space_group_symop_operation_xyz
x,y,z
1/2-x,-y,z
1/2+x,-y,-z
-x,y,-z
-x,-y,-z
1/2+x,y,-z
1/2-x,y,z
x,-y,z
loop_
_atom_site_type_symbol
_atom_site_label
_atom_site_fract_x
_atom_site_fract_y
_atom_site_fract_z
Si Si1 0.086266 0.301450 0.711421
Si Si2 0.089954 0.195669 0.372990
Si Si3 0.087000 0.201275 0.543228
Si Si4 0.079262 0.000000 0.046899
Si Si5 0.583626 0.688510 0.892570
Si Si6 0.082407 0.195057 0.809043
O O1 0.250000 0.234317 0.704996
O O2 0.080025 0.500000 0.706380
O O3 0.026024 0.245908 0.759849
O O4 0.984567 0.218240 0.674790
O O5 0.250000 0.279105 0.372765
O O6 0.992104 0.275576 0.412507
O O7 0.106888 0.000000 0.383297
O O8 0.250000 0.272900 0.541859
O O9 0.000000 0.267399 0.500000
O O10 0.090833 0.000000 0.544045
O O11 0.027651 0.168506 0.073096
O O12 0.250000 0.000000 0.038798
O O13 0.000000 0.000000 0.000000
O O14 0.750000 0.723403 0.881799
O O15 0.560796 0.500000 0.913082
O O16 0.500045 0.695907 0.845783
O O17 0.250000 0.240235 0.813049
O O18 0.050729 0.000000 0.818127
#
# Coordination Sequence:
#
# PCOD8210879 Si02
#       6
#     8   8   8   4   8   8
#     4  10  21  36  53  75 105 141 180 223 272 326
#     4  10  20  33  50  74 103 136 176 220 267 323
#     4   9  16  27  46  72 101 132 168 215 269 324
#     4  10  22  40  60  86 120 156 198 246 291 344
#     4  10  21  38  60  86 118 156 195 238 291 346
#     4  10  20  35  58  86 114 146 187 233 282 337
#
# _framework density 20.122121
#
# number of rings (size 3 to 8) (size 9 to 14) (size 15 to 20)
#    0.000    2.182    0.909    2.182    0.000    7.273 
#    0.000    0.000    0.000    0.545    0.000    0.000 
#    0.000    0.000    0.000    0.000    0.000    0.000 
#
# Total GULP energy -545647.892364 kJ/mol
# GULP energy per Si atom -12401.088463 kJ/mol
# Density = 2.007632 g / cm^3
# Si number density = 20.122121 Si / 1000 Ang^3
#
#
#
# Elastic Constant Matrix: (Units=GPa)
#
#
# Indices 1 2 3 4 5 6 
#
# 1 114.2525 25.4460 75.6287 0.0000 0.0000 0.0000
# 2 25.4460 67.0440 35.5556 0.0000 0.0000 0.0000
# 3 75.6287 35.5556 163.9178 0.0000 0.0000 0.0000
# 4 0.0000 0.0000 0.0000 4.2860 0.0000 0.0000
# 5 0.0000 0.0000 0.0000 0.0000 11.1924 0.0000
# 6 0.0000 0.0000 0.0000 0.0000 0.0000 15.2777
#
#
#
# Elastic Compliance Matrix: (Units=1/GPa)
#
#
# Indices 1 2 3 4 5 6 
#
# 1 0.012824 -0.001954 -0.005493 0.000000 0.000000 0.000000
# 2 -0.001954 0.017152 -0.002819 0.000000 0.000000 0.000000
# 3 -0.005493 -0.002819 0.009246 0.000000 0.000000 0.000000
# 4 0.000000 0.000000 0.000000 0.233320 0.000000 0.000000
# 5 0.000000 0.000000 0.000000 0.000000 0.089347 0.000000
# 6 0.000000 0.000000 0.000000 0.000000 0.000000 0.065455
#
#
# Mechanical properties :
#
#
# Convention : Reuss Voigt Hill
#
# Bulk Modulus (GPa) = 53.50272 68.71944 61.11108
# Shear Modulus (GPa) = 11.01066 20.05679 15.53373
#
# Velocity S-wave (km/s) = 2.34175 3.16057 2.78145
# Velocity P-wave (km/s) = 5.82739 6.89523 6.38368
#
# Compressibility (1/GPa) = 0.01869064
#
# Stress axis : x y z
#
# Youngs Moduli (GPa) = 77.98109 58.30146 108.15131
#
# Poissons Ratio (x) = 0.11393 0.59404
# Poissons Ratio (y) = 0.15239 0.30487
# Poissons Ratio (z) = 0.42833 0.16435
#
# Static dielectric constant tensor:
#      x y z
#    x 3.768880 0.000000 0.000000 
#    y 0.000000 3.545270 0.000000 
#    z 0.000000 0.000000 3.621260 
# 
# 
# High freq. dielectric constant tensor:
#      x y z
#    x 1.784180 0.000000 0.000000 
#    y 0.000000 1.773350 0.000000 
#    z 0.000000 0.000000 1.786520 
# 
# From -- ./inp_files/36732.got.cif
#   From: 2010.03.12/outbox.cif.g09.slc.cpg/sg51_19_cif.got.tgz:36732.got - 2010.04.16 13:43:02.
