data_PCOD8210067
_publ_section_title
;
Structure prediction by ZEFSAII (Michael W. Deem and Ramdas Pophale) SiO2 
 PCOD8210067
Probable space group: P M M A
;
_chemical_formula_sum "Si O2"
_cell_formula_units_Z 40
_cell_length_a 18.667224
_cell_length_b 8.906142
_cell_length_c 12.382497
_cell_angle_alpha 90.000000
_cell_angle_beta 90.000000
_cell_angle_gamma 90.000000
_cell_volume 2058.626626
_symmetry_space_group_name_H-M "P M M A"
_symmetry_group_IT_number 51
_symmetry_cell_setting 'orthorhombic'
loop_
_space_group_symop_operation_xyz
x,y,z
1/2-x,-y,z
1/2+x,-y,-z
-x,y,-z
-x,-y,-z
1/2+x,y,-z
1/2-x,y,z
x,-y,z
loop_
_atom_site_type_symbol
_atom_site_label
_atom_site_fract_x
_atom_site_fract_y
_atom_site_fract_z
Si Si1 0.933395 0.823472 0.710761
Si Si2 0.332912 0.675048 0.452591
Si Si3 0.170126 0.678176 0.867752
Si Si4 0.426262 0.672136 0.062511
Si Si5 0.419260 0.322640 0.665185
O O1 0.863370 0.768400 0.647456
O O2 0.924945 0.778636 0.834943
O O3 0.003056 0.750774 0.656117
O O4 0.940241 0.000000 0.701892
O O5 0.250000 0.715657 0.467626
O O6 0.343873 0.500000 0.428232
O O7 0.373435 0.722997 0.561350
O O8 0.250000 0.746004 0.859600
O O9 0.172528 0.500000 0.856685
O O10 0.121655 0.741838 0.770437
O O11 0.137134 0.724366 0.982845
O O12 0.416265 0.500000 0.100211
O O13 0.500000 0.691221 0.000000
O O14 0.430269 0.500000 0.674098
#
# Coordination Sequence:
#
# PCOD8210067 Si02
#       5
#     8   8   8   8   8
#     4  12  25  38  57  85 121 161 199 236 286 353
#     4  10  22  40  63  89 116 150 196 248 297 345
#     4   9  17  31  57  90 116 141 183 243 304 351
#     4  10  19  36  60  85 113 149 194 244 294 343
#     4  10  19  37  63  89 115 146 192 247 297 347
#
# _framework density 19.430429
#
# number of rings (size 3 to 8) (size 9 to 14) (size 15 to 20)
#    0.000    1.800    2.000    3.000    0.000    7.200 
#    0.000    2.000    0.000    3.000    0.000    0.000 
#    0.000    0.000    0.000    0.000    0.000    0.000 
#
# Total GULP energy -496153.699319 kJ/mol
# GULP energy per Si atom -12403.842483 kJ/mol
# Density = 1.938620 g / cm^3
# Si number density = 19.430429 Si / 1000 Ang^3
#
#
#
# Elastic Constant Matrix: (Units=GPa)
#
#
# Indices 1 2 3 4 5 6 
#
# 1 94.8889 26.8589 46.7056 0.0000 0.0000 0.0000
# 2 26.8589 50.0489 39.8085 0.0000 0.0000 0.0000
# 3 46.7056 39.8085 109.7382 0.0000 0.0000 0.0000
# 4 0.0000 0.0000 0.0000 6.5252 0.0000 0.0000
# 5 0.0000 0.0000 0.0000 0.0000 32.0021 0.0000
# 6 0.0000 0.0000 0.0000 0.0000 0.0000 5.3166
#
#
#
# Elastic Compliance Matrix: (Units=1/GPa)
#
#
# Indices 1 2 3 4 5 6 
#
# 1 0.013841 -0.003854 -0.004493 0.000000 0.000000 0.000000
# 2 -0.003854 0.029157 -0.008936 0.000000 0.000000 0.000000
# 3 -0.004493 -0.008936 0.014266 0.000000 0.000000 0.000000
# 4 0.000000 0.000000 0.000000 0.153252 0.000000 0.000000
# 5 0.000000 0.000000 0.000000 0.000000 0.031248 0.000000
# 6 0.000000 0.000000 0.000000 0.000000 0.000000 0.188092
#
#
# Mechanical properties :
#
#
# Convention : Reuss Voigt Hill
#
# Bulk Modulus (GPa) = 44.05791 53.49133 48.77462
# Shear Modulus (GPa) = 10.59347 18.18897 14.39122
#
# Velocity S-wave (km/s) = 2.33748 3.06291 2.72445
# Velocity P-wave (km/s) = 5.47805 6.33230 5.92060
#
# Compressibility (1/GPa) = 0.02269740
#
# Stress axis : x y z
#
# Youngs Moduli (GPa) = 72.24911 34.29719 70.09440
#
# Poissons Ratio (x) = 0.13220 0.31491
# Poissons Ratio (y) = 0.27848 0.62639
# Poissons Ratio (z) = 0.32459 0.30649
#
# Static dielectric constant tensor:
#      x y z
#    x 3.785950 0.000000 0.000000 
#    y 0.000000 3.164200 0.000000 
#    z 0.000000 0.000000 3.704970 
# 
# 
# High freq. dielectric constant tensor:
#      x y z
#    x 1.768780 0.000000 0.000000 
#    y 0.000000 1.715590 0.000000 
#    z 0.000000 0.000000 1.770150 
# 
# From -- ./inp_files/17065.got.cif
#   From: 2010.03.12/outbox.cif.g09.slc.cpg/sg51_9_cif.got.tgz:17065.got - 2010.04.16 13:43:02.
