data_PCOD8210412
_publ_section_title
;
Structure prediction by ZEFSAII (Michael W. Deem and Ramdas Pophale) SiO2 
 PCOD8210412
Probable space group: P M M A
;
_chemical_formula_sum "Si O2"
_cell_formula_units_Z 64
_cell_length_a 17.671655
_cell_length_b 9.208677
_cell_length_c 22.975774
_cell_angle_alpha 90.000000
_cell_angle_beta 90.000000
_cell_angle_gamma 90.000000
_cell_volume 3738.906589
_symmetry_space_group_name_H-M "P M M A"
_symmetry_group_IT_number 51
_symmetry_cell_setting 'orthorhombic'
loop_
_space_group_symop_operation_xyz
x,y,z
1/2-x,-y,z
1/2+x,-y,-z
-x,y,-z
-x,-y,-z
1/2+x,y,-z
1/2-x,y,z
x,-y,z
loop_
_atom_site_type_symbol
_atom_site_label
_atom_site_fract_x
_atom_site_fract_y
_atom_site_fract_z
Si Si1 0.391497 0.838885 0.271189
Si Si2 0.050199 0.340606 0.174248
Si Si3 0.335798 0.832508 0.877965
Si Si4 0.446537 0.163788 0.668432
Si Si5 0.887839 0.337276 0.231155
Si Si6 0.967051 0.328502 0.062075
Si Si7 0.666773 0.666368 0.625876
Si Si8 0.984878 0.670774 0.565548
O O1 0.392016 0.765920 0.207173
O O2 0.474731 0.840221 0.297846
O O3 0.336070 0.753985 0.314087
O O4 0.359336 0.000000 0.263320
O O5 0.087812 0.500000 0.170705
O O6 0.973468 0.350574 0.210496
O O7 0.030446 0.283155 0.109591
O O8 0.250000 0.821524 0.901114
O O9 0.339970 0.752374 0.815876
O O10 0.389384 0.757128 0.925906
O O11 0.360565 0.000000 0.869663
O O12 0.385573 0.252199 0.707176
O O13 0.456766 0.244469 0.606839
O O14 0.416903 0.000000 0.657658
O O15 0.853821 0.500000 0.238790
O O16 0.949481 0.500000 0.066446
O O17 0.000000 0.282829 0.000000
O O18 0.750000 0.690776 0.597541
O O19 0.653640 0.500000 0.643135
O O20 0.601920 0.714660 0.580534
O O21 0.999258 0.500000 0.573742
O O22 0.000000 0.721297 0.500000
#
# Coordination Sequence:
#
# PCOD8210412 Si02
#       8
#     8   8   8   8   8   8   8   8
#     4   9  16  25  40  63  88 112 139 174 218 268
#     4   8  14  25  42  64  89 114 141 179 223 265
#     4  10  20  32  47  70  99 128 158 196 245 297
#     4   9  16  26  42  65  91 116 144 182 228 275
#     4   9  16  27  45  67  90 117 149 185 227 274
#     4   9  18  32  50  72  96 125 165 206 239 277
#     4   9  17  29  45  64  86 113 145 184 231 278
#     4   9  17  29  45  65  89 119 157 196 231 273
#
# _framework density 17.117304000000001
#
# number of rings (size 3 to 8) (size 9 to 14) (size 15 to 20)
#    0.000    3.000    0.000    2.250    0.000    7.750 
#    0.000    0.000    0.000    1.500    0.000    3.500 
#    0.000    0.000    0.000    0.000    0.000    0.000 
#
# Total GULP energy -793327.553009 kJ/mol
# GULP energy per Si atom -12395.743016 kJ/mol
# Density = 1.707834 g / cm^3
# Si number density = 17.117304 Si / 1000 Ang^3
#
#
#
# Elastic Constant Matrix: (Units=GPa)
#
#
# Indices 1 2 3 4 5 6 
#
# 1 55.5232 34.5871 41.1719 0.0000 0.0000 0.0000
# 2 34.5871 103.0833 59.9812 0.0000 0.0000 0.0000
# 3 41.1719 59.9812 138.1802 0.0000 0.0000 0.0000
# 4 0.0000 0.0000 0.0000 18.3889 0.0000 0.0000
# 5 0.0000 0.0000 0.0000 0.0000 14.5590 0.0000
# 6 0.0000 0.0000 0.0000 0.0000 0.0000 17.1982
#
#
#
# Elastic Compliance Matrix: (Units=1/GPa)
#
#
# Indices 1 2 3 4 5 6 
#
# 1 0.025234 -0.005474 -0.005142 0.000000 0.000000 0.000000
# 2 -0.005474 0.014167 -0.004518 0.000000 0.000000 0.000000
# 3 -0.005142 -0.004518 0.010730 0.000000 0.000000 0.000000
# 4 0.000000 0.000000 0.000000 0.054381 0.000000 0.000000
# 5 0.000000 0.000000 0.000000 0.000000 0.068686 0.000000
# 6 0.000000 0.000000 0.000000 0.000000 0.000000 0.058146
#
#
# Mechanical properties :
#
#
# Convention : Reuss Voigt Hill
#
# Bulk Modulus (GPa) = 50.35021 63.14079 56.74550
# Shear Modulus (GPa) = 18.64043 20.76564 19.70303
#
# Velocity S-wave (km/s) = 3.30355 3.48679 3.39641
# Velocity P-wave (km/s) = 6.63551 7.29229 6.97164
#
# Compressibility (1/GPa) = 0.01986089
#
# Stress axis : x y z
#
# Youngs Moduli (GPa) = 39.62930 70.58743 93.19285
#
# Poissons Ratio (x) = 0.38643 0.47922
# Poissons Ratio (y) = 0.21695 0.42108
# Poissons Ratio (z) = 0.20378 0.31894
#
# Static dielectric constant tensor:
#      x y z
#    x 2.852250 0.000000 0.000000 
#    y 0.000000 3.415310 0.000000 
#    z 0.000000 0.000000 3.176410 
# 
# 
# High freq. dielectric constant tensor:
#      x y z
#    x 1.617990 0.000000 0.000000 
#    y 0.000000 1.670190 0.000000 
#    z 0.000000 0.000000 1.645600 
# 
# From -- ./inp_files/35960.got.cif
#   From: 2010.03.12/outbox.cif.g09.slc.cpg/sg51_18_cif.got.tgz:35960.got - 2010.04.16 13:43:02.
