data_PCOD8210465
_publ_section_title
;
Structure prediction by ZEFSAII (Michael W. Deem and Ramdas Pophale) SiO2 
 PCOD8210465
Probable space group: P M M A
;
_chemical_formula_sum "Si O2"
_cell_formula_units_Z 64
_cell_length_a 29.233556
_cell_length_b 9.125489
_cell_length_c 14.944171
_cell_angle_alpha 90.000000
_cell_angle_beta 90.000000
_cell_angle_gamma 90.000000
_cell_volume 3986.663876
_symmetry_space_group_name_H-M "P M M A"
_symmetry_group_IT_number 51
_symmetry_cell_setting 'orthorhombic'
loop_
_space_group_symop_operation_xyz
x,y,z
1/2-x,-y,z
1/2+x,-y,-z
-x,y,-z
-x,-y,-z
1/2+x,y,-z
1/2-x,y,z
x,-y,z
loop_
_atom_site_type_symbol
_atom_site_label
_atom_site_fract_x
_atom_site_fract_y
_atom_site_fract_z
Si Si1 0.879955 0.672655 0.200400
Si Si2 0.395717 0.667738 0.453493
Si Si3 0.802166 0.833349 0.293498
Si Si4 0.538068 0.174023 0.673932
Si Si5 0.800776 0.666824 0.475320
Si Si6 0.970130 0.172820 0.873181
Si Si7 0.432883 0.173286 0.943966
Si Si8 0.554508 0.329688 0.361986
O O1 0.876420 0.500000 0.192177
O O2 0.830725 0.735496 0.225353
O O3 0.892234 0.740682 0.104239
O O4 0.916977 0.720416 0.275172
O O5 0.406841 0.500000 0.428410
O O6 0.417869 0.772665 0.380158
O O7 0.340871 0.697264 0.452636
O O8 0.415093 0.705446 0.551468
O O9 0.750000 0.822265 0.261675
O O10 0.807812 0.775783 0.393718
O O11 0.819887 0.000000 0.291536
O O12 0.544236 0.232627 0.775840
O O13 0.492082 0.238456 0.630730
O O14 0.535132 0.000000 0.669465
O O15 0.750000 0.689362 0.518373
O O16 0.806136 0.500000 0.439351
O O17 0.020268 0.230947 0.898892
O O18 0.973519 0.000000 0.870882
O O19 0.933816 0.217542 0.950530
O O20 0.426042 0.000000 0.931422
O O21 0.541524 0.500000 0.356803
#
# Coordination Sequence:
#
# PCOD8210465 Si02
#       8
#     8   8   8   8   8   8   8   8
#     4  11  20  31  48  72  98 127 160 195 237 283
#     4  10  20  34  47  65  94 130 161 192 238 286
#     4  10  20  32  48  71  97 125 158 196 237 282
#     4  11  21  32  47  69  93 125 166 204 234 273
#     4   9  17  32  52  70  91 122 159 196 237 284
#     4   8  16  30  48  68  92 121 156 195 241 281
#     4   9  16  31  51  68  90 123 156 193 237 285
#     4  10  20  33  45  63  95 133 163 190 230 280
#
# _framework density 16.053522000000001
#
# number of rings (size 3 to 8) (size 9 to 14) (size 15 to 20)
#    0.000    2.250    2.500    2.250    0.000    3.750 
#    0.000    2.500    0.000    0.000    0.000    0.875 
#    0.000    5.000    0.000    0.000    0.000    0.000 
#
# Total GULP energy -793488.775710 kJ/mol
# GULP energy per Si atom -12398.262120 kJ/mol
# Density = 1.601698 g / cm^3
# Si number density = 16.053522 Si / 1000 Ang^3
#
#
#
# Elastic Constant Matrix: (Units=GPa)
#
#
# Indices 1 2 3 4 5 6 
#
# 1 97.9174 39.8657 42.2608 0.0000 0.0000 0.0000
# 2 39.8657 61.0380 31.7093 0.0000 0.0000 0.0000
# 3 42.2608 31.7093 78.4053 0.0000 0.0000 0.0000
# 4 0.0000 0.0000 0.0000 17.9924 0.0000 0.0000
# 5 0.0000 0.0000 0.0000 0.0000 23.6793 0.0000
# 6 0.0000 0.0000 0.0000 0.0000 0.0000 23.6703
#
#
#
# Elastic Compliance Matrix: (Units=1/GPa)
#
#
# Indices 1 2 3 4 5 6 
#
# 1 0.015533 -0.007337 -0.005405 0.000000 0.000000 0.000000
# 2 -0.007337 0.024207 -0.005835 0.000000 0.000000 0.000000
# 3 -0.005405 -0.005835 0.018027 0.000000 0.000000 0.000000
# 4 0.000000 0.000000 0.000000 0.055579 0.000000 0.000000
# 5 0.000000 0.000000 0.000000 0.000000 0.042231 0.000000
# 6 0.000000 0.000000 0.000000 0.000000 0.000000 0.042247
#
#
# Mechanical properties :
#
#
# Convention : Reuss Voigt Hill
#
# Bulk Modulus (GPa) = 48.51405 51.67025 50.09215
# Shear Modulus (GPa) = 20.67412 21.30340 20.98876
#
# Velocity S-wave (km/s) = 3.59252 3.64678 3.61975
# Velocity P-wave (km/s) = 6.89159 7.07023 6.98148
#
# Compressibility (1/GPa) = 0.02061259
#
# Stress axis : x y z
#
# Youngs Moduli (GPa) = 64.38108 41.31108 55.47116
#
# Poissons Ratio (x) = 0.30310 0.29981
# Poissons Ratio (y) = 0.47236 0.32369
# Poissons Ratio (z) = 0.34797 0.24106
#
# Static dielectric constant tensor:
#      x y z
#    x 3.071120 0.000000 0.000000 
#    y 0.000000 2.975340 0.000000 
#    z 0.000000 0.000000 3.106690 
# 
# 
# High freq. dielectric constant tensor:
#      x y z
#    x 1.605510 0.000000 0.000000 
#    y 0.000000 1.614260 0.000000 
#    z 0.000000 0.000000 1.596800 
# 
# From -- ./inp_files/26722.got.cif
#   From: 2010.03.12/outbox.cif.g09.slc.cpg/sg51_14_cif.got.tgz:26722.got - 2010.04.16 13:43:02.
