data_PCOD8210646
_publ_section_title
;
Structure prediction by ZEFSAII (Michael W. Deem and Ramdas Pophale) SiO2 
 PCOD8210646
Probable space group: P M M A
;
_chemical_formula_sum "Si O2"
_cell_formula_units_Z 48
_cell_length_a 7.674893
_cell_length_b 10.036784
_cell_length_c 32.527181
_cell_angle_alpha 90.000000
_cell_angle_beta 90.000000
_cell_angle_gamma 90.000000
_cell_volume 2505.609192
_symmetry_space_group_name_H-M "P M M A"
_symmetry_group_IT_number 51
_symmetry_cell_setting 'orthorhombic'
loop_
_space_group_symop_operation_xyz
x,y,z
1/2-x,-y,z
1/2+x,-y,-z
-x,y,-z
-x,-y,-z
1/2+x,y,-z
1/2-x,y,z
x,-y,z
loop_
_atom_site_type_symbol
_atom_site_label
_atom_site_fract_x
_atom_site_fract_y
_atom_site_fract_z
Si Si1 0.455428 0.253007 0.594590
Si Si2 0.750000 0.658397 0.104117
Si Si3 0.547581 0.848087 0.753885
Si Si4 0.453329 0.650259 0.317281
Si Si5 0.055988 0.657983 0.044219
Si Si6 0.545378 0.500000 0.453040
Si Si7 0.750000 0.848877 0.181072
Si Si8 0.544650 0.000000 0.452009
O O1 0.250000 0.250058 0.589733
O O2 0.502671 0.266812 0.642089
O O3 0.539515 0.373956 0.569261
O O4 0.537396 0.124212 0.572577
O O5 0.750000 0.500000 0.113028
O O6 0.579210 0.703876 0.078946
O O7 0.750000 0.738903 0.146016
O O8 0.750000 0.822463 0.765841
O O9 0.479812 0.742277 0.720028
O O10 0.426070 0.825364 0.793144
O O11 0.524572 0.000000 0.737292
O O12 0.250000 0.632582 0.313239
O O13 0.538039 0.500000 0.316924
O O14 0.250000 0.709437 0.055644
O O15 0.053897 0.500000 0.041022
O O16 0.000000 0.717608 0.000000
O O17 0.750000 0.500000 0.446273
O O18 0.500000 0.500000 0.500000
O O19 0.750000 0.000000 0.163458
O O20 0.500000 0.000000 0.500000
O O21 0.750000 0.000000 0.447556
#
# Coordination Sequence:
#
# PCOD8210646 Si02
#       8
#     8   4   8   8   8   4   4   4
#     4  10  21  36  52  77 106 134 170 213 257 313
#     4  10  20  32  52  84 116 148 196 246 284 346
#     4   9  20  39  60  82 108 141 185 232 273 336
#     4  10  21  36  55  82 110 134 168 215 275 326
#     4   9  15  26  47  78 115 152 192 244 297 337
#     4  10  20  34  52  72 100 136 172 204 250 312
#     4  10  22  40  58  82 112 154 196 226 292 348
#     4  10  22  38  54  76 104 138 176 216 254 300
#
# _framework density 19.157018000000001
#
# number of rings (size 3 to 8) (size 9 to 14) (size 15 to 20)
#    0.000    2.333    1.667    0.500    2.333    2.667 
#    0.000    0.000    0.000    0.500    0.000    0.000 
#    0.000    0.000    0.000    0.000    0.000    0.000 
#
# Total GULP energy -594934.859242 kJ/mol
# GULP energy per Si atom -12394.476234 kJ/mol
# Density = 1.911342 g / cm^3
# Si number density = 19.157018 Si / 1000 Ang^3
#
#
#
# Elastic Constant Matrix: (Units=GPa)
#
#
# Indices 1 2 3 4 5 6 
#
# 1 81.3337 32.1687 46.7697 0.0000 0.0000 0.0000
# 2 32.1687 128.7959 84.6803 0.0000 0.0000 0.0000
# 3 46.7697 84.6803 146.5828 0.0000 0.0000 0.0000
# 4 0.0000 0.0000 0.0000 30.9000 0.0000 0.0000
# 5 0.0000 0.0000 0.0000 0.0000 30.1100 0.0000
# 6 0.0000 0.0000 0.0000 0.0000 0.0000 9.1316
#
#
#
# Elastic Compliance Matrix: (Units=1/GPa)
#
#
# Indices 1 2 3 4 5 6 
#
# 1 0.015133 -0.000976 -0.004265 0.000000 0.000000 0.000000
# 2 -0.000976 0.012582 -0.006957 0.000000 0.000000 0.000000
# 3 -0.004265 -0.006957 0.012202 0.000000 0.000000 0.000000
# 4 0.000000 0.000000 0.000000 0.032362 0.000000 0.000000
# 5 0.000000 0.000000 0.000000 0.000000 0.033212 0.000000
# 6 0.000000 0.000000 0.000000 0.000000 0.000000 0.109510
#
#
# Mechanical properties :
#
#
# Convention : Reuss Voigt Hill
#
# Bulk Modulus (GPa) = 64.42570 75.99441 70.21006
# Shear Modulus (GPa) = 20.44389 26.90124 23.67256
#
# Velocity S-wave (km/s) = 3.27031 3.75140 3.51908
# Velocity P-wave (km/s) = 6.92555 7.64979 7.29666
#
# Compressibility (1/GPa) = 0.01552176
#
# Stress axis : x y z
#
# Youngs Moduli (GPa) = 66.07902 79.47701 81.95291
#
# Poissons Ratio (x) = 0.07755 0.34952
# Poissons Ratio (y) = 0.06447 0.57018
# Poissons Ratio (z) = 0.28182 0.55295
#
# Static dielectric constant tensor:
#      x y z
#    x 3.630940 0.000000 0.000000 
#    y 0.000000 3.769710 0.000000 
#    z 0.000000 0.000000 3.401430 
# 
# 
# High freq. dielectric constant tensor:
#      x y z
#    x 1.748420 0.000000 0.000000 
#    y 0.000000 1.734910 0.000000 
#    z 0.000000 0.000000 1.734440 
# 
# From -- ./inp_files/37296.got.cif
#   From: 2010.03.12/outbox.cif.g09.slc.cpg/sg51_19_cif.got.tgz:37296.got - 2010.04.16 13:43:02.
