data_PCOD8210579
_publ_section_title
;
Structure prediction by ZEFSAII (Michael W. Deem and Ramdas Pophale) SiO2 
 PCOD8210579
Probable space group: P M M A
;
_chemical_formula_sum "Si O2"
_cell_formula_units_Z 64
_cell_length_a 13.691280
_cell_length_b 9.353014
_cell_length_c 26.121384
_cell_angle_alpha 90.000000
_cell_angle_beta 90.000000
_cell_angle_gamma 90.000000
_cell_volume 3344.966867
_symmetry_space_group_name_H-M "P M M A"
_symmetry_group_IT_number 51
_symmetry_cell_setting 'orthorhombic'
loop_
_space_group_symop_operation_xyz
x,y,z
1/2-x,-y,z
1/2+x,-y,-z
-x,y,-z
-x,-y,-z
1/2+x,y,-z
1/2-x,y,z
x,-y,z
loop_
_atom_site_type_symbol
_atom_site_label
_atom_site_fract_x
_atom_site_fract_y
_atom_site_fract_z
Si Si1 0.365393 0.839534 0.969224
Si Si2 0.859116 0.164247 0.623478
Si Si3 0.862236 0.331793 0.228917
Si Si4 0.860074 0.336398 0.933879
Si Si5 0.049092 0.164400 0.677434
Si Si6 0.451300 0.664567 0.877542
Si Si7 0.866362 0.338568 0.525456
Si Si8 0.865813 0.161408 0.430003
O O1 0.250000 0.841848 0.972579
O O2 0.393616 0.757852 0.918158
O O3 0.408373 0.000000 0.968330
O O4 0.404114 0.759079 0.020067
O O5 0.750000 0.213185 0.639999
O O6 0.900882 0.254376 0.575900
O O7 0.931924 0.185430 0.671447
O O8 0.858681 0.000000 0.605456
O O9 0.750000 0.282169 0.223907
O O10 0.869518 0.500000 0.236987
O O11 0.912940 0.259295 0.276778
O O12 0.921369 0.282122 0.178664
O O13 0.750000 0.290763 0.917796
O O14 0.861138 0.500000 0.953036
O O15 0.931747 0.316200 0.885261
O O16 0.099967 0.217367 0.625239
O O17 0.076005 0.000000 0.688796
O O18 0.419604 0.500000 0.885111
O O19 0.750000 0.334820 0.523319
O O20 0.906118 0.500000 0.527765
O O21 0.909681 0.263292 0.474458
O O22 0.750000 0.165519 0.431807
O O23 0.904583 0.000000 0.438764
#
# Coordination Sequence:
#
# PCOD8210579 Si02
#       8
#     8   8   8   8   8   8   8   8
#     4  10  20  32  49  78 113 144 175 215 262 307
#     4   9  18  34  54  74 100 134 169 207 253 304
#     4  10  22  39  57  78 105 134 165 209 263 310
#     4   9  18  33  53  77 107 143 179 213 251 300
#     4  10  21  36  55  77  99 130 174 217 255 302
#     4  10  20  35  55  77 103 139 180 216 254 305
#     4   9  17  29  47  73 103 133 165 203 249 302
#     4   9  17  30  48  70  98 131 165 203 250 304
#
# _framework density 19.133223000000001
#
# number of rings (size 3 to 8) (size 9 to 14) (size 15 to 20)
#    0.000    2.500    0.000    1.875    0.000    7.500 
#    0.000    4.375    0.000    0.750    0.000    0.000 
#    0.000    0.000    0.000    0.000    0.000    0.000 
#
# Total GULP energy -793605.516925 kJ/mol
# GULP energy per Si atom -12400.086202 kJ/mol
# Density = 1.908967 g / cm^3
# Si number density = 19.133223 Si / 1000 Ang^3
#
#
#
# Elastic Constant Matrix: (Units=GPa)
#
#
# Indices 1 2 3 4 5 6 
#
# 1 65.9723 35.8520 64.2531 0.0000 0.0000 0.0000
# 2 35.8520 82.9882 65.7883 0.0000 0.0000 0.0000
# 3 64.2531 65.7883 144.0061 0.0000 0.0000 0.0000
# 4 0.0000 0.0000 0.0000 16.5407 0.0000 0.0000
# 5 0.0000 0.0000 0.0000 0.0000 31.8412 0.0000
# 6 0.0000 0.0000 0.0000 0.0000 0.0000 19.4638
#
#
#
# Elastic Compliance Matrix: (Units=1/GPa)
#
#
# Indices 1 2 3 4 5 6 
#
# 1 0.027393 -0.003363 -0.010686 0.000000 0.000000 0.000000
# 2 -0.003363 0.019305 -0.007319 0.000000 0.000000 0.000000
# 3 -0.010686 -0.007319 0.015056 0.000000 0.000000 0.000000
# 4 0.000000 0.000000 0.000000 0.060457 0.000000 0.000000
# 5 0.000000 0.000000 0.000000 0.000000 0.031406 0.000000
# 6 0.000000 0.000000 0.000000 0.000000 0.000000 0.051378
#
#
# Mechanical properties :
#
#
# Convention : Reuss Voigt Hill
#
# Bulk Modulus (GPa) = 52.58196 69.41705 60.99951
# Shear Modulus (GPa) = 19.67981 22.04069 20.86025
#
# Velocity S-wave (km/s) = 3.21061 3.39773 3.30550
# Velocity P-wave (km/s) = 6.42539 7.19392 6.82049
#
# Compressibility (1/GPa) = 0.01901793
#
# Stress axis : x y z
#
# Youngs Moduli (GPa) = 36.50591 51.80121 66.42068
#
# Poissons Ratio (x) = 0.17420 0.70977
# Poissons Ratio (y) = 0.12276 0.48612
# Poissons Ratio (z) = 0.39010 0.37912
#
# Static dielectric constant tensor:
#      x y z
#    x 3.688280 0.000000 0.000000 
#    y 0.000000 3.600520 0.000000 
#    z 0.000000 0.000000 3.313280 
# 
# 
# High freq. dielectric constant tensor:
#      x y z
#    x 1.759750 0.000000 0.000000 
#    y 0.000000 1.739260 0.000000 
#    z 0.000000 0.000000 1.720880 
# 
# From -- ./inp_files/35597.got.cif
#   From: 2010.03.12/outbox.cif.g09.slc.cpg/sg51_18_cif.got.tgz:35597.got - 2010.04.16 13:43:02.
