data_PCOD8210409
_publ_section_title
;
Structure prediction by ZEFSAII (Michael W. Deem and Ramdas Pophale) SiO2 
 PCOD8210409
Probable space group: P M M A
;
_chemical_formula_sum "Si O2"
_cell_formula_units_Z 48
_cell_length_a 9.170620
_cell_length_b 9.830068
_cell_length_c 30.952159
_cell_angle_alpha 90.000000
_cell_angle_beta 90.000000
_cell_angle_gamma 90.000000
_cell_volume 2790.269602
_symmetry_space_group_name_H-M "P M M A"
_symmetry_group_IT_number 51
_symmetry_cell_setting 'orthorhombic'
loop_
_space_group_symop_operation_xyz
x,y,z
1/2-x,-y,z
1/2+x,-y,-z
-x,y,-z
-x,-y,-z
1/2+x,y,-z
1/2-x,y,z
x,-y,z
loop_
_atom_site_type_symbol
_atom_site_label
_atom_site_fract_x
_atom_site_fract_y
_atom_site_fract_z
Si Si1 0.578846 0.842302 0.872609
Si Si2 0.075437 0.848268 0.634419
Si Si3 0.581248 0.659198 0.195347
Si Si4 0.911187 0.837882 0.459921
Si Si5 0.922713 0.350081 0.292936
Si Si6 0.085501 0.838396 0.958605
O O1 0.750000 0.820071 0.879138
O O2 0.522698 0.750919 0.833585
O O3 0.498315 0.791261 0.915742
O O4 0.542716 0.000000 0.862857
O O5 0.250000 0.848183 0.634419
O O6 0.021364 0.797591 0.586969
O O7 0.009514 0.752244 0.671775
O O8 0.017390 0.000000 0.643829
O O9 0.750000 0.695199 0.186180
O O10 0.553142 0.500000 0.186295
O O11 0.538157 0.696570 0.244501
O O12 0.750000 0.776553 0.464064
O O13 0.000000 0.775042 0.500000
O O14 0.906348 0.000000 0.462749
O O15 0.750000 0.354933 0.297713
O O16 0.987465 0.500000 0.301837
O O17 0.250000 0.779789 0.957928
O O18 0.089195 0.000000 0.961447
O O19 0.000000 0.778570 0.000000
#
# Coordination Sequence:
#
# PCOD8210409 Si02
#       6
#     8   8   8   8   8   8
#     4  10  20  32  47  70  98 126 158 194 229 268
#     4   8  13  21  35  57  81 104 135 175 214 252
#     4   9  18  32  49  69  92 119 153 191 231 278
#     4   8  13  21  34  53  77 104 134 167 203 246
#     4   8  14  25  41  61  84 109 139 176 217 262
#     4   9  16  27  45  69  97 127 157 190 229 272
#
# _framework density 17.202639000000001
#
# number of rings (size 3 to 8) (size 9 to 14) (size 15 to 20)
#    0.000    3.333    0.000    3.000    0.000    4.000 
#    0.000    1.667    0.000    2.000    0.000    2.333 
#    0.000    0.000    0.000    0.000    0.000    0.000 
#
# Total GULP energy -594878.567000 kJ/mol
# GULP energy per Si atom -12393.303479 kJ/mol
# Density = 1.716349 g / cm^3
# Si number density = 17.202639 Si / 1000 Ang^3
#
#
#
# Elastic Constant Matrix: (Units=GPa)
#
#
# Indices 1 2 3 4 5 6 
#
# 1 71.6915 29.4588 57.3327 0.0000 0.0000 0.0000
# 2 29.4588 52.8729 63.7924 0.0000 0.0000 0.0000
# 3 57.3327 63.7924 168.2410 0.0000 0.0000 0.0000
# 4 0.0000 0.0000 0.0000 3.6696 0.0000 0.0000
# 5 0.0000 0.0000 0.0000 0.0000 26.2506 0.0000
# 6 0.0000 0.0000 0.0000 0.0000 0.0000 15.0401
#
#
#
# Elastic Compliance Matrix: (Units=1/GPa)
#
#
# Indices 1 2 3 4 5 6 
#
# 1 0.019970 -0.005374 -0.004767 0.000000 0.000000 0.000000
# 2 -0.005374 0.036308 -0.011936 0.000000 0.000000 0.000000
# 3 -0.004767 -0.011936 0.012094 0.000000 0.000000 0.000000
# 4 0.000000 0.000000 0.000000 0.272512 0.000000 0.000000
# 5 0.000000 0.000000 0.000000 0.000000 0.038094 0.000000
# 6 0.000000 0.000000 0.000000 0.000000 0.000000 0.066489
#
#
# Mechanical properties :
#
#
# Convention : Reuss Voigt Hill
#
# Bulk Modulus (GPa) = 41.29282 65.99701 53.64492
# Shear Modulus (GPa) = 10.04632 18.47347 14.25990
#
# Velocity S-wave (km/s) = 2.41923 3.28056 2.88225
# Velocity P-wave (km/s) = 5.64442 7.26617 6.50602
#
# Compressibility (1/GPa) = 0.02421728
#
# Stress axis : x y z
#
# Youngs Moduli (GPa) = 50.07623 27.54182 82.68457
#
# Poissons Ratio (x) = 0.14802 0.39419
# Poissons Ratio (y) = 0.26913 0.98690
# Poissons Ratio (z) = 0.23873 0.32873
#
# Static dielectric constant tensor:
#      x y z
#    x 2.997180 0.000000 0.000000 
#    y 0.000000 3.021400 0.000000 
#    z 0.000000 0.000000 3.510010 
# 
# 
# High freq. dielectric constant tensor:
#      x y z
#    x 1.631390 0.000000 0.000000 
#    y 0.000000 1.622750 0.000000 
#    z 0.000000 0.000000 1.681310 
# 
# From -- ./inp_files/34531.got.cif
#   From: 2010.03.12/outbox.cif.g09.slc.cpg/sg51_18_cif.got.tgz:34531.got - 2010.04.16 13:43:02.
