data_PCOD8210625
_publ_section_title
;
Structure prediction by ZEFSAII (Michael W. Deem and Ramdas Pophale) SiO2 
 PCOD8210625
Probable space group: P M M A
;
_chemical_formula_sum "Si O2"
_cell_formula_units_Z 36
_cell_length_a 9.378885
_cell_length_b 14.823546
_cell_length_c 14.587237
_cell_angle_alpha 90.000000
_cell_angle_beta 90.000000
_cell_angle_gamma 90.000000
_cell_volume 2028.039246
_symmetry_space_group_name_H-M "P M M A"
_symmetry_group_IT_number 51
_symmetry_cell_setting 'orthorhombic'
loop_
_space_group_symop_operation_xyz
x,y,z
1/2-x,-y,z
1/2+x,-y,-z
-x,y,-z
-x,-y,-z
1/2+x,y,-z
1/2-x,y,z
x,-y,z
loop_
_atom_site_type_symbol
_atom_site_label
_atom_site_fract_x
_atom_site_fract_y
_atom_site_fract_z
Si Si1 0.414506 0.304523 0.093132
Si Si2 0.915121 0.601823 0.590475
Si Si3 0.416438 0.232695 0.283345
Si Si4 0.088583 0.500000 0.089528
Si Si5 0.085123 0.894143 0.590089
O O1 0.250000 0.294586 0.065960
O O2 0.453963 0.236304 0.174985
O O3 0.444465 0.404468 0.138715
O O4 0.500000 0.283975 0.000000
O O5 0.750000 0.607501 0.564813
O O6 0.955290 0.500000 0.622835
O O7 0.954565 0.671430 0.670584
O O8 0.000000 0.630036 0.500000
O O9 0.250000 0.209252 0.298525
O O10 0.515231 0.154285 0.323059
O O11 0.250000 0.500000 0.057386
O O12 0.000000 0.500000 0.000000
O O13 0.250000 0.865992 0.578962
O O14 0.000000 0.862701 0.500000
O O15 0.068834 0.000000 0.606534
#
# Coordination Sequence:
#
# PCOD8210625 Si02
#       5
#     8   8   8   4   8
#     4   9  18  31  48  71 100 135 174 214 256 298
#     4   9  18  31  46  66  97 134 168 201 240 291
#     4  10  20  32  51  77 102 134 172 210 254 303
#     4   8  14  26  44  64  91 128 169 210 249 290
#     4  10  21  37  57  80 105 132 163 205 257 309
#
# _framework density 17.751135999999999
#
# number of rings (size 3 to 8) (size 9 to 14) (size 15 to 20)
#    0.000    2.667    0.000    1.333    1.556    4.889 
#    0.000    0.000    0.000    0.667    0.000    0.000 
#    0.000    0.000    0.000    0.000    0.000    0.000 
#
# Total GULP energy -446101.439833 kJ/mol
# GULP energy per Si atom -12391.706662 kJ/mol
# Density = 1.771073 g / cm^3
# Si number density = 17.751136 Si / 1000 Ang^3
#
#
#
# Elastic Constant Matrix: (Units=GPa)
#
#
# Indices 1 2 3 4 5 6 
#
# 1 82.8751 43.8246 60.0276 0.0000 0.0000 0.0000
# 2 43.8246 54.8474 47.3327 0.0000 0.0000 0.0000
# 3 60.0276 47.3327 116.1996 0.0000 0.0000 0.0000
# 4 0.0000 0.0000 0.0000 22.6475 0.0000 0.0000
# 5 0.0000 0.0000 0.0000 0.0000 28.7427 0.0000
# 6 0.0000 0.0000 0.0000 0.0000 0.0000 27.1892
#
#
#
# Elastic Compliance Matrix: (Units=1/GPa)
#
#
# Indices 1 2 3 4 5 6 
#
# 1 0.024205 -0.013184 -0.007134 0.000000 0.000000 0.000000
# 2 -0.013184 0.035298 -0.007567 0.000000 0.000000 0.000000
# 3 -0.007134 -0.007567 0.015373 0.000000 0.000000 0.000000
# 4 0.000000 0.000000 0.000000 0.044155 0.000000 0.000000
# 5 0.000000 0.000000 0.000000 0.000000 0.034792 0.000000
# 6 0.000000 0.000000 0.000000 0.000000 0.000000 0.036779
#
#
# Mechanical properties :
#
#
# Convention : Reuss Voigt Hill
#
# Bulk Modulus (GPa) = 52.34015 61.81020 57.07518
# Shear Modulus (GPa) = 19.78306 22.56501 21.17404
#
# Velocity S-wave (km/s) = 3.34199 3.56924 3.45748
# Velocity P-wave (km/s) = 6.66644 7.20291 6.93986
#
# Compressibility (1/GPa) = 0.01910579
#
# Stress axis : x y z
#
# Youngs Moduli (GPa) = 41.31307 28.33061 65.04715
#
# Poissons Ratio (x) = 0.37352 0.46403
# Poissons Ratio (y) = 0.54469 0.49222
# Poissons Ratio (z) = 0.29472 0.21438
#
# Static dielectric constant tensor:
#      x y z
#    x 3.302080 0.000000 0.000000 
#    y 0.000000 3.136890 0.000000 
#    z 0.000000 0.000000 3.110870 
# 
# 
# High freq. dielectric constant tensor:
#      x y z
#    x 1.686020 0.000000 0.000000 
#    y 0.000000 1.675850 0.000000 
#    z 0.000000 0.000000 1.673400 
# 
# From -- ./inp_files/15331.got.cif
#   From: 2010.03.12/outbox.cif.g09.slc.cpg/sg51_8_cif.got.tgz:15331.got - 2010.04.16 13:43:02.
