data_PCOD8210241
_publ_section_title
;
Structure prediction by ZEFSAII (Michael W. Deem and Ramdas Pophale) SiO2 
 PCOD8210241
Probable space group: P M M A
;
_chemical_formula_sum "Si O2"
_cell_formula_units_Z 48
_cell_length_a 8.985417
_cell_length_b 20.338141
_cell_length_c 20.547442
_cell_angle_alpha 90.000000
_cell_angle_beta 90.000000
_cell_angle_gamma 90.000000
_cell_volume 3754.976765
_symmetry_space_group_name_H-M "P M M A"
_symmetry_group_IT_number 51
_symmetry_cell_setting 'orthorhombic'
loop_
_space_group_symop_operation_xyz
x,y,z
1/2-x,-y,z
1/2+x,-y,-z
-x,y,-z
-x,-y,-z
1/2+x,y,-z
1/2-x,y,z
x,-y,z
loop_
_atom_site_type_symbol
_atom_site_label
_atom_site_fract_x
_atom_site_fract_y
_atom_site_fract_z
Si Si1 0.920578 0.422143 0.678124
Si Si2 0.576120 0.071422 0.570195
Si Si3 0.918020 0.578411 0.935798
Si Si4 0.077501 0.194027 0.569413
Si Si5 0.423450 0.339346 0.569671
Si Si6 0.917820 0.578266 0.192175
O O1 0.750000 0.399289 0.677608
O O2 0.935174 0.500000 0.672458
O O3 0.005661 0.391915 0.617424
O O4 0.994199 0.396230 0.744745
O O5 0.500000 0.068952 0.500000
O O6 0.750000 0.085218 0.562415
O O7 0.500838 0.133281 0.609106
O O8 0.549348 0.000000 0.604705
O O9 0.750000 0.605283 0.935399
O O10 0.918987 0.500000 0.935538
O O11 0.002206 0.606021 0.872306
O O12 0.000000 0.605438 0.000000
O O13 0.250000 0.177442 0.561549
O O14 0.054081 0.266173 0.600940
O O15 0.000000 0.197553 0.500000
O O16 0.500000 0.346229 0.500000
O O17 0.250000 0.355081 0.560644
O O18 0.750000 0.605689 0.194584
O O19 0.917729 0.500000 0.190334
#
# Coordination Sequence:
#
# PCOD8210241 Si02
#       6
#     8   8   8   8   8   8
#     4  10  20  32  44  56  68  84 108 139 177 219
#     4   9  15  21  31  48  68  88 107 125 148 182
#     4   9  15  22  33  50  71  92 112 132 155 188
#     4   9  16  25  37  51  66  84 105 129 159 196
#     4  10  20  32  44  56  68  84 108 139 177 218
#     4   9  16  26  39  53  69  88 108 132 164 201
#
# _framework density 12.783035
#
# number of rings (size 3 to 8) (size 9 to 14) (size 15 to 20)
#    0.000    2.667    0.000    4.000    0.000    8.333 
#    0.000    0.000    0.000    0.000    0.000    0.000 
#    0.000    0.000    0.000    0.000    0.000    0.000 
#
# Total GULP energy -594755.649968 kJ/mol
# GULP energy per Si atom -12390.742708 kJ/mol
# Density = 1.275394 g / cm^3
# Si number density = 12.783035 Si / 1000 Ang^3
#
#
#
# Elastic Constant Matrix: (Units=GPa)
#
#
# Indices 1 2 3 4 5 6 
#
# 1 120.7591 28.8398 45.4877 0.0000 0.0000 0.0000
# 2 28.8398 29.0417 22.1766 0.0000 0.0000 0.0000
# 3 45.4877 22.1766 74.7856 0.0000 0.0000 0.0000
# 4 0.0000 0.0000 0.0000 0.0074 0.0000 0.0000
# 5 0.0000 0.0000 0.0000 0.0000 21.1857 0.0000
# 6 0.0000 0.0000 0.0000 0.0000 0.0000 16.7665
#
#
#
# Elastic Compliance Matrix: (Units=1/GPa)
#
#
# Indices 1 2 3 4 5 6 
#
# 1 0.012106 -0.008272 -0.004910 0.000000 0.000000 0.000000
# 2 -0.008272 0.050165 -0.009844 0.000000 0.000000 0.000000
# 3 -0.004910 -0.009844 0.019277 0.000000 0.000000 0.000000
# 4 0.000000 0.000000 0.000000134.649192 0.000000 0.000000
# 5 0.000000 0.000000 0.000000 0.000000 0.047202 0.000000
# 6 0.000000 0.000000 0.000000 0.000000 0.000000 0.059643
#
#
# Mechanical properties :
#
#
# Convention : Reuss Voigt Hill
#
# Bulk Modulus (GPa) = 28.17307 46.39940 37.28624
# Shear Modulus (GPa) = 0.03707 16.13073 8.08390
#
# Velocity S-wave (km/s) = 0.17047 3.55616 2.51747
# Velocity P-wave (km/s) = 4.70383 7.29644 6.13857
#
# Compressibility (1/GPa) = 0.03549488
#
# Stress axis : x y z
#
# Youngs Moduli (GPa) = 82.60203 19.93410 51.87405
#
# Poissons Ratio (x) = 0.16490 0.25472
# Poissons Ratio (y) = 0.68332 0.51066
# Poissons Ratio (z) = 0.40561 0.19624
#
# Static dielectric constant tensor:
#      x y z
#    x 2.827580 0.000000 0.000000 
#    y 0.000000 2.964060 0.000000 
#    z 0.000000 0.000000 2.366700 
# 
# 
# High freq. dielectric constant tensor:
#      x y z
#    x 1.512450 0.000000 0.000000 
#    y 0.000000 1.452080 0.000000 
#    z 0.000000 0.000000 1.443340 
# 
# From -- ./inp_files/28076.got.cif
#   From: 2010.03.12/outbox.cif.g09.slc.cpg/sg51_15_cif.got.tgz:28076.got - 2010.04.16 13:43:02.
