data_PCOD8210197
_publ_section_title
;
Structure prediction by ZEFSAII (Michael W. Deem and Ramdas Pophale) SiO2 
 PCOD8210197
Probable space group: P M M A
;
_chemical_formula_sum "Si O2"
_cell_formula_units_Z 64
_cell_length_a 18.946516
_cell_length_b 9.205444
_cell_length_c 21.617395
_cell_angle_alpha 90.000000
_cell_angle_beta 90.000000
_cell_angle_gamma 90.000000
_cell_volume 3770.313469
_symmetry_space_group_name_H-M "P M M A"
_symmetry_group_IT_number 51
_symmetry_cell_setting 'orthorhombic'
loop_
_space_group_symop_operation_xyz
x,y,z
1/2-x,-y,z
1/2+x,-y,-z
-x,y,-z
-x,-y,-z
1/2+x,y,-z
1/2-x,y,z
x,-y,z
loop_
_atom_site_type_symbol
_atom_site_label
_atom_site_fract_x
_atom_site_fract_y
_atom_site_fract_z
Si Si1 0.863043 0.658801 0.272375
Si Si2 0.667568 0.164880 0.897000
Si Si3 0.829845 0.829375 0.037342
Si Si4 0.438089 0.673465 0.187253
Si Si5 0.478219 0.657607 0.314370
Si Si6 0.829207 0.168102 0.389058
Si Si7 0.089726 0.671170 0.857192
Si Si8 0.037872 0.674043 0.562815
O O1 0.826135 0.500000 0.279742
O O2 0.827922 0.774000 0.318492
O O3 0.859311 0.712731 0.200976
O O4 0.944537 0.637155 0.286692
O O5 0.750000 0.181365 0.884263
O O6 0.628561 0.269569 0.849644
O O7 0.643081 0.000000 0.885305
O O8 0.649696 0.211161 0.967070
O O9 0.750000 0.778398 0.051145
O O10 0.883620 0.748141 0.081476
O O11 0.836753 0.000000 0.047896
O O12 0.436131 0.500000 0.190638
O O13 0.434268 0.735475 0.258983
O O14 0.509844 0.726213 0.154216
O O15 0.443944 0.500000 0.327621
O O16 0.487700 0.736031 0.381223
O O17 0.750000 0.187135 0.416344
O O18 0.884243 0.255850 0.432177
O O19 0.851581 0.000000 0.388007
O O20 0.091256 0.500000 0.868082
O O21 0.046894 0.500000 0.567760
O O22 0.000000 0.722275 0.500000
#
# Coordination Sequence:
#
# PCOD8210197 Si02
#       8
#     8   8   8   8   8   8   8   8
#     4   8  15  29  46  63  88 122 154 184 222 268
#     4   9  19  35  50  64  86 117 155 198 240 282
#     4   9  19  34  47  60  85 122 158 193 235 282
#     4   9  17  30  49  71  94 118 145 185 235 281
#     4   7  12  26  46  68  93 114 137 177 224 266
#     4  10  20  31  44  67  99 131 162 197 234 272
#     4   9  18  31  47  70  97 122 151 191 237 281
#     4   9  17  31  53  76  96 125 163 197 231 274
#
# _framework density 16.974716000000001
#
# number of rings (size 3 to 8) (size 9 to 14) (size 15 to 20)
#    0.000    3.250    0.000    3.375    0.000    4.250 
#    0.000   11.250    0.000    0.750    0.000    5.250 
#    0.000    0.000    0.000    0.000    0.000    0.000 
#
# Total GULP energy -792857.949249 kJ/mol
# GULP energy per Si atom -12388.405457 kJ/mol
# Density = 1.693608 g / cm^3
# Si number density = 16.974716 Si / 1000 Ang^3
#
#
#
# Elastic Constant Matrix: (Units=GPa)
#
#
# Indices 1 2 3 4 5 6 
#
# 1 61.4014 28.9723 57.4542 0.0000 0.0000 0.0000
# 2 28.9723 45.4152 37.0422 0.0000 0.0000 0.0000
# 3 57.4542 37.0422 134.7950 0.0000 0.0000 0.0000
# 4 0.0000 0.0000 0.0000 13.5527 0.0000 0.0000
# 5 0.0000 0.0000 0.0000 0.0000 18.5772 0.0000
# 6 0.0000 0.0000 0.0000 0.0000 0.0000 26.8757
#
#
#
# Elastic Compliance Matrix: (Units=1/GPa)
#
#
# Indices 1 2 3 4 5 6 
#
# 1 0.031270 -0.011700 -0.010113 0.000000 0.000000 0.000000
# 2 -0.011700 0.032758 -0.004015 0.000000 0.000000 0.000000
# 3 -0.010113 -0.004015 0.012833 0.000000 0.000000 0.000000
# 4 0.000000 0.000000 0.000000 0.073786 0.000000 0.000000
# 5 0.000000 0.000000 0.000000 0.000000 0.053830 0.000000
# 6 0.000000 0.000000 0.000000 0.000000 0.000000 0.037208
#
#
# Mechanical properties :
#
#
# Convention : Reuss Voigt Hill
#
# Bulk Modulus (GPa) = 39.67601 54.28322 46.97962
# Shear Modulus (GPa) = 16.57046 19.67729 18.12388
#
# Velocity S-wave (km/s) = 3.12779 3.40841 3.27111
# Velocity P-wave (km/s) = 6.03891 6.89478 6.48099
#
# Compressibility (1/GPa) = 0.02520415
#
# Stress axis : x y z
#
# Youngs Moduli (GPa) = 31.97972 30.52711 77.92658
#
# Poissons Ratio (x) = 0.35716 0.78808
# Poissons Ratio (y) = 0.37416 0.31289
# Poissons Ratio (z) = 0.32341 0.12257
#
# Static dielectric constant tensor:
#      x y z
#    x 2.964550 0.000000 0.000000 
#    y 0.000000 2.946130 0.000000 
#    z 0.000000 0.000000 3.446000 
# 
# 
# High freq. dielectric constant tensor:
#      x y z
#    x 1.631220 0.000000 0.000000 
#    y 0.000000 1.634110 0.000000 
#    z 0.000000 0.000000 1.656070 
# 
# From -- ./inp_files/34127.got.cif
#   From: 2010.03.12/outbox.cif.g09.slc.cpg/sg51_18_cif.got.tgz:34127.got - 2010.04.16 13:43:02.
