data_PCOD8210115
_publ_section_title
;
Structure prediction by ZEFSAII (Michael W. Deem and Ramdas Pophale) SiO2 
 PCOD8210115
Probable space group: P M M A
;
_chemical_formula_sum "Si O2"
_cell_formula_units_Z 38
_cell_length_a 15.687105
_cell_length_b 10.235688
_cell_length_c 11.603552
_cell_angle_alpha 90.000000
_cell_angle_beta 90.000000
_cell_angle_gamma 90.000000
_cell_volume 1863.162763
_symmetry_space_group_name_H-M "P M M A"
_symmetry_group_IT_number 51
_symmetry_cell_setting 'orthorhombic'
loop_
_space_group_symop_operation_xyz
x,y,z
1/2-x,-y,z
1/2+x,-y,-z
-x,y,-z
-x,-y,-z
1/2+x,y,-z
1/2-x,y,z
x,-y,z
loop_
_atom_site_type_symbol
_atom_site_label
_atom_site_fract_x
_atom_site_fract_y
_atom_site_fract_z
Si Si1 0.432107 0.000000 0.102278
Si Si2 0.750000 0.720047 0.857300
Si Si3 0.102154 0.648159 0.724289
Si Si4 0.850883 0.347522 0.524407
Si Si5 0.250000 0.344473 0.884078
Si Si6 0.750000 0.000000 0.890312
Si Si7 0.919622 0.737303 0.754278
O O1 0.439111 0.875860 0.186502
O O2 0.339189 0.000000 0.038600
O O3 0.500000 0.000000 0.000000
O O4 0.750000 0.870301 0.809939
O O5 0.838848 0.658112 0.811569
O O6 0.750000 0.726016 0.994010
O O7 0.131891 0.500000 0.710997
O O8 0.115452 0.709754 0.597569
O O9 0.166797 0.709320 0.817331
O O10 0.006173 0.656199 0.771064
O O11 0.750000 0.330110 0.533929
O O12 0.876962 0.500000 0.542175
O O13 0.897707 0.256560 0.618712
O O14 0.250000 0.500000 0.905251
#
# Coordination Sequence:
#
# PCOD8210115 Si02
#       7
#     4   4   8   8   4   2   8
#     4  10  24  42  61  86 118 157 201 242 292 357
#     4  10  22  37  57  84 114 153 204 248 293 351
#     4  10  21  38  60  87 121 160 194 238 301 364
#     4  10  19  37  63  89 119 155 198 245 300 360
#     4  10  22  37  54  83 125 160 190 235 292 365
#     4   8  20  40  62  74 104 152 198 242 284 332
#     4  11  22  38  62  87 113 154 201 250 298 346
#
# _framework density 20.395427999999999
#
# number of rings (size 3 to 8) (size 9 to 14) (size 15 to 20)
#    0.000    1.895    2.105    1.263    5.895    3.368 
#    0.000    4.211    0.000    0.000    0.000    0.000 
#    0.000    0.000    0.000    0.000    0.000    0.000 
#
# Total GULP energy -470781.174614 kJ/mol
# GULP energy per Si atom -12388.978279 kJ/mol
# Density = 2.034901 g / cm^3
# Si number density = 20.395428 Si / 1000 Ang^3
#
#
#
# Elastic Constant Matrix: (Units=GPa)
#
#
# Indices 1 2 3 4 5 6 
#
# 1 167.5465 4.8772 51.8510 0.0000 0.0000 0.0000
# 2 4.8772 40.9942 20.9101 0.0000 0.0000 0.0000
# 3 51.8510 20.9101 133.6563 0.0000 0.0000 0.0000
# 4 0.0000 0.0000 0.0000 21.3327 0.0000 0.0000
# 5 0.0000 0.0000 0.0000 0.0000 42.6543 0.0000
# 6 0.0000 0.0000 0.0000 0.0000 0.0000 19.5572
#
#
#
# Elastic Compliance Matrix: (Units=1/GPa)
#
#
# Indices 1 2 3 4 5 6 
#
# 1 0.006796 0.000583 -0.002727 0.000000 0.000000 0.000000
# 2 0.000583 0.026559 -0.004381 0.000000 0.000000 0.000000
# 3 -0.002727 -0.004381 0.009225 0.000000 0.000000 0.000000
# 4 0.000000 0.000000 0.000000 0.046876 0.000000 0.000000
# 5 0.000000 0.000000 0.000000 0.000000 0.023444 0.000000
# 6 0.000000 0.000000 0.000000 0.000000 0.000000 0.051132
#
#
# Mechanical properties :
#
#
# Convention : Reuss Voigt Hill
#
# Bulk Modulus (GPa) = 33.86585 55.27485 44.57035
# Shear Modulus (GPa) = 26.74838 34.34611 30.54724
#
# Velocity S-wave (km/s) = 3.62538 4.10812 3.87428
# Velocity P-wave (km/s) = 5.84510 7.04717 6.47409
#
# Compressibility (1/GPa) = 0.02952827
#
# Stress axis : x y z
#
# Youngs Moduli (GPa) = 147.15391 37.65195 108.39643
#
# Poissons Ratio (x) = -0.02194 0.29565
# Poissons Ratio (y) = -0.08575 0.47490
# Poissons Ratio (z) = 0.40136 0.16496
#
# Static dielectric constant tensor:
#      x y z
#    x 4.040540 0.000000 0.000000 
#    y 0.000000 3.386950 0.000000 
#    z 0.000000 0.000000 3.728100 
# 
# 
# High freq. dielectric constant tensor:
#      x y z
#    x 1.826020 0.000000 0.000000 
#    y 0.000000 1.749740 0.000000 
#    z 0.000000 0.000000 1.794660 
# 
# From -- ./inp_files/16263.got.cif
#   From: 2010.03.12/outbox.cif.g09.slc.cpg/sg51_9_cif.got.tgz:16263.got - 2010.04.16 13:43:02.
