data_PCOD8210221
_publ_section_title
;
Structure prediction by ZEFSAII (Michael W. Deem and Ramdas Pophale) SiO2 
 PCOD8210221
Probable space group: P M M A
;
_chemical_formula_sum "Si O2"
_cell_formula_units_Z 64
_cell_length_a 30.419518
_cell_length_b 8.802756
_cell_length_c 14.340342
_cell_angle_alpha 90.000000
_cell_angle_beta 90.000000
_cell_angle_gamma 90.000000
_cell_volume 3839.993606
_symmetry_space_group_name_H-M "P M M A"
_symmetry_group_IT_number 51
_symmetry_cell_setting 'orthorhombic'
loop_
_space_group_symop_operation_xyz
x,y,z
1/2-x,-y,z
1/2+x,-y,-z
-x,y,-z
-x,-y,-z
1/2+x,y,-z
1/2-x,y,z
x,-y,z
loop_
_atom_site_type_symbol
_atom_site_label
_atom_site_fract_x
_atom_site_fract_y
_atom_site_fract_z
Si Si1 0.573666 0.825996 0.740051
Si Si2 0.017722 0.323582 0.737488
Si Si3 0.042472 0.324175 0.945680
Si Si4 0.701317 0.819869 0.849481
Si Si5 0.043957 0.822496 0.557080
Si Si6 0.114346 0.174813 0.061286
Si Si7 0.201203 0.675255 0.346815
Si Si8 0.886448 0.325538 0.570530
O O1 0.522868 0.789042 0.728107
O O2 0.586423 0.798197 0.845996
O O3 0.600373 0.709428 0.676648
O O4 0.582012 0.000000 0.708781
O O5 0.003792 0.500000 0.729744
O O6 0.041158 0.291847 0.835678
O O7 0.048814 0.276208 0.651421
O O8 0.043058 0.500000 0.969936
O O9 0.089147 0.258632 0.978557
O O10 0.000000 0.251929 0.000000
O O11 0.750000 0.760496 0.879145
O O12 0.663987 0.760329 0.921750
O O13 0.689382 0.770498 0.745073
O O14 0.699593 0.000000 0.848881
O O15 0.087527 0.785037 0.498213
O O16 0.000000 0.775448 0.500000
O O17 0.043470 0.000000 0.580763
O O18 0.116737 0.000000 0.033242
O O19 0.250000 0.718156 0.383689
O O20 0.198782 0.500000 0.316797
O O21 0.166272 0.707015 0.430375
O O22 0.897351 0.500000 0.545763
#
# Coordination Sequence:
#
# PCOD8210221 Si02
#       8
#     8   8   8   8   8   8   8   8
#     4  11  20  30  46  71 102 132 167 204 240 282
#     4  11  22  36  52  70  96 130 169 206 244 289
#     4  10  21  35  50  71  97 128 165 202 242 288
#     4   9  17  30  47  69  99 132 165 200 239 287
#     4  11  23  36  51  72  99 130 165 205 246 289
#     4  10  20  31  47  72  99 133 169 200 240 287
#     4   9  18  31  47  71 101 130 162 200 243 290
#     4  11  21  32  50  73  98 134 170 201 241 290
#
# _framework density 16.666695000000001
#
# number of rings (size 3 to 8) (size 9 to 14) (size 15 to 20)
#    0.000    1.750    3.750    1.500    0.000    3.250 
#    0.000    0.000    0.000    0.000    0.000    0.875 
#    0.000    1.000    0.000    0.000    0.000    0.000 
#
# Total GULP energy -793380.720856 kJ/mol
# GULP energy per Si atom -12396.573763 kJ/mol
# Density = 1.662876 g / cm^3
# Si number density = 16.666695 Si / 1000 Ang^3
#
#
#
# Elastic Constant Matrix: (Units=GPa)
#
#
# Indices 1 2 3 4 5 6 
#
# 1 114.0973 19.6467 45.2022 0.0000 0.0000 0.0000
# 2 19.6467 31.8878 29.9698 0.0000 0.0000 0.0000
# 3 45.2022 29.9698 80.4582 0.0000 0.0000 0.0000
# 4 0.0000 0.0000 0.0000 24.5348 0.0000 0.0000
# 5 0.0000 0.0000 0.0000 0.0000 24.2599 0.0000
# 6 0.0000 0.0000 0.0000 0.0000 0.0000 20.5159
#
#
#
# Elastic Compliance Matrix: (Units=1/GPa)
#
#
# Indices 1 2 3 4 5 6 
#
# 1 0.011322 -0.001535 -0.005789 0.000000 0.000000 0.000000
# 2 -0.001535 0.048461 -0.017189 0.000000 0.000000 0.000000
# 3 -0.005789 -0.017189 0.022084 0.000000 0.000000 0.000000
# 4 0.000000 0.000000 0.000000 0.040758 0.000000 0.000000
# 5 0.000000 0.000000 0.000000 0.000000 0.041220 0.000000
# 6 0.000000 0.000000 0.000000 0.000000 0.000000 0.048743
#
#
# Mechanical properties :
#
#
# Convention : Reuss Voigt Hill
#
# Bulk Modulus (GPa) = 30.44970 46.23117 38.34043
# Shear Modulus (GPa) = 18.34454 22.63711 20.49083
#
# Velocity S-wave (km/s) = 3.32123 3.68941 3.51015
# Velocity P-wave (km/s) = 5.74604 6.77848 6.28350
#
# Compressibility (1/GPa) = 0.03284105
#
# Stress axis : x y z
#
# Youngs Moduli (GPa) = 88.32149 20.63535 45.28182
#
# Poissons Ratio (x) = 0.03167 0.26215
# Poissons Ratio (y) = 0.13556 0.77834
# Poissons Ratio (z) = 0.51132 0.35470
#
# Static dielectric constant tensor:
#      x y z
#    x 3.438260 0.000000 0.000000 
#    y 0.000000 3.110060 0.000000 
#    z 0.000000 0.000000 2.958240 
# 
# 
# High freq. dielectric constant tensor:
#      x y z
#    x 1.639780 0.000000 0.000000 
#    y 0.000000 1.645680 0.000000 
#    z 0.000000 0.000000 1.610590 
# 
# From -- ./inp_files/26708.got.cif
#   From: 2010.03.12/outbox.cif.g09.slc.cpg/sg51_14_cif.got.tgz:26708.got - 2010.04.16 13:43:02.
