data_PCOD8210930
_publ_section_title
;
Structure prediction by ZEFSAII (Michael W. Deem and Ramdas Pophale) SiO2 
 PCOD8210930
Probable space group: P M M A
;
_chemical_formula_sum "Si O2"
_cell_formula_units_Z 48
_cell_length_a 9.974734
_cell_length_b 29.524569
_cell_length_c 8.812539
_cell_angle_alpha 90.000000
_cell_angle_beta 90.000000
_cell_angle_gamma 90.000000
_cell_volume 2595.290288
_symmetry_space_group_name_H-M "P M M A"
_symmetry_group_IT_number 51
_symmetry_cell_setting 'orthorhombic'
loop_
_space_group_symop_operation_xyz
x,y,z
1/2-x,-y,z
1/2+x,-y,-z
-x,y,-z
-x,-y,-z
1/2+x,y,-z
1/2-x,y,z
x,-y,z
loop_
_atom_site_type_symbol
_atom_site_label
_atom_site_fract_x
_atom_site_fract_y
_atom_site_fract_z
Si Si1 0.250000 0.552116 0.690003
Si Si2 0.495598 0.394104 0.319273
Si Si3 0.903056 0.051803 0.865288
Si Si4 0.904229 0.869411 0.642077
Si Si5 0.907291 0.701815 0.644258
Si Si6 0.402349 0.787106 0.140751
Si Si7 0.250000 0.449883 0.327415
O O1 0.250000 0.500000 0.752377
O O2 0.373695 0.582099 0.750495
O O3 0.250000 0.549907 0.509069
O O4 0.500000 0.394039 0.500000
O O5 0.468441 0.342265 0.269540
O O6 0.377088 0.425055 0.258231
O O7 0.750000 0.058154 0.921376
O O8 0.930949 0.081800 0.717308
O O9 0.933009 0.000000 0.819563
O O10 0.000000 0.067880 0.000000
O O11 0.750000 0.864505 0.588725
O O12 0.941556 0.830979 0.762612
O O13 0.000000 0.863670 0.500000
O O14 0.750000 0.693762 0.597071
O O15 0.920522 0.742933 0.758170
O O16 0.000000 0.713228 0.500000
O O17 0.250000 0.791116 0.081398
O O18 0.500000 0.783661 0.000000
O O19 0.250000 0.500000 0.261790
#
# Coordination Sequence:
#
# PCOD8210930 Si02
#       7
#     4   8   8   8   8   8   4
#     4   9  16  24  36  58  91 129 165 199 238 293
#     4   9  16  25  38  60  91 126 162 199 243 296
#     4   9  18  33  53  79 111 148 189 230 270 314
#     4  10  21  36  55  80 111 143 179 223 270 320
#     4  10  20  33  51  74 102 132 168 210 255 310
#     4  10  22  39  56  78 104 133 173 218 264 316
#     4   9  14  22  36  56  87 127 161 193 238 293
#
# _framework density 18.495042000000002
#
# number of rings (size 3 to 8) (size 9 to 14) (size 15 to 20)
#    0.000    2.500    0.833    1.500    3.500    4.333 
#    0.000    0.000    0.000    0.000    0.000    0.000 
#    0.000    4.000    0.000    0.000    0.000    0.000 
#
# Total GULP energy -595025.202876 kJ/mol
# GULP energy per Si atom -12396.358393 kJ/mol
# Density = 1.845295 g / cm^3
# Si number density = 18.495042 Si / 1000 Ang^3
#
#
#
# Elastic Constant Matrix: (Units=GPa)
#
#
# Indices 1 2 3 4 5 6 
#
# 1 139.2291 59.2838 54.9141 0.0000 0.0000 0.0000
# 2 59.2838 123.3643 37.2222 0.0000 0.0000 0.0000
# 3 54.9141 37.2222 62.3841 0.0000 0.0000 0.0000
# 4 0.0000 0.0000 0.0000 -14.6050 0.0000 0.0000
# 5 0.0000 0.0000 0.0000 0.0000 32.6251 0.0000
# 6 0.0000 0.0000 0.0000 0.0000 0.0000 34.6231
#
#
#
# Elastic Compliance Matrix: (Units=1/GPa)
#
#
# Indices 1 2 3 4 5 6 
#
# 1 0.011913 -0.003123 -0.008623 0.000000 0.000000 0.000000
# 2 -0.003123 0.010705 -0.003638 0.000000 0.000000 0.000000
# 3 -0.008623 -0.003638 0.025791 0.000000 0.000000 0.000000
# 4 0.000000 0.000000 0.000000 -0.068470 0.000000 0.000000
# 5 0.000000 0.000000 0.000000 0.000000 0.030651 0.000000
# 6 0.000000 0.000000 0.000000 0.000000 0.000000 0.028882
#
#
# Mechanical properties :
#
#
# Convention : Reuss Voigt Hill
#
# Bulk Modulus (GPa) = 56.68838 69.75751 63.22294
# Shear Modulus (GPa) = 65.68389 22.09914 43.89151
#
# Velocity S-wave (km/s) = 5.96585 3.46044 4.87678
# Velocity P-wave (km/s) = 8.84151 7.33246 8.12211
#
# Compressibility (1/GPa) = 0.01764030
#
# Stress axis : x y z
#
# Youngs Moduli (GPa) = 83.93843 93.41809 38.77309
#
# Poissons Ratio (x) = 0.29176 0.33436
# Poissons Ratio (y) = 0.26216 0.14105
# Poissons Ratio (z) = 0.72384 0.33983
#
# Static dielectric constant tensor:
#      x y z
#    x 3.649120 0.000000 0.000000 
#    y 0.000000 3.728120 0.000000 
#    z 0.000000 0.000000 2.815480 
# 
# 
# High freq. dielectric constant tensor:
#      x y z
#    x 1.731300 0.000000 0.000000 
#    y 0.000000 1.742290 0.000000 
#    z 0.000000 0.000000 1.661520 
# 
# From -- ./inp_files/6286.got.cif
#   From: 2010.03.12/outbox.cif.g09.slc.cpg/sg51_4_cif.got.tgz:6286.got - 2010.04.16 13:43:02.
