data_PCOD8210396
_publ_section_title
;
Structure prediction by ZEFSAII (Michael W. Deem and Ramdas Pophale) SiO2 
 PCOD8210396
Probable space group: P M M A
;
_chemical_formula_sum "Si O2"
_cell_formula_units_Z 64
_cell_length_a 9.082211
_cell_length_b 18.738987
_cell_length_c 23.509750
_cell_angle_alpha 90.000000
_cell_angle_beta 90.000000
_cell_angle_gamma 90.000000
_cell_volume 4001.158062
_symmetry_space_group_name_H-M "P M M A"
_symmetry_group_IT_number 51
_symmetry_cell_setting 'orthorhombic'
loop_
_space_group_symop_operation_xyz
x,y,z
1/2-x,-y,z
1/2+x,-y,-z
-x,y,-z
-x,-y,-z
1/2+x,y,-z
1/2-x,y,z
x,-y,z
loop_
_atom_site_type_symbol
_atom_site_label
_atom_site_fract_x
_atom_site_fract_y
_atom_site_fract_z
Si Si1 0.421897 0.301420 0.335187
Si Si2 0.922134 0.354300 0.834859
Si Si3 0.922781 0.792102 0.557661
Si Si4 0.080241 0.918561 0.616297
Si Si5 0.576779 0.921528 0.253560
Si Si6 0.080222 0.417627 0.727576
Si Si7 0.918171 0.212430 0.773143
Si Si8 0.421499 0.417269 0.941450
O O1 0.250000 0.320118 0.328709
O O2 0.460677 0.268397 0.396066
O O3 0.515373 0.373395 0.325747
O O4 0.470016 0.245270 0.286894
O O5 0.750000 0.373348 0.839939
O O6 0.945640 0.270316 0.822508
O O7 0.989678 0.401727 0.784662
O O8 0.004849 0.369922 0.893072
O O9 0.750000 0.799092 0.547805
O O10 0.000000 0.766937 0.500000
O O11 0.981466 0.869150 0.576483
O O12 0.250000 0.895430 0.610211
O O13 0.027120 0.910280 0.681271
O O14 0.058819 0.000000 0.596142
O O15 0.750000 0.916603 0.248674
O O16 0.508011 0.859821 0.214191
O O17 0.523632 0.000000 0.232765
O O18 0.250000 0.396906 0.738033
O O19 0.063177 0.500000 0.711552
O O20 0.750000 0.189406 0.769820
O O21 0.250000 0.398497 0.946366
O O22 0.445859 0.500000 0.926289
O O23 0.500000 0.397038 0.000000
#
# Coordination Sequence:
#
# PCOD8210396 Si02
#       8
#     8   8   8   8   8   8   8   8
#     4   9  19  34  49  67  91 117 148 185 229 283
#     4  10  20  32  47  70 101 132 164 200 235 274
#     4  11  22  35  50  68  89 115 151 190 230 279
#     4   9  18  32  48  67  91 119 152 188 227 273
#     4   9  17  28  44  67  93 121 153 188 229 278
#     4  10  20  32  49  74  98 120 150 189 232 279
#     4   9  17  30  46  67  93 121 155 193 233 277
#     4  10  20  33  49  70  98 134 174 208 239 277
#
# _framework density 15.995369999999999
#
# number of rings (size 3 to 8) (size 9 to 14) (size 15 to 20)
#    0.000    2.375    1.250    3.375    0.000    7.500 
#    0.000    1.250    0.000    0.375    0.000    0.000 
#    0.000    0.500    0.000    1.625    0.000    2.375 
#
# Total GULP energy -793637.197583 kJ/mol
# GULP energy per Si atom -12400.581212 kJ/mol
# Density = 1.595896 g / cm^3
# Si number density = 15.995370 Si / 1000 Ang^3
#
#
#
# Elastic Constant Matrix: (Units=GPa)
#
#
# Indices 1 2 3 4 5 6 
#
# 1 90.5056 56.4720 50.6512 0.0000 0.0000 0.0000
# 2 56.4720 103.2869 48.8048 0.0000 0.0000 0.0000
# 3 50.6512 48.8048 84.6767 0.0000 0.0000 0.0000
# 4 0.0000 0.0000 0.0000 20.3086 0.0000 0.0000
# 5 0.0000 0.0000 0.0000 0.0000 27.0908 0.0000
# 6 0.0000 0.0000 0.0000 0.0000 0.0000 30.1611
#
#
#
# Elastic Compliance Matrix: (Units=1/GPa)
#
#
# Indices 1 2 3 4 5 6 
#
# 1 0.019878 -0.007215 -0.007732 0.000000 0.000000 0.000000
# 2 -0.007215 0.015924 -0.004862 0.000000 0.000000 0.000000
# 3 -0.007732 -0.004862 0.019237 0.000000 0.000000 0.000000
# 4 0.000000 0.000000 0.000000 0.049240 0.000000 0.000000
# 5 0.000000 0.000000 0.000000 0.000000 0.036913 0.000000
# 6 0.000000 0.000000 0.000000 0.000000 0.000000 0.033155
#
#
# Mechanical properties :
#
#
# Convention : Reuss Voigt Hill
#
# Bulk Modulus (GPa) = 64.84763 65.59167 65.21965
# Shear Modulus (GPa) = 22.81996 23.68152 23.25074
#
# Velocity S-wave (km/s) = 3.78121 3.85193 3.81674
# Velocity P-wave (km/s) = 7.72612 7.80249 7.76440
#
# Compressibility (1/GPa) = 0.01542076
#
# Stress axis : x y z
#
# Youngs Moduli (GPa) = 50.30688 62.79836 51.98232
#
# Poissons Ratio (x) = 0.45307 0.40193
# Poissons Ratio (y) = 0.36295 0.25276
# Poissons Ratio (z) = 0.38898 0.30535
#
# Static dielectric constant tensor:
#      x y z
#    x 3.093170 0.000000 0.000000 
#    y 0.000000 3.067760 0.000000 
#    z 0.000000 0.000000 2.850640 
# 
# 
# High freq. dielectric constant tensor:
#      x y z
#    x 1.625920 0.000000 0.000000 
#    y 0.000000 1.609550 0.000000 
#    z 0.000000 0.000000 1.583010 
# 
# From -- ./inp_files/35115.got.cif
#   From: 2010.03.12/outbox.cif.g09.slc.cpg/sg51_18_cif.got.tgz:35115.got - 2010.04.16 13:43:02.
