data_PCOD8210360
_publ_section_title
;
Structure prediction by ZEFSAII (Michael W. Deem and Ramdas Pophale) SiO2 
 PCOD8210360
Probable space group: P M M A
;
_chemical_formula_sum "Si O2"
_cell_formula_units_Z 52
_cell_length_a 9.328866
_cell_length_b 10.434531
_cell_length_c 29.867498
_cell_angle_alpha 90.000000
_cell_angle_beta 90.000000
_cell_angle_gamma 90.000000
_cell_volume 2907.372189
_symmetry_space_group_name_H-M "P M M A"
_symmetry_group_IT_number 51
_symmetry_cell_setting 'orthorhombic'
loop_
_space_group_symop_operation_xyz
x,y,z
1/2-x,-y,z
1/2+x,-y,-z
-x,y,-z
-x,-y,-z
1/2+x,y,-z
1/2-x,y,z
x,-y,z
loop_
_atom_site_type_symbol
_atom_site_label
_atom_site_fract_x
_atom_site_fract_y
_atom_site_fract_z
Si Si1 0.413831 0.352100 0.699998
Si Si2 0.917609 0.000000 0.452320
Si Si3 0.414026 0.752333 0.605706
Si Si4 0.088103 0.347739 0.214043
Si Si5 0.403984 0.355231 0.462468
Si Si6 0.913071 0.652794 0.129100
Si Si7 0.413350 0.347358 0.043012
O O1 0.250000 0.341971 0.716616
O O2 0.447006 0.500000 0.686271
O O3 0.441235 0.253630 0.658943
O O4 0.516362 0.303643 0.739566
O O5 0.959363 0.882583 0.419434
O O6 0.000000 0.000000 0.500000
O O7 0.750000 0.000000 0.463541
O O8 0.250000 0.717315 0.595570
O O9 0.515495 0.643721 0.584842
O O10 0.250000 0.293212 0.211255
O O11 0.090448 0.500000 0.211424
O O12 0.993529 0.293514 0.173091
O O13 0.500000 0.282179 0.500000
O O14 0.250000 0.284749 0.459539
O O15 0.378742 0.500000 0.477966
O O16 0.750000 0.705638 0.127557
O O17 0.910150 0.500000 0.129391
O O18 0.002239 0.703585 0.086506
O O19 0.250000 0.294342 0.042750
O O20 0.409503 0.500000 0.042808
O O21 0.500000 0.295799 0.000000
#
# Coordination Sequence:
#
# PCOD8210360 Si02
#       7
#     8   4   8   8   8   8   8
#     4   9  17  29  45  64  85 109 135 165 205 252
#     4  10  22  38  54  72  92 116 146 178 209 244
#     4  10  20  34  51  69  90 115 143 174 208 247
#     4   9  16  25  37  54  76 100 126 159 200 246
#     4  10  20  32  47  68  92 115 139 168 203 244
#     4   9  15  22  32  45  63  90 124 161 202 248
#     4   9  15  21  28  39  57  83 119 164 211 253
#
# _framework density 17.885567000000002
#
# number of rings (size 3 to 8) (size 9 to 14) (size 15 to 20)
#    0.000    2.615    0.000    2.769    0.000    9.538 
#    0.000    1.538    0.000    0.000    0.000    0.000 
#    0.000    0.000    0.000    0.000    0.000    0.000 
#
# Total GULP energy -644412.448428 kJ/mol
# GULP energy per Si atom -12392.547085 kJ/mol
# Density = 1.784486 g / cm^3
# Si number density = 17.885567 Si / 1000 Ang^3
#
#
#
# Elastic Constant Matrix: (Units=GPa)
#
#
# Indices 1 2 3 4 5 6 
#
# 1 165.5551 16.0243 99.0350 0.0000 0.0000 0.0000
# 2 16.0243 22.9205 24.9984 0.0000 0.0000 0.0000
# 3 99.0350 24.9984 161.6568 0.0000 0.0000 0.0000
# 4 0.0000 0.0000 0.0000 8.2219 0.0000 0.0000
# 5 0.0000 0.0000 0.0000 0.0000 39.3053 0.0000
# 6 0.0000 0.0000 0.0000 0.0000 0.0000 7.6117
#
#
#
# Elastic Compliance Matrix: (Units=1/GPa)
#
#
# Indices 1 2 3 4 5 6 
#
# 1 0.009537 -0.000355 -0.005788 0.000000 0.000000 0.000000
# 2 -0.000355 0.052493 -0.007900 0.000000 0.000000 0.000000
# 3 -0.005788 -0.007900 0.010953 0.000000 0.000000 0.000000
# 4 0.000000 0.000000 0.000000 0.121626 0.000000 0.000000
# 5 0.000000 0.000000 0.000000 0.000000 0.025442 0.000000
# 6 0.000000 0.000000 0.000000 0.000000 0.000000 0.131376
#
#
# Mechanical properties :
#
#
# Convention : Reuss Voigt Hill
#
# Bulk Modulus (GPa) = 22.27268 70.02754 46.15011
# Shear Modulus (GPa) = 12.67495 25.03277 18.85386
#
# Velocity S-wave (km/s) = 2.66497 3.74519 3.25027
# Velocity P-wave (km/s) = 4.68501 7.61184 6.32018
#
# Compressibility (1/GPa) = 0.04489805
#
# Stress axis : x y z
#
# Youngs Moduli (GPa) = 104.85734 19.05002 91.29784
#
# Poissons Ratio (x) = 0.00677 0.52839
# Poissons Ratio (y) = 0.03724 0.72124
# Poissons Ratio (z) = 0.60687 0.15049
#
# Static dielectric constant tensor:
#      x y z
#    x 3.674800 0.000000 0.000000 
#    y 0.000000 2.651230 0.000000 
#    z 0.000000 0.000000 3.429570 
# 
# 
# High freq. dielectric constant tensor:
#      x y z
#    x 1.710960 0.000000 0.000000 
#    y 0.000000 1.604950 0.000000 
#    z 0.000000 0.000000 1.701050 
# 
# From -- ./inp_files/37344.got.cif
#   From: 2010.03.12/outbox.cif.g09.slc.cpg/sg51_19_cif.got.tgz:37344.got - 2010.04.16 13:43:02.
