data_PCOD8210935
_publ_section_title
;
Structure prediction by ZEFSAII (Michael W. Deem and Ramdas Pophale) SiO2 
 PCOD8210935
Probable space group: P M M A
;
_chemical_formula_sum "Si O2"
_cell_formula_units_Z 56
_cell_length_a 9.222799
_cell_length_b 14.237009
_cell_length_c 25.915860
_cell_angle_alpha 90.000000
_cell_angle_beta 90.000000
_cell_angle_gamma 90.000000
_cell_volume 3402.883873
_symmetry_space_group_name_H-M "P M M A"
_symmetry_group_IT_number 51
_symmetry_cell_setting 'orthorhombic'
loop_
_space_group_symop_operation_xyz
x,y,z
1/2-x,-y,z
1/2+x,-y,-z
-x,y,-z
-x,-y,-z
1/2+x,y,-z
1/2-x,y,z
x,-y,z
loop_
_atom_site_type_symbol
_atom_site_label
_atom_site_fract_x
_atom_site_fract_y
_atom_site_fract_z
Si Si1 0.918080 0.210610 0.948890
Si Si2 0.590912 0.111181 0.453135
Si Si3 0.922232 0.894696 0.847409
Si Si4 0.580054 0.109053 0.338133
Si Si5 0.077444 0.777298 0.251407
Si Si6 0.414831 0.395125 0.106507
Si Si7 0.418800 0.607316 0.789175
O O1 0.750000 0.189385 0.957657
O O2 0.978933 0.151794 0.900312
O O3 0.947543 0.321137 0.938759
O O4 0.000000 0.177771 0.000000
O O5 0.500000 0.156454 0.500000
O O6 0.750000 0.155413 0.457821
O O7 0.528415 0.134219 0.396365
O O8 0.599605 0.000000 0.459692
O O9 0.750000 0.896171 0.847387
O O10 0.976908 0.834345 0.798876
O O11 0.985330 0.000000 0.842981
O O12 0.750000 0.132261 0.330665
O O13 0.479996 0.170608 0.301639
O O14 0.551256 0.000000 0.326059
O O15 0.250000 0.769007 0.254148
O O16 0.006912 0.673838 0.249819
O O17 0.250000 0.379868 0.127110
O O18 0.435130 0.500000 0.083837
O O19 0.523315 0.376750 0.153194
O O20 0.250000 0.633689 0.788177
O O21 0.444793 0.500000 0.771632
#
# Coordination Sequence:
#
# PCOD8210935 Si02
#       7
#     8   8   8   8   8   8   8
#     4  10  20  34  49  68  91 118 150 188 233 280
#     4   8  14  25  41  61  90 130 171 208 245 281
#     4   9  18  33  50  67  90 120 153 190 233 277
#     4   9  18  31  45  67 102 138 169 206 249 284
#     4  11  20  32  51  73  96 126 162 198 238 286
#     4   9  17  32  52  71  92 117 146 182 229 286
#     4  10  20  33  51  74  97 121 150 187 235 291
#
# _framework density 16.456629
#
# number of rings (size 3 to 8) (size 9 to 14) (size 15 to 20)
#    0.000    2.571    1.429    2.143    0.000    3.429 
#    0.000    1.429    0.000    1.714    0.000    0.000 
#    0.000    0.571    0.000    1.857    0.000    2.286 
#
# Total GULP energy -694245.519441 kJ/mol
# GULP energy per Si atom -12397.241419 kJ/mol
# Density = 1.641917 g / cm^3
# Si number density = 16.456629 Si / 1000 Ang^3
#
#
#
# Elastic Constant Matrix: (Units=GPa)
#
#
# Indices 1 2 3 4 5 6 
#
# 1 70.3049 37.7328 50.8399 0.0000 0.0000 0.0000
# 2 37.7328 80.1767 44.6531 0.0000 0.0000 0.0000
# 3 50.8399 44.6531 119.3037 0.0000 0.0000 0.0000
# 4 0.0000 0.0000 0.0000 14.8002 0.0000 0.0000
# 5 0.0000 0.0000 0.0000 0.0000 30.2724 0.0000
# 6 0.0000 0.0000 0.0000 0.0000 0.0000 20.7347
#
#
#
# Elastic Compliance Matrix: (Units=1/GPa)
#
#
# Indices 1 2 3 4 5 6 
#
# 1 0.023187 -0.006834 -0.007323 0.000000 0.000000 0.000000
# 2 -0.006834 0.017771 -0.003739 0.000000 0.000000 0.000000
# 3 -0.007323 -0.003739 0.012902 0.000000 0.000000 0.000000
# 4 0.000000 0.000000 0.000000 0.067566 0.000000 0.000000
# 5 0.000000 0.000000 0.000000 0.000000 0.033033 0.000000
# 6 0.000000 0.000000 0.000000 0.000000 0.000000 0.048228
#
#
# Mechanical properties :
#
#
# Convention : Reuss Voigt Hill
#
# Bulk Modulus (GPa) = 55.34654 59.58186 57.46420
# Shear Modulus (GPa) = 20.44959 22.26543 21.35751
#
# Velocity S-wave (km/s) = 3.52893 3.68227 3.60642
# Velocity P-wave (km/s) = 7.09290 7.37312 7.23436
#
# Compressibility (1/GPa) = 0.01806798
#
# Stress axis : x y z
#
# Youngs Moduli (GPa) = 43.12739 56.27116 77.50629
#
# Poissons Ratio (x) = 0.38455 0.56759
# Poissons Ratio (y) = 0.29472 0.28981
# Poissons Ratio (z) = 0.31583 0.21041
#
# Static dielectric constant tensor:
#      x y z
#    x 3.078700 0.000000 0.000000 
#    y 0.000000 3.140760 0.000000 
#    z 0.000000 0.000000 3.032080 
# 
# 
# High freq. dielectric constant tensor:
#      x y z
#    x 1.624900 0.000000 0.000000 
#    y 0.000000 1.617000 0.000000 
#    z 0.000000 0.000000 1.619740 
# 
# From -- ./inp_files/37472.got.cif
#   From: 2010.03.12/outbox.cif.g09.slc.cpg/sg51_19_cif.got.tgz:37472.got - 2010.04.16 13:43:02.
