data_PCOD8210628
_publ_section_title
;
Structure prediction by ZEFSAII (Michael W. Deem and Ramdas Pophale) SiO2 
 PCOD8210628
Probable space group: P M M A
;
_chemical_formula_sum "Si O2"
_cell_formula_units_Z 64
_cell_length_a 14.820194
_cell_length_b 9.343547
_cell_length_c 24.106144
_cell_angle_alpha 90.000000
_cell_angle_beta 90.000000
_cell_angle_gamma 90.000000
_cell_volume 3338.054398
_symmetry_space_group_name_H-M "P M M A"
_symmetry_group_IT_number 51
_symmetry_cell_setting 'orthorhombic'
loop_
_space_group_symop_operation_xyz
x,y,z
1/2-x,-y,z
1/2+x,-y,-z
-x,y,-z
-x,-y,-z
1/2+x,y,-z
1/2-x,y,z
x,-y,z
loop_
_atom_site_type_symbol
_atom_site_label
_atom_site_fract_x
_atom_site_fract_y
_atom_site_fract_z
Si Si1 0.644776 0.166340 0.803643
Si Si2 0.989730 0.168834 0.707547
Si Si3 0.647802 0.170183 0.488206
Si Si4 0.482523 0.169604 0.416653
Si Si5 0.647096 0.657772 0.907622
Si Si6 0.644530 0.658086 0.112871
Si Si7 0.646779 0.666887 0.238423
Si Si8 0.102158 0.156051 0.988569
O O1 0.750000 0.198058 0.792399
O O2 0.589866 0.215981 0.749313
O O3 0.604387 0.252379 0.856695
O O4 0.629315 0.000000 0.816881
O O5 0.964250 0.222527 0.645906
O O6 0.084324 0.240546 0.722129
O O7 0.004248 0.000000 0.709216
O O8 0.750000 0.234321 0.482403
O O9 0.581303 0.222767 0.438445
O O10 0.600308 0.225153 0.545186
O O11 0.654823 0.000000 0.488395
O O12 0.483362 0.000000 0.419892
O O13 0.750000 0.636111 0.891771
O O14 0.600921 0.500000 0.912666
O O15 0.644209 0.740205 0.965733
O O16 0.750000 0.650061 0.102448
O O17 0.603167 0.500000 0.101707
O O18 0.623444 0.708034 0.175134
O O19 0.603202 0.773013 0.071680
O O20 0.750000 0.705770 0.252160
O O21 0.628920 0.500000 0.248433
O O22 0.151771 0.000000 0.988371
O O23 0.000000 0.126754 0.000000
#
# Coordination Sequence:
#
# PCOD8210628 Si02
#       8
#     8   8   8   8   8   8   8   8
#     4   9  19  35  52  72 103 140 173 210 261 316
#     4  10  20  32  51  78 108 139 174 219 264 307
#     4   8  13  23  41  64  97 140 176 209 253 301
#     4   8  15  26  39  66 103 134 170 213 255 300
#     4  10  21  37  56  75  95 125 168 213 255 305
#     4   9  19  37  57  74  94 124 165 210 254 305
#     4   9  20  38  56  75 102 137 175 214 261 316
#     4  11  24  36  49  75 106 130 157 199 254 316
#
# _framework density 19.172846
#
# number of rings (size 3 to 8) (size 9 to 14) (size 15 to 20)
#    0.000    2.750    0.000    2.625    1.750    5.750 
#    0.000    5.000    0.000    0.000    0.000    1.750 
#    0.000    1.000    0.000    0.000    0.000    0.000 
#
# Total GULP energy -793194.205461 kJ/mol
# GULP energy per Si atom -12393.659460 kJ/mol
# Density = 1.912921 g / cm^3
# Si number density = 19.172846 Si / 1000 Ang^3
#
#
#
# Elastic Constant Matrix: (Units=GPa)
#
#
# Indices 1 2 3 4 5 6 
#
# 1 67.0500 9.0457 9.8971 0.0000 0.0000 0.0000
# 2 9.0457 59.0582 22.4977 0.0000 0.0000 0.0000
# 3 9.8971 22.4977 75.3150 0.0000 0.0000 0.0000
# 4 0.0000 0.0000 0.0000 -0.6501 0.0000 0.0000
# 5 0.0000 0.0000 0.0000 0.0000 27.8526 0.0000
# 6 0.0000 0.0000 0.0000 0.0000 0.0000 16.2652
#
#
#
# Elastic Compliance Matrix: (Units=1/GPa)
#
#
# Indices 1 2 3 4 5 6 
#
# 1 0.015375 -0.001789 -0.001486 0.000000 0.000000 0.000000
# 2 -0.001789 0.019315 -0.005535 0.000000 0.000000 0.000000
# 3 -0.001486 -0.005535 0.015126 0.000000 0.000000 0.000000
# 4 0.000000 0.000000 0.000000 -1.538193 0.000000 0.000000
# 5 0.000000 0.000000 0.000000 0.000000 0.035903 0.000000
# 6 0.000000 0.000000 0.000000 0.000000 0.000000 0.061481
#
#
# Mechanical properties :
#
#
# Convention : Reuss Voigt Hill
#
# Bulk Modulus (GPa) = 31.05884 31.58936 31.32410
# Shear Modulus (GPa) = -3.66934 19.35903 7.84485
#
# Velocity S-wave (km/s) = -1.38491 3.18104 2.02498
# Velocity P-wave (km/s) = 3.69828 5.47758 4.67339
#
# Compressibility (1/GPa) = 0.03219696
#
# Stress axis : x y z
#
# Youngs Moduli (GPa) = 65.04100 51.77380 66.11083
#
# Poissons Ratio (x) = 0.09261 0.09825
# Poissons Ratio (y) = 0.11635 0.36589
# Poissons Ratio (z) = 0.09666 0.28654
#
# Static dielectric constant tensor:
#      x y z
#    x 3.529460 0.000000 0.000000 
#    y 0.000000 2.574160 0.000000 
#    z 0.000000 0.000000 -2.745650 
# 
# 
# High freq. dielectric constant tensor:
#      x y z
#    x 1.747090 0.000000 0.000000 
#    y 0.000000 1.714380 0.000000 
#    z 0.000000 0.000000 1.743940 
# 
# From -- ./inp_files/35643.got.cif
#   From: 2010.03.12/outbox.cif.g09.slc.cpg/sg51_18_cif.got.tgz:35643.got - 2010.04.16 13:43:02.
