data_PCOD8210982
_publ_section_title
;
Structure prediction by ZEFSAII (Michael W. Deem and Ramdas Pophale) SiO2 
 PCOD8210982
Probable space group: P M M A
;
_chemical_formula_sum "Si O2"
_cell_formula_units_Z 48
_cell_length_a 18.622368
_cell_length_b 15.125400
_cell_length_c 9.447288
_cell_angle_alpha 90.000000
_cell_angle_beta 90.000000
_cell_angle_gamma 90.000000
_cell_volume 2661.024838
_symmetry_space_group_name_H-M "P M M A"
_symmetry_group_IT_number 51
_symmetry_cell_setting 'orthorhombic'
loop_
_space_group_symop_operation_xyz
x,y,z
1/2-x,-y,z
1/2+x,-y,-z
-x,y,-z
-x,-y,-z
1/2+x,y,-z
1/2-x,y,z
x,-y,z
loop_
_atom_site_type_symbol
_atom_site_label
_atom_site_fract_x
_atom_site_fract_y
_atom_site_fract_z
Si Si1 0.427511 0.904200 0.917754
Si Si2 0.668222 0.741500 0.374264
Si Si3 0.666880 0.601492 0.817537
Si Si4 0.918673 0.397311 0.536104
Si Si5 0.069080 0.101309 0.593328
Si Si6 0.169165 0.747684 0.957892
O O1 0.449087 0.882397 0.757008
O O2 0.378245 0.832624 0.995764
O O3 0.388162 0.000000 0.923960
O O4 0.500000 0.908498 0.000000
O O5 0.750000 0.747221 0.422485
O O6 0.633665 0.652980 0.431966
O O7 0.632447 0.829694 0.441574
O O8 0.660195 0.729654 0.207155
O O9 0.750000 0.618520 0.768616
O O10 0.658396 0.500000 0.866120
O O11 0.608764 0.623517 0.695274
O O12 0.645460 0.662400 0.951218
O O13 0.909997 0.500000 0.502232
O O14 0.000000 0.366356 0.500000
O O15 0.000000 0.125595 0.500000
O O16 0.093757 0.000000 0.563213
O O17 0.250000 0.773335 0.996540
#
# Coordination Sequence:
#
# PCOD8210982 Si02
#       6
#     8   8   8   8   8   8
#     4   9  18  32  50  72  98 130 166 202 243 291
#     4  10  20  33  51  76 103 131 166 208 252 298
#     4   9  18  34  54  74  99 132 166 201 248 304
#     4  10  21  36  53  74 100 131 168 208 250 299
#     4   9  18  33  52  73 100 134 168 204 247 294
#     4   9  19  33  50  75 102 130 165 203 246 295
#
# _framework density 18.038162
#
# number of rings (size 3 to 8) (size 9 to 14) (size 15 to 20)
#    0.000    2.667    0.000    1.000    0.000    6.333 
#    0.000    5.000    0.000    3.500    0.000    7.000 
#    0.000    0.000    0.000    0.000    0.000    0.000 
#
# Total GULP energy -594924.570144 kJ/mol
# GULP energy per Si atom -12394.261878 kJ/mol
# Density = 1.799711 g / cm^3
# Si number density = 18.038162 Si / 1000 Ang^3
#
#
#
# Elastic Constant Matrix: (Units=GPa)
#
#
# Indices 1 2 3 4 5 6 
#
# 1 117.0343 72.3535 56.0744 0.0000 0.0000 0.0000
# 2 72.3535 102.6841 50.0180 0.0000 0.0000 0.0000
# 3 56.0744 50.0180 47.2026 0.0000 0.0000 0.0000
# 4 0.0000 0.0000 0.0000 29.3946 0.0000 0.0000
# 5 0.0000 0.0000 0.0000 0.0000 29.0556 0.0000
# 6 0.0000 0.0000 0.0000 0.0000 0.0000 32.4049
#
#
#
# Elastic Compliance Matrix: (Units=1/GPa)
#
#
# Indices 1 2 3 4 5 6 
#
# 1 0.021253 -0.005533 -0.019384 0.000000 0.000000 0.000000
# 2 -0.005533 0.021568 -0.016282 0.000000 0.000000 0.000000
# 3 -0.019384 -0.016282 0.061465 0.000000 0.000000 0.000000
# 4 0.000000 0.000000 0.000000 0.034020 0.000000 0.000000
# 5 0.000000 0.000000 0.000000 0.000000 0.034417 0.000000
# 6 0.000000 0.000000 0.000000 0.000000 0.000000 0.030860
#
#
# Mechanical properties :
#
#
# Convention : Reuss Voigt Hill
#
# Bulk Modulus (GPa) = 45.68566 69.31251 57.49909
# Shear Modulus (GPa) = 17.04881 24.06935 20.55908
#
# Velocity S-wave (km/s) = 3.07767 3.65685 3.37969
# Velocity P-wave (km/s) = 6.16535 7.50593 6.86843
#
# Compressibility (1/GPa) = 0.02188870
#
# Stress axis : x y z
#
# Youngs Moduli (GPa) = 47.05322 46.36472 16.26935
#
# Poissons Ratio (x) = 0.25653 0.31537
# Poissons Ratio (y) = 0.26034 0.26489
# Poissons Ratio (z) = 0.91208 0.75489
#
# Static dielectric constant tensor:
#      x y z
#    x 3.480430 0.000000 0.000000 
#    y 0.000000 3.610480 0.000000 
#    z 0.000000 0.000000 3.296960 
# 
# 
# High freq. dielectric constant tensor:
#      x y z
#    x 1.693550 0.000000 0.000000 
#    y 0.000000 1.710840 0.000000 
#    z 0.000000 0.000000 1.690700 
# 
# From -- ./inp_files/9560.got.cif
#   From: 2010.03.12/outbox.cif.g09.slc.cpg/sg51_5_cif.got.tgz:9560.got - 2010.04.16 13:43:02.
