data_PCOD8210794
_publ_section_title
;
Structure prediction by ZEFSAII (Michael W. Deem and Ramdas Pophale) SiO2 
 PCOD8210794
Probable space group: P M M A
;
_chemical_formula_sum "Si O2"
_cell_formula_units_Z 44
_cell_length_a 9.091402
_cell_length_b 15.133324
_cell_length_c 17.912100
_cell_angle_alpha 90.000000
_cell_angle_beta 90.000000
_cell_angle_gamma 90.000000
_cell_volume 2464.402820
_symmetry_space_group_name_H-M "P M M A"
_symmetry_group_IT_number 51
_symmetry_cell_setting 'orthorhombic'
loop_
_space_group_symop_operation_xyz
x,y,z
1/2-x,-y,z
1/2+x,-y,-z
-x,y,-z
-x,-y,-z
1/2+x,y,-z
1/2-x,y,z
x,-y,z
loop_
_atom_site_type_symbol
_atom_site_label
_atom_site_fract_x
_atom_site_fract_y
_atom_site_fract_z
Si Si1 0.078574 0.599931 0.423691
Si Si2 0.420448 0.278014 0.287063
Si Si3 0.082713 0.097383 0.221381
Si Si4 0.582578 0.341114 0.145206
Si Si5 0.918267 0.156390 0.075754
Si Si6 0.578332 0.500000 0.922255
O O1 0.250000 0.603787 0.439628
O O2 0.034075 0.500000 0.397255
O O3 0.033144 0.674825 0.363935
O O4 0.000000 0.625714 0.500000
O O5 0.250000 0.301207 0.267967
O O6 0.444660 0.171196 0.286152
O O7 0.534453 0.313579 0.227130
O O8 0.250000 0.105522 0.193278
O O9 0.984255 0.108774 0.148024
O O10 0.051158 0.000000 0.255847
O O11 0.750000 0.376677 0.147293
O O12 0.568683 0.261563 0.086492
O O13 0.467190 0.414650 0.123031
O O14 0.750000 0.126344 0.068418
O O15 0.000000 0.127873 0.000000
O O16 0.750000 0.500000 0.936108
O O17 0.500000 0.500000 0.000000
#
# Coordination Sequence:
#
# PCOD8210794 Si02
#       6
#     8   8   8   8   8   4
#     4   9  18  32  51  77 107 136 167 201 244 298
#     4   9  18  33  53  76 102 133 168 208 252 301
#     4   9  18  33  52  73  97 128 168 211 257 306
#     4  10  21  35  50  72  98 129 170 212 255 305
#     4  10  20  33  50  70  96 128 165 211 261 309
#     4  12  24  36  50  68  95 132 173 216 258 300
#
# _framework density 17.854223999999999
#
# number of rings (size 3 to 8) (size 9 to 14) (size 15 to 20)
#    0.000    2.364    0.000    2.455    1.273    5.091 
#    0.000    0.000    0.000    0.545    0.000    0.000 
#    0.000    0.000    0.000    0.000    0.000    0.000 
#
# Total GULP energy -545398.289197 kJ/mol
# GULP energy per Si atom -12395.415664 kJ/mol
# Density = 1.781359 g / cm^3
# Si number density = 17.854224 Si / 1000 Ang^3
#
#
#
# Elastic Constant Matrix: (Units=GPa)
#
#
# Indices 1 2 3 4 5 6 
#
# 1 92.1790 44.4506 38.4405 0.0000 0.0000 0.0000
# 2 44.4506 125.8295 61.5028 0.0000 0.0000 0.0000
# 3 38.4405 61.5028 101.0851 0.0000 0.0000 0.0000
# 4 0.0000 0.0000 0.0000 15.9894 0.0000 0.0000
# 5 0.0000 0.0000 0.0000 0.0000 29.0711 0.0000
# 6 0.0000 0.0000 0.0000 0.0000 0.0000 19.5146
#
#
#
# Elastic Compliance Matrix: (Units=1/GPa)
#
#
# Indices 1 2 3 4 5 6 
#
# 1 0.013785 -0.003284 -0.003244 0.000000 0.000000 0.000000
# 2 -0.003284 0.012093 -0.006109 0.000000 0.000000 0.000000
# 3 -0.003244 -0.006109 0.014843 0.000000 0.000000 0.000000
# 4 0.000000 0.000000 0.000000 0.062542 0.000000 0.000000
# 5 0.000000 0.000000 0.000000 0.000000 0.034398 0.000000
# 6 0.000000 0.000000 0.000000 0.000000 0.000000 0.051244
#
#
# Mechanical properties :
#
#
# Convention : Reuss Voigt Hill
#
# Bulk Modulus (GPa) = 64.73655 67.54239 66.13947
# Shear Modulus (GPa) = 22.79685 24.56166 23.67926
#
# Velocity S-wave (km/s) = 3.57716 3.71304 3.64573
# Velocity P-wave (km/s) = 7.30743 7.50295 7.40583
#
# Compressibility (1/GPa) = 0.01544723
#
# Stress axis : x y z
#
# Youngs Moduli (GPa) = 72.54310 82.68990 67.37099
#
# Poissons Ratio (x) = 0.27156 0.21855
# Poissons Ratio (y) = 0.23824 0.41157
# Poissons Ratio (z) = 0.23533 0.50516
#
# Static dielectric constant tensor:
#      x y z
#    x 3.338900 0.000000 0.000000 
#    y 0.000000 3.549140 0.000000 
#    z 0.000000 0.000000 3.105160 
# 
# 
# High freq. dielectric constant tensor:
#      x y z
#    x 1.698590 0.000000 0.000000 
#    y 0.000000 1.695740 0.000000 
#    z 0.000000 0.000000 1.662000 
# 
# From -- ./inp_files/20862.got.cif
#   From: 2010.03.12/outbox.cif.g09.slc.cpg/sg51_11_cif.got.tgz:20862.got - 2010.04.16 13:43:02.
