data_PCOD8210724
_publ_section_title
;
Structure prediction by ZEFSAII (Michael W. Deem and Ramdas Pophale) SiO2 
 PCOD8210724
Probable space group: P M M A
;
_chemical_formula_sum "Si O2"
_cell_formula_units_Z 64
_cell_length_a 9.086466
_cell_length_b 18.945261
_cell_length_c 20.781627
_cell_angle_alpha 90.000000
_cell_angle_beta 90.000000
_cell_angle_gamma 90.000000
_cell_volume 3577.462946
_symmetry_space_group_name_H-M "P M M A"
_symmetry_group_IT_number 51
_symmetry_cell_setting 'orthorhombic'
loop_
_space_group_symop_operation_xyz
x,y,z
1/2-x,-y,z
1/2+x,-y,-z
-x,y,-z
-x,-y,-z
1/2+x,y,-z
1/2-x,y,z
x,-y,z
loop_
_atom_site_type_symbol
_atom_site_label
_atom_site_fract_x
_atom_site_fract_y
_atom_site_fract_z
Si Si1 0.586851 0.083815 0.816181
Si Si2 0.416895 0.584060 0.189718
Si Si3 0.917732 0.416181 0.316757
Si Si4 0.425578 0.921235 0.324724
Si Si5 0.414348 0.915741 0.938018
Si Si6 0.923110 0.343602 0.566100
Si Si7 0.583050 0.584139 0.063297
Si Si8 0.921860 0.180791 0.564856
O O1 0.750000 0.116142 0.824550
O O2 0.519459 0.103401 0.746125
O O3 0.485879 0.114989 0.872806
O O4 0.596584 0.000000 0.821629
O O5 0.250000 0.613264 0.191575
O O6 0.415710 0.500000 0.188999
O O7 0.504749 0.612209 0.251946
O O8 0.498119 0.613035 0.126081
O O9 0.750000 0.388191 0.318944
O O10 0.920650 0.500000 0.318324
O O11 0.008806 0.389017 0.377182
O O12 0.250000 0.921880 0.323304
O O13 0.486563 0.866486 0.377249
O O14 0.484011 0.000000 0.341082
O O15 0.250000 0.886299 0.941979
O O16 0.416929 0.000000 0.937332
O O17 0.500000 0.886505 0.000000
O O18 0.750000 0.358810 0.560741
O O19 0.956813 0.261863 0.580628
O O20 0.000000 0.367258 0.500000
O O21 0.750000 0.612892 0.063687
O O22 0.583406 0.500000 0.063500
O O23 0.500000 0.612755 0.000000
O O24 0.750000 0.167630 0.555570
O O25 0.000000 0.155778 0.500000
#
# Coordination Sequence:
#
# PCOD8210724 Si02
#       8
#     8   8   8   8   8   8   8   8
#     4   8  13  22  36  53  75 106 142 177 214 255
#     4   9  16  26  40  59  85 116 148 183 225 271
#     4  10  20  33  49  69  92 118 149 186 228 274
#     4   8  14  26  45  67  91 120 152 185 222 265
#     4   9  15  21  30  46  71 104 140 176 213 255
#     4  10  20  34  51  69  91 119 150 185 224 268
#     4   9  15  22  33  51  78 114 154 191 226 266
#     4   9  18  32  49  69  92 119 151 185 222 265
#
# _framework density 17.889773000000002
#
# number of rings (size 3 to 8) (size 9 to 14) (size 15 to 20)
#    0.000    3.000    0.000    2.625    0.000    6.250 
#    0.000    0.625    0.000    0.750    0.000    0.000 
#    0.000    1.000    0.000    5.000    0.000    7.500 
#
# Total GULP energy -793407.836387 kJ/mol
# GULP energy per Si atom -12396.997444 kJ/mol
# Density = 1.784906 g / cm^3
# Si number density = 17.889773 Si / 1000 Ang^3
#
#
#
# Elastic Constant Matrix: (Units=GPa)
#
#
# Indices 1 2 3 4 5 6 
#
# 1 123.5170 16.6089 77.3155 0.0000 0.0000 0.0000
# 2 16.6089 14.3154 25.3358 0.0000 0.0000 0.0000
# 3 77.3155 25.3358 172.7925 0.0000 0.0000 0.0000
# 4 0.0000 0.0000 0.0000 -0.0256 0.0000 0.0000
# 5 0.0000 0.0000 0.0000 0.0000 38.1209 0.0000
# 6 0.0000 0.0000 0.0000 0.0000 0.0000 9.2432
#
#
#
# Elastic Compliance Matrix: (Units=1/GPa)
#
#
# Indices 1 2 3 4 5 6 
#
# 1 0.011587 -0.005763 -0.004340 0.000000 0.000000 0.000000
# 2 -0.005763 0.097202 -0.011673 0.000000 0.000000 0.000000
# 3 -0.004340 -0.011673 0.009441 0.000000 0.000000 0.000000
# 4 0.000000 0.000000 0.000000-39.049840 0.000000 0.000000
# 5 0.000000 0.000000 0.000000 0.000000 0.026232 0.000000
# 6 0.000000 0.000000 0.000000 0.000000 0.000000 0.108188
#
#
# Mechanical properties :
#
#
# Convention : Reuss Voigt Hill
#
# Bulk Modulus (GPa) = 13.39106 61.01614 37.20360
# Shear Modulus (GPa) = -0.12910 22.22535 11.04812
#
# Velocity S-wave (km/s) = -0.26893 3.52852 2.48778
# Velocity P-wave (km/s) = 2.72124 7.12611 5.39382
#
# Compressibility (1/GPa) = 0.07467671
#
# Stress axis : x y z
#
# Youngs Moduli (GPa) = 86.29998 10.28789 105.92428
#
# Poissons Ratio (x) = 0.05929 0.45968
# Poissons Ratio (y) = 0.49738 1.23650
# Poissons Ratio (z) = 0.37452 0.12009
#
# Static dielectric constant tensor:
#      x y z
#    x 3.411590 0.000000 0.000000 
#    y 0.000000 2.767140 0.000000 
#    z 0.000000 0.000000 3.638560 
# 
# 
# High freq. dielectric constant tensor:
#      x y z
#    x 1.691660 0.000000 0.000000 
#    y 0.000000 1.622100 0.000000 
#    z 0.000000 0.000000 1.712220 
# 
# From -- ./inp_files/28623.got.cif
#   From: 2010.03.12/outbox.cif.g09.slc.cpg/sg51_15_cif.got.tgz:28623.got - 2010.04.16 13:43:02.
