data_PCOD8210630
_publ_section_title
;
Structure prediction by ZEFSAII (Michael W. Deem and Ramdas Pophale) SiO2 
 PCOD8210630
Probable space group: P M M A
;
_chemical_formula_sum "Si O2"
_cell_formula_units_Z 48
_cell_length_a 14.967309
_cell_length_b 8.919891
_cell_length_c 19.009509
_cell_angle_alpha 90.000000
_cell_angle_beta 90.000000
_cell_angle_gamma 90.000000
_cell_volume 2537.898048
_symmetry_space_group_name_H-M "P M M A"
_symmetry_group_IT_number 51
_symmetry_cell_setting 'orthorhombic'
loop_
_space_group_symop_operation_xyz
x,y,z
1/2-x,-y,z
1/2+x,-y,-z
-x,y,-z
-x,-y,-z
1/2+x,y,-z
1/2-x,y,z
x,-y,z
loop_
_atom_site_type_symbol
_atom_site_label
_atom_site_fract_x
_atom_site_fract_y
_atom_site_fract_z
Si Si1 0.853941 0.825877 0.321931
Si Si2 0.352762 0.323825 0.822664
Si Si3 0.847984 0.322174 0.675038
Si Si4 0.991252 0.322426 0.419493
Si Si5 0.146575 0.672977 0.165939
Si Si6 0.495253 0.825100 0.918515
O O1 0.750000 0.795350 0.334416
O O2 0.886628 0.748831 0.249970
O O3 0.903528 0.753748 0.388109
O O4 0.876738 0.000000 0.316620
O O5 0.250000 0.280724 0.837806
O O6 0.366285 0.500000 0.815684
O O7 0.411549 0.262912 0.886363
O O8 0.750000 0.258265 0.653936
O O9 0.844331 0.500000 0.671534
O O10 0.871906 0.273473 0.754316
O O11 0.921911 0.259508 0.621565
O O12 0.981763 0.500000 0.411552
O O13 0.000000 0.273102 0.500000
O O14 0.250000 0.695164 0.146111
O O15 0.118237 0.500000 0.156418
O O16 0.088533 0.776119 0.115414
O O17 0.480027 0.000000 0.905772
O O18 0.500000 0.783748 0.000000
#
# Coordination Sequence:
#
# PCOD8210630 Si02
#       6
#     8   8   8   8   8   8
#     4  10  21  37  57  80 108 144 183 225 276 331
#     4  10  21  38  61  85 107 137 182 234 281 326
#     4   8  15  30  51  74 101 133 170 215 266 312
#     4  10  20  32  51  81 112 144 183 225 267 314
#     4   9  18  34  57  80 101 134 183 232 272 314
#     4  11  24  38  53  78 113 149 179 213 266 330
#
# _framework density 18.91329
#
# number of rings (size 3 to 8) (size 9 to 14) (size 15 to 20)
#    0.000    2.333    0.000    3.500    0.000    6.667 
#    0.000    5.000    0.000    1.500    0.000    0.000 
#    0.000    0.000    0.000    0.000    0.000    0.000 
#
# Total GULP energy -595323.228863 kJ/mol
# GULP energy per Si atom -12402.567268 kJ/mol
# Density = 1.887024 g / cm^3
# Si number density = 18.913290 Si / 1000 Ang^3
#
#
#
# Elastic Constant Matrix: (Units=GPa)
#
#
# Indices 1 2 3 4 5 6 
#
# 1 103.9335 39.0509 76.0138 0.0000 0.0000 0.0000
# 2 39.0509 61.8386 53.0610 0.0000 0.0000 0.0000
# 3 76.0138 53.0610 144.8415 0.0000 0.0000 0.0000
# 4 0.0000 0.0000 0.0000 23.9992 0.0000 0.0000
# 5 0.0000 0.0000 0.0000 0.0000 19.7414 0.0000
# 6 0.0000 0.0000 0.0000 0.0000 0.0000 27.1013
#
#
#
# Elastic Compliance Matrix: (Units=1/GPa)
#
#
# Indices 1 2 3 4 5 6 
#
# 1 0.016372 -0.004326 -0.007007 0.000000 0.000000 0.000000
# 2 -0.004326 0.024728 -0.006788 0.000000 0.000000 0.000000
# 3 -0.007007 -0.006788 0.013068 0.000000 0.000000 0.000000
# 4 0.000000 0.000000 0.000000 0.041668 0.000000 0.000000
# 5 0.000000 0.000000 0.000000 0.000000 0.050655 0.000000
# 6 0.000000 0.000000 0.000000 0.000000 0.000000 0.036899
#
#
# Mechanical properties :
#
#
# Convention : Reuss Voigt Hill
#
# Bulk Modulus (GPa) = 55.78925 71.87388 63.83157
# Shear Modulus (GPa) = 22.16231 23.66758 22.91494
#
# Velocity S-wave (km/s) = 3.42685 3.54131 3.48455
# Velocity P-wave (km/s) = 6.72452 7.40307 7.07194
#
# Compressibility (1/GPa) = 0.01792460
#
# Stress axis : x y z
#
# Youngs Moduli (GPa) = 61.08027 40.44010 76.52052
#
# Poissons Ratio (x) = 0.17495 0.53620
# Poissons Ratio (y) = 0.26425 0.51945
# Poissons Ratio (z) = 0.42800 0.27452
#
# Static dielectric constant tensor:
#      x y z
#    x 3.705520 0.000000 0.000000 
#    y 0.000000 3.278160 0.000000 
#    z 0.000000 0.000000 3.472160 
# 
# 
# High freq. dielectric constant tensor:
#      x y z
#    x 1.748000 0.000000 0.000000 
#    y 0.000000 1.718860 0.000000 
#    z 0.000000 0.000000 1.732590 
# 
# From -- ./inp_files/29421.got.cif
#   From: 2010.03.12/outbox.cif.g09.slc.cpg/sg51_15_cif.got.tgz:29421.got - 2010.04.16 13:43:02.
