data_PCOD8210952
_publ_section_title
;
Structure prediction by ZEFSAII (Michael W. Deem and Ramdas Pophale) SiO2 
 PCOD8210952
Probable space group: P M M A
;
_chemical_formula_sum "Si O2"
_cell_formula_units_Z 32
_cell_length_a 9.242323
_cell_length_b 9.264440
_cell_length_c 20.738740
_cell_angle_alpha 90.000000
_cell_angle_beta 90.000000
_cell_angle_gamma 90.000000
_cell_volume 1775.753511
_symmetry_space_group_name_H-M "P M M A"
_symmetry_group_IT_number 51
_symmetry_cell_setting 'orthorhombic'
loop_
_space_group_symop_operation_xyz
x,y,z
1/2-x,-y,z
1/2+x,-y,-z
-x,y,-z
-x,-y,-z
1/2+x,y,-z
1/2-x,y,z
x,-y,z
loop_
_atom_site_type_symbol
_atom_site_label
_atom_site_fract_x
_atom_site_fract_y
_atom_site_fract_z
Si Si1 0.581000 0.832911 0.065181
Si Si2 0.417496 0.669738 0.176328
Si Si3 0.077995 0.839480 0.300416
Si Si4 0.589808 0.171935 0.559334
O O1 0.750000 0.799093 0.056703
O O2 0.516741 0.736979 0.121676
O O3 0.553211 0.000000 0.081771
O O4 0.500000 0.788328 0.000000
O O5 0.250000 0.712073 0.164138
O O6 0.439868 0.500000 0.176600
O O7 0.472872 0.730236 0.244951
O O8 0.250000 0.845257 0.305279
O O9 0.020389 0.786666 0.370752
O O10 0.018652 0.000000 0.284019
O O11 0.500000 0.238726 0.500000
O O12 0.750000 0.237475 0.553250
O O13 0.595342 0.000000 0.554623
#
# Coordination Sequence:
#
# PCOD8210952 Si02
#       4
#     8   8   8   8
#     4  10  21  37  57  79 101 127 160 198 241 288
#     4  10  20  33  51  75 101 131 166 202 242 288
#     4   8  14  26  45  67  92 124 160 198 241 288
#     4   8  13  22  38  61  87 115 150 194 242 286
#
# _framework density 18.020519
#
# number of rings (size 3 to 8) (size 9 to 14) (size 15 to 20)
#    0.000    3.000    0.000    3.000    0.000    3.500 
#    0.000    1.250    0.000    5.250    0.000    0.000 
#    0.000    0.000    0.000    0.000    0.000    0.000 
#
# Total GULP energy -396639.307743 kJ/mol
# GULP energy per Si atom -12394.978367 kJ/mol
# Density = 1.797950 g / cm^3
# Si number density = 18.020519 Si / 1000 Ang^3
#
#
#
# Elastic Constant Matrix: (Units=GPa)
#
#
# Indices 1 2 3 4 5 6 
#
# 1 73.3438 36.9066 67.4543 0.0000 0.0000 0.0000
# 2 36.9066 60.8836 64.6126 0.0000 0.0000 0.0000
# 3 67.4543 64.6126 181.7272 0.0000 0.0000 0.0000
# 4 0.0000 0.0000 0.0000 -2.2321 0.0000 0.0000
# 5 0.0000 0.0000 0.0000 0.0000 32.3060 0.0000
# 6 0.0000 0.0000 0.0000 0.0000 0.0000 18.3488
#
#
#
# Elastic Compliance Matrix: (Units=1/GPa)
#
#
# Indices 1 2 3 4 5 6 
#
# 1 0.022779 -0.007765 -0.005694 0.000000 0.000000 0.000000
# 2 -0.007765 0.029025 -0.007437 0.000000 0.000000 0.000000
# 3 -0.005694 -0.007437 0.010261 0.000000 0.000000 0.000000
# 4 0.000000 0.000000 0.000000 -0.448009 0.000000 0.000000
# 5 0.000000 0.000000 0.000000 0.000000 0.030954 0.000000
# 6 0.000000 0.000000 0.000000 0.000000 0.000000 0.054500
#
#
# Mechanical properties :
#
#
# Convention : Reuss Voigt Hill
#
# Bulk Modulus (GPa) = 49.33208 72.65573 60.99390
# Shear Modulus (GPa) = -19.84597 19.48329 -0.18134
#
# Velocity S-wave (km/s) = -3.32218 3.29169 -0.31757
# Velocity P-wave (km/s) = 3.56638 7.40627 5.81257
#
# Compressibility (1/GPa) = 0.02027079
#
# Stress axis : x y z
#
# Youngs Moduli (GPa) = 43.90044 34.45340 97.45892
#
# Poissons Ratio (x) = 0.26753 0.55496
# Poissons Ratio (y) = 0.34089 0.72484
# Poissons Ratio (z) = 0.24998 0.25624
#
# Static dielectric constant tensor:
#      x y z
#    x 3.065420 0.000000 0.000000 
#    y 0.000000 3.045130 0.000000 
#    z 0.000000 0.000000 3.754350 
# 
# 
# High freq. dielectric constant tensor:
#      x y z
#    x 1.668360 0.000000 0.000000 
#    y 0.000000 1.663680 0.000000 
#    z 0.000000 0.000000 1.718670 
# 
# From -- ./inp_files/28738.got.cif
#   From: 2010.03.12/outbox.cif.g09.slc.cpg/sg51_15_cif.got.tgz:28738.got - 2010.04.16 13:43:02.
