data_PCOD8210725
_publ_section_title
;
Structure prediction by ZEFSAII (Michael W. Deem and Ramdas Pophale) SiO2 
 PCOD8210725
Probable space group: P M M A
;
_chemical_formula_sum "Si O2"
_cell_formula_units_Z 64
_cell_length_a 18.392732
_cell_length_b 9.127386
_cell_length_c 20.854764
_cell_angle_alpha 90.000000
_cell_angle_beta 90.000000
_cell_angle_gamma 90.000000
_cell_volume 3501.046990
_symmetry_space_group_name_H-M "P M M A"
_symmetry_group_IT_number 51
_symmetry_cell_setting 'orthorhombic'
loop_
_space_group_symop_operation_xyz
x,y,z
1/2-x,-y,z
1/2+x,-y,-z
-x,y,-z
-x,-y,-z
1/2+x,y,-z
1/2-x,y,z
x,-y,z
loop_
_atom_site_type_symbol
_atom_site_label
_atom_site_fract_x
_atom_site_fract_y
_atom_site_fract_z
Si Si1 0.336738 0.665724 0.863998
Si Si2 0.663401 0.836591 0.764916
Si Si3 0.163503 0.834585 0.739691
Si Si4 0.169221 0.826013 0.374987
Si Si5 0.585212 0.170013 0.500918
Si Si6 0.163244 0.335378 0.113023
Si Si7 0.336671 0.834588 0.988776
Si Si8 0.665406 0.328636 0.387376
O O1 0.250000 0.665638 0.863516
O O2 0.366532 0.500000 0.863454
O O3 0.367275 0.750350 0.801801
O O4 0.366401 0.747138 0.927183
O O5 0.750000 0.843103 0.767812
O O6 0.640633 0.771971 0.694937
O O7 0.632361 0.733652 0.821132
O O8 0.631753 0.000000 0.775287
O O9 0.250000 0.835519 0.742054
O O10 0.136283 0.751547 0.676282
O O11 0.132835 0.000000 0.739187
O O12 0.250000 0.763057 0.389539
O O13 0.114727 0.773873 0.430443
O O14 0.173398 0.000000 0.371752
O O15 0.500000 0.196219 0.500000
O O16 0.621370 0.268129 0.447073
O O17 0.605361 0.000000 0.489154
O O18 0.250000 0.333846 0.113354
O O19 0.133413 0.500000 0.107199
O O20 0.133529 0.242959 0.052853
O O21 0.250000 0.834558 0.988612
O O22 0.366655 0.000000 0.986508
O O23 0.750000 0.294562 0.398817
O O24 0.650920 0.500000 0.379165
#
# Coordination Sequence:
#
# PCOD8210725 Si02
#       8
#     8   8   8   8   8   8   8   8
#     4   9  15  22  32  48  73 104 138 177 219 261
#     4   8  13  22  36  52  70  97 135 175 213 255
#     4   9  16  26  41  60  81 107 142 184 226 267
#     4   8  14  26  45  66  87 114 149 187 225 267
#     4  10  20  33  50  72  96 122 152 187 230 280
#     4   9  15  21  29  44  68  97 130 171 217 259
#     4   9  15  21  29  42  64  99 141 177 209 253
#     4  10  20  33  49  69  92 120 155 193 233 277
#
# _framework density 18.280246999999999
#
# number of rings (size 3 to 8) (size 9 to 14) (size 15 to 20)
#    0.000    3.000    0.000    3.000    0.000    7.500 
#    0.000    0.625    0.000    2.250    0.000    0.000 
#    0.000    0.000    0.000    1.125    0.000   24.500 
#
# Total GULP energy -793388.722734 kJ/mol
# GULP energy per Si atom -12396.698793 kJ/mol
# Density = 1.823864 g / cm^3
# Si number density = 18.280247 Si / 1000 Ang^3
#
#
#
# Elastic Constant Matrix: (Units=GPa)
#
#
# Indices 1 2 3 4 5 6 
#
# 1 22.8530 22.4109 29.1012 0.0000 0.0000 0.0000
# 2 22.4109 137.7783 90.7521 0.0000 0.0000 0.0000
# 3 29.1012 90.7521 195.0035 0.0000 0.0000 0.0000
# 4 0.0000 0.0000 0.0000 21.4446 0.0000 0.0000
# 5 0.0000 0.0000 0.0000 0.0000 -1.2287 0.0000
# 6 0.0000 0.0000 0.0000 0.0000 0.0000 8.3912
#
#
#
# Elastic Compliance Matrix: (Units=1/GPa)
#
#
# Indices 1 2 3 4 5 6 
#
# 1 0.056539 -0.005247 -0.005995 0.000000 0.000000 0.000000
# 2 -0.005247 0.010953 -0.004314 0.000000 0.000000 0.000000
# 3 -0.005995 -0.004314 0.008031 0.000000 0.000000 0.000000
# 4 0.000000 0.000000 0.000000 0.046632 0.000000 0.000000
# 5 0.000000 0.000000 0.000000 0.000000 -0.813884 0.000000
# 6 0.000000 0.000000 0.000000 0.000000 0.000000 0.119172
#
#
# Mechanical properties :
#
#
# Convention : Reuss Voigt Hill
#
# Bulk Modulus (GPa) = 22.51844 71.12924 46.82384
# Shear Modulus (GPa) = -9.49416 19.94612 5.22598
#
# Velocity S-wave (km/s) = -2.28143 3.30681 1.69264
# Velocity P-wave (km/s) = 2.32492 7.31949 5.43048
#
# Compressibility (1/GPa) = 0.04440806
#
# Stress axis : x y z
#
# Youngs Moduli (GPa) = 17.68704 91.29528 124.52147
#
# Poissons Ratio (x) = 0.47907 0.74656
# Poissons Ratio (y) = 0.09281 0.53725
# Poissons Ratio (z) = 0.10604 0.39389
#
# Static dielectric constant tensor:
#      x y z
#    x 2.577400 0.000000 0.000000 
#    y 0.000000 3.423910 0.000000 
#    z 0.000000 0.000000 3.752000 
# 
# 
# High freq. dielectric constant tensor:
#      x y z
#    x 1.624180 0.000000 0.000000 
#    y 0.000000 1.705420 0.000000 
#    z 0.000000 0.000000 1.731630 
# 
# From -- ./inp_files/34086.got.cif
#   From: 2010.03.12/outbox.cif.g09.slc.cpg/sg51_18_cif.got.tgz:34086.got - 2010.04.16 13:43:02.
