data_PCOD8210639
_publ_section_title
;
Structure prediction by ZEFSAII (Michael W. Deem and Ramdas Pophale) SiO2 
 PCOD8210639
Probable space group: P M M A
;
_chemical_formula_sum "Si O2"
_cell_formula_units_Z 48
_cell_length_a 28.513270
_cell_length_b 9.289044
_cell_length_c 10.006305
_cell_angle_alpha 90.000000
_cell_angle_beta 90.000000
_cell_angle_gamma 90.000000
_cell_volume 2650.280145
_symmetry_space_group_name_H-M "P M M A"
_symmetry_group_IT_number 51
_symmetry_cell_setting 'orthorhombic'
loop_
_space_group_symop_operation_xyz
x,y,z
1/2-x,-y,z
1/2+x,-y,-z
-x,y,-z
-x,-y,-z
1/2+x,y,-z
1/2-x,y,z
x,-y,z
loop_
_atom_site_type_symbol
_atom_site_label
_atom_site_fract_x
_atom_site_fract_y
_atom_site_fract_z
Si Si1 0.034291 0.671442 0.611992
Si Si2 0.521340 0.328569 0.863642
Si Si3 0.195771 0.830915 0.012271
Si Si4 0.366523 0.670274 0.513948
Si Si5 0.374472 0.670958 0.207110
Si Si6 0.805306 0.160496 0.288522
O O1 0.034305 0.500000 0.606259
O O2 0.086319 0.729422 0.584241
O O3 0.000000 0.734275 0.500000
O O4 0.014724 0.728684 0.752266
O O5 0.522410 0.500000 0.863954
O O6 0.574072 0.272818 0.837127
O O7 0.500000 0.265984 0.000000
O O8 0.250000 0.790761 0.038156
O O9 0.180902 0.787363 0.861035
O O10 0.187829 0.000000 0.034675
O O11 0.164474 0.742183 0.114689
O O12 0.363339 0.500000 0.523033
O O13 0.365126 0.719116 0.359646
O O14 0.323742 0.734960 0.596592
O O15 0.370980 0.500000 0.191761
O O16 0.750000 0.159147 0.300630
O O17 0.825145 0.000000 0.312736
#
# Coordination Sequence:
#
# PCOD8210639 Si02
#       6
#     8   8   8   8   8   8
#     4   9  15  28  47  69 104 142 169 200 247 301
#     4   9  17  28  45  73 106 138 172 208 247 300
#     4   9  20  39  58  74  98 136 177 215 260 314
#     4  10  20  32  52  82 110 137 170 212 259 305
#     4  10  20  33  51  81 113 136 168 215 260 302
#     4   9  20  39  58  75  99 134 176 218 260 311
#
# _framework density 18.111294000000001
#
# number of rings (size 3 to 8) (size 9 to 14) (size 15 to 20)
#    0.000    2.667    1.667    1.000    2.333    2.667 
#    0.000    5.000    0.000    2.000    0.000    0.000 
#    0.000    0.000    0.000    0.000    0.000    0.000 
#
# Total GULP energy -595044.900130 kJ/mol
# GULP energy per Si atom -12396.768753 kJ/mol
# Density = 1.807007 g / cm^3
# Si number density = 18.111294 Si / 1000 Ang^3
#
#
#
# Elastic Constant Matrix: (Units=GPa)
#
#
# Indices 1 2 3 4 5 6 
#
# 1 83.5471 29.6931 76.4103 0.0000 0.0000 0.0000
# 2 29.6931 25.9852 39.9601 0.0000 0.0000 0.0000
# 3 76.4103 39.9601 177.1635 0.0000 0.0000 0.0000
# 4 0.0000 0.0000 0.0000 19.7186 0.0000 0.0000
# 5 0.0000 0.0000 0.0000 0.0000 42.2732 0.0000
# 6 0.0000 0.0000 0.0000 0.0000 0.0000 0.0992
#
#
#
# Elastic Compliance Matrix: (Units=1/GPa)
#
#
# Indices 1 2 3 4 5 6 
#
# 1 0.024128 -0.017711 -0.006411 0.000000 0.000000 0.000000
# 2 -0.017711 0.071921 -0.008583 0.000000 0.000000 0.000000
# 3 -0.006411 -0.008583 0.010346 0.000000 0.000000 0.000000
# 4 0.000000 0.000000 0.000000 0.050714 0.000000 0.000000
# 5 0.000000 0.000000 0.000000 0.000000 0.023656 0.000000
# 6 0.000000 0.000000 0.000000 0.000000 0.000000 10.075671
#
#
# Mechanical properties :
#
#
# Convention : Reuss Voigt Hill
#
# Bulk Modulus (GPa) = 24.40040 64.31364 44.35702
# Shear Modulus (GPa) = 0.48377 21.79369 11.13873
#
# Velocity S-wave (km/s) = 0.51739 3.47265 2.48264
# Velocity P-wave (km/s) = 3.72272 7.18794 5.72386
#
# Compressibility (1/GPa) = 0.04098294
#
# Stress axis : x y z
#
# Youngs Moduli (GPa) = 41.44629 13.90411 96.65783
#
# Poissons Ratio (x) = 0.24625 0.61971
# Poissons Ratio (y) = 0.73405 0.82966
# Poissons Ratio (z) = 0.26573 0.11935
#
# Static dielectric constant tensor:
#      x y z
#    x 3.399150 0.000000 0.000000 
#    y 0.000000 2.884430 0.000000 
#    z 0.000000 0.000000 3.585310 
# 
# 
# High freq. dielectric constant tensor:
#      x y z
#    x 1.708440 0.000000 0.000000 
#    y 0.000000 1.654700 0.000000 
#    z 0.000000 0.000000 1.716980 
# 
# From -- ./inp_files/12290.got.cif
#   From: 2010.03.12/outbox.cif.g09.slc.cpg/sg51_7_cif.got.tgz:12290.got - 2010.04.16 13:43:02.
