data_PCOD8210368
_publ_section_title
;
Structure prediction by ZEFSAII (Michael W. Deem and Ramdas Pophale) SiO2 
 PCOD8210368
Probable space group: P M M A
;
_chemical_formula_sum "Si O2"
_cell_formula_units_Z 48
_cell_length_a 23.739767
_cell_length_b 9.263427
_cell_length_c 11.835530
_cell_angle_alpha 90.000000
_cell_angle_beta 90.000000
_cell_angle_gamma 90.000000
_cell_volume 2602.770323
_symmetry_space_group_name_H-M "P M M A"
_symmetry_group_IT_number 51
_symmetry_cell_setting 'orthorhombic'
loop_
_space_group_symop_operation_xyz
x,y,z
1/2-x,-y,z
1/2+x,-y,-z
-x,y,-z
-x,-y,-z
1/2+x,y,-z
1/2-x,y,z
x,-y,z
loop_
_atom_site_type_symbol
_atom_site_label
_atom_site_fract_x
_atom_site_fract_y
_atom_site_fract_z
Si Si1 0.313854 0.328570 0.375673
Si Si2 0.685703 0.839026 0.185460
Si Si3 0.970199 0.669131 0.256078
Si Si4 0.409129 0.671720 0.211355
Si Si5 0.102861 0.669218 0.955596
Si Si6 0.637332 0.328566 0.385247
O O1 0.250000 0.264937 0.367434
O O2 0.310075 0.500000 0.372012
O O3 0.353056 0.268266 0.273821
O O4 0.345236 0.278899 0.489970
O O5 0.750000 0.849663 0.151975
O O6 0.657349 0.757379 0.081311
O O7 0.679821 0.748826 0.300446
O O8 0.660118 0.000000 0.201133
O O9 0.975624 0.500000 0.268546
O O10 0.947721 0.707432 0.130485
O O11 0.926574 0.723147 0.353029
O O12 0.033403 0.733724 0.269915
O O13 0.408457 0.500000 0.220163
O O14 0.411600 0.720821 0.081501
O O15 0.117051 0.500000 0.951450
O O16 0.643398 0.500000 0.369033
#
# Coordination Sequence:
#
# PCOD8210368 Si02
#       6
#     8   8   8   8   8   8
#     4   9  17  27  40  64  97 127 154 187 228 273
#     4  10  20  32  47  68  93 121 155 196 237 275
#     4   8  14  25  43  68  93 118 152 192 234 274
#     4   9  16  26  43  68  98 126 151 187 231 275
#     4   9  17  29  47  70  94 122 155 191 232 277
#     4   9  17  30  49  70  92 119 152 193 236 276
#
# _framework density 18.441887999999999
#
# number of rings (size 3 to 8) (size 9 to 14) (size 15 to 20)
#    0.000    3.000    0.000    2.500    0.000    5.333 
#    0.000    5.000    0.000    9.000    0.000    7.000 
#    0.000    0.000    0.000    0.000    0.000    0.000 
#
# Total GULP energy -594756.440249 kJ/mol
# GULP energy per Si atom -12390.759172 kJ/mol
# Density = 1.839991 g / cm^3
# Si number density = 18.441888 Si / 1000 Ang^3
#
#
#
# Elastic Constant Matrix: (Units=GPa)
#
#
# Indices 1 2 3 4 5 6 
#
# 1 143.9596 16.9749 69.9502 0.0000 0.0000 0.0000
# 2 16.9749 27.1913 8.7389 0.0000 0.0000 0.0000
# 3 69.9502 8.7389 93.4581 0.0000 0.0000 0.0000
# 4 0.0000 0.0000 0.0000 4.1505 0.0000 0.0000
# 5 0.0000 0.0000 0.0000 0.0000 22.4680 0.0000
# 6 0.0000 0.0000 0.0000 0.0000 0.0000 9.3044
#
#
#
# Elastic Compliance Matrix: (Units=1/GPa)
#
#
# Indices 1 2 3 4 5 6 
#
# 1 0.011432 -0.004523 -0.008133 0.000000 0.000000 0.000000
# 2 -0.004523 0.039705 -0.000328 0.000000 0.000000 0.000000
# 3 -0.008133 -0.000328 0.016818 0.000000 0.000000 0.000000
# 4 0.000000 0.000000 0.000000 0.240934 0.000000 0.000000
# 5 0.000000 0.000000 0.000000 0.000000 0.044508 0.000000
# 6 0.000000 0.000000 0.000000 0.000000 0.000000 0.107476
#
#
# Mechanical properties :
#
#
# Convention : Reuss Voigt Hill
#
# Bulk Modulus (GPa) = 23.81645 50.65970 37.23807
# Shear Modulus (GPa) = 9.98330 18.44757 14.21544
#
# Velocity S-wave (km/s) = 2.32919 3.16620 2.77938
# Velocity P-wave (km/s) = 4.49176 6.39499 5.52593
#
# Compressibility (1/GPa) = 0.04198779
#
# Stress axis : x y z
#
# Youngs Moduli (GPa) = 87.47630 25.18562 59.45961
#
# Poissons Ratio (x) = 0.11390 0.48360
# Poissons Ratio (y) = 0.39562 0.01948
# Poissons Ratio (z) = 0.71147 0.00825
#
# Static dielectric constant tensor:
#      x y z
#    x 3.773310 0.000000 0.000000 
#    y 0.000000 2.918950 0.000000 
#    z 0.000000 0.000000 3.743710 
# 
# 
# High freq. dielectric constant tensor:
#      x y z
#    x 1.726780 0.000000 0.000000 
#    y 0.000000 1.650450 0.000000 
#    z 0.000000 0.000000 1.711220 
# 
# From -- ./inp_files/18562.got.cif
#   From: 2010.03.12/outbox.cif.g09.slc.cpg/sg51_10_cif.got.tgz:18562.got - 2010.04.16 13:43:02.
