data_PCOD8210641
_publ_section_title
;
Structure prediction by ZEFSAII (Michael W. Deem and Ramdas Pophale) SiO2 
 PCOD8210641
Probable space group: P M M A
;
_chemical_formula_sum "Si O2"
_cell_formula_units_Z 48
_cell_length_a 7.617863
_cell_length_b 9.978307
_cell_length_c 32.686923
_cell_angle_alpha 90.000000
_cell_angle_beta 90.000000
_cell_angle_gamma 90.000000
_cell_volume 2484.643358
_symmetry_space_group_name_H-M "P M M A"
_symmetry_group_IT_number 51
_symmetry_cell_setting 'orthorhombic'
loop_
_space_group_symop_operation_xyz
x,y,z
1/2-x,-y,z
1/2+x,-y,-z
-x,y,-z
-x,-y,-z
1/2+x,y,-z
1/2-x,y,z
x,-y,z
loop_
_atom_site_type_symbol
_atom_site_label
_atom_site_fract_x
_atom_site_fract_y
_atom_site_fract_z
Si Si1 0.551205 0.248600 0.596081
Si Si2 0.750000 0.659346 0.104185
Si Si3 0.547729 0.847031 0.753528
Si Si4 0.458609 0.651443 0.318729
Si Si5 0.054924 0.658919 0.044075
Si Si6 0.544328 0.500000 0.453094
Si Si7 0.750000 0.847330 0.181622
Si Si8 0.457551 0.000000 0.452235
O O1 0.750000 0.206775 0.605597
O O2 0.460279 0.285837 0.639487
O O3 0.548254 0.373310 0.566258
O O4 0.458519 0.127176 0.571565
O O5 0.750000 0.500000 0.112833
O O6 0.579063 0.705970 0.078933
O O7 0.750000 0.739262 0.146041
O O8 0.750000 0.818166 0.765826
O O9 0.482108 0.746357 0.718354
O O10 0.425999 0.821421 0.792518
O O11 0.526171 0.000000 0.737743
O O12 0.250000 0.646057 0.322204
O O13 0.531389 0.500000 0.312202
O O14 0.250000 0.709961 0.055575
O O15 0.050237 0.500000 0.040858
O O16 0.000000 0.719196 0.000000
O O17 0.750000 0.500000 0.444130
O O18 0.500000 0.500000 0.500000
O O19 0.750000 0.000000 0.164776
O O20 0.500000 0.000000 0.500000
O O21 0.250000 0.000000 0.448595
#
# Coordination Sequence:
#
# PCOD8210641 Si02
#       8
#     8   4   8   8   8   4   4   4
#     4  10  20  37  57  81 108 139 176 219 264 321
#     4  10  20  32  52  82 112 148 194 240 286 336
#     4   9  19  36  59  81 104 142 185 227 274 337
#     4   9  17  32  56  84 111 135 167 213 273 325
#     4   9  15  26  47  78 114 149 189 240 291 335
#     4  12  24  38  56  78 106 144 182 214 262 324
#     4  10  22  40  56  78 114 150 192 232 286 342
#     4  10  22  36  56  78 104 140 180 218 262 310
#
# _framework density 19.318669
#
# number of rings (size 3 to 8) (size 9 to 14) (size 15 to 20)
#    0.000    2.333    1.667    1.250    1.167    3.333 
#    1.500    0.000    0.000    0.500    0.000    0.000 
#    0.000    0.000    0.000    0.000    0.000    0.000 
#
# Total GULP energy -595006.143073 kJ/mol
# GULP energy per Si atom -12395.961314 kJ/mol
# Density = 1.927470 g / cm^3
# Si number density = 19.318669 Si / 1000 Ang^3
#
#
#
# Elastic Constant Matrix: (Units=GPa)
#
#
# Indices 1 2 3 4 5 6 
#
# 1 87.6730 25.1759 47.6013 0.0000 0.0000 0.0000
# 2 25.1759 130.4445 84.5063 0.0000 0.0000 0.0000
# 3 47.6013 84.5063 159.1591 0.0000 0.0000 0.0000
# 4 0.0000 0.0000 0.0000 33.3473 0.0000 0.0000
# 5 0.0000 0.0000 0.0000 0.0000 23.6180 0.0000
# 6 0.0000 0.0000 0.0000 0.0000 0.0000 16.9527
#
#
#
# Elastic Compliance Matrix: (Units=1/GPa)
#
#
# Indices 1 2 3 4 5 6 
#
# 1 0.013617 0.000016 -0.004081 0.000000 0.000000 0.000000
# 2 0.000016 0.011686 -0.006209 0.000000 0.000000 0.000000
# 3 -0.004081 -0.006209 0.010800 0.000000 0.000000 0.000000
# 4 0.000000 0.000000 0.000000 0.029987 0.000000 0.000000
# 5 0.000000 0.000000 0.000000 0.000000 0.042341 0.000000
# 6 0.000000 0.000000 0.000000 0.000000 0.000000 0.058988
#
#
# Mechanical properties :
#
#
# Convention : Reuss Voigt Hill
#
# Bulk Modulus (GPa) = 64.29140 76.87150 70.58145
# Shear Modulus (GPa) = 25.88627 29.44981 27.66804
#
# Velocity S-wave (km/s) = 3.66452 3.90862 3.78854
# Velocity P-wave (km/s) = 7.15937 7.76192 7.46673
#
# Compressibility (1/GPa) = 0.01555418
#
# Stress axis : x y z
#
# Youngs Moduli (GPa) = 73.43627 85.57532 92.58953
#
# Poissons Ratio (x) = -0.00134 0.37785
# Poissons Ratio (y) = -0.00115 0.57491
# Poissons Ratio (z) = 0.29969 0.53135
#
# Static dielectric constant tensor:
#      x y z
#    x 3.593920 0.000000 0.000000 
#    y 0.000000 3.578570 0.000000 
#    z 0.000000 0.000000 3.457600 
# 
# 
# High freq. dielectric constant tensor:
#      x y z
#    x 1.748260 0.000000 0.000000 
#    y 0.000000 1.737460 0.000000 
#    z 0.000000 0.000000 1.744610 
# 
# From -- ./inp_files/37297.got.cif
#   From: 2010.03.12/outbox.cif.g09.slc.cpg/sg51_19_cif.got.tgz:37297.got - 2010.04.16 13:43:02.
