data_PCOD8210050
_publ_section_title
;
Structure prediction by ZEFSAII (Michael W. Deem and Ramdas Pophale) SiO2 
 PCOD8210050
Probable space group: P M M A
;
_chemical_formula_sum "Si O2"
_cell_formula_units_Z 48
_cell_length_a 34.325634
_cell_length_b 7.762633
_cell_length_c 9.011375
_cell_angle_alpha 90.000000
_cell_angle_beta 90.000000
_cell_angle_gamma 90.000000
_cell_volume 2401.146645
_symmetry_space_group_name_H-M "P M M A"
_symmetry_group_IT_number 51
_symmetry_cell_setting 'orthorhombic'
loop_
_space_group_symop_operation_xyz
x,y,z
1/2-x,-y,z
1/2+x,-y,-z
-x,y,-z
-x,-y,-z
1/2+x,y,-z
1/2-x,y,z
x,-y,z
loop_
_atom_site_type_symbol
_atom_site_label
_atom_site_fract_x
_atom_site_fract_y
_atom_site_fract_z
Si Si1 0.706637 0.000000 0.670883
Si Si2 0.151320 0.696325 0.677737
Si Si3 0.998047 0.301391 0.336657
Si Si4 0.927045 0.298536 0.146212
Si Si5 0.152852 0.691800 0.333933
Si Si6 0.423722 0.195285 0.183982
Si Si7 0.706586 0.000000 0.318826
O O1 0.684182 0.170708 0.726633
O O2 0.750000 0.000000 0.740366
O O3 0.709449 0.000000 0.494960
O O4 0.165363 0.500000 0.706529
O O5 0.112119 0.738648 0.764291
O O6 0.142403 0.728515 0.504886
O O7 0.184534 0.827172 0.735288
O O8 0.987335 0.500000 0.358435
O O9 0.038282 0.283009 0.250951
O O10 0.000000 0.213578 0.500000
O O11 0.963015 0.219780 0.240387
O O12 0.932835 0.500000 0.112555
O O13 0.925555 0.197304 0.992877
O O14 0.170612 0.500000 0.315075
O O15 0.113656 0.700720 0.239167
O O16 0.420787 0.000000 0.240542
O O17 0.750000 0.000000 0.249563
#
# Coordination Sequence:
#
# PCOD8210050 Si02
#       7
#     4   8   8   8   8   8   4
#     4   9  18  34  55  88 121 144 183 233 284 343
#     4   9  19  35  58  84 111 148 191 232 279 336
#     4  10  21  39  60  81 109 147 191 237 284 335
#     4  10  21  37  56  80 110 149 194 235 279 333
#     4  10  19  36  59  83 114 152 191 233 284 337
#     4  12  24  36  53  82 115 150 193 236 281 335
#     4   9  18  32  55  86 119 148 177 227 286 337
#
# _framework density 19.990449000000002
#
# number of rings (size 3 to 8) (size 9 to 14) (size 15 to 20)
#    0.000    2.000    0.833    3.000    1.167    6.333 
#    0.000    3.333    0.000    2.000    0.000    2.333 
#    0.000    0.000    0.000    0.000    0.000    0.000 
#
# Total GULP energy -595290.369578 kJ/mol
# GULP energy per Si atom -12401.882700 kJ/mol
# Density = 1.994495 g / cm^3
# Si number density = 19.990449 Si / 1000 Ang^3
#
#
#
# Elastic Constant Matrix: (Units=GPa)
#
#
# Indices 1 2 3 4 5 6 
#
# 1 169.7759 55.3523 50.2367 0.0000 0.0000 0.0000
# 2 55.3523 93.7679 26.0252 0.0000 0.0000 0.0000
# 3 50.2367 26.0252 88.5246 0.0000 0.0000 0.0000
# 4 0.0000 0.0000 0.0000 15.8199 0.0000 0.0000
# 5 0.0000 0.0000 0.0000 0.0000 -1.1753 0.0000
# 6 0.0000 0.0000 0.0000 0.0000 0.0000 29.5809
#
#
#
# Elastic Compliance Matrix: (Units=1/GPa)
#
#
# Indices 1 2 3 4 5 6 
#
# 1 0.008187 -0.003858 -0.003512 0.000000 0.000000 0.000000
# 2 -0.003858 0.013430 -0.001759 0.000000 0.000000 0.000000
# 3 -0.003512 -0.001759 0.013806 0.000000 0.000000 0.000000
# 4 0.000000 0.000000 0.000000 0.063212 0.000000 0.000000
# 5 0.000000 0.000000 0.000000 0.000000 -0.850844 0.000000
# 6 0.000000 0.000000 0.000000 0.000000 0.000000 0.033806
#
#
# Mechanical properties :
#
#
# Convention : Reuss Voigt Hill
#
# Bulk Modulus (GPa) = 58.25490 68.36630 63.31060
# Shear Modulus (GPa) = -7.20023 23.54203 8.17090
#
# Velocity S-wave (km/s) = -1.89991 3.43543 2.02393
# Velocity P-wave (km/s) = 4.93880 7.07177 6.09925
#
# Compressibility (1/GPa) = 0.01716594
#
# Stress axis : x y z
#
# Youngs Moduli (GPa) = 122.14185 74.45800 72.43063
#
# Poissons Ratio (x) = 0.28728 0.25437
# Poissons Ratio (y) = 0.47126 0.12739
# Poissons Ratio (z) = 0.42894 0.13096
#
# Static dielectric constant tensor:
#      x y z
#    x 3.687670 0.000000 0.000000 
#    y 0.000000 3.645970 0.000000 
#    z 0.000000 0.000000 3.483080 
# 
# 
# High freq. dielectric constant tensor:
#      x y z
#    x 1.776290 0.000000 0.000000 
#    y 0.000000 1.784010 0.000000 
#    z 0.000000 0.000000 1.761790 
# 
# From -- ./inp_files/12946.got.cif
#   From: 2010.03.12/outbox.cif.g09.slc.cpg/sg51_7_cif.got.tgz:12946.got - 2010.04.16 13:43:02.
