data_PCOD8210533
_publ_section_title
;
Structure prediction by ZEFSAII (Michael W. Deem and Ramdas Pophale) SiO2 
 PCOD8210533
Probable space group: P M M A
;
_chemical_formula_sum "Si O2"
_cell_formula_units_Z 56
_cell_length_a 15.501982
_cell_length_b 8.911346
_cell_length_c 21.657439
_cell_angle_alpha 90.000000
_cell_angle_beta 90.000000
_cell_angle_gamma 90.000000
_cell_volume 2991.834972
_symmetry_space_group_name_H-M "P M M A"
_symmetry_group_IT_number 51
_symmetry_cell_setting 'orthorhombic'
loop_
_space_group_symop_operation_xyz
x,y,z
1/2-x,-y,z
1/2+x,-y,-z
-x,y,-z
-x,-y,-z
1/2+x,y,-z
1/2-x,y,z
x,-y,z
loop_
_atom_site_type_symbol
_atom_site_label
_atom_site_fract_x
_atom_site_fract_y
_atom_site_fract_z
Si Si1 0.001334 0.179017 0.286559
Si Si2 0.152026 0.174675 0.060011
Si Si3 0.844701 0.178122 0.630102
Si Si4 0.402422 0.821602 0.500980
Si Si5 0.003386 0.822669 0.852889
Si Si6 0.655219 0.821780 0.367716
Si Si7 0.348608 0.323676 0.931135
O O1 0.084272 0.244033 0.323008
O O2 0.004015 0.238834 0.216745
O O3 0.915660 0.242275 0.320259
O O4 0.002406 0.000000 0.287108
O O5 0.250000 0.210014 0.082252
O O6 0.084861 0.224850 0.112687
O O7 0.141573 0.000000 0.044134
O O8 0.127876 0.266143 0.999109
O O9 0.750000 0.225571 0.654039
O O10 0.856795 0.241708 0.560644
O O11 0.854769 0.000000 0.627955
O O12 0.500000 0.765309 0.500000
O O13 0.358341 0.757526 0.563051
O O14 0.397126 0.000000 0.501440
O O15 0.088118 0.750791 0.882183
O O16 0.015870 0.000000 0.854670
O O17 0.750000 0.772584 0.344373
O O18 0.646426 0.000000 0.370069
O O19 0.250000 0.279859 0.914344
O O20 0.362564 0.500000 0.929919
#
# Coordination Sequence:
#
# PCOD8210533 Si02
#       7
#     8   8   8   8   8   8   8
#     4   9  17  27  36  53  81 113 150 189 224 268
#     4   9  18  33  52  74 100 128 158 194 237 284
#     4   9  15  22  33  49  72 107 150 193 236 277
#     4   9  13  19  31  45  67 100 142 192 235 270
#     4  10  20  32  49  72  99 131 164 195 235 285
#     4   9  15  22  32  46  68 102 144 187 228 268
#     4  10  21  36  54  76  99 123 155 197 242 285
#
# _framework density 18.717611000000002
#
# number of rings (size 3 to 8) (size 9 to 14) (size 15 to 20)
#    0.000    2.714    1.429    1.286    0.000    6.000 
#    0.000    4.286    0.000    0.000    0.000    0.000 
#    0.000    0.000    0.000    2.571    0.000    8.286 
#
# Total GULP energy -694180.276133 kJ/mol
# GULP energy per Si atom -12396.076360 kJ/mol
# Density = 1.867501 g / cm^3
# Si number density = 18.717611 Si / 1000 Ang^3
#
#
#
# Elastic Constant Matrix: (Units=GPa)
#
#
# Indices 1 2 3 4 5 6 
#
# 1 169.0147 19.8039 104.7400 0.0000 0.0000 0.0000
# 2 19.8039 15.4812 21.6289 0.0000 0.0000 0.0000
# 3 104.7400 21.6289 170.9599 0.0000 0.0000 0.0000
# 4 0.0000 0.0000 0.0000 -2.0501 0.0000 0.0000
# 5 0.0000 0.0000 0.0000 0.0000 21.1359 0.0000
# 6 0.0000 0.0000 0.0000 0.0000 0.0000 11.7831
#
#
#
# Elastic Compliance Matrix: (Units=1/GPa)
#
#
# Indices 1 2 3 4 5 6 
#
# 1 0.009855 -0.005067 -0.005396 0.000000 0.000000 0.000000
# 2 -0.005067 0.081068 -0.007152 0.000000 0.000000 0.000000
# 3 -0.005396 -0.007152 0.010060 0.000000 0.000000 0.000000
# 4 0.000000 0.000000 0.000000 -0.487791 0.000000 0.000000
# 5 0.000000 0.000000 0.000000 0.000000 0.047313 0.000000
# 6 0.000000 0.000000 0.000000 0.000000 0.000000 0.084867
#
#
# Mechanical properties :
#
#
# Convention : Reuss Voigt Hill
#
# Bulk Modulus (GPa) = 15.20856 71.97795 43.59326
# Shear Modulus (GPa) = -25.31905 20.12598 -2.59654
#
# Velocity S-wave (km/s) = -3.68188 3.28265 -1.17908
# Velocity P-wave (km/s) = 3.15152 7.27364 4.63540
#
# Compressibility (1/GPa) = 0.06575243
#
# Stress axis : x y z
#
# Youngs Moduli (GPa) = 101.47585 12.33530 99.40001
#
# Poissons Ratio (x) = 0.06250 0.53641
# Poissons Ratio (y) = 0.51415 0.71092
# Poissons Ratio (z) = 0.54761 0.08822
#
# Static dielectric constant tensor:
#      x y z
#    x 3.704820 0.000000 0.000000 
#    y 0.000000 2.743080 0.000000 
#    z 0.000000 0.000000 3.596150 
# 
# 
# High freq. dielectric constant tensor:
#      x y z
#    x 1.745980 0.000000 0.000000 
#    y 0.000000 1.650580 0.000000 
#    z 0.000000 0.000000 1.728040 
# 
# From -- ./inp_files/33371.got.cif
#   From: 2010.03.12/outbox.cif.g09.slc.cpg/sg51_17_cif.got.tgz:33371.got - 2010.04.16 13:43:02.
