data_PCOD8210747
_publ_section_title
;
Structure prediction by ZEFSAII (Michael W. Deem and Ramdas Pophale) SiO2 
 PCOD8210747
Probable space group: P M M A
;
_chemical_formula_sum "Si O2"
_cell_formula_units_Z 64
_cell_length_a 15.924495
_cell_length_b 8.824129
_cell_length_c 23.630599
_cell_angle_alpha 90.000000
_cell_angle_beta 90.000000
_cell_angle_gamma 90.000000
_cell_volume 3320.567001
_symmetry_space_group_name_H-M "P M M A"
_symmetry_group_IT_number 51
_symmetry_cell_setting 'orthorhombic'
loop_
_space_group_symop_operation_xyz
x,y,z
1/2-x,-y,z
1/2+x,-y,-z
-x,y,-z
-x,-y,-z
1/2+x,y,-z
1/2-x,y,z
x,-y,z
loop_
_atom_site_type_symbol
_atom_site_label
_atom_site_fract_x
_atom_site_fract_y
_atom_site_fract_z
Si Si1 0.994353 0.678828 0.869171
Si Si2 0.927372 0.834097 0.638295
Si Si3 0.345141 0.821954 0.468997
Si Si4 0.345502 0.178291 0.927107
Si Si5 0.843682 0.672160 0.302498
Si Si6 0.498609 0.180613 0.750610
Si Si7 0.609875 0.167594 0.410959
Si Si8 0.654853 0.324385 0.953133
O O1 0.002751 0.500000 0.865583
O O2 0.084459 0.742264 0.888642
O O3 0.970621 0.744912 0.808260
O O4 0.916101 0.727101 0.908657
O O5 0.872975 0.743389 0.590938
O O6 0.940013 0.756306 0.700020
O O7 0.016858 0.852030 0.610019
O O8 0.887574 0.000000 0.649630
O O9 0.250000 0.781380 0.479463
O O10 0.391666 0.761451 0.525483
O O11 0.363832 0.000000 0.461563
O O12 0.250000 0.225216 0.908837
O O13 0.357827 0.000000 0.921247
O O14 0.361013 0.225018 0.991623
O O15 0.750000 0.684660 0.277322
O O16 0.876603 0.500000 0.300474
O O17 0.902796 0.774607 0.263156
O O18 0.840280 0.725680 0.367721
O O19 0.502871 0.000000 0.754665
O O20 0.652988 0.000000 0.413171
O O21 0.750000 0.296936 0.929498
O O22 0.642726 0.500000 0.969473
#
# Coordination Sequence:
#
# PCOD8210747 Si02
#       8
#     8   8   8   8   8   8   8   8
#     4  11  22  36  57  82 109 144 183 223 265 310
#     4   8  15  28  44  63  90 124 159 197 243 291
#     4   9  15  23  41  70  97 119 151 198 248 298
#     4  10  21  36  56  85 119 150 178 213 260 312
#     4  10  20  33  49  70  98 130 162 202 254 309
#     4  10  21  36  53  71  95 131 174 216 255 301
#     4   9  16  27  46  70  94 122 157 196 241 298
#     4   9  19  37  59  83 112 146 183 220 261 311
#
# _framework density 19.273817000000001
#
# number of rings (size 3 to 8) (size 9 to 14) (size 15 to 20)
#    0.000    2.500    0.000    3.375    0.000    6.750 
#    0.000    0.625    0.000    7.500    0.000    0.000 
#    0.000    0.000    0.000    0.000    0.000    0.000 
#
# Total GULP energy -792986.404046 kJ/mol
# GULP energy per Si atom -12390.412563 kJ/mol
# Density = 1.922995 g / cm^3
# Si number density = 19.273817 Si / 1000 Ang^3
#
#
#
# Elastic Constant Matrix: (Units=GPa)
#
#
# Indices 1 2 3 4 5 6 
#
# 1 46.8524 16.4942 34.8659 0.0000 0.0000 0.0000
# 2 16.4942 51.7113 26.6949 0.0000 0.0000 0.0000
# 3 34.8659 26.6949 121.8283 0.0000 0.0000 0.0000
# 4 0.0000 0.0000 0.0000 8.7156 0.0000 0.0000
# 5 0.0000 0.0000 0.0000 0.0000 13.6675 0.0000
# 6 0.0000 0.0000 0.0000 0.0000 0.0000 16.6184
#
#
#
# Elastic Compliance Matrix: (Units=1/GPa)
#
#
# Indices 1 2 3 4 5 6 
#
# 1 0.028438 -0.005490 -0.006935 0.000000 0.000000 0.000000
# 2 -0.005490 0.022865 -0.003439 0.000000 0.000000 0.000000
# 3 -0.006935 -0.003439 0.010947 0.000000 0.000000 0.000000
# 4 0.000000 0.000000 0.000000 0.114737 0.000000 0.000000
# 5 0.000000 0.000000 0.000000 0.000000 0.073166 0.000000
# 6 0.000000 0.000000 0.000000 0.000000 0.000000 0.060174
#
#
# Mechanical properties :
#
#
# Convention : Reuss Voigt Hill
#
# Bulk Modulus (GPa) = 32.76587 41.83356 37.29971
# Shear Modulus (GPa) = 14.19532 17.28944 15.74238
#
# Velocity S-wave (km/s) = 2.71681 2.99832 2.86103
# Velocity P-wave (km/s) = 5.18445 5.80849 5.50532
#
# Compressibility (1/GPa) = 0.03051957
#
# Stress axis : x y z
#
# Youngs Moduli (GPa) = 35.16463 43.73575 91.35230
#
# Poissons Ratio (x) = 0.24013 0.63357
# Poissons Ratio (y) = 0.19307 0.31414
# Poissons Ratio (z) = 0.24388 0.15040
#
# Static dielectric constant tensor:
#      x y z
#    x 3.542690 0.000000 0.000000 
#    y 0.000000 3.304460 0.000000 
#    z 0.000000 0.000000 3.737920 
# 
# 
# High freq. dielectric constant tensor:
#      x y z
#    x 1.742280 0.000000 0.000000 
#    y 0.000000 1.718940 0.000000 
#    z 0.000000 0.000000 1.754750 
# 
# From -- ./inp_files/35919.got.cif
#   From: 2010.03.12/outbox.cif.g09.slc.cpg/sg51_18_cif.got.tgz:35919.got - 2010.04.16 13:43:02.
