data_PCOD8210358
_publ_section_title
;
Structure prediction by ZEFSAII (Michael W. Deem and Ramdas Pophale) SiO2 
 PCOD8210358
Probable space group: P M M A
;
_chemical_formula_sum "Si O2"
_cell_formula_units_Z 64
_cell_length_a 9.086402
_cell_length_b 14.711594
_cell_length_c 25.741813
_cell_angle_alpha 90.000000
_cell_angle_beta 90.000000
_cell_angle_gamma 90.000000
_cell_volume 3441.048621
_symmetry_space_group_name_H-M "P M M A"
_symmetry_group_IT_number 51
_symmetry_cell_setting 'orthorhombic'
loop_
_space_group_symop_operation_xyz
x,y,z
1/2-x,-y,z
1/2+x,-y,-z
-x,y,-z
-x,-y,-z
1/2+x,y,-z
1/2-x,y,z
x,-y,z
loop_
_atom_site_type_symbol
_atom_site_label
_atom_site_fract_x
_atom_site_fract_y
_atom_site_fract_z
Si Si1 0.083069 0.392087 0.847342
Si Si2 0.422707 0.396047 0.657920
Si Si3 0.591549 0.165770 0.546146
Si Si4 0.586796 0.626211 0.548706
Si Si5 0.077777 0.300598 0.247091
Si Si6 0.912126 0.898949 0.363802
Si Si7 0.583983 0.901484 0.739703
Si Si8 0.083376 0.391694 0.050819
O O1 0.250000 0.354733 0.846256
O O2 0.083239 0.500000 0.847454
O O3 0.995509 0.359706 0.797370
O O4 0.002276 0.354661 0.898766
O O5 0.250000 0.370893 0.654661
O O6 0.442307 0.500000 0.677751
O O7 0.494555 0.387130 0.601288
O O8 0.501544 0.326380 0.698029
O O9 0.500000 0.117519 0.500000
O O10 0.750000 0.116764 0.549291
O O11 0.611813 0.270238 0.533247
O O12 0.513807 0.163574 0.601506
O O13 0.500000 0.580397 0.500000
O O14 0.750000 0.581959 0.555199
O O15 0.250000 0.324641 0.251243
O O16 0.055546 0.193670 0.230326
O O17 0.750000 0.855951 0.363798
O O18 0.968434 0.901675 0.305934
O O19 0.910729 0.000000 0.387686
O O20 0.750000 0.898358 0.717363
O O21 0.563398 0.000000 0.770327
O O22 0.250000 0.353980 0.051364
O O23 0.084534 0.500000 0.050302
O O24 0.000000 0.354131 0.000000
#
# Coordination Sequence:
#
# PCOD8210358 Si02
#       8
#     8   8   8   8   8   8   8   8
#     4  10  20  33  49  72 106 147 186 222 261 304
#     4  11  24  39  54  74 101 133 166 201 246 300
#     4  10  20  33  49  68  89 114 144 179 224 278
#     4  10  21  37  56  75  93 117 153 197 243 291
#     4  11  22  35  54  78 103 134 171 211 256 304
#     4  10  20  32  47  68  91 115 145 182 228 284
#     4   9  19  36  55  74  97 125 158 198 246 300
#     4   9  16  27  45  70 102 142 187 230 267 303
#
# _framework density 18.598981999999999
#
# number of rings (size 3 to 8) (size 9 to 14) (size 15 to 20)
#    0.000    2.000    0.000    3.750    0.000   11.500 
#    0.000    0.000    0.000    0.000    0.000    0.000 
#    0.000    0.500    0.000    1.375    0.000    2.000 
#
# Total GULP energy -793047.668218 kJ/mol
# GULP energy per Si atom -12391.369816 kJ/mol
# Density = 1.855665 g / cm^3
# Si number density = 18.598982 Si / 1000 Ang^3
#
#
#
# Elastic Constant Matrix: (Units=GPa)
#
#
# Indices 1 2 3 4 5 6 
#
# 1 161.1994 17.6863 52.1895 0.0000 0.0000 0.0000
# 2 17.6863 45.2087 7.4884 0.0000 0.0000 0.0000
# 3 52.1895 7.4884 102.0064 0.0000 0.0000 0.0000
# 4 0.0000 0.0000 0.0000 12.4709 0.0000 0.0000
# 5 0.0000 0.0000 0.0000 0.0000 32.9743 0.0000
# 6 0.0000 0.0000 0.0000 0.0000 0.0000 3.0124
#
#
#
# Elastic Compliance Matrix: (Units=1/GPa)
#
#
# Indices 1 2 3 4 5 6 
#
# 1 0.007681 -0.002383 -0.003755 0.000000 0.000000 0.000000
# 2 -0.002383 0.023131 -0.000479 0.000000 0.000000 0.000000
# 3 -0.003755 -0.000479 0.011759 0.000000 0.000000 0.000000
# 4 0.000000 0.000000 0.000000 0.080187 0.000000 0.000000
# 5 0.000000 0.000000 0.000000 0.000000 0.030327 0.000000
# 6 0.000000 0.000000 0.000000 0.000000 0.000000 0.331963
#
#
# Mechanical properties :
#
#
# Convention : Reuss Voigt Hill
#
# Bulk Modulus (GPa) = 34.08516 51.46033 42.77274
# Shear Modulus (GPa) = 9.84135 25.09487 17.46811
#
# Velocity S-wave (km/s) = 2.30279 3.67721 3.06796
# Velocity P-wave (km/s) = 5.04347 6.76444 5.96633
#
# Compressibility (1/GPa) = 0.02933828
#
# Stress axis : x y z
#
# Youngs Moduli (GPa) = 130.19932 43.23169 85.03789
#
# Poissons Ratio (x) = 0.10301 0.31929
# Poissons Ratio (y) = 0.31024 0.04073
# Poissons Ratio (z) = 0.48885 0.02071
#
# Static dielectric constant tensor:
#      x y z
#    x 3.887060 0.000000 0.000000 
#    y 0.000000 3.546600 0.000000 
#    z 0.000000 0.000000 3.173300 
# 
# 
# High freq. dielectric constant tensor:
#      x y z
#    x 1.747530 0.000000 0.000000 
#    y 0.000000 1.702860 0.000000 
#    z 0.000000 0.000000 1.688010 
# 
# From -- ./inp_files/34985.got.cif
#   From: 2010.03.12/outbox.cif.g09.slc.cpg/sg51_18_cif.got.tgz:34985.got - 2010.04.16 13:43:02.
