data_PCOD8210998
_publ_section_title
;
Structure prediction by ZEFSAII (Michael W. Deem and Ramdas Pophale) SiO2 
 PCOD8210998
Probable space group: P M M A
;
_chemical_formula_sum "Si O2"
_cell_formula_units_Z 44
_cell_length_a 9.167463
_cell_length_b 7.805090
_cell_length_c 30.328708
_cell_angle_alpha 90.000000
_cell_angle_beta 90.000000
_cell_angle_gamma 90.000000
_cell_volume 2170.106216
_symmetry_space_group_name_H-M "P M M A"
_symmetry_group_IT_number 51
_symmetry_cell_setting 'orthorhombic'
loop_
_space_group_symop_operation_xyz
x,y,z
1/2-x,-y,z
1/2+x,-y,-z
-x,y,-z
-x,-y,-z
1/2+x,y,-z
1/2-x,y,z
x,-y,z
loop_
_atom_site_type_symbol
_atom_site_label
_atom_site_fract_x
_atom_site_fract_y
_atom_site_fract_z
Si Si1 0.076246 0.000000 0.546657
Si Si2 0.913756 0.295633 0.787676
Si Si3 0.423562 0.309171 0.607365
Si Si4 0.414914 0.296920 0.872833
Si Si5 0.911795 0.702615 0.295329
Si Si6 0.911902 0.199601 0.959028
O O1 0.021127 0.169602 0.572293
O O2 0.000000 0.000000 0.500000
O O3 0.250000 0.000000 0.541115
O O4 0.750000 0.223647 0.791779
O O5 0.913025 0.500000 0.787097
O O6 0.007425 0.226662 0.828819
O O7 0.983541 0.222067 0.742540
O O8 0.250000 0.314193 0.608706
O O9 0.482605 0.500000 0.594736
O O10 0.477472 0.253742 0.656277
O O11 0.250000 0.225753 0.874206
O O12 0.415489 0.500000 0.873208
O O13 0.502014 0.228610 0.914330
O O14 0.750000 0.782789 0.289666
O O15 0.899816 0.500000 0.290381
O O16 0.750000 0.283253 0.956146
O O17 0.894670 0.000000 0.967855
O O18 0.000000 0.283753 0.000000
#
# Coordination Sequence:
#
# PCOD8210998 Si02
#       6
#     4   8   8   8   8   8
#     4  10  20  34  52  74 102 136 172 214 263 312
#     4   9  16  26  43  70 102 132 162 199 246 299
#     4   8  15  29  50  74  99 131 172 215 258 308
#     4  10  20  33  51  76 104 134 169 209 251 298
#     4   8  13  24  44  67  90 121 162 202 239 287
#     4  10  21  37  56  75  96 127 166 208 256 310
#
# _framework density 20.275506
#
# number of rings (size 3 to 8) (size 9 to 14) (size 15 to 20)
#    0.000    2.909    0.000    2.727    0.000    5.091 
#    0.000    0.909    2.000    1.091    0.000    0.000 
#    0.000    0.000    0.000    0.000    0.000    0.000 
#
# Total GULP energy -545409.233969 kJ/mol
# GULP energy per Si atom -12395.664408 kJ/mol
# Density = 2.022936 g / cm^3
# Si number density = 20.275506 Si / 1000 Ang^3
#
#
#
# Elastic Constant Matrix: (Units=GPa)
#
#
# Indices 1 2 3 4 5 6 
#
# 1 138.4959 22.7119 79.5262 0.0000 0.0000 0.0000
# 2 22.7119 49.1575 44.5660 0.0000 0.0000 0.0000
# 3 79.5262 44.5660 193.9853 0.0000 0.0000 0.0000
# 4 0.0000 0.0000 0.0000 47.6947 0.0000 0.0000
# 5 0.0000 0.0000 0.0000 0.0000 -2.2024 0.0000
# 6 0.0000 0.0000 0.0000 0.0000 0.0000 12.0997
#
#
#
# Elastic Compliance Matrix: (Units=1/GPa)
#
#
# Indices 1 2 3 4 5 6 
#
# 1 0.009489 -0.001083 -0.003641 0.000000 0.000000 0.000000
# 2 -0.001083 0.025818 -0.005487 0.000000 0.000000 0.000000
# 3 -0.003641 -0.005487 0.007908 0.000000 0.000000 0.000000
# 4 0.000000 0.000000 0.000000 0.020967 0.000000 0.000000
# 5 0.000000 0.000000 0.000000 0.000000 -0.454057 0.000000
# 6 0.000000 0.000000 0.000000 0.000000 0.000000 0.082647
#
#
# Mechanical properties :
#
#
# Convention : Reuss Voigt Hill
#
# Bulk Modulus (GPa) = 43.87484 75.02743 59.45114
# Shear Modulus (GPa) = -17.90782 27.17404 4.63311
#
# Velocity S-wave (km/s) = -2.97513 3.66490 1.51329
# Velocity P-wave (km/s) = 3.14395 7.41572 5.69550
#
# Compressibility (1/GPa) = 0.02279210
#
# Stress axis : x y z
#
# Youngs Moduli (GPa) = 105.38642 38.73264 126.44642
#
# Poissons Ratio (x) = 0.04194 0.46043
# Poissons Ratio (y) = 0.11413 0.69387
# Poissons Ratio (z) = 0.38374 0.21254
#
# Static dielectric constant tensor:
#      x y z
#    x 3.822990 0.000000 0.000000 
#    y 0.000000 3.447000 0.000000 
#    z 0.000000 0.000000 3.869900 
# 
# 
# High freq. dielectric constant tensor:
#      x y z
#    x 1.774960 0.000000 0.000000 
#    y 0.000000 1.760970 0.000000 
#    z 0.000000 0.000000 1.800330 
# 
# From -- ./inp_files/36731.got.cif
#   From: 2010.03.12/outbox.cif.g09.slc.cpg/sg51_19_cif.got.tgz:36731.got - 2010.04.16 13:43:02.
