data_PCOD8210002
_publ_section_title
;
Structure prediction by ZEFSAII (Michael W. Deem and Ramdas Pophale) SiO2 
 PCOD8210002
Probable space group: P M M A
;
_chemical_formula_sum "Si O2"
_cell_formula_units_Z 48
_cell_length_a 20.106330
_cell_length_b 9.189118
_cell_length_c 14.262139
_cell_angle_alpha 90.000000
_cell_angle_beta 90.000000
_cell_angle_gamma 90.000000
_cell_volume 2635.064799
_symmetry_space_group_name_H-M "P M M A"
_symmetry_group_IT_number 51
_symmetry_cell_setting 'orthorhombic'
loop_
_space_group_symop_operation_xyz
x,y,z
1/2-x,-y,z
1/2+x,-y,-z
-x,y,-z
-x,-y,-z
1/2+x,y,-z
1/2-x,y,z
x,-y,z
loop_
_atom_site_type_symbol
_atom_site_label
_atom_site_fract_x
_atom_site_fract_y
_atom_site_fract_z
Si Si1 0.174110 0.332952 0.063280
Si Si2 0.129040 0.169625 0.243177
Si Si3 0.023218 0.832692 0.741629
Si Si4 0.066713 0.832008 0.949342
Si Si5 0.173609 0.833327 0.448969
Si Si6 0.563305 0.672137 0.439529
O O1 0.250000 0.317133 0.030048
O O2 0.152715 0.500000 0.072715
O O3 0.166382 0.258948 0.163946
O O4 0.129335 0.258379 0.984400
O O5 0.163799 0.209139 0.340789
O O6 0.052484 0.218545 0.246113
O O7 0.135412 0.000000 0.218586
O O8 0.062022 0.809728 0.838356
O O9 0.059076 0.734774 0.664706
O O10 0.025452 0.000000 0.708731
O O11 0.077714 0.000000 0.976623
O O12 0.000000 0.774766 0.000000
O O13 0.250000 0.810184 0.476957
O O14 0.130415 0.729414 0.513877
O O15 0.151199 0.000000 0.464955
O O16 0.500000 0.725135 0.500000
O O17 0.566696 0.500000 0.433705
#
# Coordination Sequence:
#
# PCOD8210002 Si02
#       6
#     8   8   8   8   8   8
#     4  11  24  38  54  83 121 157 190 228 282 344
#     4  10  19  35  60  87 116 148 186 237 287 334
#     4  10  20  36  61  88 113 144 188 240 284 329
#     4  10  20  38  61  86 112 144 191 238 281 334
#     4  10  21  37  59  86 114 149 193 236 283 338
#     4  11  23  37  56  84 118 154 190 229 280 342
#
# _framework density 18.215872000000001
#
# number of rings (size 3 to 8) (size 9 to 14) (size 15 to 20)
#    0.000    1.667    3.333    1.500    0.000    5.333 
#    0.000    0.833    0.000    1.000    0.000    0.000 
#    0.000    0.000    0.000    0.000    0.000    0.000 
#
# Total GULP energy -595475.469070 kJ/mol
# GULP energy per Si atom -12405.738939 kJ/mol
# Density = 1.817441 g / cm^3
# Si number density = 18.215872 Si / 1000 Ang^3
#
#
#
# Elastic Constant Matrix: (Units=GPa)
#
#
# Indices 1 2 3 4 5 6 
#
# 1 102.8333 52.3462 48.3273 0.0000 0.0000 0.0000
# 2 52.3462 81.6674 51.0928 0.0000 0.0000 0.0000
# 3 48.3273 51.0928 99.2315 0.0000 0.0000 0.0000
# 4 0.0000 0.0000 0.0000 -9.2201 0.0000 0.0000
# 5 0.0000 0.0000 0.0000 0.0000 38.3909 0.0000
# 6 0.0000 0.0000 0.0000 0.0000 0.0000 28.5169
#
#
#
# Elastic Compliance Matrix: (Units=1/GPa)
#
#
# Indices 1 2 3 4 5 6 
#
# 1 0.015227 -0.007554 -0.003526 0.000000 0.000000 0.000000
# 2 -0.007554 0.021811 -0.007551 0.000000 0.000000 0.000000
# 3 -0.003526 -0.007551 0.015683 0.000000 0.000000 0.000000
# 4 0.000000 0.000000 0.000000 -0.108459 0.000000 0.000000
# 5 0.000000 0.000000 0.000000 0.000000 0.026048 0.000000
# 6 0.000000 0.000000 0.000000 0.000000 0.000000 0.035067
#
#
# Mechanical properties :
#
#
# Convention : Reuss Voigt Hill
#
# Bulk Modulus (GPa) = 64.69265 65.25164 64.97215
# Shear Modulus (GPa) = 104.62041 20.33526 62.47784
#
# Velocity S-wave (km/s) = 7.58672 3.34481 5.86285
# Velocity P-wave (km/s) = 10.59887 7.12854 9.03194
#
# Compressibility (1/GPa) = 0.01545771
#
# Stress axis : x y z
#
# Youngs Moduli (GPa) = 65.67320 45.84911 63.76390
#
# Poissons Ratio (x) = 0.34633 0.22486
# Poissons Ratio (y) = 0.49608 0.48149
# Poissons Ratio (z) = 0.23159 0.34621
#
# Static dielectric constant tensor:
#      x y z
#    x 3.318190 0.000000 0.000000 
#    y 0.000000 3.310390 0.000000 
#    z 0.000000 0.000000 3.301940 
# 
# 
# High freq. dielectric constant tensor:
#      x y z
#    x 1.704890 0.000000 0.000000 
#    y 0.000000 1.702490 0.000000 
#    z 0.000000 0.000000 1.707490 
# 
# From -- ./inp_files/24761.got.cif
#   From: 2010.03.12/outbox.cif.g09.slc.cpg/sg51_13_cif.got.tgz:24761.got - 2010.04.16 13:43:02.
