data_PCOD8210670
_publ_section_title
;
Structure prediction by ZEFSAII (Michael W. Deem and Ramdas Pophale) SiO2 
 PCOD8210670
Probable space group: P M M A
;
_chemical_formula_sum "Si O2"
_cell_formula_units_Z 64
_cell_length_a 8.963712
_cell_length_b 18.385383
_cell_length_c 26.239990
_cell_angle_alpha 90.000000
_cell_angle_beta 90.000000
_cell_angle_gamma 90.000000
_cell_volume 4324.383893
_symmetry_space_group_name_H-M "P M M A"
_symmetry_group_IT_number 51
_symmetry_cell_setting 'orthorhombic'
loop_
_space_group_symop_operation_xyz
x,y,z
1/2-x,-y,z
1/2+x,-y,-z
-x,y,-z
-x,-y,-z
1/2+x,y,-z
1/2-x,y,z
x,-y,z
loop_
_atom_site_type_symbol
_atom_site_label
_atom_site_fract_x
_atom_site_fract_y
_atom_site_fract_z
Si Si1 0.924585 0.582966 0.739325
Si Si2 0.074162 0.083597 0.948596
Si Si3 0.423727 0.583932 0.446319
Si Si4 0.425588 0.838511 0.848318
Si Si5 0.927462 0.338407 0.353203
Si Si6 0.573917 0.916620 0.253948
Si Si7 0.417868 0.207267 0.305941
Si Si8 0.414890 0.713449 0.198209
O O1 0.750000 0.594985 0.725715
O O2 0.960673 0.500000 0.752895
O O3 0.967208 0.630738 0.789554
O O4 0.020708 0.606840 0.691000
O O5 0.250000 0.092547 0.953731
O O6 0.009713 0.129075 0.900832
O O7 0.028707 0.000000 0.939744
O O8 0.000000 0.114294 0.000000
O O9 0.500000 0.599692 0.500000
O O10 0.250000 0.604946 0.448989
O O11 0.443841 0.500000 0.430360
O O12 0.507498 0.633966 0.406111
O O13 0.250000 0.839050 0.850872
O O14 0.480928 0.888431 0.801409
O O15 0.478255 0.754986 0.841346
O O16 0.750000 0.336995 0.355042
O O17 0.987795 0.256575 0.344855
O O18 0.750000 0.906255 0.259290
O O19 0.495159 0.871373 0.299104
O O20 0.525359 0.000000 0.259662
O O21 0.250000 0.196875 0.326850
O O22 0.416727 0.246578 0.252015
O O23 0.250000 0.714110 0.174153
#
# Coordination Sequence:
#
# PCOD8210670 Si02
#       8
#     8   8   8   8   8   8   8   8
#     4   9  17  29  43  59  82 111 139 167 201 241
#     4   9  17  28  40  55  76 102 133 167 200 234
#     4  10  20  33  47  63  85 112 142 176 211 245
#     4   9  16  26  40  56  77 107 137 164 199 242
#     4  11  20  29  43  62  84 111 143 175 208 245
#     4   9  16  26  41  61  84 109 137 169 205 245
#     4   9  17  29  42  57  80 109 140 172 205 242
#     4   8  15  26  39  56  77 102 133 167 199 234
#
# _framework density 14.799796000000001
#
# number of rings (size 3 to 8) (size 9 to 14) (size 15 to 20)
#    0.000    2.750    0.000    3.375    0.000    7.750 
#    0.000    0.000    0.000    2.250    0.000    0.000 
#    0.000    1.000    0.000    3.000    0.000    4.625 
#
# Total GULP energy -793405.595028 kJ/mol
# GULP energy per Si atom -12396.962422 kJ/mol
# Density = 1.476611 g / cm^3
# Si number density = 14.799796 Si / 1000 Ang^3
#
#
#
# Elastic Constant Matrix: (Units=GPa)
#
#
# Indices 1 2 3 4 5 6 
#
# 1 72.8902 44.9575 42.2075 0.0000 0.0000 0.0000
# 2 44.9575 113.9616 56.1401 0.0000 0.0000 0.0000
# 3 42.2075 56.1401 79.9933 0.0000 0.0000 0.0000
# 4 0.0000 0.0000 0.0000 24.7076 0.0000 0.0000
# 5 0.0000 0.0000 0.0000 0.0000 22.3714 0.0000
# 6 0.0000 0.0000 0.0000 0.0000 0.0000 23.9270
#
#
#
# Elastic Compliance Matrix: (Units=1/GPa)
#
#
# Indices 1 2 3 4 5 6 
#
# 1 0.021068 -0.004333 -0.008075 0.000000 0.000000 0.000000
# 2 -0.004333 0.014303 -0.007752 0.000000 0.000000 0.000000
# 3 -0.008075 -0.007752 0.022202 0.000000 0.000000 0.000000
# 4 0.000000 0.000000 0.000000 0.040473 0.000000 0.000000
# 5 0.000000 0.000000 0.000000 0.000000 0.044700 0.000000
# 6 0.000000 0.000000 0.000000 0.000000 0.000000 0.041794
#
#
# Mechanical properties :
#
#
# Convention : Reuss Voigt Hill
#
# Bulk Modulus (GPa) = 57.96121 61.49502 59.72812
# Shear Modulus (GPa) = 21.68157 22.43720 22.05939
#
# Velocity S-wave (km/s) = 3.83167 3.89787 3.86491
# Velocity P-wave (km/s) = 7.66969 7.86761 7.76928
#
# Compressibility (1/GPa) = 0.01725292
#
# Stress axis : x y z
#
# Youngs Moduli (GPa) = 47.46567 69.91571 45.04112
#
# Poissons Ratio (x) = 0.30296 0.36371
# Poissons Ratio (y) = 0.20568 0.34914
# Poissons Ratio (z) = 0.38329 0.54196
#
# Static dielectric constant tensor:
#      x y z
#    x 2.915950 0.000000 0.000000 
#    y 0.000000 3.030650 0.000000 
#    z 0.000000 0.000000 2.745520 
# 
# 
# High freq. dielectric constant tensor:
#      x y z
#    x 1.571300 0.000000 0.000000 
#    y 0.000000 1.557520 0.000000 
#    z 0.000000 0.000000 1.532050 
# 
# From -- ./inp_files/35158.got.cif
#   From: 2010.03.12/outbox.cif.g09.slc.cpg/sg51_18_cif.got.tgz:35158.got - 2010.04.16 13:43:02.
