data_PCOD8210925
_publ_section_title
;
Structure prediction by ZEFSAII (Michael W. Deem and Ramdas Pophale) SiO2 
 PCOD8210925
Probable space group: P M M A
;
_chemical_formula_sum "Si O2"
_cell_formula_units_Z 64
_cell_length_a 29.278287
_cell_length_b 8.883196
_cell_length_c 15.106513
_cell_angle_alpha 90.000000
_cell_angle_beta 90.000000
_cell_angle_gamma 90.000000
_cell_volume 3928.973838
_symmetry_space_group_name_H-M "P M M A"
_symmetry_group_IT_number 51
_symmetry_cell_setting 'orthorhombic'
loop_
_space_group_symop_operation_xyz
x,y,z
1/2-x,-y,z
1/2+x,-y,-z
-x,y,-z
-x,-y,-z
1/2+x,y,-z
1/2-x,y,z
x,-y,z
loop_
_atom_site_type_symbol
_atom_site_label
_atom_site_fract_x
_atom_site_fract_y
_atom_site_fract_z
Si Si1 0.896693 0.325322 0.964868
Si Si2 0.199547 0.671550 0.969306
Si Si3 0.468455 0.177314 0.374795
Si Si4 0.884487 0.676388 0.292302
Si Si5 0.933991 0.822290 0.441777
Si Si6 0.543981 0.823112 0.820624
Si Si7 0.198246 0.172169 0.786052
Si Si8 0.940980 0.177024 0.136163
O O1 0.908729 0.500000 0.970756
O O2 0.916600 0.258796 0.874936
O O3 0.841722 0.297809 0.962162
O O4 0.919071 0.247117 0.049309
O O5 0.250000 0.698557 0.012915
O O6 0.196108 0.500000 0.933884
O O7 0.192615 0.783554 0.888082
O O8 0.518458 0.237053 0.400535
O O9 0.432860 0.218477 0.453288
O O10 0.452831 0.241642 0.279817
O O11 0.473187 0.000000 0.366388
O O12 0.891331 0.500000 0.282690
O O13 0.894488 0.730975 0.392138
O O14 0.832301 0.720417 0.274299
O O15 0.917954 0.758319 0.223895
O O16 0.927305 0.000000 0.427424
O O17 0.494708 0.785385 0.862302
O O18 0.553555 0.000000 0.823742
O O19 0.250000 0.193872 0.753948
O O20 0.182197 0.000000 0.776248
O O21 0.932468 0.000000 0.134746
#
# Coordination Sequence:
#
# PCOD8210925 Si02
#       8
#     8   8   8   8   8   8   8   8
#     4  11  22  33  47  71  99 130 164 202 249 295
#     4   9  18  33  50  68  94 126 159 198 246 293
#     4   8  15  30  52  73  92 122 165 206 244 280
#     4  12  22  31  47  73 104 134 161 196 247 299
#     4   9  16  31  53  72  93 124 163 203 239 288
#     4  10  20  34  50  69  95 132 171 205 243 286
#     4  10  20  33  51  73  95 124 164 204 241 288
#     4  11  21  34  50  67  94 134 175 206 233 281
#
# _framework density 16.289239999999999
#
# number of rings (size 3 to 8) (size 9 to 14) (size 15 to 20)
#    0.000    2.000    2.500    3.375    0.000    3.750 
#    0.000    1.875    0.000    0.000    0.000    0.875 
#    0.000    5.000    0.000    0.000    0.000    0.000 
#
# Total GULP energy -793431.428446 kJ/mol
# GULP energy per Si atom -12397.366069 kJ/mol
# Density = 1.625217 g / cm^3
# Si number density = 16.289240 Si / 1000 Ang^3
#
#
#
# Elastic Constant Matrix: (Units=GPa)
#
#
# Indices 1 2 3 4 5 6 
#
# 1 104.7450 41.4611 57.0882 0.0000 0.0000 0.0000
# 2 41.4611 61.9219 36.9975 0.0000 0.0000 0.0000
# 3 57.0882 36.9975 104.0679 0.0000 0.0000 0.0000
# 4 0.0000 0.0000 0.0000 6.0296 0.0000 0.0000
# 5 0.0000 0.0000 0.0000 0.0000 20.6791 0.0000
# 6 0.0000 0.0000 0.0000 0.0000 0.0000 22.8486
#
#
#
# Elastic Compliance Matrix: (Units=1/GPa)
#
#
# Indices 1 2 3 4 5 6 
#
# 1 0.015566 -0.006756 -0.006137 0.000000 0.000000 0.000000
# 2 -0.006756 0.023437 -0.004626 0.000000 0.000000 0.000000
# 3 -0.006137 -0.004626 0.014620 0.000000 0.000000 0.000000
# 4 0.000000 0.000000 0.000000 0.165849 0.000000 0.000000
# 5 0.000000 0.000000 0.000000 0.000000 0.048358 0.000000
# 6 0.000000 0.000000 0.000000 0.000000 0.000000 0.043766
#
#
# Mechanical properties :
#
#
# Convention : Reuss Voigt Hill
#
# Bulk Modulus (GPa) = 53.80642 60.20317 57.00479
# Shear Modulus (GPa) = 14.17114 18.92398 16.54756
#
# Velocity S-wave (km/s) = 2.95272 3.41214 3.19071
# Velocity P-wave (km/s) = 6.68793 7.25001 6.97463
#
# Compressibility (1/GPa) = 0.01858514
#
# Stress axis : x y z
#
# Youngs Moduli (GPa) = 64.24259 42.66794 68.39712
#
# Poissons Ratio (x) = 0.28825 0.41977
# Poissons Ratio (y) = 0.43400 0.31642
# Poissons Ratio (z) = 0.39428 0.19739
#
# Static dielectric constant tensor:
#      x y z
#    x 3.187640 0.000000 0.000000 
#    y 0.000000 3.020410 0.000000 
#    z 0.000000 0.000000 3.178220 
# 
# 
# High freq. dielectric constant tensor:
#      x y z
#    x 1.616070 0.000000 0.000000 
#    y 0.000000 1.624700 0.000000 
#    z 0.000000 0.000000 1.608170 
# 
# From -- ./inp_files/26634.got.cif
#   From: 2010.03.12/outbox.cif.g09.slc.cpg/sg51_14_cif.got.tgz:26634.got - 2010.04.16 13:43:02.
