data_PCOD8210792
_publ_section_title
;
Structure prediction by ZEFSAII (Michael W. Deem and Ramdas Pophale) SiO2 
 PCOD8210792
Probable space group: P M M A
;
_chemical_formula_sum "Si O2"
_cell_formula_units_Z 48
_cell_length_a 14.971125
_cell_length_b 9.195797
_cell_length_c 19.206957
_cell_angle_alpha 90.000000
_cell_angle_beta 90.000000
_cell_angle_gamma 90.000000
_cell_volume 2644.249166
_symmetry_space_group_name_H-M "P M M A"
_symmetry_group_IT_number 51
_symmetry_cell_setting 'orthorhombic'
loop_
_space_group_symop_operation_xyz
x,y,z
1/2-x,-y,z
1/2+x,-y,-z
-x,y,-z
-x,-y,-z
1/2+x,y,-z
1/2-x,y,z
x,-y,z
loop_
_atom_site_type_symbol
_atom_site_label
_atom_site_fract_x
_atom_site_fract_y
_atom_site_fract_z
Si Si1 0.895802 0.330990 0.000000
Si Si2 0.349516 0.164972 0.863505
Si Si3 0.351725 0.172677 0.500000
Si Si4 0.500000 0.172524 0.238825
Si Si5 0.150484 0.164972 0.136495
Si Si6 0.500000 0.173194 0.393959
O O1 0.872685 0.500000 0.000000
O O2 0.852830 0.261411 0.067887
O O3 0.852830 0.261411 0.932113
O O4 0.000000 0.298935 0.000000
O O5 0.250000 0.169909 0.832729
O O6 0.413499 0.227803 0.803406
O O7 0.377513 0.000000 0.883164
O O8 0.250000 0.237961 0.500000
O O9 0.409076 0.225536 0.432768
O O10 0.409076 0.225536 0.567232
O O11 0.344598 0.000000 0.500000
O O12 0.413499 0.227803 0.196594
O O13 0.500000 0.240515 0.316215
O O14 0.500000 0.000000 0.245705
O O15 0.250000 0.169909 0.167271
O O16 0.122487 0.000000 0.116836
O O17 0.500000 0.000000 0.392737
#
# Coordination Sequence:
#
# PCOD8210792 Si02
#       6
#     8   8   8   8   8   8
#     4  11  22  35  52  71  91 120 157 196 239 283
#     4  10  20  33  50  70  91 121 158 194 238 284
#     4   8  13  21  34  53  79 112 149 185 219 261
#     4   9  17  29  43  61  89 119 152 196 232 271
#     4  10  20  33  50  70  91 121 158 194 238 284
#     4   8  14  23  35  54  80 113 150 185 224 263
#
# _framework density 18.1526
#
# number of rings (size 3 to 8) (size 9 to 14) (size 15 to 20)
#    0.000    2.667    1.667    2.000    0.000    4.667 
#    0.000    6.667    0.000    0.000    0.000    0.000 
#    0.000    0.000    0.000   12.000    0.000   39.333 
#
# Total GULP energy -594967.996185 kJ/mol
# GULP energy per Si atom -12395.166587 kJ/mol
# Density = 1.811128 g / cm^3
# Si number density = 18.152600 Si / 1000 Ang^3
#
#
#
# Elastic Constant Matrix: (Units=GPa)
#
#
# Indices 1 2 3 4 5 6 
#
# 1 157.2931 21.4804 78.6328 0.0000 0.0000 0.0000
# 2 21.4804 28.8438 18.6738 0.0000 0.0000 0.0000
# 3 78.6328 18.6738 166.7430 0.0000 0.0000 0.0000
# 4 0.0000 0.0000 0.0000 -3.1823 0.0000 0.0000
# 5 0.0000 0.0000 0.0000 0.0000 -13.7262 0.0000
# 6 0.0000 0.0000 0.0000 0.0000 0.0000 11.2077
#
#
#
# Elastic Compliance Matrix: (Units=1/GPa)
#
#
# Indices 1 2 3 4 5 6 
#
# 1 0.008756 -0.004148 -0.003665 0.000000 0.000000 0.000000
# 2 -0.004148 0.039345 -0.002450 0.000000 0.000000 0.000000
# 3 -0.003665 -0.002450 0.008000 0.000000 0.000000 0.000000
# 4 0.000000 0.000000 0.000000 -0.314241 0.000000 0.000000
# 5 0.000000 0.000000 0.000000 0.000000 -0.072854 0.000000
# 6 0.000000 0.000000 0.000000 0.000000 0.000000 0.089225
#
#
# Mechanical properties :
#
#
# Convention : Reuss Voigt Hill
#
# Bulk Modulus (GPa) = 28.10965 65.60600 46.85782
# Shear Modulus (GPa) = -23.87949 14.46603 -4.70673
#
# Velocity S-wave (km/s) = -3.63090 2.82603 -1.61199
# Velocity P-wave (km/s) = 1.43495 6.84605 4.73336
#
# Compressibility (1/GPa) = 0.03557498
#
# Stress axis : x y z
#
# Youngs Moduli (GPa) = 114.20683 25.41619 125.00301
#
# Poissons Ratio (x) = 0.10543 0.45809
# Poissons Ratio (y) = 0.47376 0.30627
# Poissons Ratio (z) = 0.41852 0.06227
#
# Static dielectric constant tensor:
#      x y z
#    x 3.655200 0.000000 0.000000 
#    y 0.000000 2.787330 0.000000 
#    z 0.000000 0.000000 3.546870 
# 
# 
# High freq. dielectric constant tensor:
#      x y z
#    x 1.721710 0.000000 0.000000 
#    y 0.000000 1.637510 0.000000 
#    z 0.000000 0.000000 1.700300 
# 
# From -- ./inp_files/29472.got.cif
#   From: 2010.03.12/outbox.cif.g09.slc.cpg/sg51_15_cif.got.tgz:29472.got - 2010.04.16 13:43:02.
