data_PCOD8210720
_publ_section_title
;
Structure prediction by ZEFSAII (Michael W. Deem and Ramdas Pophale) SiO2 
 PCOD8210720
Probable space group: P M M A
;
_chemical_formula_sum "Si O2"
_cell_formula_units_Z 48
_cell_length_a 14.867536
_cell_length_b 11.982840
_cell_length_c 16.312244
_cell_angle_alpha 90.000000
_cell_angle_beta 90.000000
_cell_angle_gamma 90.000000
_cell_volume 2906.112806
_symmetry_space_group_name_H-M "P M M A"
_symmetry_group_IT_number 51
_symmetry_cell_setting 'orthorhombic'
loop_
_space_group_symop_operation_xyz
x,y,z
1/2-x,-y,z
1/2+x,-y,-z
-x,y,-z
-x,-y,-z
1/2+x,y,-z
1/2-x,y,z
x,-y,z
loop_
_atom_site_type_symbol
_atom_site_label
_atom_site_fract_x
_atom_site_fract_y
_atom_site_fract_z
Si Si1 0.851297 0.239609 0.094529
Si Si2 0.605951 0.000000 0.092115
Si Si3 0.851987 0.632654 0.500000
Si Si4 1.000000 0.632379 0.189601
Si Si5 0.648704 0.760391 0.905471
Si Si6 0.500000 0.367522 0.625284
Si Si7 0.105951 0.000000 0.092115
O O1 0.750000 0.283536 0.101450
O O2 0.911223 0.324733 0.145032
O O3 0.858330 0.114399 0.133198
O O4 0.884573 0.237815 1.000000
O O5 0.500000 0.000000 0.096190
O O6 0.643770 0.000000 0.000000
O O7 0.750000 0.683130 0.500000
O O8 0.845166 0.500000 0.500000
O O9 0.908802 0.673835 0.420481
O O10 0.908802 0.673835 0.579519
O O11 0.000000 0.500000 0.186524
O O12 1.000000 0.678547 0.282438
O O13 0.088777 0.675267 0.145032
O O14 0.750000 0.716464 0.898550
O O15 0.641670 0.885601 0.866802
O O16 0.500000 0.500000 0.624414
#
# Coordination Sequence:
#
# PCOD8210720 Si02
#       7
#     8   4   8   8   8   8   4
#     4  10  20  33  49  68  90 121 162 205 244 276
#     4   9  15  29  53  72  85 107 148 206 261 289
#     4   8  13  25  46  65  81 106 143 188 232 268
#     4  11  22  33  44  63  98 136 163 187 220 272
#     4  10  20  33  49  68  90 121 162 205 244 276
#     4   8  16  28  41  62  88 115 150 186 221 267
#     4   9  15  29  53  72  85 107 148 206 261 289
#
# _framework density 16.516908999999998
#
# number of rings (size 3 to 8) (size 9 to 14) (size 15 to 20)
#    0.000    2.667    1.667    2.000    0.000    5.333 
#    0.000    5.000    0.000    0.000    0.000    0.000 
#    0.000   10.667    0.000   18.667    0.000    4.667 
#
# Total GULP energy -594863.962012 kJ/mol
# GULP energy per Si atom -12392.999209 kJ/mol
# Density = 1.647932 g / cm^3
# Si number density = 16.516909 Si / 1000 Ang^3
#
#
#
# Elastic Constant Matrix: (Units=GPa)
#
#
# Indices 1 2 3 4 5 6 
#
# 1 132.7864 30.1758 58.7513 0.0000 0.0000 0.0000
# 2 30.1758 62.4877 36.0586 0.0000 0.0000 0.0000
# 3 58.7513 36.0586 103.5180 0.0000 0.0000 0.0000
# 4 0.0000 0.0000 0.0000 -0.3739 0.0000 0.0000
# 5 0.0000 0.0000 0.0000 0.0000 11.3079 0.0000
# 6 0.0000 0.0000 0.0000 0.0000 0.0000 16.1779
#
#
#
# Elastic Compliance Matrix: (Units=1/GPa)
#
#
# Indices 1 2 3 4 5 6 
#
# 1 0.010251 -0.001994 -0.005123 0.000000 0.000000 0.000000
# 2 -0.001994 0.020417 -0.005980 0.000000 0.000000 0.000000
# 3 -0.005123 -0.005980 0.014651 0.000000 0.000000 0.000000
# 4 0.000000 0.000000 0.000000 -2.674181 0.000000 0.000000
# 5 0.000000 0.000000 0.000000 0.000000 0.088434 0.000000
# 6 0.000000 0.000000 0.000000 0.000000 0.000000 0.061813
#
#
# Mechanical properties :
#
#
# Convention : Reuss Voigt Hill
#
# Bulk Modulus (GPa) = 52.29047 60.97370 56.63208
# Shear Modulus (GPa) = -2.04412 17.00945 7.48267
#
# Velocity S-wave (km/s) = -1.11368 3.21256 2.13076
# Velocity P-wave (km/s) = 5.48396 7.12438 6.35730
#
# Compressibility (1/GPa) = 0.01912395
#
# Stress axis : x y z
#
# Youngs Moduli (GPa) = 97.55349 48.97903 68.25471
#
# Poissons Ratio (x) = 0.09765 0.34969
# Poissons Ratio (y) = 0.19450 0.40818
# Poissons Ratio (z) = 0.49980 0.29291
#
# Static dielectric constant tensor:
#      x y z
#    x 3.288150 0.000000 0.000000 
#    y 0.000000 2.848790 0.000000 
#    z 0.000000 0.000000 3.105210 
# 
# 
# High freq. dielectric constant tensor:
#      x y z
#    x 1.654030 0.000000 0.000000 
#    y 0.000000 1.599270 0.000000 
#    z 0.000000 0.000000 1.604060 
# 
# From -- ./inp_files/24098.got.cif
#   From: 2010.03.12/outbox.cif.g09.slc.cpg/sg51_13_cif.got.tgz:24098.got - 2010.04.16 13:43:02.
