data_PCOD8210274
_publ_section_title
;
Structure prediction by ZEFSAII (Michael W. Deem and Ramdas Pophale) SiO2 
 PCOD8210274
Probable space group: P M M A
;
_chemical_formula_sum "Si O2"
_cell_formula_units_Z 64
_cell_length_a 19.423450
_cell_length_b 9.114114
_cell_length_c 21.800393
_cell_angle_alpha 90.000000
_cell_angle_beta 90.000000
_cell_angle_gamma 90.000000
_cell_volume 3859.269891
_symmetry_space_group_name_H-M "P M M A"
_symmetry_group_IT_number 51
_symmetry_cell_setting 'orthorhombic'
loop_
_space_group_symop_operation_xyz
x,y,z
1/2-x,-y,z
1/2+x,-y,-z
-x,y,-z
-x,-y,-z
1/2+x,y,-z
1/2-x,y,z
x,-y,z
loop_
_atom_site_type_symbol
_atom_site_label
_atom_site_fract_x
_atom_site_fract_y
_atom_site_fract_z
Si Si1 0.448203 0.674907 0.323117
Si Si2 0.891096 0.336336 0.981000
Si Si3 0.673365 0.171247 0.877286
Si Si4 0.326338 0.331437 0.510332
Si Si5 0.033490 0.671090 0.561814
Si Si6 0.828930 0.831090 0.615365
Si Si7 0.969906 0.665261 0.095391
Si Si8 0.540888 0.826553 0.802788
O O1 0.447068 0.500000 0.317806
O O2 0.499150 0.735374 0.376717
O O3 0.372030 0.735248 0.336719
O O4 0.474357 0.743747 0.260173
O O5 0.860592 0.500000 0.983718
O O6 0.836261 0.236314 0.945584
O O7 0.961341 0.335222 0.943814
O O8 0.907255 0.282060 0.050783
O O9 0.750000 0.212891 0.853105
O O10 0.615570 0.226106 0.829005
O O11 0.664738 0.000000 0.885534
O O12 0.250000 0.302301 0.537980
O O13 0.333347 0.500000 0.487864
O O14 0.384132 0.297356 0.561764
O O15 0.340706 0.228065 0.452896
O O16 0.016845 0.500000 0.561952
O O17 0.000000 0.740317 0.500000
O O18 0.750000 0.814480 0.635366
O O19 0.852583 0.000000 0.617710
O O20 0.955544 0.500000 0.119865
O O21 0.979384 0.778048 0.151532
O O22 0.538307 0.000000 0.792646
#
# Coordination Sequence:
#
# PCOD8210274 Si02
#       8
#     8   8   8   8   8   8   8   8
#     4  11  21  33  49  66  90 124 162 200 242 292
#     4   8  14  25  44  68  90 113 145 188 228 261
#     4   9  18  31  45  63  92 129 160 186 222 268
#     4   9  16  29  50  71  90 116 149 182 225 286
#     4   9  16  29  48  71  95 117 147 196 248 287
#     4  10  20  32  45  64  92 121 150 189 233 277
#     4   8  14  27  45  65  89 115 145 183 230 271
#     4  10  20  32  45  64  92 124 161 198 232 275
#
# _framework density 16.583447
#
# number of rings (size 3 to 8) (size 9 to 14) (size 15 to 20)
#    0.000    2.750    1.250    1.875    0.000    2.500 
#    0.000    5.625    0.000    0.000    0.000    0.875 
#    0.000    5.000    0.000    0.000    0.000    0.000 
#
# Total GULP energy -793147.201275 kJ/mol
# GULP energy per Si atom -12392.925020 kJ/mol
# Density = 1.654570 g / cm^3
# Si number density = 16.583447 Si / 1000 Ang^3
#
#
#
# Elastic Constant Matrix: (Units=GPa)
#
#
# Indices 1 2 3 4 5 6 
#
# 1 54.8931 20.8453 42.4407 0.0000 0.0000 0.0000
# 2 20.8453 56.6532 40.4370 0.0000 0.0000 0.0000
# 3 42.4407 40.4370 112.4273 0.0000 0.0000 0.0000
# 4 0.0000 0.0000 0.0000 18.6433 0.0000 0.0000
# 5 0.0000 0.0000 0.0000 0.0000 20.1398 0.0000
# 6 0.0000 0.0000 0.0000 0.0000 0.0000 17.8188
#
#
#
# Elastic Compliance Matrix: (Units=1/GPa)
#
#
# Indices 1 2 3 4 5 6 
#
# 1 0.026224 -0.003475 -0.008650 0.000000 0.000000 0.000000
# 2 -0.003475 0.024208 -0.007395 0.000000 0.000000 0.000000
# 3 -0.008650 -0.007395 0.014820 0.000000 0.000000 0.000000
# 4 0.000000 0.000000 0.000000 0.053639 0.000000 0.000000
# 5 0.000000 0.000000 0.000000 0.000000 0.049653 0.000000
# 6 0.000000 0.000000 0.000000 0.000000 0.000000 0.056121
#
#
# Mechanical properties :
#
#
# Convention : Reuss Voigt Hill
#
# Bulk Modulus (GPa) = 38.15013 47.93551 43.04282
# Shear Modulus (GPa) = 18.35250 19.33707 18.84479
#
# Velocity S-wave (km/s) = 3.33028 3.41845 3.37465
# Velocity P-wave (km/s) = 6.15163 6.67454 6.41841
#
# Compressibility (1/GPa) = 0.02621223
#
# Stress axis : x y z
#
# Youngs Moduli (GPa) = 38.13238 41.30795 67.47804
#
# Poissons Ratio (x) = 0.14356 0.58366
# Poissons Ratio (y) = 0.13252 0.49901
# Poissons Ratio (z) = 0.32983 0.30548
#
# Static dielectric constant tensor:
#      x y z
#    x 3.212230 0.000000 0.000000 
#    y 0.000000 3.090370 0.000000 
#    z 0.000000 0.000000 3.181190 
# 
# 
# High freq. dielectric constant tensor:
#      x y z
#    x 1.618060 0.000000 0.000000 
#    y 0.000000 1.630730 0.000000 
#    z 0.000000 0.000000 1.619220 
# 
# From -- ./inp_files/30677.got.cif
#   From: 2010.03.12/outbox.cif.g09.slc.cpg/sg51_16_cif.got.tgz:30677.got - 2010.04.16 13:43:02.
