data_PCOD8210716
_publ_section_title
;
Structure prediction by ZEFSAII (Michael W. Deem and Ramdas Pophale) SiO2 
 PCOD8210716
Probable space group: P M M A
;
_chemical_formula_sum "Si O2"
_cell_formula_units_Z 64
_cell_length_a 9.265933
_cell_length_b 19.568568
_cell_length_c 19.804086
_cell_angle_alpha 90.000000
_cell_angle_beta 90.000000
_cell_angle_gamma 90.000000
_cell_volume 3590.897470
_symmetry_space_group_name_H-M "P M M A"
_symmetry_group_IT_number 51
_symmetry_cell_setting 'orthorhombic'
loop_
_space_group_symop_operation_xyz
x,y,z
1/2-x,-y,z
1/2+x,-y,-z
-x,y,-z
-x,-y,-z
1/2+x,y,-z
1/2-x,y,z
x,-y,z
loop_
_atom_site_type_symbol
_atom_site_label
_atom_site_fract_x
_atom_site_fract_y
_atom_site_fract_z
Si Si1 0.915485 0.424097 0.099212
Si Si2 0.083444 0.919881 0.567151
Si Si3 0.917812 0.747377 0.789489
Si Si4 0.084585 0.173712 0.336166
Si Si5 0.916658 0.294517 0.563322
Si Si6 0.584736 0.424196 0.391335
Si Si7 0.420885 0.290456 0.064279
Si Si8 0.911510 0.381325 0.245475
O O1 0.750000 0.403768 0.081411
O O2 0.951746 0.500000 0.071212
O O3 0.938346 0.427259 0.179707
O O4 0.024493 0.368893 0.067868
O O5 0.250000 0.899378 0.558425
O O6 0.000000 0.895497 0.500000
O O7 0.019035 0.883854 0.633444
O O8 0.063597 0.000000 0.578625
O O9 0.750000 0.732185 0.788472
O O10 0.951889 0.814803 0.743886
O O11 0.967641 0.751985 0.868197
O O12 0.986576 0.683713 0.752237
O O13 0.250000 0.149649 0.345538
O O14 0.058002 0.246014 0.372734
O O15 0.750000 0.301786 0.544919
O O16 0.000000 0.260781 0.500000
O O17 0.979035 0.370036 0.574850
O O18 0.750000 0.403892 0.407813
O O19 0.549245 0.500000 0.419203
O O20 0.559073 0.426961 0.310903
O O21 0.250000 0.289805 0.053270
O O22 0.500000 0.255360 0.000000
O O23 0.750000 0.351699 0.245409
#
# Coordination Sequence:
#
# PCOD8210716 Si02
#       8
#     8   8   8   8   8   8   8   8
#     4   9  17  29  45  65  89 117 153 197 247 307
#     4  10  21  36  55  82 116 151 183 211 244 290
#     4   9  18  33  51  73  99 126 160 205 251 295
#     4  10  20  35  56  80 105 134 171 212 252 297
#     4  11  23  37  52  70  94 124 162 207 254 304
#     4  10  20  33  49  68  90 118 156 204 259 314
#     4  10  20  33  49  67  94 127 160 201 250 305
#     4   9  16  28  47  69  91 117 151 197 252 306
#
# _framework density 17.822841
#
# number of rings (size 3 to 8) (size 9 to 14) (size 15 to 20)
#    0.000    2.250    1.250    1.875    0.000    6.250 
#    0.000    0.000    0.000    2.250    0.000    0.000 
#    0.000    0.500    0.000    1.125    0.000    2.000 
#
# Total GULP energy -793341.349041 kJ/mol
# GULP energy per Si atom -12395.958579 kJ/mol
# Density = 1.778228 g / cm^3
# Si number density = 17.822841 Si / 1000 Ang^3
#
#
#
# Elastic Constant Matrix: (Units=GPa)
#
#
# Indices 1 2 3 4 5 6 
#
# 1 86.8799 36.5881 51.1245 0.0000 0.0000 0.0000
# 2 36.5881 50.7088 31.1053 0.0000 0.0000 0.0000
# 3 51.1245 31.1053 105.6743 0.0000 0.0000 0.0000
# 4 0.0000 0.0000 0.0000 16.3173 0.0000 0.0000
# 5 0.0000 0.0000 0.0000 0.0000 27.4080 0.0000
# 6 0.0000 0.0000 0.0000 0.0000 0.0000 25.0778
#
#
#
# Elastic Compliance Matrix: (Units=1/GPa)
#
#
# Indices 1 2 3 4 5 6 
#
# 1 0.019615 -0.010168 -0.006497 0.000000 0.000000 0.000000
# 2 -0.010168 0.029336 -0.003716 0.000000 0.000000 0.000000
# 3 -0.006497 -0.003716 0.013700 0.000000 0.000000 0.000000
# 4 0.000000 0.000000 0.000000 0.061285 0.000000 0.000000
# 5 0.000000 0.000000 0.000000 0.000000 0.036486 0.000000
# 6 0.000000 0.000000 0.000000 0.000000 0.000000 0.039876
#
#
# Mechanical properties :
#
#
# Convention : Reuss Voigt Hill
#
# Bulk Modulus (GPa) = 45.68260 53.43321 49.55790
# Shear Modulus (GPa) = 20.13241 22.05695 21.09468
#
# Velocity S-wave (km/s) = 3.36458 3.52172 3.44405
# Velocity P-wave (km/s) = 6.38600 6.82510 6.60920
#
# Compressibility (1/GPa) = 0.02189017
#
# Stress axis : x y z
#
# Youngs Moduli (GPa) = 50.98095 34.08742 72.99287
#
# Poissons Ratio (x) = 0.34659 0.47422
# Poissons Ratio (y) = 0.51836 0.27125
# Poissons Ratio (z) = 0.33121 0.12667
#
# Static dielectric constant tensor:
#      x y z
#    x 3.328410 0.000000 0.000000 
#    y 0.000000 2.945010 0.000000 
#    z 0.000000 0.000000 3.672020 
# 
# 
# High freq. dielectric constant tensor:
#      x y z
#    x 1.693610 0.000000 0.000000 
#    y 0.000000 1.642800 0.000000 
#    z 0.000000 0.000000 1.697440 
# 
# From -- ./inp_files/32609.got.cif
#   From: 2010.03.12/outbox.cif.g09.slc.cpg/sg51_17_cif.got.tgz:32609.got - 2010.04.16 13:43:02.
