data_PCOD8210883
_publ_section_title
;
Structure prediction by ZEFSAII (Michael W. Deem and Ramdas Pophale) SiO2 
 PCOD8210883
Probable space group: P M M A
;
_chemical_formula_sum "Si O2"
_cell_formula_units_Z 64
_cell_length_a 14.941102
_cell_length_b 9.188888
_cell_length_c 23.555781
_cell_angle_alpha 90.000000
_cell_angle_beta 90.000000
_cell_angle_gamma 90.000000
_cell_volume 3234.022944
_symmetry_space_group_name_H-M "P M M A"
_symmetry_group_IT_number 51
_symmetry_cell_setting 'orthorhombic'
loop_
_space_group_symop_operation_xyz
x,y,z
1/2-x,-y,z
1/2+x,-y,-z
-x,y,-z
-x,-y,-z
1/2+x,y,-z
1/2-x,y,z
x,-y,z
loop_
_atom_site_type_symbol
_atom_site_label
_atom_site_fract_x
_atom_site_fract_y
_atom_site_fract_z
Si Si1 0.352511 0.169622 0.850462
Si Si2 0.485625 0.167534 0.627981
Si Si3 0.143830 0.836120 0.070362
Si Si4 0.995089 0.167792 0.243391
Si Si5 0.643358 0.335593 0.037979
Si Si6 0.093725 0.339846 0.532229
Si Si7 0.847739 0.331553 0.584192
Si Si8 0.646453 0.328597 0.815993
O O1 0.250000 0.211900 0.835941
O O2 0.413702 0.213981 0.797333
O O3 0.389146 0.257537 0.904650
O O4 0.359875 0.000000 0.865167
O O5 0.458537 0.193271 0.693123
O O6 0.409745 0.236396 0.587233
O O7 0.583096 0.236076 0.619107
O O8 0.492161 0.000000 0.611952
O O9 0.250000 0.841741 0.065682
O O10 0.114750 0.749278 0.126317
O O11 0.104532 0.000000 0.072927
O O12 0.103819 0.751916 0.015908
O O13 0.083035 0.266471 0.233515
O O14 0.022737 0.000000 0.234050
O O15 0.750000 0.334822 0.035183
O O16 0.606293 0.500000 0.036665
O O17 0.120620 0.500000 0.554420
O O18 0.160497 0.285385 0.482643
O O19 0.000000 0.342573 0.500000
O O20 0.750000 0.309397 0.611901
O O21 0.878665 0.500000 0.587581
O O22 0.750000 0.292770 0.801539
O O23 0.632268 0.500000 0.822861
#
# Coordination Sequence:
#
# PCOD8210883 Si02
#       8
#     8   8   8   8   8   8   8   8
#     4   9  18  35  57  76  97 131 175 219 264 318
#     4  10  20  33  50  74 104 136 171 211 254 301
#     4   9  16  28  49  75 103 137 173 209 258 321
#     4  10  22  38  54  75 105 142 181 219 262 312
#     4   9  16  27  47  76 106 132 163 211 269 322
#     4   8  15  30  51  72  95 127 163 197 239 290
#     4   9  18  33  53  77 105 136 170 208 251 301
#     4  10  21  36  54  77 105 138 177 221 266 311
#
# _framework density 19.789594000000001
#
# number of rings (size 3 to 8) (size 9 to 14) (size 15 to 20)
#    0.000    2.750    0.000    2.250    0.000    8.250 
#    0.000    3.750    0.000    4.500    0.000    0.000 
#    0.000    0.000    0.000    0.000    0.000    0.000 
#
# Total GULP energy -793436.899711 kJ/mol
# GULP energy per Si atom -12397.451558 kJ/mol
# Density = 1.974455 g / cm^3
# Si number density = 19.789594 Si / 1000 Ang^3
#
#
#
# Elastic Constant Matrix: (Units=GPa)
#
#
# Indices 1 2 3 4 5 6 
#
# 1 31.4884 13.6463 8.2591 0.0000 0.0000 0.0000
# 2 13.6463 99.5084 42.8037 0.0000 0.0000 0.0000
# 3 8.2591 42.8037 92.3842 0.0000 0.0000 0.0000
# 4 0.0000 0.0000 0.0000 23.8870 0.0000 0.0000
# 5 0.0000 0.0000 0.0000 0.0000 22.7971 0.0000
# 6 0.0000 0.0000 0.0000 0.0000 0.0000 15.7220
#
#
#
# Elastic Compliance Matrix: (Units=1/GPa)
#
#
# Indices 1 2 3 4 5 6 
#
# 1 0.033853 -0.004172 -0.001093 0.000000 0.000000 0.000000
# 2 -0.004172 0.013065 -0.005680 0.000000 0.000000 0.000000
# 3 -0.001093 -0.005680 0.013554 0.000000 0.000000 0.000000
# 4 0.000000 0.000000 0.000000 0.041864 0.000000 0.000000
# 5 0.000000 0.000000 0.000000 0.000000 0.043865 0.000000
# 6 0.000000 0.000000 0.000000 0.000000 0.000000 0.063605
#
#
# Mechanical properties :
#
#
# Convention : Reuss Voigt Hill
#
# Bulk Modulus (GPa) = 25.92026 39.19992 32.56009
# Shear Modulus (GPa) = 20.44511 23.05934 21.75222
#
# Velocity S-wave (km/s) = 3.21771 3.41724 3.31898
# Velocity P-wave (km/s) = 5.18953 5.95159 5.58358
#
# Compressibility (1/GPa) = 0.03857986
#
# Stress axis : x y z
#
# Youngs Moduli (GPa) = 29.53983 76.54067 73.77935
#
# Poissons Ratio (x) = 0.31934 0.08067
# Poissons Ratio (y) = 0.12324 0.41909
# Poissons Ratio (z) = 0.03230 0.43477
#
# Static dielectric constant tensor:
#      x y z
#    x 3.843860 0.000000 0.000000 
#    y 0.000000 3.642020 0.000000 
#    z 0.000000 0.000000 3.649880 
# 
# 
# High freq. dielectric constant tensor:
#      x y z
#    x 1.748470 0.000000 0.000000 
#    y 0.000000 1.770850 0.000000 
#    z 0.000000 0.000000 1.767630 
# 
# From -- ./inp_files/33967.got.cif
#   From: 2010.03.12/outbox.cif.g09.slc.cpg/sg51_17_cif.got.tgz:33967.got - 2010.04.16 13:43:02.
