data_PCOD8210752
_publ_section_title
;
Structure prediction by ZEFSAII (Michael W. Deem and Ramdas Pophale) SiO2 
 PCOD8210752
Probable space group: P M M A
;
_chemical_formula_sum "Si O2"
_cell_formula_units_Z 48
_cell_length_a 13.911248
_cell_length_b 9.020826
_cell_length_c 20.838558
_cell_angle_alpha 90.000000
_cell_angle_beta 90.000000
_cell_angle_gamma 90.000000
_cell_volume 2615.050391
_symmetry_space_group_name_H-M "P M M A"
_symmetry_group_IT_number 51
_symmetry_cell_setting 'orthorhombic'
loop_
_space_group_symop_operation_xyz
x,y,z
1/2-x,-y,z
1/2+x,-y,-z
-x,y,-z
-x,-y,-z
1/2+x,y,-z
1/2-x,y,z
x,-y,z
loop_
_atom_site_type_symbol
_atom_site_label
_atom_site_fract_x
_atom_site_fract_y
_atom_site_fract_z
Si Si1 0.356144 0.323583 0.468227
Si Si2 0.954741 0.323992 0.403491
Si Si3 0.639638 0.673855 0.898277
Si Si4 0.862305 0.673988 0.272843
Si Si5 0.030981 0.825547 0.843054
Si Si6 0.139461 0.830513 0.971568
O O1 0.250000 0.259865 0.451430
O O2 0.353122 0.500000 0.469886
O O3 0.388431 0.264614 0.538287
O O4 0.434555 0.271739 0.415123
O O5 0.948982 0.500000 0.402741
O O6 0.915168 0.262491 0.336284
O O7 0.750000 0.716293 0.884158
O O8 0.622283 0.500000 0.894791
O O9 0.575237 0.753341 0.843924
O O10 0.608635 0.730158 0.968608
O O11 0.750000 0.709325 0.278868
O O12 0.881010 0.500000 0.263694
O O13 0.905124 0.760111 0.213137
O O14 0.080220 0.780698 0.909855
O O15 0.022712 0.000000 0.833494
O O16 0.250000 0.807459 0.953565
O O17 0.117352 0.000000 0.990774
#
# Coordination Sequence:
#
# PCOD8210752 Si02
#       6
#     8   8   8   8   8   8
#     4   8  12  20  38  64  93 124 159 201 248 297
#     4   8  14  24  39  63  95 128 161 199 248 303
#     4  10  21  36  54  76 100 126 160 205 255 303
#     4  10  20  33  49  70  99 133 166 204 252 302
#     4  11  22  35  52  73  99 133 171 207 244 293
#     4   9  18  33  52  74 100 129 162 202 249 299
#
# _framework density 18.355287000000001
#
# number of rings (size 3 to 8) (size 9 to 14) (size 15 to 20)
#    0.000    2.667    0.000    3.500    0.000    7.333 
#    0.000    2.500    0.000    3.000    0.000    2.333 
#    0.000    1.333    0.000    0.000    0.000    0.000 
#
# Total GULP energy -595076.798820 kJ/mol
# GULP energy per Si atom -12397.433309 kJ/mol
# Density = 1.831351 g / cm^3
# Si number density = 18.355287 Si / 1000 Ang^3
#
#
#
# Elastic Constant Matrix: (Units=GPa)
#
#
# Indices 1 2 3 4 5 6 
#
# 1 144.4261 41.7702 69.9436 0.0000 0.0000 0.0000
# 2 41.7702 48.0556 40.2117 0.0000 0.0000 0.0000
# 3 69.9436 40.2117 64.0418 0.0000 0.0000 0.0000
# 4 0.0000 0.0000 0.0000 -13.5097 0.0000 0.0000
# 5 0.0000 0.0000 0.0000 0.0000 32.1134 0.0000
# 6 0.0000 0.0000 0.0000 0.0000 0.0000 16.9244
#
#
#
# Elastic Compliance Matrix: (Units=1/GPa)
#
#
# Indices 1 2 3 4 5 6 
#
# 1 0.014742 0.001388 -0.016972 0.000000 0.000000 0.000000
# 2 0.001388 0.043977 -0.029129 0.000000 0.000000 0.000000
# 3 -0.016972 -0.029129 0.052441 0.000000 0.000000 0.000000
# 4 0.000000 0.000000 0.000000 -0.074021 0.000000 0.000000
# 5 0.000000 0.000000 0.000000 0.000000 0.031140 0.000000
# 6 0.000000 0.000000 0.000000 0.000000 0.000000 0.059086
#
#
# Mechanical properties :
#
#
# Convention : Reuss Voigt Hill
#
# Bulk Modulus (GPa) = 46.01103 62.26384 54.13744
# Shear Modulus (GPa) = 22.31797 14.07883 18.19840
#
# Velocity S-wave (km/s) = 3.49074 2.77251 3.15215
# Velocity P-wave (km/s) = 6.43182 6.65163 6.54265
#
# Compressibility (1/GPa) = 0.02173392
#
# Stress axis : x y z
#
# Youngs Moduli (GPa) = 67.83474 22.73897 19.06922
#
# Poissons Ratio (x) = -0.03156 0.32364
# Poissons Ratio (y) = -0.09415 0.55547
# Poissons Ratio (z) = 1.15127 0.66236
#
# Static dielectric constant tensor:
#      x y z
#    x 3.767700 0.000000 0.000000 
#    y 0.000000 3.001390 0.000000 
#    z 0.000000 0.000000 3.384140 
# 
# 
# High freq. dielectric constant tensor:
#      x y z
#    x 1.731180 0.000000 0.000000 
#    y 0.000000 1.672490 0.000000 
#    z 0.000000 0.000000 1.696460 
# 
# From -- ./inp_files/29479.got.cif
#   From: 2010.03.12/outbox.cif.g09.slc.cpg/sg51_15_cif.got.tgz:29479.got - 2010.04.16 13:43:02.
