data_PCOD8210296
_publ_section_title
;
Structure prediction by ZEFSAII (Michael W. Deem and Ramdas Pophale) SiO2 
 PCOD8210296
Probable space group: P M M A
;
_chemical_formula_sum "Si O2"
_cell_formula_units_Z 48
_cell_length_a 18.585059
_cell_length_b 9.382947
_cell_length_c 16.501363
_cell_angle_alpha 90.000000
_cell_angle_beta 90.000000
_cell_angle_gamma 90.000000
_cell_volume 2877.550973
_symmetry_space_group_name_H-M "P M M A"
_symmetry_group_IT_number 51
_symmetry_cell_setting 'orthorhombic'
loop_
_space_group_symop_operation_xyz
x,y,z
1/2-x,-y,z
1/2+x,-y,-z
-x,y,-z
-x,-y,-z
1/2+x,y,-z
1/2-x,y,z
x,-y,z
loop_
_atom_site_type_symbol
_atom_site_label
_atom_site_fract_x
_atom_site_fract_y
_atom_site_fract_z
Si Si1 0.330346 0.164794 0.646338
Si Si2 0.441146 0.158395 0.114015
Si Si3 0.362011 0.658544 0.801606
Si Si4 0.976349 0.655377 0.747285
Si Si5 0.460124 0.331704 0.582587
Si Si6 0.104538 0.839553 0.942958
O O1 0.250000 0.173225 0.608709
O O2 0.327854 0.242383 0.732929
O O3 0.385529 0.244487 0.586070
O O4 0.354066 0.000000 0.657867
O O5 0.425611 0.248360 0.195675
O O6 0.524822 0.156172 0.093122
O O7 0.414069 0.000000 0.133263
O O8 0.397365 0.217850 0.035896
O O9 0.327001 0.500000 0.800916
O O10 0.446411 0.643069 0.788532
O O11 0.347109 0.733580 0.888554
O O12 0.939794 0.500000 0.742229
O O13 0.987450 0.717034 0.656318
O O14 0.500000 0.293415 0.500000
O O15 0.442436 0.500000 0.590456
O O16 0.136441 0.000000 0.940258
#
# Coordination Sequence:
#
# PCOD8210296 Si02
#       6
#     8   8   8   8   8   8
#     4  10  20  32  46  65  89 117 149 184 222 267
#     4   8  13  20  31  48  72 104 137 167 201 242
#     4   9  16  25  38  56  78 107 141 174 210 251
#     4   8  14  23  35  53  77 105 136 171 211 255
#     4   9  18  32  48  66  89 117 149 186 231 282
#     4   8  13  21  32  48  73 104 136 168 201 238
#
# _framework density 16.680851000000001
#
# number of rings (size 3 to 8) (size 9 to 14) (size 15 to 20)
#    0.000    3.333    0.000    3.000    0.000    6.333 
#    0.000    3.333    0.000    0.000    0.000    0.000 
#    0.000    1.333    0.000    8.667    0.000   13.167 
#
# Total GULP energy -594696.861276 kJ/mol
# GULP energy per Si atom -12389.517943 kJ/mol
# Density = 1.664289 g / cm^3
# Si number density = 16.680851 Si / 1000 Ang^3
#
#
#
# Elastic Constant Matrix: (Units=GPa)
#
#
# Indices 1 2 3 4 5 6 
#
# 1 36.3314 31.9335 34.3771 0.0000 0.0000 0.0000
# 2 31.9335 100.7036 61.2996 0.0000 0.0000 0.0000
# 3 34.3771 61.2996 133.8955 0.0000 0.0000 0.0000
# 4 0.0000 0.0000 0.0000 28.3364 0.0000 0.0000
# 5 0.0000 0.0000 0.0000 0.0000 7.9795 0.0000
# 6 0.0000 0.0000 0.0000 0.0000 0.0000 7.4444
#
#
#
# Elastic Compliance Matrix: (Units=1/GPa)
#
#
# Indices 1 2 3 4 5 6 
#
# 1 0.041851 -0.009331 -0.006473 0.000000 0.000000 0.000000
# 2 -0.009331 0.015847 -0.004859 0.000000 0.000000 0.000000
# 3 -0.006473 -0.004859 0.011355 0.000000 0.000000 0.000000
# 4 0.000000 0.000000 0.000000 0.035290 0.000000 0.000000
# 5 0.000000 0.000000 0.000000 0.000000 0.125321 0.000000
# 6 0.000000 0.000000 0.000000 0.000000 0.000000 0.134330
#
#
# Mechanical properties :
#
#
# Convention : Reuss Voigt Hill
#
# Bulk Modulus (GPa) = 36.06704 58.46124 47.26414
# Shear Modulus (GPa) = 12.06092 18.30674 15.18383
#
# Velocity S-wave (km/s) = 2.69186 3.31640 3.02032
# Velocity P-wave (km/s) = 5.59734 7.05604 6.36859
#
# Compressibility (1/GPa) = 0.02772615
#
# Stress axis : x y z
#
# Youngs Moduli (GPa) = 23.89452 63.10391 88.06545
#
# Poissons Ratio (x) = 0.58880 0.57007
# Poissons Ratio (y) = 0.22295 0.42794
# Poissons Ratio (z) = 0.15468 0.30664
#
# Static dielectric constant tensor:
#      x y z
#    x 2.583720 0.000000 0.000000 
#    y 0.000000 3.460630 0.000000 
#    z 0.000000 0.000000 3.249060 
# 
# 
# High freq. dielectric constant tensor:
#      x y z
#    x 1.574910 0.000000 0.000000 
#    y 0.000000 1.649550 0.000000 
#    z 0.000000 0.000000 1.635360 
# 
# From -- ./inp_files/30073.got.cif
#   From: 2010.03.12/outbox.cif.g09.slc.cpg/sg51_16_cif.got.tgz:30073.got - 2010.04.16 13:43:02.
