data_PCOD8210091
_publ_section_title
;
Structure prediction by ZEFSAII (Michael W. Deem and Ramdas Pophale) SiO2 
 PCOD8210091
Probable space group: P M M A
;
_chemical_formula_sum "Si O2"
_cell_formula_units_Z 48
_cell_length_a 14.638044
_cell_length_b 16.768869
_cell_length_c 9.636541
_cell_angle_alpha 90.000000
_cell_angle_beta 90.000000
_cell_angle_gamma 90.000000
_cell_volume 2365.418525
_symmetry_space_group_name_H-M "P M M A"
_symmetry_group_IT_number 51
_symmetry_cell_setting 'orthorhombic'
loop_
_space_group_symop_operation_xyz
x,y,z
1/2-x,-y,z
1/2+x,-y,-z
-x,y,-z
-x,-y,-z
1/2+x,y,-z
1/2-x,y,z
x,-y,z
loop_
_atom_site_type_symbol
_atom_site_label
_atom_site_fract_x
_atom_site_fract_y
_atom_site_fract_z
Si Si1 0.143147 0.909039 0.336090
Si Si2 0.348767 0.500000 0.373952
Si Si3 0.004031 0.500000 0.834672
Si Si4 0.143977 0.331989 0.468528
Si Si5 0.024472 0.672420 0.723912
Si Si6 0.350545 0.905685 0.644723
Si Si7 0.503091 0.167306 0.156529
O O1 0.250000 0.905108 0.304555
O O2 0.121899 0.874256 0.490550
O O3 0.093768 0.851744 0.227069
O O4 0.107414 0.000000 0.321235
O O5 0.250000 0.500000 0.305682
O O6 0.405095 0.500000 0.232652
O O7 0.363381 0.572597 0.478708
O O8 0.048680 0.583741 0.781901
O O9 0.000000 0.500000 0.000000
O O10 0.250000 0.302850 0.446256
O O11 0.102208 0.300982 0.613050
O O12 0.077077 0.313244 0.339764
O O13 0.027728 0.738395 0.844881
O O14 0.250000 0.872974 0.684013
O O15 0.420064 0.880540 0.761745
O O16 0.347328 0.000000 0.632455
O O17 0.500000 0.136149 0.000000
#
# Coordination Sequence:
#
# PCOD8210091 Si02
#       7
#     8   4   4   8   8   8   8
#     4   9  20  40  65  89 113 149 197 240 281 339
#     4   8  15  31  55  81 102 126 178 242 292 336
#     4  10  19  37  57  71 109 161 192 226 277 340
#     4   9  18  34  57  81 104 133 179 245 298 332
#     4  10  22  36  55  84 110 148 197 235 283 344
#     4   9  20  40  65  89 113 148 195 241 284 339
#     4  12  25  37  53  86 126 156 188 237 292 350
#
# _framework density 20.292393000000001
#
# number of rings (size 3 to 8) (size 9 to 14) (size 15 to 20)
#    0.000    2.333    0.000    3.000    4.667    6.667 
#    0.000    2.500    0.000    4.000    0.000    0.000 
#    0.000    0.000    0.000    0.000    0.000    0.000 
#
# Total GULP energy -594729.569025 kJ/mol
# GULP energy per Si atom -12390.199355 kJ/mol
# Density = 2.024621 g / cm^3
# Si number density = 20.292393 Si / 1000 Ang^3
#
#
#
# Elastic Constant Matrix: (Units=GPa)
#
#
# Indices 1 2 3 4 5 6 
#
# 1 96.8001 11.0285 44.6457 0.0000 0.0000 0.0000
# 2 11.0285 45.7977 24.3397 0.0000 0.0000 0.0000
# 3 44.6457 24.3397 132.6638 0.0000 0.0000 0.0000
# 4 0.0000 0.0000 0.0000 25.8439 0.0000 0.0000
# 5 0.0000 0.0000 0.0000 0.0000 -31.8391 0.0000
# 6 0.0000 0.0000 0.0000 0.0000 0.0000 4.1625
#
#
#
# Elastic Compliance Matrix: (Units=1/GPa)
#
#
# Indices 1 2 3 4 5 6 
#
# 1 0.012258 -0.000841 -0.003971 0.000000 0.000000 0.000000
# 2 -0.000841 0.024252 -0.004166 0.000000 0.000000 0.000000
# 3 -0.003971 -0.004166 0.009639 0.000000 0.000000 0.000000
# 4 0.000000 0.000000 0.000000 0.038694 0.000000 0.000000
# 5 0.000000 0.000000 0.000000 0.000000 -0.031408 0.000000
# 6 0.000000 0.000000 0.000000 0.000000 0.000000 0.240239
#
#
# Mechanical properties :
#
#
# Convention : Reuss Voigt Hill
#
# Bulk Modulus (GPa) = 35.47198 48.36550 41.91874
# Shear Modulus (GPa) = 15.57501 12.64997 14.11249
#
# Velocity S-wave (km/s) = 2.77344 2.49948 2.64001
# Velocity P-wave (km/s) = 5.27014 5.67590 5.47678
#
# Compressibility (1/GPa) = 0.02819127
#
# Stress axis : x y z
#
# Youngs Moduli (GPa) = 81.58060 41.23363 103.75019
#
# Poissons Ratio (x) = 0.03470 0.41197
# Poissons Ratio (y) = 0.06865 0.43226
# Poissons Ratio (z) = 0.32394 0.17179
#
# Static dielectric constant tensor:
#      x y z
#    x 3.753030 0.000000 0.000000 
#    y 0.000000 3.933030 0.000000 
#    z 0.000000 0.000000 3.379230 
# 
# 
# High freq. dielectric constant tensor:
#      x y z
#    x 1.790390 0.000000 0.000000 
#    y 0.000000 1.806540 0.000000 
#    z 0.000000 0.000000 1.764420 
# 
# From -- ./inp_files/8373.got.cif
#   From: 2010.03.12/outbox.cif.g09.slc.cpg/sg51_5_cif.got.tgz:8373.got - 2010.04.16 13:43:02.
