data_PCOD8210662
_publ_section_title
;
Structure prediction by ZEFSAII (Michael W. Deem and Ramdas Pophale) SiO2 
 PCOD8210662
Probable space group: P M M A
;
_chemical_formula_sum "Si O2"
_cell_formula_units_Z 48
_cell_length_a 8.879678
_cell_length_b 15.078389
_cell_length_c 25.657194
_cell_angle_alpha 90.000000
_cell_angle_beta 90.000000
_cell_angle_gamma 90.000000
_cell_volume 3435.273496
_symmetry_space_group_name_H-M "P M M A"
_symmetry_group_IT_number 51
_symmetry_cell_setting 'orthorhombic'
loop_
_space_group_symop_operation_xyz
x,y,z
1/2-x,-y,z
1/2+x,-y,-z
-x,y,-z
-x,-y,-z
1/2+x,y,-z
1/2-x,y,z
x,-y,z
loop_
_atom_site_type_symbol
_atom_site_label
_atom_site_fract_x
_atom_site_fract_y
_atom_site_fract_z
Si Si1 0.426280 0.903771 0.556264
Si Si2 0.928571 0.730480 0.556982
Si Si3 0.076993 0.395228 0.636746
Si Si4 0.580399 0.394262 0.948275
Si Si5 0.419696 0.605789 0.844733
Si Si6 0.419259 0.394534 0.258402
O O1 0.500000 0.910120 0.500000
O O2 0.250000 0.882318 0.550937
O O3 0.509168 0.821276 0.584675
O O4 0.450379 0.000000 0.584533
O O5 0.750000 0.733499 0.552526
O O6 0.000000 0.719289 0.500000
O O7 0.977757 0.647414 0.591429
O O8 0.250000 0.366010 0.631281
O O9 0.057921 0.500000 0.631266
O O10 0.016796 0.361716 0.692589
O O11 0.750000 0.358308 0.947597
O O12 0.577312 0.500000 0.948380
O O13 0.496624 0.357310 0.897162
O O14 0.500000 0.357077 0.000000
O O15 0.250000 0.641697 0.842657
O O16 0.422258 0.500000 0.844632
O O17 0.507835 0.643390 0.794559
O O18 0.250000 0.357348 0.263597
O O19 0.418060 0.500000 0.256171
#
# Coordination Sequence:
#
# PCOD8210662 Si02
#       6
#     8   8   8   8   8   8
#     4   9  16  27  44  64  84 103 122 145 174 211
#     4  11  21  32  46  62  81 102 124 151 183 223
#     4  10  20  33  46  58  74  97 125 157 191 226
#     4   9  15  21  28  39  56  77 100 128 165 209
#     4   9  15  22  32  45  60  79 104 134 169 209
#     4   9  16  26  39  53  67  84 110 144 180 216
#
# _framework density 13.972687000000001
#
# number of rings (size 3 to 8) (size 9 to 14) (size 15 to 20)
#    0.000    2.500    0.000    5.000    0.000    8.333 
#    0.000    0.000    0.000    0.000    0.000    0.000 
#    0.000    0.000    0.000    0.000    0.000    0.000 
#
# Total GULP energy -594949.986092 kJ/mol
# GULP energy per Si atom -12394.791377 kJ/mol
# Density = 1.394088 g / cm^3
# Si number density = 13.972687 Si / 1000 Ang^3
#
#
#
# Elastic Constant Matrix: (Units=GPa)
#
#
# Indices 1 2 3 4 5 6 
#
# 1 132.6447 26.3841 50.5198 0.0000 0.0000 0.0000
# 2 26.3841 27.1979 25.2119 0.0000 0.0000 0.0000
# 3 50.5198 25.2119 93.0274 0.0000 0.0000 0.0000
# 4 0.0000 0.0000 0.0000 0.3210 0.0000 0.0000
# 5 0.0000 0.0000 0.0000 0.0000 28.2800 0.0000
# 6 0.0000 0.0000 0.0000 0.0000 0.0000 14.7228
#
#
#
# Elastic Compliance Matrix: (Units=1/GPa)
#
#
# Indices 1 2 3 4 5 6 
#
# 1 0.010278 -0.006405 -0.003845 0.000000 0.000000 0.000000
# 2 -0.006405 0.053096 -0.010911 0.000000 0.000000 0.000000
# 3 -0.003845 -0.010911 0.015795 0.000000 0.000000 0.000000
# 4 0.000000 0.000000 0.000000 3.115275 0.000000 0.000000
# 5 0.000000 0.000000 0.000000 0.000000 0.035361 0.000000
# 6 0.000000 0.000000 0.000000 0.000000 0.000000 0.067922
#
#
# Mechanical properties :
#
#
# Convention : Reuss Voigt Hill
#
# Bulk Modulus (GPa) = 27.14137 50.78909 38.96523
# Shear Modulus (GPa) = 1.49150 18.71505 10.10327
#
# Velocity S-wave (km/s) = 1.03429 3.66375 2.69192
# Velocity P-wave (km/s) = 4.57090 7.37056 6.13263
#
# Compressibility (1/GPa) = 0.03684413
#
# Stress axis : x y z
#
# Youngs Moduli (GPa) = 97.29869 18.83386 63.31134
#
# Poissons Ratio (x) = 0.12064 0.24346
# Poissons Ratio (y) = 0.62324 0.69081
# Poissons Ratio (z) = 0.37415 0.20550
#
# Static dielectric constant tensor:
#      x y z
#    x 3.010550 0.000000 0.000000 
#    y 0.000000 2.602860 0.000000 
#    z 0.000000 0.000000 2.741450 
# 
# 
# High freq. dielectric constant tensor:
#      x y z
#    x 1.559370 0.000000 0.000000 
#    y 0.000000 1.463720 0.000000 
#    z 0.000000 0.000000 1.522070 
# 
# From -- ./inp_files/34625.got.cif
#   From: 2010.03.12/outbox.cif.g09.slc.cpg/sg51_18_cif.got.tgz:34625.got - 2010.04.16 13:43:02.
