data_PCOD8210970
_publ_section_title
;
Structure prediction by ZEFSAII (Michael W. Deem and Ramdas Pophale) SiO2 
 PCOD8210970
Probable space group: P M M A
;
_chemical_formula_sum "Si O2"
_cell_formula_units_Z 64
_cell_length_a 13.936005
_cell_length_b 9.060417
_cell_length_c 26.043667
_cell_angle_alpha 90.000000
_cell_angle_beta 90.000000
_cell_angle_gamma 90.000000
_cell_volume 3288.430090
_symmetry_space_group_name_H-M "P M M A"
_symmetry_group_IT_number 51
_symmetry_cell_setting 'orthorhombic'
loop_
_space_group_symop_operation_xyz
x,y,z
1/2-x,-y,z
1/2+x,-y,-z
-x,y,-z
-x,-y,-z
1/2+x,y,-z
1/2-x,y,z
x,-y,z
loop_
_atom_site_type_symbol
_atom_site_label
_atom_site_fract_x
_atom_site_fract_y
_atom_site_fract_z
Si Si1 0.641432 0.829909 0.667798
Si Si2 0.951850 0.827306 0.278377
Si Si3 0.048640 0.324796 0.924024
Si Si4 0.101872 0.161753 0.524282
Si Si5 0.644034 0.340700 0.570914
Si Si6 0.356293 0.324399 0.027842
Si Si7 0.361498 0.674946 0.818293
Si Si8 0.636842 0.669205 0.374671
O O1 0.750000 0.780614 0.683836
O O2 0.566438 0.799963 0.713887
O O3 0.595620 0.749246 0.617639
O O4 0.642406 0.000000 0.652043
O O5 0.922075 0.753818 0.225443
O O6 0.890516 0.753614 0.323219
O O7 0.927564 0.000000 0.277345
O O8 0.052134 0.500000 0.923700
O O9 0.093872 0.264427 0.871462
O O10 0.937357 0.271984 0.931112
O O11 0.112845 0.266471 0.971454
O O12 0.159148 0.255375 0.482475
O O13 0.088630 0.252721 0.576435
O O14 0.000000 0.136418 0.500000
O O15 0.149557 0.000000 0.534302
O O16 0.750000 0.369173 0.591921
O O17 0.591883 0.500000 0.562614
O O18 0.250000 0.261494 0.041839
O O19 0.352778 0.500000 0.026984
O O20 0.250000 0.720065 0.815177
O O21 0.373528 0.500000 0.812592
O O22 0.750000 0.678767 0.382528
O O23 0.602114 0.500000 0.371182
#
# Coordination Sequence:
#
# PCOD8210970 Si02
#       8
#     8   8   8   8   8   8   8   8
#     4   9  19  37  58  77  99 129 165 206 255 312
#     4  11  23  38  57  79 101 130 172 218 261 307
#     4   8  14  24  40  66 100 137 175 213 256 308
#     4  11  23  36  51  74 103 134 168 205 248 302
#     4  10  20  33  51  76 101 124 155 196 243 298
#     4   8  12  20  38  66 101 138 174 214 259 304
#     4  10  20  34  52  74 103 139 176 215 261 310
#     4  11  24  40  57  78 105 137 172 212 261 312
#
# _framework density 19.462174000000001
#
# number of rings (size 3 to 8) (size 9 to 14) (size 15 to 20)
#    0.000    2.250    0.000    4.125    0.000   11.500 
#    0.000    0.625    0.000    0.750    0.000    1.750 
#    0.000    1.000    0.000    0.000    0.000    0.000 
#
# Total GULP energy -793104.685637 kJ/mol
# GULP energy per Si atom -12392.260713 kJ/mol
# Density = 1.941788 g / cm^3
# Si number density = 19.462174 Si / 1000 Ang^3
#
#
#
# Elastic Constant Matrix: (Units=GPa)
#
#
# Indices 1 2 3 4 5 6 
#
# 1 101.3934 34.2884 48.6578 0.0000 0.0000 0.0000
# 2 34.2884 81.2933 49.7615 0.0000 0.0000 0.0000
# 3 48.6578 49.7615 135.4387 0.0000 0.0000 0.0000
# 4 0.0000 0.0000 0.0000 -3.6673 0.0000 0.0000
# 5 0.0000 0.0000 0.0000 0.0000 30.9036 0.0000
# 6 0.0000 0.0000 0.0000 0.0000 0.0000 21.0149
#
#
#
# Elastic Compliance Matrix: (Units=1/GPa)
#
#
# Indices 1 2 3 4 5 6 
#
# 1 0.012557 -0.003270 -0.003310 0.000000 0.000000 0.000000
# 2 -0.003270 0.016722 -0.004969 0.000000 0.000000 0.000000
# 3 -0.003310 -0.004969 0.010398 0.000000 0.000000 0.000000
# 4 0.000000 0.000000 0.000000 -0.272683 0.000000 0.000000
# 5 0.000000 0.000000 0.000000 0.000000 0.032359 0.000000
# 6 0.000000 0.000000 0.000000 0.000000 0.000000 0.047585
#
#
# Mechanical properties :
#
#
# Convention : Reuss Voigt Hill
#
# Bulk Modulus (GPa) = 60.31683 64.83785 62.57734
# Shear Modulus (GPa) = -40.18083 22.01144 -9.08470
#
# Velocity S-wave (km/s) = -4.54867 3.36666 -2.16287
# Velocity P-wave (km/s) = 1.86330 6.96417 5.09762
#
# Compressibility (1/GPa) = 0.01657912
#
# Stress axis : x y z
#
# Youngs Moduli (GPa) = 79.63836 59.80088 96.17185
#
# Poissons Ratio (x) = 0.19557 0.31829
# Poissons Ratio (y) = 0.26045 0.47787
# Poissons Ratio (z) = 0.26357 0.29715
#
# Static dielectric constant tensor:
#      x y z
#    x 3.830690 0.000000 0.000000 
#    y 0.000000 3.605410 0.000000 
#    z 0.000000 0.000000 3.516930 
# 
# 
# High freq. dielectric constant tensor:
#      x y z
#    x 1.773200 0.000000 0.000000 
#    y 0.000000 1.734470 0.000000 
#    z 0.000000 0.000000 1.738840 
# 
# From -- ./inp_files/35613.got.cif
#   From: 2010.03.12/outbox.cif.g09.slc.cpg/sg51_18_cif.got.tgz:35613.got - 2010.04.16 13:43:02.
