data_PCOD8210028
_publ_section_title
;
Structure prediction by ZEFSAII (Michael W. Deem and Ramdas Pophale) SiO2 
 PCOD8210028
Probable space group: P M M A
;
_chemical_formula_sum "Si O2"
_cell_formula_units_Z 52
_cell_length_a 8.954337
_cell_length_b 14.901249
_cell_length_c 20.237840
_cell_angle_alpha 90.000000
_cell_angle_beta 90.000000
_cell_angle_gamma 90.000000
_cell_volume 2700.351288
_symmetry_space_group_name_H-M "P M M A"
_symmetry_group_IT_number 51
_symmetry_cell_setting 'orthorhombic'
loop_
_space_group_symop_operation_xyz
x,y,z
1/2-x,-y,z
1/2+x,-y,-z
-x,y,-z
-x,-y,-z
1/2+x,y,-z
1/2-x,y,z
x,-y,z
loop_
_atom_site_type_symbol
_atom_site_label
_atom_site_fract_x
_atom_site_fract_y
_atom_site_fract_z
Si Si1 0.417137 0.000000 0.066742
Si Si2 0.423543 0.655845 0.928750
Si Si3 0.929170 0.288410 0.313550
Si Si4 0.422005 0.399440 0.198717
Si Si5 0.576315 0.604890 0.568229
Si Si6 0.581347 0.099682 0.280298
Si Si7 0.914269 0.149621 0.131117
O O1 0.453214 0.912422 0.107711
O O2 0.250000 0.000000 0.046211
O O3 0.500000 0.000000 0.000000
O O4 0.250000 0.628500 0.934766
O O5 0.505881 0.595058 0.874439
O O6 0.443728 0.755383 0.901263
O O7 0.500000 0.644217 0.000000
O O8 0.750000 0.294743 0.311704
O O9 0.982078 0.183095 0.323805
O O10 0.990226 0.330751 0.245606
O O11 0.994426 0.342237 0.374390
O O12 0.250000 0.367884 0.193655
O O13 0.431292 0.500000 0.228688
O O14 0.500000 0.633741 0.500000
O O15 0.750000 0.630891 0.566192
O O16 0.553762 0.500000 0.581771
O O17 0.750000 0.080607 0.301188
O O18 0.575239 0.147274 0.209419
O O19 0.499891 0.000000 0.284841
O O20 0.750000 0.114024 0.109497
#
# Coordination Sequence:
#
# PCOD8210028 Si02
#       7
#     4   8   8   8   8   8   8
#     4  12  24  34  48  74 102 136 179 228 291 356
#     4  11  23  39  58  79 104 141 188 240 299 359
#     4  11  21  36  61  92 121 156 196 237 287 341
#     4  11  24  40  58  82 113 150 192 240 293 349
#     4  10  21  38  61  92 129 166 199 235 282 335
#     4   9  17  33  58  84 112 147 188 233 283 339
#     4  10  19  36  57  76 102 138 181 233 292 350
#
# _framework density 19.256754000000001
#
# number of rings (size 3 to 8) (size 9 to 14) (size 15 to 20)
#    0.000    1.538    2.308    3.462    0.000    6.769 
#    0.000    0.000    0.000    0.462    0.000    0.000 
#    0.000    0.000    0.000    0.000    0.000    0.000 
#
# Total GULP energy -644331.086120 kJ/mol
# GULP energy per Si atom -12390.982425 kJ/mol
# Density = 1.921292 g / cm^3
# Si number density = 19.256754 Si / 1000 Ang^3
#
#
#
# Elastic Constant Matrix: (Units=GPa)
#
#
# Indices 1 2 3 4 5 6 
#
# 1 121.5006 45.8197 42.9585 0.0000 0.0000 0.0000
# 2 45.8197 104.5459 43.5304 0.0000 0.0000 0.0000
# 3 42.9585 43.5304 99.7541 0.0000 0.0000 0.0000
# 4 0.0000 0.0000 0.0000 7.5352 0.0000 0.0000
# 5 0.0000 0.0000 0.0000 0.0000 34.4781 0.0000
# 6 0.0000 0.0000 0.0000 0.0000 0.0000 52.4599
#
#
#
# Elastic Compliance Matrix: (Units=1/GPa)
#
#
# Indices 1 2 3 4 5 6 
#
# 1 0.010590 -0.003351 -0.003098 0.000000 0.000000 0.000000
# 2 -0.003351 0.012750 -0.004120 0.000000 0.000000 0.000000
# 3 -0.003098 -0.004120 0.013157 0.000000 0.000000 0.000000
# 4 0.000000 0.000000 0.000000 0.132711 0.000000 0.000000
# 5 0.000000 0.000000 0.000000 0.000000 0.029004 0.000000
# 6 0.000000 0.000000 0.000000 0.000000 0.000000 0.019062
#
#
# Mechanical properties :
#
#
# Convention : Reuss Voigt Hill
#
# Bulk Modulus (GPa) = 65.11786 65.60197 65.35991
# Shear Modulus (GPa) = 20.53126 31.79408 26.16267
#
# Velocity S-wave (km/s) = 3.26879 4.06773 3.68995
# Velocity P-wave (km/s) = 6.93799 7.49686 7.22283
#
# Compressibility (1/GPa) = 0.01535677
#
# Stress axis : x y z
#
# Youngs Moduli (GPa) = 94.43292 78.43396 76.00616
#
# Poissons Ratio (x) = 0.26285 0.23546
# Poissons Ratio (y) = 0.31646 0.31318
# Poissons Ratio (z) = 0.29255 0.32318
#
# Static dielectric constant tensor:
#      x y z
#    x 3.502420 0.000000 0.000000 
#    y 0.000000 3.912170 0.000000 
#    z 0.000000 0.000000 3.751320 
# 
# 
# High freq. dielectric constant tensor:
#      x y z
#    x 1.744280 0.000000 0.000000 
#    y 0.000000 1.760510 0.000000 
#    z 0.000000 0.000000 1.733300 
# 
# From -- ./inp_files/31683.got.cif
#   From: 2010.03.12/outbox.cif.g09.slc.cpg/sg51_16_cif.got.tgz:31683.got - 2010.04.16 13:43:02.
