data_PCOD8210702
_publ_section_title
;
Structure prediction by ZEFSAII (Michael W. Deem and Ramdas Pophale) SiO2 
 PCOD8210702
Probable space group: P M M A
;
_chemical_formula_sum "Si O2"
_cell_formula_units_Z 64
_cell_length_a 19.418946
_cell_length_b 9.434602
_cell_length_c 18.689633
_cell_angle_alpha 90.000000
_cell_angle_beta 90.000000
_cell_angle_gamma 90.000000
_cell_volume 3424.128162
_symmetry_space_group_name_H-M "P M M A"
_symmetry_group_IT_number 51
_symmetry_cell_setting 'orthorhombic'
loop_
_space_group_symop_operation_xyz
x,y,z
1/2-x,-y,z
1/2+x,-y,-z
-x,y,-z
-x,-y,-z
1/2+x,y,-z
1/2-x,y,z
x,-y,z
loop_
_atom_site_type_symbol
_atom_site_label
_atom_site_fract_x
_atom_site_fract_y
_atom_site_fract_z
Si Si1 0.824617 0.332128 0.005101
Si Si2 0.405306 0.837284 0.718339
Si Si3 0.169761 0.834709 0.576346
Si Si4 0.331435 0.340616 0.439972
Si Si5 0.169142 0.659381 0.837013
Si Si6 0.829075 0.165154 0.698072
Si Si7 0.458147 0.333412 0.069762
Si Si8 0.456806 0.162071 0.209197
O O1 0.750000 0.268283 0.983588
O O2 0.819038 0.500000 0.011847
O O3 0.847727 0.279126 0.083797
O O4 0.878935 0.289302 0.944588
O O5 0.378041 0.782533 0.641862
O O6 0.367430 0.757328 0.780920
O O7 0.487643 0.815441 0.726918
O O8 0.383996 0.000000 0.725953
O O9 0.250000 0.803702 0.593917
O O10 0.142362 0.744535 0.509177
O O11 0.158997 0.000000 0.558648
O O12 0.250000 0.347324 0.442644
O O13 0.362462 0.500000 0.439158
O O14 0.354135 0.257041 0.369172
O O15 0.250000 0.661945 0.823059
O O16 0.140279 0.500000 0.828738
O O17 0.750000 0.200625 0.720385
O O18 0.880785 0.205063 0.762703
O O19 0.836199 0.000000 0.677495
O O20 0.468436 0.500000 0.081933
O O21 0.480887 0.255516 0.141803
O O22 0.500000 0.283004 0.000000
O O23 0.456736 0.000000 0.183444
#
# Coordination Sequence:
#
# PCOD8210702 Si02
#       8
#     8   8   8   8   8   8   8   8
#     4   8  15  29  48  70  95 122 156 200 248 298
#     4  10  20  33  48  69 101 137 170 206 246 291
#     4   9  17  30  49  72  98 131 167 197 232 285
#     4   9  17  30  51  79 105 127 159 205 249 290
#     4   9  17  30  50  74  99 130 167 205 246 293
#     4   9  18  35  57  76  98 132 170 208 254 307
#     4  10  20  34  53  74  96 128 168 205 246 301
#     4  10  22  37  52  74 102 131 167 210 255 301
#
# _framework density 18.690888000000001
#
# number of rings (size 3 to 8) (size 9 to 14) (size 15 to 20)
#    0.000    2.750    0.000    2.250    0.000    5.500 
#    0.000    2.500    0.000    4.500    0.000    0.000 
#    0.000    0.000    0.000    0.000    0.000    0.000 
#
# Total GULP energy -793365.393440 kJ/mol
# GULP energy per Si atom -12396.334273 kJ/mol
# Density = 1.864835 g / cm^3
# Si number density = 18.690888 Si / 1000 Ang^3
#
#
#
# Elastic Constant Matrix: (Units=GPa)
#
#
# Indices 1 2 3 4 5 6 
#
# 1 56.8678 30.0312 50.7065 0.0000 0.0000 0.0000
# 2 30.0312 56.9912 44.1217 0.0000 0.0000 0.0000
# 3 50.7065 44.1217 103.3081 0.0000 0.0000 0.0000
# 4 0.0000 0.0000 0.0000 29.1052 0.0000 0.0000
# 5 0.0000 0.0000 0.0000 0.0000 26.2393 0.0000
# 6 0.0000 0.0000 0.0000 0.0000 0.0000 18.5093
#
#
#
# Elastic Compliance Matrix: (Units=1/GPa)
#
#
# Indices 1 2 3 4 5 6 
#
# 1 0.033178 -0.007284 -0.013174 0.000000 0.000000 0.000000
# 2 -0.007284 0.027813 -0.008304 0.000000 0.000000 0.000000
# 3 -0.013174 -0.008304 0.019692 0.000000 0.000000 0.000000
# 4 0.000000 0.000000 0.000000 0.034358 0.000000 0.000000
# 5 0.000000 0.000000 0.000000 0.000000 0.038111 0.000000
# 6 0.000000 0.000000 0.000000 0.000000 0.000000 0.054027
#
#
# Mechanical properties :
#
#
# Convention : Reuss Voigt Hill
#
# Bulk Modulus (GPa) = 43.17653 51.87623 47.52638
# Shear Modulus (GPa) = 18.35393 20.92460 19.63926
#
# Velocity S-wave (km/s) = 3.13704 3.34953 3.24503
# Velocity P-wave (km/s) = 6.02261 6.54020 6.28674
#
# Compressibility (1/GPa) = 0.02316073
#
# Stress axis : x y z
#
# Youngs Moduli (GPa) = 30.14089 35.95404 50.78178
#
# Poissons Ratio (x) = 0.26189 0.66898
# Poissons Ratio (y) = 0.21954 0.42167
# Poissons Ratio (z) = 0.39706 0.29855
#
# Static dielectric constant tensor:
#      x y z
#    x 3.632740 0.000000 0.000000 
#    y 0.000000 3.365380 0.000000 
#    z 0.000000 0.000000 3.375850 
# 
# 
# High freq. dielectric constant tensor:
#      x y z
#    x 1.720460 0.000000 0.000000 
#    y 0.000000 1.706390 0.000000 
#    z 0.000000 0.000000 1.720590 
# 
# From -- ./inp_files/30571.got.cif
#   From: 2010.03.12/outbox.cif.g09.slc.cpg/sg51_16_cif.got.tgz:30571.got - 2010.04.16 13:43:02.
