data_PCOD8210422
_publ_section_title
;
Structure prediction by ZEFSAII (Michael W. Deem and Ramdas Pophale) SiO2 
 PCOD8210422
Probable space group: P M M A
;
_chemical_formula_sum "Si O2"
_cell_formula_units_Z 40
_cell_length_a 9.069341
_cell_length_b 9.731858
_cell_length_c 25.649220
_cell_angle_alpha 90.000000
_cell_angle_beta 90.000000
_cell_angle_gamma 90.000000
_cell_volume 2263.839625
_symmetry_space_group_name_H-M "P M M A"
_symmetry_group_IT_number 51
_symmetry_cell_setting 'orthorhombic'
loop_
_space_group_symop_operation_xyz
x,y,z
1/2-x,-y,z
1/2+x,-y,-z
-x,y,-z
-x,-y,-z
1/2+x,y,-z
1/2-x,y,z
x,-y,z
loop_
_atom_site_type_symbol
_atom_site_label
_atom_site_fract_x
_atom_site_fract_y
_atom_site_fract_z
Si Si1 0.922919 0.341405 0.845510
Si Si2 0.416064 0.663465 0.949558
Si Si3 0.423643 0.342457 0.552355
Si Si4 0.924990 0.151719 0.355986
Si Si5 0.079623 0.839195 0.761142
O O1 0.750000 0.322481 0.853424
O O2 0.963977 0.500000 0.834558
O O3 0.001550 0.286405 0.897647
O O4 0.976407 0.250652 0.797611
O O5 0.250000 0.721562 0.949017
O O6 0.415762 0.500000 0.952169
O O7 0.500000 0.723799 0.000000
O O8 0.500000 0.286772 0.500000
O O9 0.250000 0.322516 0.545982
O O10 0.466649 0.500000 0.562396
O O11 0.487585 0.257710 0.601398
O O12 0.750000 0.147317 0.358516
O O13 0.970894 0.196706 0.297785
O O14 0.988191 0.000000 0.368502
O O15 0.250000 0.798905 0.770268
O O16 0.055732 0.000000 0.772568
#
# Coordination Sequence:
#
# PCOD8210422 Si02
#       5
#     8   8   8   8   8
#     4  10  20  32  47  71 101 130 162 199 238 284
#     4   9  16  27  45  69  97 128 161 199 242 285
#     4   9  17  29  45  66  92 121 151 184 226 275
#     4   8  15  29  48  68  89 115 151 193 232 274
#     4   9  18  33  52  72  94 123 160 201 245 291
#
# _framework density 17.669094999999999
#
# number of rings (size 3 to 8) (size 9 to 14) (size 15 to 20)
#    0.000    3.000    0.000    2.400    0.000    5.200 
#    0.000    3.000    0.000    4.200    0.000    0.000 
#    0.000    0.000    0.000    0.000    0.000    0.000 
#
# Total GULP energy -495929.302370 kJ/mol
# GULP energy per Si atom -12398.232559 kJ/mol
# Density = 1.762888 g / cm^3
# Si number density = 17.669095 Si / 1000 Ang^3
#
#
#
# Elastic Constant Matrix: (Units=GPa)
#
#
# Indices 1 2 3 4 5 6 
#
# 1 73.5212 32.5260 56.8463 0.0000 0.0000 0.0000
# 2 32.5260 57.6445 68.7275 0.0000 0.0000 0.0000
# 3 56.8463 68.7275 168.8525 0.0000 0.0000 0.0000
# 4 0.0000 0.0000 0.0000 5.9522 0.0000 0.0000
# 5 0.0000 0.0000 0.0000 0.0000 33.2257 0.0000
# 6 0.0000 0.0000 0.0000 0.0000 0.0000 19.6186
#
#
#
# Elastic Compliance Matrix: (Units=1/GPa)
#
#
# Indices 1 2 3 4 5 6 
#
# 1 0.019450 -0.006154 -0.004043 0.000000 0.000000 0.000000
# 2 -0.006154 0.035651 -0.012439 0.000000 0.000000 0.000000
# 3 -0.004043 -0.012439 0.012347 0.000000 0.000000 0.000000
# 4 0.000000 0.000000 0.000000 0.168005 0.000000 0.000000
# 5 0.000000 0.000000 0.000000 0.000000 0.030097 0.000000
# 6 0.000000 0.000000 0.000000 0.000000 0.000000 0.050972
#
#
# Mechanical properties :
#
#
# Convention : Reuss Voigt Hill
#
# Bulk Modulus (GPa) = 45.09630 68.46867 56.78249
# Shear Modulus (GPa) = 13.54330 21.22054 17.38192
#
# Velocity S-wave (km/s) = 2.77157 3.46930 3.13988
# Velocity P-wave (km/s) = 5.98500 7.40829 6.73435
#
# Compressibility (1/GPa) = 0.02217477
#
# Stress axis : x y z
#
# Youngs Moduli (GPa) = 51.41274 28.04991 80.99459
#
# Poissons Ratio (x) = 0.17263 0.32748
# Poissons Ratio (y) = 0.31641 1.00748
# Poissons Ratio (z) = 0.20788 0.34891
#
# Static dielectric constant tensor:
#      x y z
#    x 3.110880 0.000000 0.000000 
#    y 0.000000 3.156790 0.000000 
#    z 0.000000 0.000000 3.517830 
# 
# 
# High freq. dielectric constant tensor:
#      x y z
#    x 1.666280 0.000000 0.000000 
#    y 0.000000 1.655840 0.000000 
#    z 0.000000 0.000000 1.696590 
# 
# From -- ./inp_files/31375.got.cif
#   From: 2010.03.12/outbox.cif.g09.slc.cpg/sg51_16_cif.got.tgz:31375.got - 2010.04.16 13:43:02.
