data_PCOD8210031
_publ_section_title
;
Structure prediction by ZEFSAII (Michael W. Deem and Ramdas Pophale) SiO2 
 PCOD8210031
Probable space group: P M M A
;
_chemical_formula_sum "Si O2"
_cell_formula_units_Z 56
_cell_length_a 19.040512
_cell_length_b 8.919847
_cell_length_c 17.649774
_cell_angle_alpha 90.000000
_cell_angle_beta 90.000000
_cell_angle_gamma 90.000000
_cell_volume 2997.610327
_symmetry_space_group_name_H-M "P M M A"
_symmetry_group_IT_number 51
_symmetry_cell_setting 'orthorhombic'
loop_
_space_group_symop_operation_xyz
x,y,z
1/2-x,-y,z
1/2+x,-y,-z
-x,y,-z
-x,-y,-z
1/2+x,y,-z
1/2-x,y,z
x,-y,z
loop_
_atom_site_type_symbol
_atom_site_label
_atom_site_fract_x
_atom_site_fract_y
_atom_site_fract_z
Si Si1 0.557645 0.675329 0.701560
Si Si2 0.912539 0.178037 0.265200
Si Si3 0.833428 0.831505 0.976960
Si Si4 0.667240 0.326564 0.128541
Si Si5 0.828448 0.822115 0.410289
Si Si6 0.669915 0.674430 0.826176
Si Si7 0.427972 0.826044 0.456805
O O1 0.541306 0.500000 0.701893
O O2 0.491032 0.760618 0.735163
O O3 0.624159 0.716530 0.753317
O O4 0.576571 0.726165 0.617403
O O5 0.871720 0.231669 0.191751
O O6 0.872333 0.241214 0.339291
O O7 0.915425 0.000000 0.265967
O O8 0.750000 0.829779 0.975377
O O9 0.861416 0.761690 0.898636
O O10 0.862689 0.000000 0.985490
O O11 0.859924 0.732385 0.047408
O O12 0.750000 0.300171 0.138127
O O13 0.647030 0.500000 0.136081
O O14 0.750000 0.754212 0.408347
O O15 0.864872 0.773960 0.488625
O O16 0.826263 0.000000 0.404537
O O17 0.750000 0.722592 0.808511
O O18 0.665531 0.500000 0.846026
O O19 0.500000 0.795256 0.500000
O O20 0.422113 0.000000 0.433714
#
# Coordination Sequence:
#
# PCOD8210031 Si02
#       7
#     8   8   8   8   8   8   8
#     4  11  23  37  56  82 111 145 184 224 278 341
#     4  11  21  36  56  79 111 149 189 232 276 326
#     4   9  17  31  54  83 111 142 184 230 275 325
#     4  10  20  34  54  82 116 151 186 226 275 330
#     4   9  18  33  55  81 107 139 181 228 275 322
#     4   9  19  37  58  79 108 145 182 225 279 336
#     4  10  19  36  57  78 105 141 182 223 273 331
#
# _framework density 18.681546999999998
#
# number of rings (size 3 to 8) (size 9 to 14) (size 15 to 20)
#    0.000    2.143    1.429    2.143    0.000    5.143 
#    0.000    0.714    0.000    6.000    0.000    0.000 
#    0.000    0.000    0.000    0.000    0.000    0.000 
#
# Total GULP energy -694522.854188 kJ/mol
# GULP energy per Si atom -12402.193825 kJ/mol
# Density = 1.863903 g / cm^3
# Si number density = 18.681547 Si / 1000 Ang^3
#
#
#
# Elastic Constant Matrix: (Units=GPa)
#
#
# Indices 1 2 3 4 5 6 
#
# 1 93.1790 42.0543 51.4602 0.0000 0.0000 0.0000
# 2 42.0543 76.2156 56.9089 0.0000 0.0000 0.0000
# 3 51.4602 56.9089 138.9104 0.0000 0.0000 0.0000
# 4 0.0000 0.0000 0.0000 36.4466 0.0000 0.0000
# 5 0.0000 0.0000 0.0000 0.0000 14.8263 0.0000
# 6 0.0000 0.0000 0.0000 0.0000 0.0000 22.3256
#
#
#
# Elastic Compliance Matrix: (Units=1/GPa)
#
#
# Indices 1 2 3 4 5 6 
#
# 1 0.015197 -0.006025 -0.003162 0.000000 0.000000 0.000000
# 2 -0.006025 0.021292 -0.006491 0.000000 0.000000 0.000000
# 3 -0.003162 -0.006491 0.011029 0.000000 0.000000 0.000000
# 4 0.000000 0.000000 0.000000 0.027437 0.000000 0.000000
# 5 0.000000 0.000000 0.000000 0.000000 0.067448 0.000000
# 6 0.000000 0.000000 0.000000 0.000000 0.000000 0.044792
#
#
# Mechanical properties :
#
#
# Convention : Reuss Voigt Hill
#
# Bulk Modulus (GPa) = 61.86740 67.68354 64.77547
# Shear Modulus (GPa) = 22.32767 25.24516 23.78641
#
# Velocity S-wave (km/s) = 3.46088 3.68005 3.57214
# Velocity P-wave (km/s) = 7.01135 7.37332 7.19461
#
# Compressibility (1/GPa) = 0.01616360
#
# Stress axis : x y z
#
# Youngs Moduli (GPa) = 65.80119 46.96678 90.66737
#
# Poissons Ratio (x) = 0.28296 0.28666
# Poissons Ratio (y) = 0.39644 0.58851
# Poissons Ratio (z) = 0.20804 0.30485
#
# Static dielectric constant tensor:
#      x y z
#    x 3.467830 0.000000 0.000000 
#    y 0.000000 3.364120 0.000000 
#    z 0.000000 0.000000 3.563200 
# 
# 
# High freq. dielectric constant tensor:
#      x y z
#    x 1.711890 0.000000 0.000000 
#    y 0.000000 1.717530 0.000000 
#    z 0.000000 0.000000 1.738010 
# 
# From -- ./inp_files/25786.got.cif
#   From: 2010.03.12/outbox.cif.g09.slc.cpg/sg51_13_cif.got.tgz:25786.got - 2010.04.16 13:43:02.
