data_PCOD8210121
_publ_section_title
;
Structure prediction by ZEFSAII (Michael W. Deem and Ramdas Pophale) SiO2 
 PCOD8210121
Probable space group: P M M A
;
_chemical_formula_sum "Si O2"
_cell_formula_units_Z 48
_cell_length_a 17.281082
_cell_length_b 13.927444
_cell_length_c 9.743045
_cell_angle_alpha 90.000000
_cell_angle_beta 90.000000
_cell_angle_gamma 90.000000
_cell_volume 2344.968754
_symmetry_space_group_name_H-M "P M M A"
_symmetry_group_IT_number 51
_symmetry_cell_setting 'orthorhombic'
loop_
_space_group_symop_operation_xyz
x,y,z
1/2-x,-y,z
1/2+x,-y,-z
-x,y,-z
-x,-y,-z
1/2+x,y,-z
1/2-x,y,z
x,-y,z
loop_
_atom_site_type_symbol
_atom_site_label
_atom_site_fract_x
_atom_site_fract_y
_atom_site_fract_z
Si Si1 0.839869 0.000000 0.665604
Si Si2 0.590354 0.000000 0.966066
Si Si3 0.414224 0.826806 0.484060
Si Si4 0.836972 0.195695 0.000567
Si Si5 0.079792 0.500000 0.322317
Si Si6 0.109429 0.702898 0.743767
Si Si7 0.567461 0.699566 0.770876
Si Si8 0.897719 0.500000 0.373355
O O1 0.856471 0.093019 0.572991
O O2 0.750000 0.000000 0.708999
O O3 0.893237 0.000000 0.801860
O O4 0.500000 0.000000 0.000000
O O5 0.628235 0.092115 0.038690
O O6 0.500000 0.872699 0.500000
O O7 0.381974 0.782569 0.624918
O O8 0.420636 0.737311 0.382281
O O9 0.750000 0.184040 0.945640
O O10 0.835824 0.264325 0.132468
O O11 0.887802 0.236746 0.878285
O O12 0.101172 0.408340 0.229330
O O13 0.126039 0.500000 0.466221
O O14 0.989502 0.500000 0.358061
O O15 0.136334 0.596828 0.695590
O O16 0.023140 0.700554 0.806168
#
# Coordination Sequence:
#
# PCOD8210121 Si02
#       8
#     4   4   8   8   4   8   8   4
#     4  12  25  42  66  95 130 168 212 264 321 384
#     4  12  26  44  70  92 118 161 212 262 321 377
#     4  10  21  37  65  93 126 161 208 258 315 380
#     4  12  26  43  62  88 128 169 210 256 315 381
#     4   9  16  31  63  98 124 154 209 262 309 364
#     4  10  21  38  64  96 127 163 206 261 317 366
#     4  10  19  37  64  94 122 163 209 260 306 370
#     4   9  16  33  61  96 126 156 201 264 319 362
#
# _framework density 20.469356000000001
#
# number of rings (size 3 to 8) (size 9 to 14) (size 15 to 20)
#    0.000    1.500    3.333    2.500    2.333    2.000 
#    0.000    4.167    0.000    1.000    0.000    0.000 
#    0.000    0.000    0.000    0.000    0.000    0.000 
#
# Total GULP energy -595295.575756 kJ/mol
# GULP energy per Si atom -12401.991162 kJ/mol
# Density = 2.042277 g / cm^3
# Si number density = 20.469356 Si / 1000 Ang^3
#
#
#
# Elastic Constant Matrix: (Units=GPa)
#
#
# Indices 1 2 3 4 5 6 
#
# 1 79.3166 39.7871 29.4057 0.0000 0.0000 0.0000
# 2 39.7871 130.1452 24.2833 0.0000 0.0000 0.0000
# 3 29.4057 24.2833 80.8189 0.0000 0.0000 0.0000
# 4 0.0000 0.0000 0.0000 25.4052 0.0000 0.0000
# 5 0.0000 0.0000 0.0000 0.0000 5.1257 0.0000
# 6 0.0000 0.0000 0.0000 0.0000 0.0000 3.8106
#
#
#
# Elastic Compliance Matrix: (Units=1/GPa)
#
#
# Indices 1 2 3 4 5 6 
#
# 1 0.016442 -0.004143 -0.004738 0.000000 0.000000 0.000000
# 2 -0.004143 0.009184 -0.001252 0.000000 0.000000 0.000000
# 3 -0.004738 -0.001252 0.014473 0.000000 0.000000 0.000000
# 4 0.000000 0.000000 0.000000 0.039362 0.000000 0.000000
# 5 0.000000 0.000000 0.000000 0.000000 0.195096 0.000000
# 6 0.000000 0.000000 0.000000 0.000000 0.000000 0.262428
#
#
# Mechanical properties :
#
#
# Convention : Reuss Voigt Hill
#
# Bulk Modulus (GPa) = 50.41740 53.02588 51.72164
# Shear Modulus (GPa) = 8.86743 19.98860 14.42801
#
# Velocity S-wave (km/s) = 2.08362 3.12831 2.65780
# Velocity P-wave (km/s) = 5.52021 6.24577 5.89417
#
# Compressibility (1/GPa) = 0.01983442
#
# Stress axis : x y z
#
# Youngs Moduli (GPa) = 60.81916 108.88740 69.09230
#
# Poissons Ratio (x) = 0.45108 0.32734
# Poissons Ratio (y) = 0.25195 0.08651
# Poissons Ratio (z) = 0.28815 0.13634
#
# Static dielectric constant tensor:
#      x y z
#    x 3.423500 0.000000 0.000000 
#    y 0.000000 3.932120 0.000000 
#    z 0.000000 0.000000 3.657460 
# 
# 
# High freq. dielectric constant tensor:
#      x y z
#    x 1.770250 0.000000 0.000000 
#    y 0.000000 1.816790 0.000000 
#    z 0.000000 0.000000 1.797980 
# 
# From -- ./inp_files/9744.got.cif
#   From: 2010.03.12/outbox.cif.g09.slc.cpg/sg51_5_cif.got.tgz:9744.got - 2010.04.16 13:43:02.
