data_PCOD8210000
_publ_section_title
;
Structure prediction by ZEFSAII (Michael W. Deem and Ramdas Pophale) SiO2 
 PCOD8210000
Probable space group: P M M A
;
_chemical_formula_sum "Si O2"
_cell_formula_units_Z 48
_cell_length_a 18.700345
_cell_length_b 13.951162
_cell_length_c 9.336794
_cell_angle_alpha 90.000000
_cell_angle_beta 90.000000
_cell_angle_gamma 90.000000
_cell_volume 2435.890589
_symmetry_space_group_name_H-M "P M M A"
_symmetry_group_IT_number 51
_symmetry_cell_setting 'orthorhombic'
loop_
_space_group_symop_operation_xyz
x,y,z
1/2-x,-y,z
1/2+x,-y,-z
-x,y,-z
-x,-y,-z
1/2+x,y,-z
1/2-x,y,z
x,-y,z
loop_
_atom_site_type_symbol
_atom_site_label
_atom_site_fract_x
_atom_site_fract_y
_atom_site_fract_z
Si Si1 0.070325 0.781414 0.407551
Si Si2 0.668058 0.391283 0.661461
Si Si3 0.334905 0.197814 0.906952
Si Si4 0.169039 0.888509 0.610324
Si Si5 0.167075 0.602470 0.003355
Si Si6 0.439145 0.110836 0.114656
O O1 0.113808 0.681784 0.413337
O O2 0.119752 0.863055 0.476856
O O3 0.050590 0.819183 0.249912
O O4 0.000000 0.764696 0.500000
O O5 0.750000 0.364941 0.621433
O O6 0.651298 0.500000 0.610754
O O7 0.656006 0.381274 0.829504
O O8 0.250000 0.193240 0.922736
O O9 0.360996 0.161837 0.753023
O O10 0.365678 0.306622 0.920298
O O11 0.364311 0.132032 0.035530
O O12 0.250000 0.855921 0.577144
O O13 0.164740 0.000000 0.640521
O O14 0.250000 0.596290 0.966325
O O15 0.131512 0.500000 0.956850
O O16 0.442059 0.000000 0.163918
O O17 0.500000 0.135665 0.000000
#
# Coordination Sequence:
#
# PCOD8210000 Si02
#       6
#     8   8   8   8   8   8
#     4  12  24  38  59  85 118 160 197 240 292 356
#     4   9  18  36  62  89 117 149 189 240 295 349
#     4  10  19  35  60  87 113 144 189 243 293 343
#     4  10  22  39  58  84 121 159 194 241 300 354
#     4   8  14  28  55  87 113 139 176 229 287 339
#     4  11  24  40  58  81 112 152 201 248 289 342
#
# _framework density 19.705318999999999
#
# number of rings (size 3 to 8) (size 9 to 14) (size 15 to 20)
#    0.000    2.000    1.667    3.500    0.000    4.667 
#    0.000    0.833    0.000    7.000    0.000    0.000 
#    0.000    0.000    0.000    0.000    0.000    0.000 
#
# Total GULP energy -595087.614541 kJ/mol
# GULP energy per Si atom -12397.658636 kJ/mol
# Density = 1.966047 g / cm^3
# Si number density = 19.705319 Si / 1000 Ang^3
#
#
#
# Elastic Constant Matrix: (Units=GPa)
#
#
# Indices 1 2 3 4 5 6 
#
# 1 76.8919 52.2674 49.8803 0.0000 0.0000 0.0000
# 2 52.2674 113.9372 49.0207 0.0000 0.0000 0.0000
# 3 49.8803 49.0207 93.6929 0.0000 0.0000 0.0000
# 4 0.0000 0.0000 0.0000 36.9083 0.0000 0.0000
# 5 0.0000 0.0000 0.0000 0.0000 29.8873 0.0000
# 6 0.0000 0.0000 0.0000 0.0000 0.0000 14.3907
#
#
#
# Elastic Compliance Matrix: (Units=1/GPa)
#
#
# Indices 1 2 3 4 5 6 
#
# 1 0.023485 -0.006961 -0.008861 0.000000 0.000000 0.000000
# 2 -0.006961 0.013390 -0.003300 0.000000 0.000000 0.000000
# 3 -0.008861 -0.003300 0.017117 0.000000 0.000000 0.000000
# 4 0.000000 0.000000 0.000000 0.027094 0.000000 0.000000
# 5 0.000000 0.000000 0.000000 0.000000 0.033459 0.000000
# 6 0.000000 0.000000 0.000000 0.000000 0.000000 0.069490
#
#
# Mechanical properties :
#
#
# Convention : Reuss Voigt Hill
#
# Bulk Modulus (GPa) = 63.49829 65.20653 64.35241
# Shear Modulus (GPa) = 21.97531 25.12750 23.55141
#
# Velocity S-wave (km/s) = 3.34308 3.57482 3.46089
# Velocity P-wave (km/s) = 6.86990 7.08532 6.97844
#
# Compressibility (1/GPa) = 0.01574846
#
# Stress axis : x y z
#
# Youngs Moduli (GPa) = 42.57963 74.68382 58.42163
#
# Poissons Ratio (x) = 0.51989 0.51767
# Poissons Ratio (y) = 0.29641 0.19277
# Poissons Ratio (z) = 0.37730 0.24642
#
# Static dielectric constant tensor:
#      x y z
#    x 3.462690 0.000000 0.000000 
#    y 0.000000 3.915240 0.000000 
#    z 0.000000 0.000000 3.461670 
# 
# 
# High freq. dielectric constant tensor:
#      x y z
#    x 1.751250 0.000000 0.000000 
#    y 0.000000 1.782440 0.000000 
#    z 0.000000 0.000000 1.756060 
# 
# From -- ./inp_files/9663.got.cif
#   From: 2010.03.12/outbox.cif.g09.slc.cpg/sg51_5_cif.got.tgz:9663.got - 2010.04.16 13:43:02.
