data_PCOD8210975
_publ_section_title
;
Structure prediction by ZEFSAII (Michael W. Deem and Ramdas Pophale) SiO2 
 PCOD8210975
Probable space group: P M M A
;
_chemical_formula_sum "Si O2"
_cell_formula_units_Z 48
_cell_length_a 9.082795
_cell_length_b 9.564483
_cell_length_c 31.073677
_cell_angle_alpha 90.000000
_cell_angle_beta 90.000000
_cell_angle_gamma 90.000000
_cell_volume 2699.439875
_symmetry_space_group_name_H-M "P M M A"
_symmetry_group_IT_number 51
_symmetry_cell_setting 'orthorhombic'
loop_
_space_group_symop_operation_xyz
x,y,z
1/2-x,-y,z
1/2+x,-y,-z
-x,y,-z
-x,-y,-z
1/2+x,y,-z
1/2-x,y,z
x,-y,z
loop_
_atom_site_type_symbol
_atom_site_label
_atom_site_fract_x
_atom_site_fract_y
_atom_site_fract_z
Si Si1 0.916175 0.333420 0.541706
Si Si2 0.922632 0.338395 0.373176
Si Si3 0.413722 0.833969 0.799544
Si Si4 0.580566 0.165168 0.883284
Si Si5 0.577723 0.661061 0.044157
Si Si6 0.925281 0.155767 0.294470
O O1 0.750000 0.276470 0.541245
O O2 0.919596 0.500000 0.540603
O O3 0.000000 0.272902 0.500000
O O4 0.996571 0.279120 0.584619
O O5 0.750000 0.313607 0.379885
O O6 0.959513 0.500000 0.365556
O O7 0.985533 0.256439 0.331818
O O8 0.250000 0.772785 0.808829
O O9 0.524857 0.783305 0.836538
O O10 0.473407 0.784951 0.752585
O O11 0.403708 0.000000 0.798405
O O12 0.750000 0.208574 0.888159
O O13 0.484512 0.241755 0.918727
O O14 0.558028 0.000000 0.888896
O O15 0.750000 0.689188 0.038951
O O16 0.544199 0.500000 0.055596
O O17 0.500000 0.704659 0.000000
O O18 0.750000 0.151085 0.295304
O O19 0.989017 0.000000 0.302243
#
# Coordination Sequence:
#
# PCOD8210975 Si02
#       6
#     8   8   8   8   8   8
#     4   9  16  26  41  61  85 113 144 178 218 265
#     4   9  16  26  42  65  90 113 141 182 227 266
#     4   8  14  27  47  68  91 122 159 196 232 272
#     4  10  20  33  51  76 103 130 162 201 243 284
#     4  10  21  37  56  76  99 130 165 199 239 288
#     4   8  14  26  45  66  88 119 156 187 220 268
#
# _framework density 17.781466999999999
#
# number of rings (size 3 to 8) (size 9 to 14) (size 15 to 20)
#    0.000    3.000    0.000    2.500    0.000    4.333 
#    0.000    1.667    0.000    5.000    0.000    0.000 
#    0.000    0.000    0.000    0.000    0.000    0.000 
#
# Total GULP energy -595053.356193 kJ/mol
# GULP energy per Si atom -12396.944921 kJ/mol
# Density = 1.774100 g / cm^3
# Si number density = 17.781467 Si / 1000 Ang^3
#
#
#
# Elastic Constant Matrix: (Units=GPa)
#
#
# Indices 1 2 3 4 5 6 
#
# 1 85.4107 28.4889 66.9876 0.0000 0.0000 0.0000
# 2 28.4889 38.5356 51.2067 0.0000 0.0000 0.0000
# 3 66.9876 51.2067 180.0228 0.0000 0.0000 0.0000
# 4 0.0000 0.0000 0.0000 28.7476 0.0000 0.0000
# 5 0.0000 0.0000 0.0000 0.0000 32.1308 0.0000
# 6 0.0000 0.0000 0.0000 0.0000 0.0000 15.9357
#
#
#
# Elastic Compliance Matrix: (Units=1/GPa)
#
#
# Indices 1 2 3 4 5 6 
#
# 1 0.017615 -0.006933 -0.004582 0.000000 0.000000 0.000000
# 2 -0.006933 0.044447 -0.010063 0.000000 0.000000 0.000000
# 3 -0.004582 -0.010063 0.010122 0.000000 0.000000 0.000000
# 4 0.000000 0.000000 0.000000 0.034786 0.000000 0.000000
# 5 0.000000 0.000000 0.000000 0.000000 0.031123 0.000000
# 6 0.000000 0.000000 0.000000 0.000000 0.000000 0.062752
#
#
# Mechanical properties :
#
#
# Convention : Reuss Voigt Hill
#
# Bulk Modulus (GPa) = 34.45023 66.37063 50.41043
# Shear Modulus (GPa) = 19.71002 25.84856 22.77929
#
# Velocity S-wave (km/s) = 3.33296 3.81685 3.58309
# Velocity P-wave (km/s) = 5.85046 7.53865 6.74756
#
# Compressibility (1/GPa) = 0.02902738
#
# Stress axis : x y z
#
# Youngs Moduli (GPa) = 56.77080 22.49847 98.79082
#
# Poissons Ratio (x) = 0.15598 0.45270
# Poissons Ratio (y) = 0.39360 0.99414
# Poissons Ratio (z) = 0.26015 0.22640
#
# Static dielectric constant tensor:
#      x y z
#    x 3.326410 0.000000 0.000000 
#    y 0.000000 2.988350 0.000000 
#    z 0.000000 0.000000 3.705460 
# 
# 
# High freq. dielectric constant tensor:
#      x y z
#    x 1.675590 0.000000 0.000000 
#    y 0.000000 1.643520 0.000000 
#    z 0.000000 0.000000 1.706350 
# 
# From -- ./inp_files/34541.got.cif
#   From: 2010.03.12/outbox.cif.g09.slc.cpg/sg51_18_cif.got.tgz:34541.got - 2010.04.16 13:43:02.
