data_PCOD8210778
_publ_section_title
;
Structure prediction by ZEFSAII (Michael W. Deem and Ramdas Pophale) SiO2 
 PCOD8210778
Probable space group: P M M A
;
_chemical_formula_sum "Si O2"
_cell_formula_units_Z 64
_cell_length_a 26.578489
_cell_length_b 8.887929
_cell_length_c 14.723287
_cell_angle_alpha 90.000000
_cell_angle_beta 90.000000
_cell_angle_gamma 90.000000
_cell_volume 3478.048565
_symmetry_space_group_name_H-M "P M M A"
_symmetry_group_IT_number 51
_symmetry_cell_setting 'orthorhombic'
loop_
_space_group_symop_operation_xyz
x,y,z
1/2-x,-y,z
1/2+x,-y,-z
-x,y,-z
-x,-y,-z
1/2+x,y,-z
1/2-x,y,z
x,-y,z
loop_
_atom_site_type_symbol
_atom_site_label
_atom_site_fract_x
_atom_site_fract_y
_atom_site_fract_z
Si Si1 0.808523 0.323523 0.197734
Si Si2 0.976035 0.331654 0.235628
Si Si3 0.917760 0.330258 0.679745
Si Si4 0.124137 0.678461 0.127054
Si Si5 0.112221 0.175705 0.678124
Si Si6 0.190614 0.829446 0.989465
Si Si7 0.057877 0.822262 0.496808
Si Si8 0.971078 0.162598 0.911197
O O1 0.750000 0.286460 0.214310
O O2 0.818092 0.500000 0.188242
O O3 0.838306 0.261437 0.285826
O O4 0.828406 0.247170 0.104348
O O5 0.953163 0.500000 0.235124
O O6 0.933615 0.209064 0.254521
O O7 0.022639 0.320271 0.303981
O O8 0.997362 0.290673 0.138293
O O9 0.901481 0.500000 0.656625
O O10 0.884750 0.273961 0.766729
O O11 0.910059 0.227512 0.591474
O O12 0.119453 0.500000 0.118518
O O13 0.082606 0.763441 0.066726
O O14 0.175330 0.737226 0.080873
O O15 0.092151 0.236330 0.580691
O O16 0.124616 0.000000 0.676099
O O17 0.250000 0.827795 0.989810
O O18 0.169724 0.000000 0.993230
O O19 0.000000 0.758259 0.500000
O O20 0.054769 0.000000 0.499751
O O21 0.964673 0.000000 0.859013
O O22 0.000000 0.121859 0.000000
#
# Coordination Sequence:
#
# PCOD8210778 Si02
#       8
#     8   8   8   8   8   8   8   8
#     4  10  22  40  60  82 109 142 181 228 279 328
#     4  10  20  33  49  73 105 142 183 223 267 318
#     4   9  19  34  52  76 108 145 182 224 269 315
#     4  10  21  36  54  79 109 143 182 223 273 327
#     4  11  22  35  55  81 110 144 183 227 276 329
#     4  10  21  38  61  87 112 142 183 229 277 330
#     4  10  20  34  53  80 111 146 185 225 271 324
#     4  10  21  34  48  69 102 144 184 221 266 319
#
# _framework density 18.401123999999999
#
# number of rings (size 3 to 8) (size 9 to 14) (size 15 to 20)
#    0.000    2.000    1.250    3.000    1.750    6.250 
#    0.000    0.000    0.000    0.750    0.000    0.000 
#    0.000    0.000    0.000    0.000    0.000    0.000 
#
# Total GULP energy -793092.074396 kJ/mol
# GULP energy per Si atom -12392.063662 kJ/mol
# Density = 1.835924 g / cm^3
# Si number density = 18.401124 Si / 1000 Ang^3
#
#
#
# Elastic Constant Matrix: (Units=GPa)
#
#
# Indices 1 2 3 4 5 6 
#
# 1 54.7819 28.9400 45.0931 0.0000 0.0000 0.0000
# 2 28.9400 78.9488 43.9110 0.0000 0.0000 0.0000
# 3 45.0931 43.9110 95.3679 0.0000 0.0000 0.0000
# 4 0.0000 0.0000 0.0000 32.3160 0.0000 0.0000
# 5 0.0000 0.0000 0.0000 0.0000 29.2389 0.0000
# 6 0.0000 0.0000 0.0000 0.0000 0.0000 31.4361
#
#
#
# Elastic Compliance Matrix: (Units=1/GPa)
#
#
# Indices 1 2 3 4 5 6 
#
# 1 0.030939 -0.004308 -0.012645 0.000000 0.000000 0.000000
# 2 -0.004308 0.017627 -0.006079 0.000000 0.000000 0.000000
# 3 -0.012645 -0.006079 0.019264 0.000000 0.000000 0.000000
# 4 0.000000 0.000000 0.000000 0.030944 0.000000 0.000000
# 5 0.000000 0.000000 0.000000 0.000000 0.034201 0.000000
# 6 0.000000 0.000000 0.000000 0.000000 0.000000 0.031811
#
#
# Mechanical properties :
#
#
# Convention : Reuss Voigt Hill
#
# Bulk Modulus (GPa) = 45.94581 51.66522 48.80551
# Shear Modulus (GPa) = 22.92470 26.00850 24.46660
#
# Velocity S-wave (km/s) = 3.53346 3.76363 3.65036
# Velocity P-wave (km/s) = 6.45526 6.85745 6.65939
#
# Compressibility (1/GPa) = 0.02176477
#
# Stress axis : x y z
#
# Youngs Moduli (GPa) = 32.32174 56.73200 51.91043
#
# Poissons Ratio (x) = 0.24439 0.65643
# Poissons Ratio (y) = 0.13924 0.31557
# Poissons Ratio (z) = 0.40872 0.34488
#
# Static dielectric constant tensor:
#      x y z
#    x 2.235820 0.000000 0.000000 
#    y 0.000000 3.496610 0.000000 
#    z 0.000000 0.000000 6.052110 
# 
# 
# High freq. dielectric constant tensor:
#      x y z
#    x 1.686950 0.000000 0.000000 
#    y 0.000000 1.726760 0.000000 
#    z 0.000000 0.000000 1.706320 
# 
# From -- ./inp_files/26255.got.cif
#   From: 2010.03.12/outbox.cif.g09.slc.cpg/sg51_14_cif.got.tgz:26255.got - 2010.04.16 13:43:02.
