data_PCOD8210298
_publ_section_title
;
Structure prediction by ZEFSAII (Michael W. Deem and Ramdas Pophale) SiO2 
 PCOD8210298
Probable space group: P M M A
;
_chemical_formula_sum "Si O2"
_cell_formula_units_Z 56
_cell_length_a 9.069296
_cell_length_b 14.475915
_cell_length_c 23.382234
_cell_angle_alpha 90.000000
_cell_angle_beta 90.000000
_cell_angle_gamma 90.000000
_cell_volume 3069.768344
_symmetry_space_group_name_H-M "P M M A"
_symmetry_group_IT_number 51
_symmetry_cell_setting 'orthorhombic'
loop_
_space_group_symop_operation_xyz
x,y,z
1/2-x,-y,z
1/2+x,-y,-z
-x,y,-z
-x,-y,-z
1/2+x,y,-z
1/2-x,y,z
x,-y,z
loop_
_atom_site_type_symbol
_atom_site_label
_atom_site_fract_x
_atom_site_fract_y
_atom_site_fract_z
Si Si1 0.075464 0.281900 0.557811
Si Si2 0.921386 0.396298 0.781554
Si Si3 0.917895 0.108262 0.255834
Si Si4 0.077110 0.105561 0.940395
Si Si5 0.424613 0.899646 0.615748
Si Si6 0.580876 0.607440 0.333185
Si Si7 0.921924 0.213674 0.841505
O O1 0.250000 0.291381 0.550807
O O2 0.023971 0.176505 0.570060
O O3 0.016844 0.342543 0.610742
O O4 0.000000 0.317290 0.500000
O O5 0.750000 0.398396 0.767330
O O6 0.976270 0.500000 0.799014
O O7 0.954356 0.323391 0.832413
O O8 0.999476 0.360238 0.724084
O O9 0.750000 0.143081 0.245434
O O10 0.972055 0.129546 0.320276
O O11 0.031198 0.160075 0.215194
O O12 0.925923 0.000000 0.242809
O O13 0.250000 0.122048 0.947484
O O14 0.015496 0.177545 0.894662
O O15 0.043921 0.000000 0.921027
O O16 0.000000 0.127650 0.000000
O O17 0.250000 0.907325 0.616514
O O18 0.492540 0.000000 0.599149
O O19 0.750000 0.635567 0.324743
O O20 0.558206 0.500000 0.343775
O O21 0.750000 0.195568 0.853254
#
# Coordination Sequence:
#
# PCOD8210298 Si02
#       7
#     8   8   8   8   8   8   8
#     4  10  20  32  46  65  89 117 152 195 239 287
#     4   9  19  35  53  75 103 133 165 203 249 298
#     4   9  17  30  49  72  97 127 163 201 244 297
#     4  10  21  37  56  78 107 143 179 212 245 284
#     4   8  15  29  47  64  85 117 155 193 235 284
#     4   9  18  33  52  72  93 119 154 197 245 296
#     4  11  21  31  49  77 107 137 167 204 249 294
#
# _framework density 18.242419000000002
#
# number of rings (size 3 to 8) (size 9 to 14) (size 15 to 20)
#    0.000    2.571    0.000    3.000    0.000    6.286 
#    0.000    0.714    0.000    1.286    0.000    0.000 
#    0.000    0.000    0.000    0.000    0.000    0.000 
#
# Total GULP energy -694264.877953 kJ/mol
# GULP energy per Si atom -12397.587106 kJ/mol
# Density = 1.820090 g / cm^3
# Si number density = 18.242419 Si / 1000 Ang^3
#
#
#
# Elastic Constant Matrix: (Units=GPa)
#
#
# Indices 1 2 3 4 5 6 
#
# 1 57.7241 38.5027 43.3577 0.0000 0.0000 0.0000
# 2 38.5027 78.2985 60.0254 0.0000 0.0000 0.0000
# 3 43.3577 60.0254 102.8662 0.0000 0.0000 0.0000
# 4 0.0000 0.0000 0.0000 27.3340 0.0000 0.0000
# 5 0.0000 0.0000 0.0000 0.0000 31.2261 0.0000
# 6 0.0000 0.0000 0.0000 0.0000 0.0000 21.6291
#
#
#
# Elastic Compliance Matrix: (Units=1/GPa)
#
#
# Indices 1 2 3 4 5 6 
#
# 1 0.028232 -0.008613 -0.006873 0.000000 0.000000 0.000000
# 2 -0.008613 0.025738 -0.011388 0.000000 0.000000 0.000000
# 3 -0.006873 -0.011388 0.019264 0.000000 0.000000 0.000000
# 4 0.000000 0.000000 0.000000 0.036584 0.000000 0.000000
# 5 0.000000 0.000000 0.000000 0.000000 0.032025 0.000000
# 6 0.000000 0.000000 0.000000 0.000000 0.000000 0.046234
#
#
# Mechanical properties :
#
#
# Convention : Reuss Voigt Hill
#
# Bulk Modulus (GPa) = 51.32611 58.07338 54.69975
# Shear Modulus (GPa) = 20.13526 22.50470 21.31998
#
# Velocity S-wave (km/s) = 3.32589 3.51614 3.42234
# Velocity P-wave (km/s) = 6.55328 6.95613 6.75770
#
# Compressibility (1/GPa) = 0.01948326
#
# Stress axis : x y z
#
# Youngs Moduli (GPa) = 35.42101 38.85365 51.91093
#
# Poissons Ratio (x) = 0.33467 0.35680
# Poissons Ratio (y) = 0.30510 0.59117
# Poissons Ratio (z) = 0.24346 0.44247
#
# Static dielectric constant tensor:
#      x y z
#    x 3.213630 0.000000 0.000000 
#    y 0.000000 3.722030 0.000000 
#    z 0.000000 0.000000 3.300430 
# 
# 
# High freq. dielectric constant tensor:
#      x y z
#    x 1.689580 0.000000 0.000000 
#    y 0.000000 1.713200 0.000000 
#    z 0.000000 0.000000 1.693980 
# 
# From -- ./inp_files/31937.got.cif
#   From: 2010.03.12/outbox.cif.g09.slc.cpg/sg51_16_cif.got.tgz:31937.got - 2010.04.16 13:43:02.
