data_PCOD8210680
_publ_section_title
;
Structure prediction by ZEFSAII (Michael W. Deem and Ramdas Pophale) SiO2 
 PCOD8210680
Probable space group: P M M A
;
_chemical_formula_sum "Si O2"
_cell_formula_units_Z 48
_cell_length_a 9.395924
_cell_length_b 13.720259
_cell_length_c 23.965235
_cell_angle_alpha 90.000000
_cell_angle_beta 90.000000
_cell_angle_gamma 90.000000
_cell_volume 3089.466547
_symmetry_space_group_name_H-M "P M M A"
_symmetry_group_IT_number 51
_symmetry_cell_setting 'orthorhombic'
loop_
_space_group_symop_operation_xyz
x,y,z
1/2-x,-y,z
1/2+x,-y,-z
-x,y,-z
-x,-y,-z
1/2+x,y,-z
1/2-x,y,z
x,-y,z
loop_
_atom_site_type_symbol
_atom_site_label
_atom_site_fract_x
_atom_site_fract_y
_atom_site_fract_z
Si Si1 0.086486 0.887191 0.612612
Si Si2 0.919895 0.891302 0.172608
Si Si3 0.582960 0.727171 0.553949
Si Si4 0.915112 0.388753 0.664752
Si Si5 0.907717 0.116096 0.050325
Si Si6 0.914762 0.229280 0.276707
O O1 0.250000 0.868964 0.594678
O O2 0.060461 0.850264 0.675240
O O3 0.982461 0.831958 0.570108
O O4 0.046022 0.000000 0.610382
O O5 0.750000 0.895956 0.173658
O O6 0.970742 0.854789 0.111237
O O7 0.976038 0.816968 0.219569
O O8 0.979782 0.000000 0.184782
O O9 0.500000 0.686784 0.500000
O O10 0.750000 0.738883 0.541384
O O11 0.552795 0.650117 0.602808
O O12 0.750000 0.377843 0.679103
O O13 0.966201 0.500000 0.667666
O O14 0.001030 0.328243 0.710810
O O15 0.750000 0.159418 0.043291
O O16 0.903145 0.000000 0.046593
O O17 0.000000 0.161086 0.000000
O O18 0.750000 0.256943 0.270897
#
# Coordination Sequence:
#
# PCOD8210680 Si02
#       6
#     8   8   8   8   8   8
#     4   9  17  29  45  64  86 112 139 167 200 237
#     4   8  13  22  38  60  86 116 145 172 205 241
#     4  10  20  33  48  65  84 106 134 167 201 240
#     4   9  19  35  50  63  83 109 131 158 206 259
#     4   8  13  21  33  50  76 112 149 178 202 230
#     4   9  16  27  45  67  86 105 137 176 205 238
#
# _framework density 15.536663000000001
#
# number of rings (size 3 to 8) (size 9 to 14) (size 15 to 20)
#    0.000    3.167    0.000    2.000    0.000    4.000 
#    0.000    0.833    0.000    2.500    0.000    0.000 
#    0.000    0.667    0.000    1.500    0.000    2.667 
#
# Total GULP energy -595038.904280 kJ/mol
# GULP energy per Si atom -12396.643839 kJ/mol
# Density = 1.550130 g / cm^3
# Si number density = 15.536663 Si / 1000 Ang^3
#
#
#
# Elastic Constant Matrix: (Units=GPa)
#
#
# Indices 1 2 3 4 5 6 
#
# 1 58.7207 39.0371 48.7878 0.0000 0.0000 0.0000
# 2 39.0371 97.8232 51.2572 0.0000 0.0000 0.0000
# 3 48.7878 51.2572 121.6180 0.0000 0.0000 0.0000
# 4 0.0000 0.0000 0.0000 14.1420 0.0000 0.0000
# 5 0.0000 0.0000 0.0000 0.0000 23.7478 0.0000
# 6 0.0000 0.0000 0.0000 0.0000 0.0000 20.0947
#
#
#
# Elastic Compliance Matrix: (Units=1/GPa)
#
#
# Indices 1 2 3 4 5 6 
#
# 1 0.028842 -0.006991 -0.008624 0.000000 0.000000 0.000000
# 2 -0.006991 0.014814 -0.003439 0.000000 0.000000 0.000000
# 3 -0.008624 -0.003439 0.013131 0.000000 0.000000 0.000000
# 4 0.000000 0.000000 0.000000 0.070711 0.000000 0.000000
# 5 0.000000 0.000000 0.000000 0.000000 0.042109 0.000000
# 6 0.000000 0.000000 0.000000 0.000000 0.000000 0.049764
#
#
# Mechanical properties :
#
#
# Convention : Reuss Voigt Hill
#
# Bulk Modulus (GPa) = 53.53293 61.81401 57.67347
# Shear Modulus (GPa) = 18.96036 20.86891 19.91463
#
# Velocity S-wave (km/s) = 3.49716 3.66895 3.58408
# Velocity P-wave (km/s) = 7.13004 7.60398 7.37082
#
# Compressibility (1/GPa) = 0.01868009
#
# Stress axis : x y z
#
# Youngs Moduli (GPa) = 34.67109 67.50176 76.15311
#
# Poissons Ratio (x) = 0.47191 0.65673
# Poissons Ratio (y) = 0.24239 0.26190
# Poissons Ratio (z) = 0.29900 0.23215
#
# Static dielectric constant tensor:
#      x y z
#    x 2.911450 0.000000 0.000000 
#    y 0.000000 2.751280 0.000000 
#    z 0.000000 0.000000 3.174550 
# 
# 
# High freq. dielectric constant tensor:
#      x y z
#    x 1.582610 0.000000 0.000000 
#    y 0.000000 1.561780 0.000000 
#    z 0.000000 0.000000 1.597150 
# 
# From -- ./inp_files/34627.got.cif
#   From: 2010.03.12/outbox.cif.g09.slc.cpg/sg51_18_cif.got.tgz:34627.got - 2010.04.16 13:43:02.
