data_PCOD8210059
_publ_section_title
;
Structure prediction by ZEFSAII (Michael W. Deem and Ramdas Pophale) SiO2 
 PCOD8210059
Probable space group: P M M A
;
_chemical_formula_sum "Si O2"
_cell_formula_units_Z 56
_cell_length_a 8.789659
_cell_length_b 21.323759
_cell_length_c 15.491673
_cell_angle_alpha 90.000000
_cell_angle_beta 90.000000
_cell_angle_gamma 90.000000
_cell_volume 2903.582121
_symmetry_space_group_name_H-M "P M M A"
_symmetry_group_IT_number 51
_symmetry_cell_setting 'orthorhombic'
loop_
_space_group_symop_operation_xyz
x,y,z
1/2-x,-y,z
1/2+x,-y,-z
-x,y,-z
-x,-y,-z
1/2+x,y,-z
1/2-x,y,z
x,-y,z
loop_
_atom_site_type_symbol
_atom_site_label
_atom_site_fract_x
_atom_site_fract_y
_atom_site_fract_z
Si Si1 0.072150 0.632683 0.410520
Si Si2 0.930542 0.289628 0.750870
Si Si3 0.069912 0.500000 0.849062
Si Si4 0.073038 0.500000 0.335366
Si Si5 0.069268 0.852797 0.253867
Si Si6 0.570895 0.928208 0.409731
Si Si7 0.929346 0.928633 0.911767
Si Si8 0.431382 0.628177 0.088907
O O1 0.250000 0.643510 0.417934
O O2 0.003843 0.675229 0.333578
O O3 0.032755 0.560280 0.392468
O O4 0.000000 0.654621 0.500000
O O5 0.750000 0.292132 0.749031
O O6 0.989080 0.218465 0.751640
O O7 0.988913 0.325213 0.836008
O O8 0.250000 0.500000 0.862427
O O9 0.031273 0.500000 0.748360
O O10 0.997805 0.440280 0.894946
O O11 0.250000 0.500000 0.306127
O O12 0.250000 0.857394 0.262714
O O13 0.010811 0.887541 0.167890
O O14 0.995123 0.884513 0.336116
O O15 0.500000 0.906109 0.500000
O O16 0.750000 0.919731 0.415190
O O17 0.524743 0.000000 0.389791
O O18 0.750000 0.924115 0.920074
O O19 0.983598 0.000000 0.896304
O O20 0.000000 0.901693 0.000000
O O21 0.250000 0.624775 0.084476
O O22 0.500000 0.654887 0.000000
#
# Coordination Sequence:
#
# PCOD8210059 Si02
#       8
#     8   8   4   4   8   8   8   8
#     4  10  20  36  57  81 108 144 183 222 275 328
#     4   9  20  38  58  79 111 152 187 225 276 333
#     4  12  23  36  59  89 114 141 185 237 288 337
#     4  10  19  36  60  81 110 147 178 223 286 339
#     4  10  20  36  58  83 112 149 191 230 279 335
#     4  10  21  37  58  85 115 148 187 234 286 337
#     4   9  18  32  52  79 110 143 179 223 273 324
#     4  11  22  40  61  83 114 150 189 232 284 340
#
# _framework density 19.286522000000001
#
# number of rings (size 3 to 8) (size 9 to 14) (size 15 to 20)
#    0.000    2.000    1.429    2.357    0.000    3.714 
#    0.000    5.000    0.000    0.000    0.000    0.000 
#    0.000    0.000    0.000    0.000    0.000    0.000 
#
# Total GULP energy -694571.180071 kJ/mol
# GULP energy per Si atom -12403.056787 kJ/mol
# Density = 1.924263 g / cm^3
# Si number density = 19.286522 Si / 1000 Ang^3
#
#
#
# Elastic Constant Matrix: (Units=GPa)
#
#
# Indices 1 2 3 4 5 6 
#
# 1 51.7968 34.6237 45.5182 0.0000 0.0000 0.0000
# 2 34.6237 144.0182 98.5306 0.0000 0.0000 0.0000
# 3 45.5182 98.5306 200.4286 0.0000 0.0000 0.0000
# 4 0.0000 0.0000 0.0000 8.0389 0.0000 0.0000
# 5 0.0000 0.0000 0.0000 0.0000 38.6466 0.0000
# 6 0.0000 0.0000 0.0000 0.0000 0.0000 13.0825
#
#
#
# Elastic Compliance Matrix: (Units=1/GPa)
#
#
# Indices 1 2 3 4 5 6 
#
# 1 0.025069 -0.003212 -0.004114 0.000000 0.000000 0.000000
# 2 -0.003212 0.010874 -0.004616 0.000000 0.000000 0.000000
# 3 -0.004114 -0.004616 0.008193 0.000000 0.000000 0.000000
# 4 0.000000 0.000000 0.000000 0.124395 0.000000 0.000000
# 5 0.000000 0.000000 0.000000 0.000000 0.025875 0.000000
# 6 0.000000 0.000000 0.000000 0.000000 0.000000 0.076438
#
#
# Mechanical properties :
#
#
# Convention : Reuss Voigt Hill
#
# Bulk Modulus (GPa) = 49.38062 83.73207 66.55634
# Shear Modulus (GPa) = 16.58490 26.45835 21.52162
#
# Velocity S-wave (km/s) = 2.93562 3.70788 3.34412
# Velocity P-wave (km/s) = 6.09506 7.86385 7.03527
#
# Compressibility (1/GPa) = 0.02025086
#
# Stress axis : x y z
#
# Youngs Moduli (GPa) = 39.89022 91.96293 122.05631
#
# Poissons Ratio (x) = 0.29540 0.50216
# Poissons Ratio (y) = 0.12813 0.56343
# Poissons Ratio (z) = 0.16411 0.42451
#
# Static dielectric constant tensor:
#      x y z
#    x 3.415800 0.000000 0.000000 
#    y 0.000000 3.686180 0.000000 
#    z 0.000000 0.000000 3.703250 
# 
# 
# High freq. dielectric constant tensor:
#      x y z
#    x 1.731550 0.000000 0.000000 
#    y 0.000000 1.749080 0.000000 
#    z 0.000000 0.000000 1.767170 
# 
# From -- ./inp_files/21904.got.cif
#   From: 2010.03.12/outbox.cif.g09.slc.cpg/sg51_11_cif.got.tgz:21904.got - 2010.04.16 13:43:02.
