data_PCOD8210889
_publ_section_title
;
Structure prediction by ZEFSAII (Michael W. Deem and Ramdas Pophale) SiO2 
 PCOD8210889
Probable space group: P M M A
;
_chemical_formula_sum "Si O2"
_cell_formula_units_Z 64
_cell_length_a 33.605232
_cell_length_b 8.827126
_cell_length_c 11.249774
_cell_angle_alpha 90.000000
_cell_angle_beta 90.000000
_cell_angle_gamma 90.000000
_cell_volume 3337.106153
_symmetry_space_group_name_H-M "P M M A"
_symmetry_group_IT_number 51
_symmetry_cell_setting 'orthorhombic'
loop_
_space_group_symop_operation_xyz
x,y,z
1/2-x,-y,z
1/2+x,-y,-z
-x,y,-z
-x,-y,-z
1/2+x,y,-z
1/2-x,y,z
x,-y,z
loop_
_atom_site_type_symbol
_atom_site_label
_atom_site_fract_x
_atom_site_fract_y
_atom_site_fract_z
Si Si1 0.294608 0.326682 0.507803
Si Si2 0.519099 0.678745 0.763610
Si Si3 0.866343 0.675680 0.649513
Si Si4 0.060207 0.174284 0.450754
Si Si5 0.795525 0.177767 0.247398
Si Si6 0.097617 0.322001 0.108571
Si Si7 0.059876 0.825103 0.725442
Si Si8 0.370470 0.319999 0.860098
O O1 0.250000 0.291640 0.465617
O O2 0.299611 0.500000 0.550401
O O3 0.321555 0.292455 0.392907
O O4 0.306861 0.221901 0.617996
O O5 0.513074 0.500000 0.770976
O O6 0.531737 0.722935 0.630004
O O7 0.553427 0.735689 0.854995
O O8 0.477499 0.757710 0.799052
O O9 0.878697 0.500000 0.633233
O O10 0.894205 0.778147 0.567295
O O11 0.871136 0.722591 0.787514
O O12 0.049563 0.199812 0.587679
O O13 0.053843 0.000000 0.414066
O O14 0.750000 0.228207 0.219035
O O15 0.825638 0.260222 0.157755
O O16 0.800812 0.000000 0.232356
O O17 0.095641 0.500000 0.092688
O O18 0.112842 0.251946 0.984765
O O19 0.100403 0.737677 0.756565
O O20 0.065779 0.000000 0.757604
O O21 0.369305 0.500000 0.858948
#
# Coordination Sequence:
#
# PCOD8210889 Si02
#       8
#     8   8   8   8   8   8   8   8
#     4   9  17  30  52  82 110 135 168 210 256 313
#     4  10  20  36  57  78 103 136 175 217 263 314
#     4   9  17  32  53  75 102 135 171 212 260 312
#     4  10  20  33  50  74 105 137 170 213 264 316
#     4  10  21  37  56  79 110 142 169 207 262 314
#     4   8  18  36  54  74 101 135 175 220 264 302
#     4  11  23  36  51  77 112 142 172 214 263 312
#     4  11  22  37  57  78 103 138 182 223 257 302
#
# _framework density 19.178293
#
# number of rings (size 3 to 8) (size 9 to 14) (size 15 to 20)
#    0.000    2.250    0.000    3.750    0.000    7.250 
#    0.000    9.375    0.000    2.250    0.000    1.750 
#    0.000    0.000    0.000    0.000    0.000    0.000 
#
# Total GULP energy -793574.913110 kJ/mol
# GULP energy per Si atom -12399.608017 kJ/mol
# Density = 1.913464 g / cm^3
# Si number density = 19.178293 Si / 1000 Ang^3
#
#
#
# Elastic Constant Matrix: (Units=GPa)
#
#
# Indices 1 2 3 4 5 6 
#
# 1 120.1110 34.7389 38.1462 0.0000 0.0000 0.0000
# 2 34.7389 62.6020 27.3849 0.0000 0.0000 0.0000
# 3 38.1462 27.3849 53.4982 0.0000 0.0000 0.0000
# 4 0.0000 0.0000 0.0000 8.6502 0.0000 0.0000
# 5 0.0000 0.0000 0.0000 0.0000 24.9434 0.0000
# 6 0.0000 0.0000 0.0000 0.0000 0.0000 29.6139
#
#
#
# Elastic Compliance Matrix: (Units=1/GPa)
#
#
# Indices 1 2 3 4 5 6 
#
# 1 0.011345 -0.003552 -0.006271 0.000000 0.000000 0.000000
# 2 -0.003552 0.021695 -0.008573 0.000000 0.000000 0.000000
# 3 -0.006271 -0.008573 0.027552 0.000000 0.000000 0.000000
# 4 0.000000 0.000000 0.000000 0.115604 0.000000 0.000000
# 5 0.000000 0.000000 0.000000 0.000000 0.040091 0.000000
# 6 0.000000 0.000000 0.000000 0.000000 0.000000 0.033768
#
#
# Mechanical properties :
#
#
# Convention : Reuss Voigt Hill
#
# Bulk Modulus (GPa) = 42.01627 48.52791 45.27209
# Shear Modulus (GPa) = 16.96189 21.70425 19.33307
#
# Velocity S-wave (km/s) = 2.97717 3.36774 3.17846
# Velocity P-wave (km/s) = 5.81153 6.36244 6.09321
#
# Compressibility (1/GPa) = 0.02380031
#
# Stress axis : x y z
#
# Youngs Moduli (GPa) = 88.14810 46.09334 36.29538
#
# Poissons Ratio (x) = 0.16373 0.22760
# Poissons Ratio (y) = 0.31312 0.31115
# Poissons Ratio (z) = 0.55276 0.39514
#
# Static dielectric constant tensor:
#      x y z
#    x 3.658600 0.000000 0.000000 
#    y 0.000000 3.427060 0.000000 
#    z 0.000000 0.000000 3.505110 
# 
# 
# High freq. dielectric constant tensor:
#      x y z
#    x 1.753710 0.000000 0.000000 
#    y 0.000000 1.738220 0.000000 
#    z 0.000000 0.000000 1.728990 
# 
# From -- ./inp_files/19523.got.cif
#   From: 2010.03.12/outbox.cif.g09.slc.cpg/sg51_10_cif.got.tgz:19523.got - 2010.04.16 13:43:02.
