data_PCOD8210134
_publ_section_title
;
Structure prediction by ZEFSAII (Michael W. Deem and Ramdas Pophale) SiO2 
 PCOD8210134
Probable space group: P M M A
;
_chemical_formula_sum "Si O2"
_cell_formula_units_Z 64
_cell_length_a 18.280803
_cell_length_b 13.905872
_cell_length_c 16.398723
_cell_angle_alpha 90.000000
_cell_angle_beta 90.000000
_cell_angle_gamma 90.000000
_cell_volume 4168.727681
_symmetry_space_group_name_H-M "P M M A"
_symmetry_group_IT_number 51
_symmetry_cell_setting 'orthorhombic'
loop_
_space_group_symop_operation_xyz
x,y,z
1/2-x,-y,z
1/2+x,-y,-z
-x,y,-z
-x,-y,-z
1/2+x,y,-z
1/2-x,y,z
x,-y,z
loop_
_atom_site_type_symbol
_atom_site_label
_atom_site_fract_x
_atom_site_fract_y
_atom_site_fract_z
Si Si1 0.527124 0.612528 0.084565
Si Si2 0.168278 0.387433 0.825915
Si Si3 0.833502 0.387252 0.480986
Si Si4 0.546642 0.386736 0.749451
Si Si5 0.099525 0.892289 0.423997
Si Si6 0.902008 0.301871 0.324871
Si Si7 0.070826 0.892189 0.606418
Si Si8 0.165206 0.290692 0.351927
O O1 0.535375 0.500000 0.070151
O O2 0.607896 0.651834 0.109922
O O3 0.468498 0.634882 0.155212
O O4 0.500000 0.661579 0.000000
O O5 0.250000 0.367879 0.859729
O O6 0.155079 0.500000 0.808734
O O7 0.159181 0.334095 0.739632
O O8 0.750000 0.356196 0.465158
O O9 0.843957 0.500000 0.475340
O O10 0.884666 0.338316 0.414872
O O11 0.858684 0.353130 0.570024
O O12 0.555140 0.500000 0.733603
O O13 0.480168 0.346035 0.696741
O O14 0.620299 0.330874 0.725224
O O15 0.112364 0.875555 0.520486
O O16 0.148121 0.820669 0.370047
O O17 0.014929 0.876760 0.405157
O O18 0.123949 0.000000 0.400153
O O19 0.902335 0.185464 0.327195
O O20 0.087406 0.000000 0.638911
O O21 0.250000 0.302944 0.330156
#
# Coordination Sequence:
#
# PCOD8210134 Si02
#       8
#     8   8   8   8   8   8   8   8
#     4   8  15  30  50  69  90 118 152 186 219 265
#     4   9  17  28  44  69  98 123 148 184 228 270
#     4  10  20  30  40  58  87 124 159 187 216 258
#     4  10  20  31  45  67  91 118 149 185 227 269
#     4   9  17  32  47  61  81 112 157 204 241 270
#     4  11  17  28  47  64  87 117 154 192 226 265
#     4   9  17  29  47  65  83 110 151 201 245 273
#     4  11  21  32  43  59  88 124 157 193 231 263
#
# _framework density 15.352406999999999
#
# number of rings (size 3 to 8) (size 9 to 14) (size 15 to 20)
#    0.000    2.375    2.500    3.375    0.000    2.500 
#    0.000    1.875    0.000    3.750    0.000    0.000 
#    0.000   12.500    0.000    1.000    0.000    0.000 
#
# Total GULP energy -793461.182567 kJ/mol
# GULP energy per Si atom -12397.830978 kJ/mol
# Density = 1.531746 g / cm^3
# Si number density = 15.352407 Si / 1000 Ang^3
#
#
#
# Elastic Constant Matrix: (Units=GPa)
#
#
# Indices 1 2 3 4 5 6 
#
# 1 76.4802 31.9564 47.7403 0.0000 0.0000 0.0000
# 2 31.9564 76.3545 32.5137 0.0000 0.0000 0.0000
# 3 47.7403 32.5137 76.9837 0.0000 0.0000 0.0000
# 4 0.0000 0.0000 0.0000 6.1590 0.0000 0.0000
# 5 0.0000 0.0000 0.0000 0.0000 16.7369 0.0000
# 6 0.0000 0.0000 0.0000 0.0000 0.0000 19.3251
#
#
#
# Elastic Compliance Matrix: (Units=1/GPa)
#
#
# Indices 1 2 3 4 5 6 
#
# 1 0.022395 -0.004217 -0.012106 0.000000 0.000000 0.000000
# 2 -0.004217 0.016763 -0.004464 0.000000 0.000000 0.000000
# 3 -0.012106 -0.004464 0.022383 0.000000 0.000000 0.000000
# 4 0.000000 0.000000 0.000000 0.162363 0.000000 0.000000
# 5 0.000000 0.000000 0.000000 0.000000 0.059748 0.000000
# 6 0.000000 0.000000 0.000000 0.000000 0.000000 0.051746
#
#
# Mechanical properties :
#
#
# Convention : Reuss Voigt Hill
#
# Bulk Modulus (GPa) = 50.09042 50.47100 50.28071
# Shear Modulus (GPa) = 13.03341 16.28473 14.65907
#
# Velocity S-wave (km/s) = 2.91683 3.26042 3.09340
# Velocity P-wave (km/s) = 6.63640 6.86441 6.75137
#
# Compressibility (1/GPa) = 0.01996390
#
# Stress axis : x y z
#
# Youngs Moduli (GPa) = 44.65375 59.65534 44.67703
#
# Poissons Ratio (x) = 0.25160 0.54088
# Poissons Ratio (y) = 0.18833 0.19945
# Poissons Ratio (z) = 0.54060 0.26632
#
# Static dielectric constant tensor:
#      x y z
#    x 2.933470 0.000000 0.000000 
#    y 0.000000 2.958890 0.000000 
#    z 0.000000 0.000000 2.874210 
# 
# 
# High freq. dielectric constant tensor:
#      x y z
#    x 1.587130 0.000000 0.000000 
#    y 0.000000 1.576100 0.000000 
#    z 0.000000 0.000000 1.557490 
# 
# From -- ./inp_files/25365.got.cif
#   From: 2010.03.12/outbox.cif.g09.slc.cpg/sg51_13_cif.got.tgz:25365.got - 2010.04.16 13:43:02.
