data_PCOD8210589
_publ_section_title
;
Structure prediction by ZEFSAII (Michael W. Deem and Ramdas Pophale) SiO2 
 PCOD8210589
Probable space group: P M M A
;
_chemical_formula_sum "Si O2"
_cell_formula_units_Z 52
_cell_length_a 9.296209
_cell_length_b 10.279431
_cell_length_c 28.497222
_cell_angle_alpha 90.000000
_cell_angle_beta 90.000000
_cell_angle_gamma 90.000000
_cell_volume 2723.187096
_symmetry_space_group_name_H-M "P M M A"
_symmetry_group_IT_number 51
_symmetry_cell_setting 'orthorhombic'
loop_
_space_group_symop_operation_xyz
x,y,z
1/2-x,-y,z
1/2+x,-y,-z
-x,y,-z
-x,-y,-z
1/2+x,y,-z
1/2-x,y,z
x,-y,z
loop_
_atom_site_type_symbol
_atom_site_label
_atom_site_fract_x
_atom_site_fract_y
_atom_site_fract_z
Si Si1 0.914662 0.148029 0.609858
Si Si2 0.918632 0.350943 0.451838
Si Si3 0.415013 0.852755 0.279706
Si Si4 0.415089 0.287008 0.123942
Si Si5 0.087524 0.500000 0.047147
Si Si6 0.419805 0.350316 0.782874
Si Si7 0.094153 0.852403 0.040440
O O1 0.750000 0.179287 0.595735
O O2 0.935303 0.162557 0.665083
O O3 0.021085 0.251260 0.586427
O O4 0.953209 0.000000 0.594358
O O5 0.750000 0.324758 0.459118
O O6 0.946015 0.500000 0.435377
O O7 0.000000 0.322453 0.500000
O O8 0.250000 0.827138 0.265249
O O9 0.514447 0.745671 0.255605
O O10 0.458666 0.000000 0.264414
O O11 0.250000 0.298024 0.142558
O O12 0.450027 0.379461 0.080287
O O13 0.521219 0.311421 0.166494
O O14 0.452849 0.153117 0.096033
O O15 0.250000 0.500000 0.031037
O O16 0.000000 0.500000 0.000000
O O17 0.250000 0.331395 0.782971
O O18 0.461250 0.500000 0.771168
O O19 0.250000 0.782778 0.037752
O O20 0.107701 0.000000 0.025294
O O21 0.000000 0.781420 0.000000
#
# Coordination Sequence:
#
# PCOD8210589 Si02
#       7
#     8   8   8   8   4   8   8
#     4   9  19  37  60  86 115 148 191 241 291 347
#     4  10  21  36  55  82 118 160 203 246 292 343
#     4   9  20  40  64  87 112 147 191 237 287 346
#     4  10  20  35  53  73 100 136 176 215 261 320
#     4  10  20  32  50  74  98 130 170 214 263 318
#     4  11  24  39  56  82 115 148 184 231 283 335
#     4   9  18  32  50  73 100 129 163 205 254 311
#
# _framework density 19.095272000000001
#
# number of rings (size 3 to 8) (size 9 to 14) (size 15 to 20)
#    0.000    2.308    0.769    2.308    0.000    5.846 
#    0.000    6.154    0.000    0.000    0.000    0.000 
#    0.000    0.000    0.000    0.000    0.000    0.000 
#
# Total GULP energy -644259.282814 kJ/mol
# GULP energy per Si atom -12389.601593 kJ/mol
# Density = 1.905181 g / cm^3
# Si number density = 19.095272 Si / 1000 Ang^3
#
#
#
# Elastic Constant Matrix: (Units=GPa)
#
#
# Indices 1 2 3 4 5 6 
#
# 1 109.8005 63.8053 60.0637 0.0000 0.0000 0.0000
# 2 63.8053 103.7756 57.0372 0.0000 0.0000 0.0000
# 3 60.0637 57.0372 87.5362 0.0000 0.0000 0.0000
# 4 0.0000 0.0000 0.0000 40.9906 0.0000 0.0000
# 5 0.0000 0.0000 0.0000 0.0000 39.8273 0.0000
# 6 0.0000 0.0000 0.0000 0.0000 0.0000 30.6098
#
#
#
# Elastic Compliance Matrix: (Units=1/GPa)
#
#
# Indices 1 2 3 4 5 6 
#
# 1 0.016820 -0.006229 -0.007483 0.000000 0.000000 0.000000
# 2 -0.006229 0.017319 -0.007011 0.000000 0.000000 0.000000
# 3 -0.007483 -0.007011 0.021126 0.000000 0.000000 0.000000
# 4 0.000000 0.000000 0.000000 0.024396 0.000000 0.000000
# 5 0.000000 0.000000 0.000000 0.000000 0.025108 0.000000
# 6 0.000000 0.000000 0.000000 0.000000 0.000000 0.032669
#
#
# Mechanical properties :
#
#
# Convention : Reuss Voigt Hill
#
# Bulk Modulus (GPa) = 72.35490 73.65829 73.00660
# Shear Modulus (GPa) = 27.24916 30.29929 28.77423
#
# Velocity S-wave (km/s) = 3.78168 3.98772 3.88606
# Velocity P-wave (km/s) = 7.55261 7.73695 7.64533
#
# Compressibility (1/GPa) = 0.01382076
#
# Stress axis : x y z
#
# Youngs Moduli (GPa) = 59.45146 57.73858 47.33452
#
# Poissons Ratio (x) = 0.35967 0.35419
# Poissons Ratio (y) = 0.37034 0.33185
# Poissons Ratio (z) = 0.44485 0.40479
#
# Static dielectric constant tensor:
#      x y z
#    x 3.846090 0.000000 0.000000 
#    y 0.000000 3.516360 0.000000 
#    z 0.000000 0.000000 3.427290 
# 
# 
# High freq. dielectric constant tensor:
#      x y z
#    x 1.738430 0.000000 0.000000 
#    y 0.000000 1.756210 0.000000 
#    z 0.000000 0.000000 1.738890 
# 
# From -- ./inp_files/36191.got.cif
#   From: 2010.03.12/outbox.cif.g09.slc.cpg/sg51_19_cif.got.tgz:36191.got - 2010.04.16 13:43:02.
