data_PCOD8210235
_publ_section_title
;
Structure prediction by ZEFSAII (Michael W. Deem and Ramdas Pophale) SiO2 
 PCOD8210235
Probable space group: P M M A
;
_chemical_formula_sum "Si O2"
_cell_formula_units_Z 48
_cell_length_a 16.148306
_cell_length_b 9.299201
_cell_length_c 17.108489
_cell_angle_alpha 90.000000
_cell_angle_beta 90.000000
_cell_angle_gamma 90.000000
_cell_volume 2569.119233
_symmetry_space_group_name_H-M "P M M A"
_symmetry_group_IT_number 51
_symmetry_cell_setting 'orthorhombic'
loop_
_space_group_symop_operation_xyz
x,y,z
1/2-x,-y,z
1/2+x,-y,-z
-x,y,-z
-x,-y,-z
1/2+x,y,-z
1/2-x,y,z
x,-y,z
loop_
_atom_site_type_symbol
_atom_site_label
_atom_site_fract_x
_atom_site_fract_y
_atom_site_fract_z
Si Si1 0.750000 0.171145 0.269680
Si Si2 0.845528 0.663155 0.691948
Si Si3 0.079978 0.169801 0.169233
Si Si4 0.250000 0.328351 0.566495
Si Si5 0.895453 0.830022 0.157473
Si Si6 0.411134 0.670742 0.471264
Si Si7 0.156940 0.170955 0.009577
O O1 0.750000 0.254827 0.349939
O O2 0.670215 0.223945 0.220994
O O3 0.750000 0.000000 0.284012
O O4 0.750000 0.672225 0.667389
O O5 0.870528 0.500000 0.712460
O O6 0.860909 0.760289 0.767007
O O7 0.898520 0.720711 0.618288
O O8 0.103404 0.226407 0.082839
O O9 0.985969 0.217279 0.186302
O O10 0.092590 0.000000 0.174581
O O11 0.250000 0.500000 0.575186
O O12 0.166587 0.273868 0.522722
O O13 0.888735 0.000000 0.149685
O O14 0.877951 0.763831 0.071523
O O15 0.500000 0.733637 0.500000
O O16 0.411923 0.500000 0.475604
O O17 0.250000 0.226140 0.021443
O O18 0.153488 0.000000 0.005889
#
# Coordination Sequence:
#
# PCOD8210235 Si02
#       7
#     4   8   8   4   8   8   8
#     4  10  20  34  52  73 104 140 168 203 260 314
#     4  10  20  36  55  75 103 137 169 201 249 312
#     4  10  20  31  50  80 106 129 169 219 254 287
#     4  10  20  36  58  81 100 126 174 221 252 298
#     4   9  17  31  49  72 104 139 171 206 251 304
#     4   9  18  34  56  78 100 131 170 211 252 301
#     4   9  15  27  48  73 100 134 174 210 246 292
#
# _framework density 18.683444999999999
#
# number of rings (size 3 to 8) (size 9 to 14) (size 15 to 20)
#    0.000    2.500    1.667    1.000    2.333    3.000 
#    0.000    0.833    0.000    4.000    0.000    0.000 
#    0.000    0.000    0.000    0.000    0.000    0.000 
#
# Total GULP energy -595082.506807 kJ/mol
# GULP energy per Si atom -12397.552225 kJ/mol
# Density = 1.864092 g / cm^3
# Si number density = 18.683445 Si / 1000 Ang^3
#
#
#
# Elastic Constant Matrix: (Units=GPa)
#
#
# Indices 1 2 3 4 5 6 
#
# 1 111.4411 18.1869 49.6896 0.0000 0.0000 0.0000
# 2 18.1869 21.0951 28.1061 0.0000 0.0000 0.0000
# 3 49.6896 28.1061 135.6267 0.0000 0.0000 0.0000
# 4 0.0000 0.0000 0.0000 -0.2012 0.0000 0.0000
# 5 0.0000 0.0000 0.0000 0.0000 35.7200 0.0000
# 6 0.0000 0.0000 0.0000 0.0000 0.0000 12.9182
#
#
#
# Elastic Compliance Matrix: (Units=1/GPa)
#
#
# Indices 1 2 3 4 5 6 
#
# 1 0.011216 -0.005795 -0.002908 0.000000 0.000000 0.000000
# 2 -0.005795 0.068479 -0.012068 0.000000 0.000000 0.000000
# 3 -0.002908 -0.012068 0.010940 0.000000 0.000000 0.000000
# 4 0.000000 0.000000 0.000000 -4.971246 0.000000 0.000000
# 5 0.000000 0.000000 0.000000 0.000000 0.027996 0.000000
# 6 0.000000 0.000000 0.000000 0.000000 0.000000 0.077410
#
#
# Mechanical properties :
#
#
# Convention : Reuss Voigt Hill
#
# Bulk Modulus (GPa) = 20.36979 51.12535 35.74757
# Shear Modulus (GPa) = -1.05993 21.16609 10.05308
#
# Velocity S-wave (km/s) = -0.75402 3.36948 2.32216
# Velocity P-wave (km/s) = 3.18876 6.52390 5.13466
#
# Compressibility (1/GPa) = 0.04909230
#
# Stress axis : x y z
#
# Youngs Moduli (GPa) = 89.16004 14.60305 91.41152
#
# Poissons Ratio (x) = 0.08462 0.26585
# Poissons Ratio (y) = 0.51666 1.10315
# Poissons Ratio (z) = 0.25930 0.17623
#
# Static dielectric constant tensor:
#      x y z
#    x 3.736470 0.000000 0.000000 
#    y 0.000000 2.807770 0.000000 
#    z 0.000000 0.000000 3.505370 
# 
# 
# High freq. dielectric constant tensor:
#      x y z
#    x 1.742190 0.000000 0.000000 
#    y 0.000000 1.657140 0.000000 
#    z 0.000000 0.000000 1.739110 
# 
# From -- ./inp_files/24099.got.cif
#   From: 2010.03.12/outbox.cif.g09.slc.cpg/sg51_13_cif.got.tgz:24099.got - 2010.04.16 13:43:02.
