data_PCOD8210660
_publ_section_title
;
Structure prediction by ZEFSAII (Michael W. Deem and Ramdas Pophale) SiO2 
 PCOD8210660
Probable space group: P M M A
;
_chemical_formula_sum "Si O2"
_cell_formula_units_Z 64
_cell_length_a 9.527192
_cell_length_b 18.949311
_cell_length_c 24.122746
_cell_angle_alpha 90.000000
_cell_angle_beta 90.000000
_cell_angle_gamma 90.000000
_cell_volume 4354.969172
_symmetry_space_group_name_H-M "P M M A"
_symmetry_group_IT_number 51
_symmetry_cell_setting 'orthorhombic'
loop_
_space_group_symop_operation_xyz
x,y,z
1/2-x,-y,z
1/2+x,-y,-z
-x,y,-z
-x,-y,-z
1/2+x,y,-z
1/2-x,y,z
x,-y,z
loop_
_atom_site_type_symbol
_atom_site_label
_atom_site_fract_x
_atom_site_fract_y
_atom_site_fract_z
Si Si1 0.402535 0.919445 0.045417
Si Si2 0.587689 0.343163 0.777611
Si Si3 0.407715 0.228925 0.830212
Si Si4 0.906267 0.584303 0.549424
Si Si5 0.406517 0.076506 0.850745
Si Si6 0.083651 0.297645 0.945649
Si Si7 0.582601 0.578369 0.670488
Si Si8 0.411932 0.418143 0.109313
O O1 0.250000 0.881735 0.048101
O O2 0.473688 0.916586 0.104433
O O3 0.380648 0.000000 0.026486
O O4 0.500000 0.880226 0.000000
O O5 0.750000 0.324657 0.771090
O O6 0.510335 0.270273 0.789994
O O7 0.524936 0.373113 0.720108
O O8 0.562152 0.399869 0.826179
O O9 0.250000 0.255831 0.819403
O O10 0.423445 0.146154 0.813016
O O11 0.444020 0.242091 0.895474
O O12 0.750000 0.613554 0.539869
O O13 0.905974 0.500000 0.548189
O O14 0.963604 0.608570 0.610045
O O15 0.000000 0.616159 0.500000
O O16 0.250000 0.079077 0.877916
O O17 0.424216 0.000000 0.819547
O O18 0.250000 0.306254 0.957822
O O19 0.017300 0.373309 0.928817
O O20 0.000000 0.270239 0.000000
O O21 0.750000 0.574318 0.672693
O O22 0.520390 0.500000 0.679018
O O23 0.250000 0.401404 0.093313
O O24 0.447089 0.500000 0.100133
#
# Coordination Sequence:
#
# PCOD8210660 Si02
#       8
#     8   8   8   8   8   8   8   8
#     4   9  16  25  37  54  75  94 111 135 168 206
#     4   9  16  27  44  62  78 100 130 159 189 228
#     4   9  19  33  45  59  79  99 118 148 191 231
#     4   8  13  21  33  50  75 106 137 169 201 227
#     4   9  17  30  46  60  74  94 120 147 177 218
#     4  10  20  33  46  58  74  96 120 146 181 228
#     4   8  13  22  38  59  80 104 137 173 201 224
#     4   9  17  29  45  63  79  94 117 153 192 227
#
# _framework density 14.695855
#
# number of rings (size 3 to 8) (size 9 to 14) (size 15 to 20)
#    0.000    3.125    0.000    1.875    0.000    5.000 
#    0.000    1.875    0.000    1.875    0.000    0.000 
#    0.000    0.000    0.000    0.000    0.000    0.625 
#
# Total GULP energy -792952.828637 kJ/mol
# GULP energy per Si atom -12389.887947 kJ/mol
# Density = 1.466241 g / cm^3
# Si number density = 14.695855 Si / 1000 Ang^3
#
#
#
# Elastic Constant Matrix: (Units=GPa)
#
#
# Indices 1 2 3 4 5 6 
#
# 1 69.6215 26.6289 33.0946 0.0000 0.0000 0.0000
# 2 26.6289 76.6492 26.8426 0.0000 0.0000 0.0000
# 3 33.0946 26.8426 84.3556 0.0000 0.0000 0.0000
# 4 0.0000 0.0000 0.0000 8.8047 0.0000 0.0000
# 5 0.0000 0.0000 0.0000 0.0000 17.8763 0.0000
# 6 0.0000 0.0000 0.0000 0.0000 0.0000 14.7381
#
#
#
# Elastic Compliance Matrix: (Units=1/GPa)
#
#
# Indices 1 2 3 4 5 6 
#
# 1 0.018928 -0.004474 -0.006002 0.000000 0.000000 0.000000
# 2 -0.004474 0.015740 -0.003253 0.000000 0.000000 0.000000
# 3 -0.006002 -0.003253 0.015245 0.000000 0.000000 0.000000
# 4 0.000000 0.000000 0.000000 0.113575 0.000000 0.000000
# 5 0.000000 0.000000 0.000000 0.000000 0.055940 0.000000
# 6 0.000000 0.000000 0.000000 0.000000 0.000000 0.067851
#
#
# Mechanical properties :
#
#
# Convention : Reuss Voigt Hill
#
# Bulk Modulus (GPa) = 44.53630 44.86208 44.69919
# Shear Modulus (GPa) = 15.51726 17.88786 16.70256
#
# Velocity S-wave (km/s) = 3.25298 3.49263 3.37493
# Velocity P-wave (km/s) = 6.66935 6.84528 6.75789
#
# Compressibility (1/GPa) = 0.02245359
#
# Stress axis : x y z
#
# Youngs Moduli (GPa) = 52.83284 63.53225 65.59687
#
# Poissons Ratio (x) = 0.28423 0.39372
# Poissons Ratio (y) = 0.23636 0.21342
# Poissons Ratio (z) = 0.31711 0.20670
#
# Static dielectric constant tensor:
#      x y z
#    x 2.938950 0.000000 0.000000 
#    y 0.000000 2.776500 0.000000 
#    z 0.000000 0.000000 2.765990 
# 
# 
# High freq. dielectric constant tensor:
#      x y z
#    x 1.563320 0.000000 0.000000 
#    y 0.000000 1.538400 0.000000 
#    z 0.000000 0.000000 1.523420 
# 
# From -- ./inp_files/35182.got.cif
#   From: 2010.03.12/outbox.cif.g09.slc.cpg/sg51_18_cif.got.tgz:35182.got - 2010.04.16 13:43:02.
