data_PCOD8210417
_publ_section_title
;
Structure prediction by ZEFSAII (Michael W. Deem and Ramdas Pophale) SiO2 
 PCOD8210417
Probable space group: P M M A
;
_chemical_formula_sum "Si O2"
_cell_formula_units_Z 48
_cell_length_a 9.392622
_cell_length_b 13.293169
_cell_length_c 19.650321
_cell_angle_alpha 90.000000
_cell_angle_beta 90.000000
_cell_angle_gamma 90.000000
_cell_volume 2453.494112
_symmetry_space_group_name_H-M "P M M A"
_symmetry_group_IT_number 51
_symmetry_cell_setting 'orthorhombic'
loop_
_space_group_symop_operation_xyz
x,y,z
1/2-x,-y,z
1/2+x,-y,-z
-x,y,-z
-x,-y,-z
1/2+x,y,-z
1/2-x,y,z
x,-y,z
loop_
_atom_site_type_symbol
_atom_site_label
_atom_site_fract_x
_atom_site_fract_y
_atom_site_fract_z
Si Si1 0.091243 0.619661 0.563318
Si Si2 0.593398 0.615966 0.684924
Si Si3 0.413288 0.705573 0.793912
Si Si4 0.088594 0.119296 0.435247
Si Si5 0.086289 0.114443 0.697399
Si Si6 0.586017 0.385157 0.065424
O O1 0.250000 0.665353 0.560362
O O2 0.100601 0.500000 0.565944
O O3 0.000000 0.657489 0.500000
O O4 0.009651 0.665492 0.628438
O O5 0.750000 0.667168 0.684177
O O6 0.612570 0.500000 0.667345
O O7 0.518012 0.627646 0.757254
O O8 0.250000 0.673273 0.780122
O O9 0.443339 0.817418 0.764520
O O10 0.447823 0.693523 0.873777
O O11 0.250000 0.162245 0.436461
O O12 0.000000 0.162390 0.500000
O O13 0.011797 0.151568 0.364928
O O14 0.091904 0.000000 0.440035
O O15 0.250000 0.123592 0.673751
O O16 0.049778 0.000000 0.718409
O O17 0.750000 0.380432 0.045197
O O18 0.543841 0.500000 0.085985
O O19 0.500000 0.347774 0.000000
#
# Coordination Sequence:
#
# PCOD8210417 Si02
#       6
#     8   8   8   8   8   8
#     4   9  16  27  44  64  89 125 167 208 249 294
#     4  10  20  32  47  70  99 129 162 202 249 300
#     4  10  20  34  53  76 102 133 168 206 250 300
#     4   9  16  27  46  71  98 130 169 215 267 317
#     4   9  18  33  52  74 101 134 173 216 261 308
#     4   9  18  33  54  80 108 136 166 201 244 297
#
# _framework density 19.563935000000001
#
# number of rings (size 3 to 8) (size 9 to 14) (size 15 to 20)
#    0.000    2.667    0.000    2.000    0.000    7.000 
#    0.000    2.500    0.000    4.500    0.000    0.000 
#    0.000    0.000    0.000    0.000    0.000    0.000 
#
# Total GULP energy -595047.910251 kJ/mol
# GULP energy per Si atom -12396.831464 kJ/mol
# Density = 1.951941 g / cm^3
# Si number density = 19.563935 Si / 1000 Ang^3
#
#
#
# Elastic Constant Matrix: (Units=GPa)
#
#
# Indices 1 2 3 4 5 6 
#
# 1 153.1243 34.7286 88.2530 0.0000 0.0000 0.0000
# 2 34.7286 58.6991 40.7673 0.0000 0.0000 0.0000
# 3 88.2530 40.7673 164.4966 0.0000 0.0000 0.0000
# 4 0.0000 0.0000 0.0000 50.3132 0.0000 0.0000
# 5 0.0000 0.0000 0.0000 0.0000 35.9849 0.0000
# 6 0.0000 0.0000 0.0000 0.0000 0.0000 5.4621
#
#
#
# Elastic Compliance Matrix: (Units=1/GPa)
#
#
# Indices 1 2 3 4 5 6 
#
# 1 0.009768 -0.002584 -0.004600 0.000000 0.000000 0.000000
# 2 -0.002584 0.021262 -0.003883 0.000000 0.000000 0.000000
# 3 -0.004600 -0.003883 0.009509 0.000000 0.000000 0.000000
# 4 0.000000 0.000000 0.000000 0.019876 0.000000 0.000000
# 5 0.000000 0.000000 0.000000 0.000000 0.027789 0.000000
# 6 0.000000 0.000000 0.000000 0.000000 0.000000 0.183080
#
#
# Mechanical properties :
#
#
# Convention : Reuss Voigt Hill
#
# Bulk Modulus (GPa) = 54.33402 78.20196 66.26799
# Shear Modulus (GPa) = 16.69151 32.52344 24.60747
#
# Velocity S-wave (km/s) = 2.92409 4.08170 3.55039
# Velocity P-wave (km/s) = 6.26364 7.89132 7.12412
#
# Compressibility (1/GPa) = 0.01840467
#
# Stress axis : x y z
#
# Youngs Moduli (GPa) = 102.37482 47.03298 105.15900
#
# Poissons Ratio (x) = 0.12155 0.48374
# Poissons Ratio (y) = 0.26457 0.40831
# Poissons Ratio (z) = 0.47094 0.18262
#
# Static dielectric constant tensor:
#      x y z
#    x 3.829080 0.000000 0.000000 
#    y 0.000000 3.372900 0.000000 
#    z 0.000000 0.000000 3.427110 
# 
# 
# High freq. dielectric constant tensor:
#      x y z
#    x 1.772450 0.000000 0.000000 
#    y 0.000000 1.752530 0.000000 
#    z 0.000000 0.000000 1.737290 
# 
# From -- ./inp_files/27510.got.cif
#   From: 2010.03.12/outbox.cif.g09.slc.cpg/sg51_14_cif.got.tgz:27510.got - 2010.04.16 13:43:02.
