data_PCOD8210447
_publ_section_title
;
Structure prediction by ZEFSAII (Michael W. Deem and Ramdas Pophale) SiO2 
 PCOD8210447
Probable space group: P M M A
;
_chemical_formula_sum "Si O2"
_cell_formula_units_Z 64
_cell_length_a 27.180447
_cell_length_b 14.838198
_cell_length_c 9.679832
_cell_angle_alpha 90.000000
_cell_angle_beta 90.000000
_cell_angle_gamma 90.000000
_cell_volume 3903.961954
_symmetry_space_group_name_H-M "P M M A"
_symmetry_group_IT_number 51
_symmetry_cell_setting 'orthorhombic'
loop_
_space_group_symop_operation_xyz
x,y,z
1/2-x,-y,z
1/2+x,-y,-z
-x,y,-z
-x,-y,-z
1/2+x,y,-z
1/2-x,y,z
x,-y,z
loop_
_atom_site_type_symbol
_atom_site_label
_atom_site_fract_x
_atom_site_fract_y
_atom_site_fract_z
Si Si1 0.807023 0.745114 0.196287
Si Si2 0.354888 0.394247 0.986350
Si Si3 0.479043 0.606934 0.359487
Si Si4 0.539629 0.606694 0.103620
Si Si5 0.308742 0.734875 0.491406
Si Si6 0.308374 0.100003 0.307281
Si Si7 0.369103 0.393812 0.302537
Si Si8 0.308535 0.899296 0.998205
O O1 0.750000 0.763928 0.215481
O O2 0.813639 0.655514 0.103984
O O3 0.828913 0.735727 0.350936
O O4 0.831127 0.829457 0.113291
O O5 0.348710 0.500000 0.960022
O O6 0.406527 0.355382 0.928761
O O7 0.350165 0.371384 0.148360
O O8 0.500000 0.648754 0.500000
O O9 0.474949 0.500000 0.366126
O O10 0.521332 0.636192 0.253361
O O11 0.424862 0.643746 0.320799
O O12 0.541758 0.500000 0.082494
O O13 0.500000 0.649032 0.000000
O O14 0.250000 0.723103 0.483423
O O15 0.327127 0.826795 0.417692
O O16 0.333072 0.650927 0.413224
O O17 0.250000 0.099234 0.305858
O O18 0.327519 0.000000 0.349554
O O19 0.327504 0.124684 0.152961
O O20 0.367457 0.500000 0.329916
O O21 0.250000 0.892830 0.997404
O O22 0.325601 0.000000 0.957133
#
# Coordination Sequence:
#
# PCOD8210447 Si02
#       8
#     8   8   8   8   8   8   8   8
#     4  10  21  33  44  64  94 125 157 192 228 266
#     4  10  20  32  48  66  87 122 161 195 228 267
#     4   9  17  28  45  68  89 111 141 185 238 282
#     4   9  15  28  47  66  87 109 141 188 238 277
#     4  10  21  33  44  63  94 127 156 190 227 267
#     4   8  14  27  48  69  87 112 146 184 229 275
#     4  10  20  33  47  65  89 122 162 193 225 271
#     4   8  14  27  48  69  87 111 145 186 230 272
#
# _framework density 16.393602000000001
#
# number of rings (size 3 to 8) (size 9 to 14) (size 15 to 20)
#    0.000    2.750    1.250    1.500    1.750    3.000 
#    0.000    5.000    0.000    0.000    0.000    0.000 
#    0.000    2.000    0.000    0.125    0.000    0.000 
#
# Total GULP energy -793172.914045 kJ/mol
# GULP energy per Si atom -12393.326782 kJ/mol
# Density = 1.635629 g / cm^3
# Si number density = 16.393602 Si / 1000 Ang^3
#
#
#
# Elastic Constant Matrix: (Units=GPa)
#
#
# Indices 1 2 3 4 5 6 
#
# 1 21.7089 15.4107 19.0775 0.0000 0.0000 0.0000
# 2 15.4107 69.6841 56.2836 0.0000 0.0000 0.0000
# 3 19.0775 56.2836 140.3188 0.0000 0.0000 0.0000
# 4 0.0000 0.0000 0.0000 23.7388 0.0000 0.0000
# 5 0.0000 0.0000 0.0000 0.0000 23.9869 0.0000
# 6 0.0000 0.0000 0.0000 0.0000 0.0000 1.9690
#
#
#
# Elastic Compliance Matrix: (Units=1/GPa)
#
#
# Indices 1 2 3 4 5 6 
#
# 1 0.056062 -0.009233 -0.003919 0.000000 0.000000 0.000000
# 2 -0.009233 0.022748 -0.007869 0.000000 0.000000 0.000000
# 3 -0.003919 -0.007869 0.010816 0.000000 0.000000 0.000000
# 4 0.000000 0.000000 0.000000 0.042125 0.000000 0.000000
# 5 0.000000 0.000000 0.000000 0.000000 0.041689 0.000000
# 6 0.000000 0.000000 0.000000 0.000000 0.000000 0.507877
#
#
# Mechanical properties :
#
#
# Convention : Reuss Voigt Hill
#
# Bulk Modulus (GPa) = 21.01535 45.91728 33.46632
# Shear Modulus (GPa) = 6.76387 19.33493 13.04940
#
# Velocity S-wave (km/s) = 2.03344 3.43799 2.82442
# Velocity P-wave (km/s) = 4.28488 6.62041 5.57629
#
# Compressibility (1/GPa) = 0.04758426
#
# Stress axis : x y z
#
# Youngs Moduli (GPa) = 17.83733 43.95906 92.45660
#
# Poissons Ratio (x) = 0.40588 0.36230
# Poissons Ratio (y) = 0.16470 0.72757
# Poissons Ratio (z) = 0.06990 0.34593
#
# Static dielectric constant tensor:
#      x y z
#    x 2.863100 0.000000 0.000000 
#    y 0.000000 2.950530 0.000000 
#    z 0.000000 0.000000 3.396130 
# 
# 
# High freq. dielectric constant tensor:
#      x y z
#    x 1.593860 0.000000 0.000000 
#    y 0.000000 1.599420 0.000000 
#    z 0.000000 0.000000 1.648020 
# 
# From -- ./inp_files/13245.got.cif
#   From: 2010.03.12/outbox.cif.g09.slc.cpg/sg51_7_cif.got.tgz:13245.got - 2010.04.16 13:43:02.
