data_PCOD8210767
_publ_section_title
;
Structure prediction by ZEFSAII (Michael W. Deem and Ramdas Pophale) SiO2 
 PCOD8210767
Probable space group: P M M A
;
_chemical_formula_sum "Si O2"
_cell_formula_units_Z 56
_cell_length_a 18.353897
_cell_length_b 8.996361
_cell_length_c 19.248801
_cell_angle_alpha 90.000000
_cell_angle_beta 90.000000
_cell_angle_gamma 90.000000
_cell_volume 3178.328974
_symmetry_space_group_name_H-M "P M M A"
_symmetry_group_IT_number 51
_symmetry_cell_setting 'orthorhombic'
loop_
_space_group_symop_operation_xyz
x,y,z
1/2-x,-y,z
1/2+x,-y,-z
-x,y,-z
-x,-y,-z
1/2+x,y,-z
1/2-x,y,z
x,-y,z
loop_
_atom_site_type_symbol
_atom_site_label
_atom_site_fract_x
_atom_site_fract_y
_atom_site_fract_z
Si Si1 0.435080 0.337685 0.946520
Si Si2 0.165892 0.323497 0.066425
Si Si3 0.958382 0.326585 0.428623
Si Si4 0.166985 0.332594 0.368073
Si Si5 0.961798 0.828278 0.851775
Si Si6 0.544479 0.171345 0.692423
Si Si7 0.667649 0.169429 0.488242
O O1 0.417948 0.500000 0.913279
O O2 0.463091 0.224772 0.887988
O O3 0.500000 0.357091 0.000000
O O4 0.364199 0.278745 0.989316
O O5 0.250000 0.268256 0.074531
O O6 0.161435 0.500000 0.075619
O O7 0.112531 0.253711 0.124541
O O8 0.941840 0.500000 0.422711
O O9 0.882973 0.234929 0.427738
O O10 0.000000 0.286912 0.500000
O O11 0.001174 0.274846 0.360803
O O12 0.250000 0.333256 0.344997
O O13 0.134663 0.500000 0.366936
O O14 0.128057 0.224394 0.313367
O O15 0.155414 0.270980 0.444892
O O16 0.978815 0.800255 0.771177
O O17 0.949608 0.000000 0.869000
O O18 0.535777 0.000000 0.671158
O O19 0.750000 0.179443 0.461041
O O20 0.646534 0.000000 0.506427
#
# Coordination Sequence:
#
# PCOD8210767 Si02
#       7
#     8   8   8   8   8   8   8
#     4   8  15  30  52  75  99 132 171 207 244 292
#     4   9  18  33  54  80 108 138 172 208 248 298
#     4  11  22  35  54  79 102 130 175 228 270 309
#     4  10  20  33  49  71  99 130 167 210 255 307
#     4  10  21  34  49  74 106 139 175 212 254 306
#     4  11  23  36  51  72 102 140 177 216 263 315
#     4  10  20  34  54  77 100 129 163 205 262 320
#
# _framework density 17.619322
#
# number of rings (size 3 to 8) (size 9 to 14) (size 15 to 20)
#    0.000    2.143    1.429    3.000    0.000    8.000 
#    0.000    2.857    0.000    0.857    0.000    4.000 
#    0.000    0.000    0.000    0.000    0.000    0.000 
#
# Total GULP energy -694153.334152 kJ/mol
# GULP energy per Si atom -12395.595253 kJ/mol
# Density = 1.757922 g / cm^3
# Si number density = 17.619322 Si / 1000 Ang^3
#
#
#
# Elastic Constant Matrix: (Units=GPa)
#
#
# Indices 1 2 3 4 5 6 
#
# 1 63.4674 37.0896 35.8504 0.0000 0.0000 0.0000
# 2 37.0896 80.1124 44.2106 0.0000 0.0000 0.0000
# 3 35.8504 44.2106 81.7244 0.0000 0.0000 0.0000
# 4 0.0000 0.0000 0.0000 23.6240 0.0000 0.0000
# 5 0.0000 0.0000 0.0000 0.0000 22.7530 0.0000
# 6 0.0000 0.0000 0.0000 0.0000 0.0000 25.8447
#
#
#
# Elastic Compliance Matrix: (Units=1/GPa)
#
#
# Indices 1 2 3 4 5 6 
#
# 1 0.023714 -0.007467 -0.006363 0.000000 0.000000 0.000000
# 2 -0.007467 0.020146 -0.007623 0.000000 0.000000 0.000000
# 3 -0.006363 -0.007623 0.019151 0.000000 0.000000 0.000000
# 4 0.000000 0.000000 0.000000 0.042330 0.000000 0.000000
# 5 0.000000 0.000000 0.000000 0.000000 0.043950 0.000000
# 6 0.000000 0.000000 0.000000 0.000000 0.000000 0.038693
#
#
# Mechanical properties :
#
#
# Convention : Reuss Voigt Hill
#
# Bulk Modulus (GPa) = 49.73859 51.06725 50.40292
# Shear Modulus (GPa) = 21.04437 21.65460 21.34948
#
# Velocity S-wave (km/s) = 3.45975 3.50955 3.48474
# Velocity P-wave (km/s) = 6.65212 6.74308 6.69775
#
# Compressibility (1/GPa) = 0.02010511
#
# Stress axis : x y z
#
# Youngs Moduli (GPa) = 42.16864 49.63674 52.21566
#
# Poissons Ratio (x) = 0.37066 0.33226
# Poissons Ratio (y) = 0.31489 0.39803
# Poissons Ratio (z) = 0.26833 0.37837
#
# Static dielectric constant tensor:
#      x y z
#    x 3.595530 0.000000 0.000000 
#    y 0.000000 3.416630 0.000000 
#    z 0.000000 0.000000 3.092320 
# 
# 
# High freq. dielectric constant tensor:
#      x y z
#    x 1.675250 0.000000 0.000000 
#    y 0.000000 1.693740 0.000000 
#    z 0.000000 0.000000 1.653450 
# 
# From -- ./inp_files/33712.got.cif
#   From: 2010.03.12/outbox.cif.g09.slc.cpg/sg51_17_cif.got.tgz:33712.got - 2010.04.16 13:43:02.
