data_PCOD8210329
_publ_section_title
;
Structure prediction by ZEFSAII (Michael W. Deem and Ramdas Pophale) SiO2 
 PCOD8210329
Probable space group: P M M A
;
_chemical_formula_sum "Si O2"
_cell_formula_units_Z 40
_cell_length_a 25.903660
_cell_length_b 9.171023
_cell_length_c 9.637568
_cell_angle_alpha 90.000000
_cell_angle_beta 90.000000
_cell_angle_gamma 90.000000
_cell_volume 2289.530161
_symmetry_space_group_name_H-M "P M M A"
_symmetry_group_IT_number 51
_symmetry_cell_setting 'orthorhombic'
loop_
_space_group_symop_operation_xyz
x,y,z
1/2-x,-y,z
1/2+x,-y,-z
-x,y,-z
-x,-y,-z
1/2+x,y,-z
1/2-x,y,z
x,-y,z
loop_
_atom_site_type_symbol
_atom_site_label
_atom_site_fract_x
_atom_site_fract_y
_atom_site_fract_z
Si Si1 0.649869 0.164713 0.075456
Si Si2 0.547628 0.669438 0.101741
Si Si3 0.458597 0.828385 0.614079
Si Si4 0.845619 0.839677 0.404969
Si Si5 0.250000 0.333898 0.928036
Si Si6 0.250000 0.661457 0.596454
O O1 0.597295 0.249204 0.036391
O O2 0.655310 0.158231 0.239620
O O3 0.648327 0.000000 0.014436
O O4 0.699264 0.251013 0.014106
O O5 0.561721 0.500000 0.122367
O O6 0.530627 0.737074 0.248103
O O7 0.500000 0.691695 0.000000
O O8 0.500000 0.782793 0.500000
O O9 0.402616 0.787712 0.549183
O O10 0.460632 0.000000 0.651508
O O11 0.801461 0.735416 0.464944
O O12 0.833693 0.000000 0.463745
O O13 0.250000 0.500000 0.982994
O O14 0.250000 0.332739 0.761928
O O15 0.250000 0.500000 0.537608
#
# Coordination Sequence:
#
# PCOD8210329 Si02
#       6
#     8   8   8   8   4   4
#     4   9  16  26  41  61  86 117 152 188 227 272
#     4  10  20  32  46  67  95 125 157 192 232 278
#     4   9  18  32  49  69  92 119 153 191 231 276
#     4   8  14  24  38  57  83 112 140 175 219 264
#     4   9  15  23  37  59  88 117 144 181 230 278
#     4   9  15  21  33  55  82 111 142 175 212 258
#
# _framework density 17.470832000000001
#
# number of rings (size 3 to 8) (size 9 to 14) (size 15 to 20)
#    0.000    3.000    0.000    3.000    0.000    9.200 
#    0.000    0.000    0.000    0.000    0.000    1.400 
#    0.000    4.800    0.000    0.000    0.000    0.000 
#
# Total GULP energy -495824.623728 kJ/mol
# GULP energy per Si atom -12395.615593 kJ/mol
# Density = 1.743107 g / cm^3
# Si number density = 17.470832 Si / 1000 Ang^3
#
#
#
# Elastic Constant Matrix: (Units=GPa)
#
#
# Indices 1 2 3 4 5 6 
#
# 1 169.2018 93.3665 38.3831 0.0000 0.0000 0.0000
# 2 93.3665 143.8705 32.8420 0.0000 0.0000 0.0000
# 3 38.3831 32.8420 26.0587 0.0000 0.0000 0.0000
# 4 0.0000 0.0000 0.0000 13.0773 0.0000 0.0000
# 5 0.0000 0.0000 0.0000 0.0000 17.6395 0.0000
# 6 0.0000 0.0000 0.0000 0.0000 0.0000 33.6441
#
#
#
# Elastic Compliance Matrix: (Units=1/GPa)
#
#
# Indices 1 2 3 4 5 6 
#
# 1 0.010763 -0.004725 -0.009898 0.000000 0.000000 0.000000
# 2 -0.004725 0.011833 -0.007953 0.000000 0.000000 0.000000
# 3 -0.009898 -0.007953 0.062976 0.000000 0.000000 0.000000
# 4 0.000000 0.000000 0.000000 0.076468 0.000000 0.000000
# 5 0.000000 0.000000 0.000000 0.000000 0.056691 0.000000
# 6 0.000000 0.000000 0.000000 0.000000 0.000000 0.029723
#
#
# Mechanical properties :
#
#
# Convention : Reuss Voigt Hill
#
# Bulk Modulus (GPa) = 24.73990 74.25712 49.49851
# Shear Modulus (GPa) = 16.28246 24.50814 20.39530
#
# Velocity S-wave (km/s) = 3.05615 3.74946 3.42042
# Velocity P-wave (km/s) = 5.16186 7.83201 6.63269
#
# Compressibility (1/GPa) = 0.04042053
#
# Stress axis : x y z
#
# Youngs Moduli (GPa) = 92.91256 84.51235 15.87894
#
# Poissons Ratio (x) = 0.39934 0.15717
# Poissons Ratio (y) = 0.43903 0.12628
# Poissons Ratio (z) = 0.91963 0.67210
#
# Static dielectric constant tensor:
#      x y z
#    x 3.643940 0.000000 0.000000 
#    y 0.000000 3.478920 0.000000 
#    z 0.000000 0.000000 2.540020 
# 
# 
# High freq. dielectric constant tensor:
#      x y z
#    x 1.696900 0.000000 0.000000 
#    y 0.000000 1.687420 0.000000 
#    z 0.000000 0.000000 1.591440 
# 
# From -- ./inp_files/12221.got.cif
#   From: 2010.03.12/outbox.cif.g09.slc.cpg/sg51_7_cif.got.tgz:12221.got - 2010.04.16 13:43:02.
