data_PCOD8210585
_publ_section_title
;
Structure prediction by ZEFSAII (Michael W. Deem and Ramdas Pophale) SiO2 
 PCOD8210585
Probable space group: P M M A
;
_chemical_formula_sum "Si O2"
_cell_formula_units_Z 64
_cell_length_a 8.939565
_cell_length_b 24.443891
_cell_length_c 15.144788
_cell_angle_alpha 90.000000
_cell_angle_beta 90.000000
_cell_angle_gamma 90.000000
_cell_volume 3309.405035
_symmetry_space_group_name_H-M "P M M A"
_symmetry_group_IT_number 51
_symmetry_cell_setting 'orthorhombic'
loop_
_space_group_symop_operation_xyz
x,y,z
1/2-x,-y,z
1/2+x,-y,-z
-x,y,-z
-x,-y,-z
1/2+x,y,-z
1/2-x,y,z
x,-y,z
loop_
_atom_site_type_symbol
_atom_site_label
_atom_site_fract_x
_atom_site_fract_y
_atom_site_fract_z
Si Si1 0.424190 0.063728 0.590279
Si Si2 0.573713 0.363156 0.409290
Si Si3 0.418582 0.252638 0.675488
Si Si4 0.926343 0.145104 0.719062
Si Si5 0.075417 0.173707 0.085996
Si Si6 0.426191 0.404742 0.911250
Si Si7 0.578572 0.562106 0.735187
Si Si8 0.418276 0.718916 0.874075
O O1 0.500000 0.084683 0.500000
O O2 0.250000 0.076964 0.583831
O O3 0.493890 0.093873 0.674308
O O4 0.456551 0.000000 0.604579
O O5 0.500000 0.382634 0.500000
O O6 0.750000 0.373017 0.412419
O O7 0.536239 0.298829 0.395302
O O8 0.508088 0.399144 0.331352
O O9 0.250000 0.231166 0.659268
O O10 0.528586 0.200886 0.668706
O O11 0.431561 0.282646 0.768915
O O12 0.750000 0.137810 0.711946
O O13 0.980056 0.146986 0.821645
O O14 0.250000 0.166414 0.076390
O O15 0.033596 0.237761 0.085187
O O16 0.000000 0.145052 0.000000
O O17 0.250000 0.416300 0.909959
O O18 0.501686 0.435517 0.830266
O O19 0.462951 0.340380 0.908244
O O20 0.500000 0.428732 0.000000
O O21 0.750000 0.581785 0.742645
O O22 0.569426 0.500000 0.700393
O O23 0.250000 0.735616 0.902677
#
# Coordination Sequence:
#
# PCOD8210585 Si02
#       8
#     8   8   8   8   8   8   8   8
#     4  10  21  38  61  87 115 151 194 241 292 342
#     4  11  23  41  64  90 116 148 187 231 286 345
#     4   9  18  35  56  81 116 153 188 228 278 335
#     4  10  21  35  55  86 120 156 196 237 286 338
#     4  10  20  32  49  78 114 155 196 235 280 330
#     4  11  22  37  58  86 115 148 187 230 283 342
#     4  11  25  44  64  85 110 144 187 237 290 344
#     4   9  17  32  53  78 109 146 186 227 274 329
#
# _framework density 19.338823999999999
#
# number of rings (size 3 to 8) (size 9 to 14) (size 15 to 20)
#    0.000    1.875    1.250    2.625    0.000    7.250 
#    0.000    1.250    0.000    0.375    0.000    0.000 
#    0.000    0.000    0.000    0.000    0.000    0.000 
#
# Total GULP energy -793742.655838 kJ/mol
# GULP energy per Si atom -12402.228997 kJ/mol
# Density = 1.929481 g / cm^3
# Si number density = 19.338824 Si / 1000 Ang^3
#
#
#
# Elastic Constant Matrix: (Units=GPa)
#
#
# Indices 1 2 3 4 5 6 
#
# 1 111.1707 47.3078 55.8522 0.0000 0.0000 0.0000
# 2 47.3078 66.3713 44.5627 0.0000 0.0000 0.0000
# 3 55.8522 44.5627 114.7832 0.0000 0.0000 0.0000
# 4 0.0000 0.0000 0.0000 6.5180 0.0000 0.0000
# 5 0.0000 0.0000 0.0000 0.0000 37.0443 0.0000
# 6 0.0000 0.0000 0.0000 0.0000 0.0000 29.0276
#
#
#
# Elastic Compliance Matrix: (Units=1/GPa)
#
#
# Indices 1 2 3 4 5 6 
#
# 1 0.014162 -0.007395 -0.004020 0.000000 0.000000 0.000000
# 2 -0.007395 0.024240 -0.005813 0.000000 0.000000 0.000000
# 3 -0.004020 -0.005813 0.012925 0.000000 0.000000 0.000000
# 4 0.000000 0.000000 0.000000 0.153421 0.000000 0.000000
# 5 0.000000 0.000000 0.000000 0.000000 0.026995 0.000000
# 6 0.000000 0.000000 0.000000 0.000000 0.000000 0.034450
#
#
# Mechanical properties :
#
#
# Convention : Reuss Voigt Hill
#
# Bulk Modulus (GPa) = 59.27066 65.30783 62.28925
# Shear Modulus (GPa) = 16.32540 24.15817 20.24178
#
# Velocity S-wave (km/s) = 2.90863 3.53824 3.23877
# Velocity P-wave (km/s) = 6.48037 7.10886 6.80188
#
# Compressibility (1/GPa) = 0.01687175
#
# Stress axis : x y z
#
# Youngs Moduli (GPa) = 70.61309 41.25341 77.37090
#
# Poissons Ratio (x) = 0.30507 0.31102
# Poissons Ratio (y) = 0.52219 0.44972
# Poissons Ratio (z) = 0.28386 0.23979
#
# Static dielectric constant tensor:
#      x y z
#    x 3.581590 0.000000 0.000000 
#    y 0.000000 3.286320 0.000000 
#    z 0.000000 0.000000 3.651050 
# 
# 
# High freq. dielectric constant tensor:
#      x y z
#    x 1.762430 0.000000 0.000000 
#    y 0.000000 1.728650 0.000000 
#    z 0.000000 0.000000 1.760680 
# 
# From -- ./inp_files/22289.got.cif
#   From: 2010.03.12/outbox.cif.g09.slc.cpg/sg51_12_cif.got.tgz:22289.got - 2010.04.16 13:43:02.
