data_PCOD8210293
_publ_section_title
;
Structure prediction by ZEFSAII (Michael W. Deem and Ramdas Pophale) SiO2 
 PCOD8210293
Probable space group: P M M A
;
_chemical_formula_sum "Si O2"
_cell_formula_units_Z 64
_cell_length_a 8.798016
_cell_length_b 19.247110
_cell_length_c 23.521662
_cell_angle_alpha 90.000000
_cell_angle_beta 90.000000
_cell_angle_gamma 90.000000
_cell_volume 3983.073135
_symmetry_space_group_name_H-M "P M M A"
_symmetry_group_IT_number 51
_symmetry_cell_setting 'orthorhombic'
loop_
_space_group_symop_operation_xyz
x,y,z
1/2-x,-y,z
1/2+x,-y,-z
-x,y,-z
-x,-y,-z
1/2+x,y,-z
1/2-x,y,z
x,-y,z
loop_
_atom_site_type_symbol
_atom_site_label
_atom_site_fract_x
_atom_site_fract_y
_atom_site_fract_z
Si Si1 0.429668 0.925579 0.256140
Si Si2 0.927622 0.579614 0.719545
Si Si3 0.071858 0.578516 0.941790
Si Si4 0.424749 0.351581 0.162651
Si Si5 0.430184 0.076006 0.384264
Si Si6 0.572592 0.222274 0.767418
Si Si7 0.569322 0.784392 0.560120
Si Si8 0.428717 0.704072 0.661853
O O1 0.250000 0.931043 0.258297
O O2 0.491797 0.914435 0.320072
O O3 0.475848 0.857823 0.218713
O O4 0.493251 0.000000 0.231828
O O5 0.750000 0.593753 0.709434
O O6 0.972316 0.500000 0.709869
O O7 0.970642 0.600819 0.783845
O O8 0.022735 0.624837 0.674828
O O9 0.250000 0.580225 0.949337
O O10 0.013730 0.500000 0.929402
O O11 0.026870 0.628764 0.890607
O O12 0.000000 0.607037 0.000000
O O13 0.250000 0.363504 0.146037
O O14 0.457757 0.270686 0.177886
O O15 0.250000 0.080021 0.383515
O O16 0.493522 0.138677 0.422878
O O17 0.483217 0.000000 0.407698
O O18 0.750000 0.227333 0.749810
O O19 0.475518 0.247277 0.714108
O O20 0.500000 0.763450 0.500000
O O21 0.750000 0.782734 0.556980
O O22 0.513815 0.727872 0.605231
O O23 0.250000 0.708224 0.652085
#
# Coordination Sequence:
#
# PCOD8210293 Si02
#       8
#     8   8   8   8   8   8   8   8
#     4   8  12  21  42  68  89 115 153 190 225 268
#     4   9  18  33  53  74  95 121 150 183 226 272
#     4  10  20  32  46  64  90 126 164 197 228 263
#     4   9  17  28  45  69  97 125 155 188 223 265
#     4   8  14  25  44  67  88 114 148 186 225 266
#     4   9  16  29  47  67  92 124 156 190 231 272
#     4  11  21  34  50  66  88 116 150 189 228 275
#     4  11  21  32  47  68  93 119 149 184 226 274
#
# _framework density 16.067993999999999
#
# number of rings (size 3 to 8) (size 9 to 14) (size 15 to 20)
#    0.000    2.625    1.250    3.750    0.000    3.750 
#    0.000    0.000    0.000    2.625    0.000    0.000 
#    0.000    0.500    0.000    0.875    0.000    1.250 
#
# Total GULP energy -793219.601627 kJ/mol
# GULP energy per Si atom -12394.056275 kJ/mol
# Density = 1.603142 g / cm^3
# Si number density = 16.067994 Si / 1000 Ang^3
#
#
#
# Elastic Constant Matrix: (Units=GPa)
#
#
# Indices 1 2 3 4 5 6 
#
# 1 53.0639 30.1576 30.9767 0.0000 0.0000 0.0000
# 2 30.1576 132.1459 52.6443 0.0000 0.0000 0.0000
# 3 30.9767 52.6443 85.2926 0.0000 0.0000 0.0000
# 4 0.0000 0.0000 0.0000 18.7281 0.0000 0.0000
# 5 0.0000 0.0000 0.0000 0.0000 24.0291 0.0000
# 6 0.0000 0.0000 0.0000 0.0000 0.0000 10.5471
#
#
#
# Elastic Compliance Matrix: (Units=1/GPa)
#
#
# Indices 1 2 3 4 5 6 
#
# 1 0.024636 -0.002729 -0.007263 0.000000 0.000000 0.000000
# 2 -0.002729 0.010337 -0.005389 0.000000 0.000000 0.000000
# 3 -0.007263 -0.005389 0.017688 0.000000 0.000000 0.000000
# 4 0.000000 0.000000 0.000000 0.053396 0.000000 0.000000
# 5 0.000000 0.000000 0.000000 0.000000 0.041616 0.000000
# 6 0.000000 0.000000 0.000000 0.000000 0.000000 0.094813
#
#
# Mechanical properties :
#
#
# Convention : Reuss Voigt Hill
#
# Bulk Modulus (GPa) = 45.66341 55.33996 50.50168
# Shear Modulus (GPa) = 17.82224 21.10912 19.46568
#
# Velocity S-wave (km/s) = 3.33404 3.62848 3.48437
# Velocity P-wave (km/s) = 6.58040 7.21598 6.90551
#
# Compressibility (1/GPa) = 0.02189937
#
# Stress axis : x y z
#
# Youngs Moduli (GPa) = 40.59111 96.73889 56.53404
#
# Poissons Ratio (x) = 0.26398 0.41061
# Poissons Ratio (y) = 0.11077 0.30467
# Poissons Ratio (z) = 0.29481 0.52134
#
# Static dielectric constant tensor:
#      x y z
#    x 2.808950 0.000000 0.000000 
#    y 0.000000 3.450220 0.000000 
#    z 0.000000 0.000000 2.779600 
# 
# 
# High freq. dielectric constant tensor:
#      x y z
#    x 1.599250 0.000000 0.000000 
#    y 0.000000 1.624370 0.000000 
#    z 0.000000 0.000000 1.580600 
# 
# From -- ./inp_files/32627.got.cif
#   From: 2010.03.12/outbox.cif.g09.slc.cpg/sg51_17_cif.got.tgz:32627.got - 2010.04.16 13:43:02.
