data_PCOD8210634
_publ_section_title
;
Structure prediction by ZEFSAII (Michael W. Deem and Ramdas Pophale) SiO2 
 PCOD8210634
Probable space group: P M M A
;
_chemical_formula_sum "Si O2"
_cell_formula_units_Z 64
_cell_length_a 30.493926
_cell_length_b 15.595019
_cell_length_c 6.602223
_cell_angle_alpha 90.000000
_cell_angle_beta 90.000000
_cell_angle_gamma 90.000000
_cell_volume 3139.709300
_symmetry_space_group_name_H-M "P M M A"
_symmetry_group_IT_number 51
_symmetry_cell_setting 'orthorhombic'
loop_
_space_group_symop_operation_xyz
x,y,z
1/2-x,-y,z
1/2+x,-y,-z
-x,y,-z
-x,-y,-z
1/2+x,y,-z
1/2-x,y,z
x,-y,z
loop_
_atom_site_type_symbol
_atom_site_label
_atom_site_fract_x
_atom_site_fract_y
_atom_site_fract_z
Si Si1 0.369441 0.905862 0.226124
Si Si2 0.201466 0.245468 0.294344
Si Si3 0.404712 0.594009 0.344594
Si Si4 0.098397 0.816801 0.868038
Si Si5 0.546097 0.137738 0.518970
Si Si6 0.845779 0.685641 0.345438
Si Si7 0.825491 0.595230 0.953500
Si Si8 0.538276 0.279229 0.840182
O O1 0.334974 0.829201 0.268744
O O2 0.412301 0.905541 0.372134
O O3 0.347527 0.000000 0.255705
O O4 0.384971 0.900120 0.991643
O O5 0.250000 0.203823 0.286064
O O6 0.194894 0.290761 0.511301
O O7 0.201145 0.322916 0.130838
O O8 0.412639 0.500000 0.435444
O O9 0.387252 0.655314 0.521879
O O10 0.371708 0.591814 0.157342
O O11 0.450670 0.629149 0.259265
O O12 0.060819 0.839415 0.708520
O O13 0.140296 0.772506 0.766964
O O14 0.081083 0.752851 0.040909
O O15 0.500000 0.082714 0.500000
O O16 0.528399 0.217045 0.652969
O O17 0.831732 0.610472 0.193267
O O18 0.802909 0.500000 0.927465
O O19 0.500000 0.289262 0.000000
#
# Coordination Sequence:
#
# PCOD8210634 Si02
#       8
#     8   8   8   8   8   8   8   8
#     4  11  25  43  65  95 125 160 209 259 315 383
#     4  11  24  42  65  93 126 164 208 257 312 377
#     4  10  20  32  51  84 121 160 210 260 307 364
#     4  11  19  38  63  88 116 158 208 251 302 368
#     4  11  21  38  65  92 122 161 203 256 315 370
#     4  11  18  38  64  87 116 162 213 252 304 371
#     4  10  20  37  62  90 123 160 200 254 313 366
#     4  11  20  31  55  84 118 164 213 253 305 373
#
# _framework density 20.384053999999999
#
# number of rings (size 3 to 8) (size 9 to 14) (size 15 to 20)
#    0.000    1.250    6.250    1.875    0.000    2.500 
#    0.000    0.625    0.000    1.125    0.000    0.000 
#    0.000    0.000    0.000    0.000    0.000    0.000 
#
# Total GULP energy -792956.009281 kJ/mol
# GULP energy per Si atom -12389.937645 kJ/mol
# Density = 2.033766 g / cm^3
# Si number density = 20.384054 Si / 1000 Ang^3
#
#
#
# Elastic Constant Matrix: (Units=GPa)
#
#
# Indices 1 2 3 4 5 6 
#
# 1 90.0758 41.7158 25.6279 0.0000 0.0000 0.0000
# 2 41.7158 118.0934 32.5339 0.0000 0.0000 0.0000
# 3 25.6279 32.5339 113.7767 0.0000 0.0000 0.0000
# 4 0.0000 0.0000 0.0000 12.8538 0.0000 0.0000
# 5 0.0000 0.0000 0.0000 0.0000 9.9487 0.0000
# 6 0.0000 0.0000 0.0000 0.0000 0.0000 3.9403
#
#
#
# Elastic Compliance Matrix: (Units=1/GPa)
#
#
# Indices 1 2 3 4 5 6 
#
# 1 0.013618 -0.004304 -0.001837 0.000000 0.000000 0.000000
# 2 -0.004304 0.010553 -0.002048 0.000000 0.000000 0.000000
# 3 -0.001837 -0.002048 0.009788 0.000000 0.000000 0.000000
# 4 0.000000 0.000000 0.000000 0.077798 0.000000 0.000000
# 5 0.000000 0.000000 0.000000 0.000000 0.100515 0.000000
# 6 0.000000 0.000000 0.000000 0.000000 0.000000 0.253788
#
#
# Mechanical properties :
#
#
# Convention : Reuss Voigt Hill
#
# Bulk Modulus (GPa) = 56.87961 57.96681 57.42321
# Shear Modulus (GPa) = 10.23965 20.15312 15.19638
#
# Velocity S-wave (km/s) = 2.24372 3.14772 2.73335
# Velocity P-wave (km/s) = 5.88871 6.45832 6.18008
#
# Compressibility (1/GPa) = 0.01758099
#
# Stress axis : x y z
#
# Youngs Moduli (GPa) = 73.43358 94.76357 102.16172
#
# Poissons Ratio (x) = 0.40790 0.18762
# Poissons Ratio (y) = 0.31609 0.20922
# Poissons Ratio (z) = 0.13486 0.19407
#
# Static dielectric constant tensor:
#      x y z
#    x 3.444900 0.000000 0.000000 
#    y 0.000000 3.644120 0.000000 
#    z 0.000000 0.000000 3.946060 
# 
# 
# High freq. dielectric constant tensor:
#      x y z
#    x 1.773610 0.000000 0.000000 
#    y 0.000000 1.780970 0.000000 
#    z 0.000000 0.000000 1.812860 
# 
# From -- ./inp_files/4091.got.cif
#   From: 2010.03.12/outbox.cif.g09.slc.cpg/sg51_3_cif.got.tgz:4091.got - 2010.04.16 13:43:02.
