data_PCOD8210034
_publ_section_title
;
Structure prediction by ZEFSAII (Michael W. Deem and Ramdas Pophale) SiO2 
 PCOD8210034
Probable space group: P M M A
;
_chemical_formula_sum "Si O2"
_cell_formula_units_Z 40
_cell_length_a 14.438540
_cell_length_b 8.707981
_cell_length_c 17.320164
_cell_angle_alpha 90.000000
_cell_angle_beta 90.000000
_cell_angle_gamma 90.000000
_cell_volume 2177.673434
_symmetry_space_group_name_H-M "P M M A"
_symmetry_group_IT_number 51
_symmetry_cell_setting 'orthorhombic'
loop_
_space_group_symop_operation_xyz
x,y,z
1/2-x,-y,z
1/2+x,-y,-z
-x,y,-z
-x,-y,-z
1/2+x,y,-z
1/2-x,y,z
x,-y,z
loop_
_atom_site_type_symbol
_atom_site_label
_atom_site_fract_x
_atom_site_fract_y
_atom_site_fract_z
Si Si1 0.250000 0.181529 0.478521
Si Si2 0.250000 0.818059 0.651716
Si Si3 0.013253 0.317744 0.879736
Si Si4 0.553744 0.820970 0.578603
Si Si5 0.936723 0.319122 0.288659
Si Si6 0.353320 0.682886 0.012351
O O1 0.250000 0.251460 0.564891
O O2 0.159484 0.234675 0.431829
O O3 0.250000 0.000000 0.487868
O O4 0.339857 0.762072 0.696315
O O5 0.250000 0.000000 0.649074
O O6 0.012933 0.500000 0.879852
O O7 0.025380 0.255523 0.793052
O O8 0.915423 0.259301 0.915194
O O9 0.098414 0.259898 0.933092
O O10 0.500000 0.786253 0.500000
O O11 0.511750 0.721119 0.646821
O O12 0.546012 0.000000 0.600074
O O13 0.920289 0.500000 0.286776
O O14 0.250000 0.753660 0.018454
O O15 0.348127 0.500000 0.012549
#
# Coordination Sequence:
#
# PCOD8210034 Si02
#       6
#     4   4   8   8   8   8
#     4   9  18  35  57  75  92 131 188 230 249 287
#     4  11  21  37  57  77 100 137 184 218 255 317
#     4   8  16  28  42  69 105 133 163 206 259 311
#     4  10  19  36  58  75  99 140 187 221 250 307
#     4  11  22  34  50  81 116 136 161 221 284 314
#     4   8  13  25  46  66  93 138 177 201 239 310
#
# _framework density 18.368227999999998
#
# number of rings (size 3 to 8) (size 9 to 14) (size 15 to 20)
#    0.000    2.600    2.000    2.100    1.400    0.400 
#    1.800    0.500    0.000    0.000    0.000   11.200 
#    0.000    0.000    0.000    0.000    0.000    0.000 
#
# Total GULP energy -495877.492845 kJ/mol
# GULP energy per Si atom -12396.937321 kJ/mol
# Density = 1.832642 g / cm^3
# Si number density = 18.368228 Si / 1000 Ang^3
#
#
#
# Elastic Constant Matrix: (Units=GPa)
#
#
# Indices 1 2 3 4 5 6 
#
# 1 181.7410 20.3434 77.6672 0.0000 0.0000 0.0000
# 2 20.3434 29.9265 26.1867 0.0000 0.0000 0.0000
# 3 77.6672 26.1867 144.1060 0.0000 0.0000 0.0000
# 4 0.0000 0.0000 0.0000 -2.3311 0.0000 0.0000
# 5 0.0000 0.0000 0.0000 0.0000 18.6947 0.0000
# 6 0.0000 0.0000 0.0000 0.0000 0.0000 21.2538
#
#
#
# Elastic Compliance Matrix: (Units=1/GPa)
#
#
# Indices 1 2 3 4 5 6 
#
# 1 0.007229 -0.001789 -0.003571 0.000000 0.000000 0.000000
# 2 -0.001789 0.040176 -0.006336 0.000000 0.000000 0.000000
# 3 -0.003571 -0.006336 0.010015 0.000000 0.000000 0.000000
# 4 0.000000 0.000000 0.000000 -0.428982 0.000000 0.000000
# 5 0.000000 0.000000 0.000000 0.000000 0.053491 0.000000
# 6 0.000000 0.000000 0.000000 0.000000 0.000000 0.047050
#
#
# Mechanical properties :
#
#
# Convention : Reuss Voigt Hill
#
# Bulk Modulus (GPa) = 29.38836 67.12978 48.25907
# Shear Modulus (GPa) = -21.16080 22.96191 0.90055
#
# Velocity S-wave (km/s) = -3.39784 3.53949 0.70096
# Velocity P-wave (km/s) = 0.80032 7.30274 5.19474
#
# Compressibility (1/GPa) = 0.03402708
#
# Stress axis : x y z
#
# Youngs Moduli (GPa) = 138.33945 24.89044 99.84758
#
# Poissons Ratio (x) = 0.04454 0.35653
# Poissons Ratio (y) = 0.24753 0.63267
# Poissons Ratio (z) = 0.49398 0.15771
#
# Static dielectric constant tensor:
#      x y z
#    x 7.783320 0.000000 0.000000 
#    y 0.000000 2.891860 0.000000 
#    z 0.000000 0.000000 3.605650 
# 
# 
# High freq. dielectric constant tensor:
#      x y z
#    x 1.726120 0.000000 0.000000 
#    y 0.000000 1.663210 0.000000 
#    z 0.000000 0.000000 1.713940 
# 
# From -- ./inp_files/23737.got.cif
#   From: 2010.03.12/outbox.cif.g09.slc.cpg/sg51_12_cif.got.tgz:23737.got - 2010.04.16 13:43:02.
