data_PCOD8210756
_publ_section_title
;
Structure prediction by ZEFSAII (Michael W. Deem and Ramdas Pophale) SiO2 
 PCOD8210756
Probable space group: P M M A
;
_chemical_formula_sum "Si O2"
_cell_formula_units_Z 56
_cell_length_a 18.695336
_cell_length_b 9.011149
_cell_length_c 18.316003
_cell_angle_alpha 90.000000
_cell_angle_beta 90.000000
_cell_angle_gamma 90.000000
_cell_volume 3085.632156
_symmetry_space_group_name_H-M "P M M A"
_symmetry_group_IT_number 51
_symmetry_cell_setting 'orthorhombic'
loop_
_space_group_symop_operation_xyz
x,y,z
1/2-x,-y,z
1/2+x,-y,-z
-x,y,-z
-x,-y,-z
1/2+x,y,-z
1/2-x,y,z
x,-y,z
loop_
_atom_site_type_symbol
_atom_site_label
_atom_site_fract_x
_atom_site_fract_y
_atom_site_fract_z
Si Si1 0.924933 0.174872 0.346102
Si Si2 0.664512 0.666660 0.912404
Si Si3 0.828165 0.324263 0.068431
Si Si4 0.923399 0.675022 0.648387
Si Si5 0.915337 0.163261 0.505211
Si Si6 0.164761 0.330562 0.773689
Si Si7 0.834777 0.831151 0.769965
O O1 0.889772 0.217605 0.424906
O O2 0.869081 0.220921 0.284717
O O3 0.999819 0.256364 0.333456
O O4 0.939731 0.000000 0.342792
O O5 0.750000 0.667596 0.917904
O O6 0.637572 0.500000 0.894493
O O7 0.637290 0.775621 0.848938
O O8 0.633076 0.721998 0.991841
O O9 0.750000 0.248817 0.069770
O O10 0.818720 0.500000 0.066436
O O11 0.866178 0.283288 0.145603
O O12 0.930009 0.500000 0.649867
O O13 0.893097 0.723694 0.568918
O O14 0.867032 0.727644 0.707992
O O15 0.000000 0.152021 0.500000
O O16 0.883557 0.000000 0.523713
O O17 0.250000 0.313273 0.772464
O O18 0.143031 0.500000 0.755524
O O19 0.750000 0.816231 0.765181
O O20 0.860223 0.000000 0.759158
#
# Coordination Sequence:
#
# PCOD8210756 Si02
#       7
#     8   8   8   8   8   8   8
#     4  10  20  34  52  73  99 130 162 196 239 291
#     4   8  13  24  44  68  93 123 161 199 233 276
#     4   7  11  22  42  67  94 125 159 196 237 278
#     4  11  21  33  53  76  96 122 160 203 242 283
#     4   8  16  32  51  70  94 125 159 195 237 287
#     4   9  17  30  49  74 103 132 164 202 241 281
#     4  10  20  33  49  71 101 132 159 193 241 291
#
# _framework density 18.148631000000002
#
# number of rings (size 3 to 8) (size 9 to 14) (size 15 to 20)
#    0.000    3.000    0.000    4.714    0.000    4.286 
#    0.000    1.429    0.000    4.286    0.000    6.000 
#    0.000    0.000    0.000    0.000    0.000    0.000 
#
# Total GULP energy -693780.250569 kJ/mol
# GULP energy per Si atom -12388.933046 kJ/mol
# Density = 1.810732 g / cm^3
# Si number density = 18.148631 Si / 1000 Ang^3
#
#
#
# Elastic Constant Matrix: (Units=GPa)
#
#
# Indices 1 2 3 4 5 6 
#
# 1 22.6559 24.2109 33.1741 0.0000 0.0000 0.0000
# 2 24.2109 98.3339 66.2277 0.0000 0.0000 0.0000
# 3 33.1741 66.2277 176.2441 0.0000 0.0000 0.0000
# 4 0.0000 0.0000 0.0000 19.7970 0.0000 0.0000
# 5 0.0000 0.0000 0.0000 0.0000 -81.5471 0.0000
# 6 0.0000 0.0000 0.0000 0.0000 0.0000 21.3359
#
#
#
# Elastic Compliance Matrix: (Units=1/GPa)
#
#
# Indices 1 2 3 4 5 6 
#
# 1 0.068807 -0.011003 -0.008817 0.000000 0.000000 0.000000
# 2 -0.011003 0.015375 -0.003706 0.000000 0.000000 0.000000
# 3 -0.008817 -0.003706 0.008726 0.000000 0.000000 0.000000
# 4 0.000000 0.000000 0.000000 0.050513 0.000000 0.000000
# 5 0.000000 0.000000 0.000000 0.000000 -0.012263 0.000000
# 6 0.000000 0.000000 0.000000 0.000000 0.000000 0.046869
#
#
# Mechanical properties :
#
#
# Convention : Reuss Voigt Hill
#
# Bulk Modulus (GPa) = 21.80760 60.49546 41.15153
# Shear Modulus (GPa) = 20.80179 3.49191 12.14685
#
# Velocity S-wave (km/s) = 3.38922 1.38861 2.58989
# Velocity P-wave (km/s) = 5.23048 5.99806 5.62737
#
# Compressibility (1/GPa) = 0.04585558
#
# Stress axis : x y z
#
# Youngs Moduli (GPa) = 14.53349 65.04205 114.59687
#
# Poissons Ratio (x) = 0.71565 1.01037
# Poissons Ratio (y) = 0.15991 0.42473
# Poissons Ratio (z) = 0.12814 0.24107
#
# Static dielectric constant tensor:
#      x y z
#    x 2.788740 0.000000 0.000000 
#    y 0.000000 3.269770 0.000000 
#    z 0.000000 0.000000 4.096080 
# 
# 
# High freq. dielectric constant tensor:
#      x y z
#    x 1.641410 0.000000 0.000000 
#    y 0.000000 1.689110 0.000000 
#    z 0.000000 0.000000 1.731630 
# 
# From -- ./inp_files/25660.got.cif
#   From: 2010.03.12/outbox.cif.g09.slc.cpg/sg51_13_cif.got.tgz:25660.got - 2010.04.16 13:43:02.
