data_PCOD8210280
_publ_section_title
;
Structure prediction by ZEFSAII (Michael W. Deem and Ramdas Pophale) SiO2 
 PCOD8210280
Probable space group: P M M A
;
_chemical_formula_sum "Si O2"
_cell_formula_units_Z 64
_cell_length_a 27.674206
_cell_length_b 8.908234
_cell_length_c 14.778844
_cell_angle_alpha 90.000000
_cell_angle_beta 90.000000
_cell_angle_gamma 90.000000
_cell_volume 3643.403329
_symmetry_space_group_name_H-M "P M M A"
_symmetry_group_IT_number 51
_symmetry_cell_setting 'orthorhombic'
loop_
_space_group_symop_operation_xyz
x,y,z
1/2-x,-y,z
1/2+x,-y,-z
-x,y,-z
-x,-y,-z
1/2+x,y,-z
1/2-x,y,z
x,-y,z
loop_
_atom_site_type_symbol
_atom_site_label
_atom_site_fract_x
_atom_site_fract_y
_atom_site_fract_z
Si Si1 0.420492 0.674221 0.664482
Si Si2 0.303806 0.678328 0.149136
Si Si3 0.580868 0.175434 0.150991
Si Si4 0.609395 0.678275 0.974506
Si Si5 0.468612 0.824537 0.147043
Si Si6 0.610505 0.321640 0.527521
Si Si7 0.696418 0.321380 0.648029
Si Si8 0.967501 0.326512 0.669044
O O1 0.409531 0.500000 0.683133
O O2 0.402399 0.768232 0.750421
O O3 0.392653 0.736479 0.575736
O O4 0.476927 0.700156 0.645202
O O5 0.250000 0.734543 0.120811
O O6 0.304710 0.500000 0.148201
O O7 0.343965 0.740967 0.080009
O O8 0.316066 0.735697 0.250627
O O9 0.524831 0.215413 0.134894
O O10 0.590755 0.000000 0.143824
O O11 0.612909 0.260398 0.076455
O O12 0.608147 0.500000 0.975605
O O13 0.560323 0.738680 0.930371
O O14 0.450748 0.769736 0.244832
O O15 0.458880 0.000000 0.136444
O O16 0.611917 0.500000 0.524788
O O17 0.658255 0.254865 0.576021
O O18 0.563485 0.270188 0.583691
O O19 0.750000 0.266663 0.620012
O O20 0.693935 0.500000 0.647358
O O21 0.956679 0.500000 0.691996
#
# Coordination Sequence:
#
# PCOD8210280 Si02
#       8
#     8   8   8   8   8   8   8   8
#     4   9  17  29  45  65  89 118 154 194 230 265
#     4   8  15  28  46  71 100 122 142 177 228 280
#     4  10  21  35  47  62  91 128 160 192 231 273
#     4  11  20  30  50  74  92 117 155 194 231 274
#     4  10  20  32  45  65  96 129 156 186 227 274
#     4   9  15  24  42  67  92 117 148 187 228 266
#     4   8  13  22  38  63  95 123 141 165 213 275
#     4   9  16  27  44  66  91 119 152 189 228 269
#
# _framework density 17.565994
#
# number of rings (size 3 to 8) (size 9 to 14) (size 15 to 20)
#    0.000    2.750    0.000    3.375    0.000    6.500 
#    0.000    0.625    0.000    5.250    0.000    3.500 
#    0.000    1.000    0.000    0.000    0.000    0.000 
#
# Total GULP energy -793458.252649 kJ/mol
# GULP energy per Si atom -12397.785198 kJ/mol
# Density = 1.752601 g / cm^3
# Si number density = 17.565994 Si / 1000 Ang^3
#
#
#
# Elastic Constant Matrix: (Units=GPa)
#
#
# Indices 1 2 3 4 5 6 
#
# 1 80.8020 22.8038 70.0087 0.0000 0.0000 0.0000
# 2 22.8038 39.1810 34.2678 0.0000 0.0000 0.0000
# 3 70.0087 34.2678 153.8124 0.0000 0.0000 0.0000
# 4 0.0000 0.0000 0.0000 9.0381 0.0000 0.0000
# 5 0.0000 0.0000 0.0000 0.0000 28.5230 0.0000
# 6 0.0000 0.0000 0.0000 0.0000 0.0000 8.6335
#
#
#
# Elastic Compliance Matrix: (Units=1/GPa)
#
#
# Indices 1 2 3 4 5 6 
#
# 1 0.021146 -0.004831 -0.008548 0.000000 0.000000 0.000000
# 2 -0.004831 0.032803 -0.005109 0.000000 0.000000 0.000000
# 3 -0.008548 -0.005109 0.011531 0.000000 0.000000 0.000000
# 4 0.000000 0.000000 0.000000 0.110643 0.000000 0.000000
# 5 0.000000 0.000000 0.000000 0.000000 0.035059 0.000000
# 6 0.000000 0.000000 0.000000 0.000000 0.000000 0.115827
#
#
# Mechanical properties :
#
#
# Convention : Reuss Voigt Hill
#
# Bulk Modulus (GPa) = 35.08494 58.66178 46.87336
# Shear Modulus (GPa) = 13.38735 19.01993 16.20364
#
# Velocity S-wave (km/s) = 2.76364 3.29412 3.04047
# Velocity P-wave (km/s) = 5.49547 6.92357 6.25044
#
# Compressibility (1/GPa) = 0.02850226
#
# Stress axis : x y z
#
# Youngs Moduli (GPa) = 47.29082 30.48520 86.72549
#
# Poissons Ratio (x) = 0.14726 0.74137
# Poissons Ratio (y) = 0.22844 0.44312
# Poissons Ratio (z) = 0.40426 0.15576
#
# Static dielectric constant tensor:
#      x y z
#    x 3.347140 0.000000 0.000000 
#    y 0.000000 2.906670 0.000000 
#    z 0.000000 0.000000 3.499190 
# 
# 
# High freq. dielectric constant tensor:
#      x y z
#    x 1.659390 0.000000 0.000000 
#    y 0.000000 1.641660 0.000000 
#    z 0.000000 0.000000 1.684850 
# 
# From -- ./inp_files/26664.got.cif
#   From: 2010.03.12/outbox.cif.g09.slc.cpg/sg51_14_cif.got.tgz:26664.got - 2010.04.16 13:43:02.
