data_PCOD8210306
_publ_section_title
;
Structure prediction by ZEFSAII (Michael W. Deem and Ramdas Pophale) SiO2 
 PCOD8210306
Probable space group: P M M A
;
_chemical_formula_sum "Si O2"
_cell_formula_units_Z 64
_cell_length_a 18.609599
_cell_length_b 9.273692
_cell_length_c 21.571070
_cell_angle_alpha 90.000000
_cell_angle_beta 90.000000
_cell_angle_gamma 90.000000
_cell_volume 3722.728560
_symmetry_space_group_name_H-M "P M M A"
_symmetry_group_IT_number 51
_symmetry_cell_setting 'orthorhombic'
loop_
_space_group_symop_operation_xyz
x,y,z
1/2-x,-y,z
1/2+x,-y,-z
-x,y,-z
-x,-y,-z
1/2+x,y,-z
1/2-x,y,z
x,-y,z
loop_
_atom_site_type_symbol
_atom_site_label
_atom_site_fract_x
_atom_site_fract_y
_atom_site_fract_z
Si Si1 0.830790 0.829929 0.265802
Si Si2 0.828290 0.829205 0.875585
Si Si3 0.106921 0.169509 0.254181
Si Si4 0.580933 0.328475 0.506742
Si Si5 0.333220 0.335035 0.611062
Si Si6 0.528888 0.827635 0.935395
Si Si7 0.666797 0.329515 0.626815
Si Si8 0.963515 0.170473 0.189942
O O1 0.750000 0.783513 0.246531
O O2 0.854582 0.757882 0.329644
O O3 0.885544 0.775025 0.212765
O O4 0.836402 0.000000 0.275275
O O5 0.750000 0.765420 0.894102
O O6 0.845399 0.785591 0.805017
O O7 0.889555 0.772178 0.922864
O O8 0.827333 0.000000 0.879815
O O9 0.135407 0.256463 0.312349
O O10 0.024846 0.216436 0.239142
O O11 0.112966 0.000000 0.268330
O O12 0.500000 0.268628 0.500000
O O13 0.581934 0.500000 0.507834
O O14 0.623912 0.271332 0.447160
O O15 0.620133 0.271297 0.568689
O O16 0.250000 0.320590 0.594589
O O17 0.354452 0.500000 0.624912
O O18 0.479175 0.768663 0.879030
O O19 0.527105 0.000000 0.937586
O O20 0.500000 0.762094 0.000000
O O21 0.750000 0.286234 0.616882
O O22 0.658755 0.500000 0.634269
O O23 0.965369 0.000000 0.184870
#
# Coordination Sequence:
#
# PCOD8210306 Si02
#       8
#     8   8   8   8   8   8   8   8
#     4   9  17  29  45  64  88 117 144 174 219 267
#     4   8  13  22  37  57  80 107 141 177 210 247
#     4   9  17  29  46  65  86 116 148 176 211 258
#     4   9  18  31  46  63  84 113 144 174 214 263
#     4   9  17  30  48  66  83 108 144 182 215 252
#     4   8  13  22  36  55  82 115 145 172 207 250
#     4  10  20  32  46  66  91 114 138 176 223 262
#     4   8  15  27  42  61  87 117 146 177 214 256
#
# _framework density 17.191690999999999
#
# number of rings (size 3 to 8) (size 9 to 14) (size 15 to 20)
#    0.000    3.250    0.000    2.250    1.750    2.250 
#    0.000    1.250    0.000    6.000    0.000    0.000 
#    0.000   12.500    0.000   14.750    0.000   13.000 
#
# Total GULP energy -793175.344415 kJ/mol
# GULP energy per Si atom -12393.364756 kJ/mol
# Density = 1.715256 g / cm^3
# Si number density = 17.191691 Si / 1000 Ang^3
#
#
#
# Elastic Constant Matrix: (Units=GPa)
#
#
# Indices 1 2 3 4 5 6 
#
# 1 149.2874 20.2317 105.0969 0.0000 0.0000 0.0000
# 2 20.2317 12.5362 21.5804 0.0000 0.0000 0.0000
# 3 105.0969 21.5804 148.4336 0.0000 0.0000 0.0000
# 4 0.0000 0.0000 0.0000 -34.8265 0.0000 0.0000
# 5 0.0000 0.0000 0.0000 0.0000 28.9196 0.0000
# 6 0.0000 0.0000 0.0000 0.0000 0.0000 13.2961
#
#
#
# Elastic Compliance Matrix: (Units=1/GPa)
#
#
# Indices 1 2 3 4 5 6 
#
# 1 0.013838 -0.007291 -0.008738 0.000000 0.000000 0.000000
# 2 -0.007291 0.110239 -0.010865 0.000000 0.000000 0.000000
# 3 -0.008738 -0.010865 0.014503 0.000000 0.000000 0.000000
# 4 0.000000 0.000000 0.000000 -0.028714 0.000000 0.000000
# 5 0.000000 0.000000 0.000000 0.000000 0.034579 0.000000
# 6 0.000000 0.000000 0.000000 0.000000 0.000000 0.075210
#
#
# Mechanical properties :
#
#
# Convention : Reuss Voigt Hill
#
# Bulk Modulus (GPa) = 11.79349 67.11946 39.45648
# Shear Modulus (GPa) = 16.57240 12.36772 14.47006
#
# Velocity S-wave (km/s) = 3.10817 2.68508 2.90434
# Velocity P-wave (km/s) = 4.44475 6.98136 5.85215
#
# Compressibility (1/GPa) = 0.08479251
#
# Stress axis : x y z
#
# Youngs Moduli (GPa) = 72.26548 9.07122 68.94960
#
# Poissons Ratio (x) = 0.06614 0.60247
# Poissons Ratio (y) = 0.52688 0.74914
# Poissons Ratio (z) = 0.63144 0.09856
#
# Static dielectric constant tensor:
#      x y z
#    x 3.688020 0.000000 0.000000 
#    y 0.000000 2.683000 0.000000 
#    z 0.000000 0.000000 3.358490 
# 
# 
# High freq. dielectric constant tensor:
#      x y z
#    x 1.677820 0.000000 0.000000 
#    y 0.000000 1.604130 0.000000 
#    z 0.000000 0.000000 1.660730 
# 
# From -- ./inp_files/33998.got.cif
#   From: 2010.03.12/outbox.cif.g09.slc.cpg/sg51_17_cif.got.tgz:33998.got - 2010.04.16 13:43:02.
