data_PCOD8210162
_publ_section_title
;
Structure prediction by ZEFSAII (Michael W. Deem and Ramdas Pophale) SiO2 
 PCOD8210162
Probable space group: P M M A
;
_chemical_formula_sum "Si O2"
_cell_formula_units_Z 56
_cell_length_a 9.173653
_cell_length_b 18.537601
_cell_length_c 21.082509
_cell_angle_alpha 90.000000
_cell_angle_beta 90.000000
_cell_angle_gamma 90.000000
_cell_volume 3585.239175
_symmetry_space_group_name_H-M "P M M A"
_symmetry_group_IT_number 51
_symmetry_cell_setting 'orthorhombic'
loop_
_space_group_symop_operation_xyz
x,y,z
1/2-x,-y,z
1/2+x,-y,-z
-x,y,-z
-x,-y,-z
1/2+x,y,-z
1/2-x,y,z
x,-y,z
loop_
_atom_site_type_symbol
_atom_site_label
_atom_site_fract_x
_atom_site_fract_y
_atom_site_fract_z
Si Si1 0.415023 0.655888 0.674966
Si Si2 0.917808 0.703696 0.863047
Si Si3 0.079110 0.841682 0.064444
Si Si4 0.414455 0.781093 0.756757
Si Si5 0.082870 0.919298 0.822555
Si Si6 0.920466 0.582896 0.563933
Si Si7 0.580253 0.580787 0.191575
O O1 0.250000 0.637441 0.653542
O O2 0.433225 0.742637 0.687970
O O3 0.525827 0.633152 0.620707
O O4 0.454386 0.613321 0.739299
O O5 0.750000 0.683173 0.857790
O O6 0.948818 0.756146 0.922859
O O7 0.963567 0.748564 0.801701
O O8 0.006609 0.628595 0.864207
O O9 0.250000 0.858119 0.058899
O O10 0.015811 0.890990 0.120308
O O11 0.000000 0.863901 0.000000
O O12 0.250000 0.760845 0.781237
O O13 0.434373 0.868064 0.759636
O O14 0.250000 0.918109 0.845950
O O15 0.034300 0.000000 0.803273
O O16 0.750000 0.594539 0.554261
O O17 0.958654 0.500000 0.580085
O O18 0.000000 0.607568 0.500000
O O19 0.750000 0.580446 0.177539
O O20 0.516108 0.500000 0.188700
#
# Coordination Sequence:
#
# PCOD8210162 Si02
#       7
#     8   8   8   8   8   8   8
#     4   9  16  27  43  61  84 113 143 174 205 243
#     4   9  17  28  42  61  82 104 134 174 215 250
#     4  10  20  32  46  63  83 110 143 175 208 250
#     4   8  15  28  44  62  85 113 141 169 206 251
#     4   9  17  30  48  68  90 115 141 170 205 247
#     4  10  20  31  42  58  83 116 151 184 216 248
#     4   9  17  28  43  63  85 110 138 169 211 259
#
# _framework density 15.619598999999999
#
# number of rings (size 3 to 8) (size 9 to 14) (size 15 to 20)
#    0.000    2.857    0.000    2.571    0.000    6.286 
#    0.000    0.000    0.000    0.429    0.000    0.000 
#    0.000    0.571    0.000    1.000    0.000    1.429 
#
# Total GULP energy -693880.114566 kJ/mol
# GULP energy per Si atom -12390.716332 kJ/mol
# Density = 1.558405 g / cm^3
# Si number density = 15.619599 Si / 1000 Ang^3
#
#
#
# Elastic Constant Matrix: (Units=GPa)
#
#
# Indices 1 2 3 4 5 6 
#
# 1 60.8381 39.4613 29.2872 0.0000 0.0000 0.0000
# 2 39.4613 126.6412 39.9912 0.0000 0.0000 0.0000
# 3 29.2872 39.9912 47.8552 0.0000 0.0000 0.0000
# 4 0.0000 0.0000 0.0000 18.0215 0.0000 0.0000
# 5 0.0000 0.0000 0.0000 0.0000 23.1804 0.0000
# 6 0.0000 0.0000 0.0000 0.0000 0.0000 20.5254
#
#
#
# Elastic Compliance Matrix: (Units=1/GPa)
#
#
# Indices 1 2 3 4 5 6 
#
# 1 0.024688 -0.003969 -0.011792 0.000000 0.000000 0.000000
# 2 -0.003969 0.011365 -0.007069 0.000000 0.000000 0.000000
# 3 -0.011792 -0.007069 0.034020 0.000000 0.000000 0.000000
# 4 0.000000 0.000000 0.000000 0.055489 0.000000 0.000000
# 5 0.000000 0.000000 0.000000 0.000000 0.043140 0.000000
# 6 0.000000 0.000000 0.000000 0.000000 0.000000 0.048720
#
#
# Mechanical properties :
#
#
# Convention : Reuss Voigt Hill
#
# Bulk Modulus (GPa) = 40.96028 50.31264 45.63646
# Shear Modulus (GPa) = 18.43519 20.78512 19.61015
#
# Velocity S-wave (km/s) = 3.43922 3.65184 3.54712
# Velocity P-wave (km/s) = 6.48472 7.07548 6.78653
#
# Compressibility (1/GPa) = 0.02441389
#
# Stress axis : x y z
#
# Youngs Moduli (GPa) = 40.50514 87.98792 29.39432
#
# Poissons Ratio (x) = 0.34923 0.34663
# Poissons Ratio (y) = 0.16077 0.20777
# Poissons Ratio (z) = 0.47765 0.62195
#
# Static dielectric constant tensor:
#      x y z
#    x 3.011300 0.000000 0.000000 
#    y 0.000000 3.270380 0.000000 
#    z 0.000000 0.000000 2.721710 
# 
# 
# High freq. dielectric constant tensor:
#      x y z
#    x 1.607550 0.000000 0.000000 
#    y 0.000000 1.596060 0.000000 
#    z 0.000000 0.000000 1.555090 
# 
# From -- ./inp_files/32208.got.cif
#   From: 2010.03.12/outbox.cif.g09.slc.cpg/sg51_17_cif.got.tgz:32208.got - 2010.04.16 13:43:02.
