data_PCOD8210941
_publ_section_title
;
Structure prediction by ZEFSAII (Michael W. Deem and Ramdas Pophale) SiO2 
 PCOD8210941
Probable space group: P M M A
;
_chemical_formula_sum "Si O2"
_cell_formula_units_Z 56
_cell_length_a 17.883188
_cell_length_b 9.234954
_cell_length_c 19.140909
_cell_angle_alpha 90.000000
_cell_angle_beta 90.000000
_cell_angle_gamma 90.000000
_cell_volume 3161.129133
_symmetry_space_group_name_H-M "P M M A"
_symmetry_group_IT_number 51
_symmetry_cell_setting 'orthorhombic'
loop_
_space_group_symop_operation_xyz
x,y,z
1/2-x,-y,z
1/2+x,-y,-z
-x,y,-z
-x,-y,-z
1/2+x,y,-z
1/2-x,y,z
x,-y,z
loop_
_atom_site_type_symbol
_atom_site_label
_atom_site_fract_x
_atom_site_fract_y
_atom_site_fract_z
Si Si1 0.839033 0.838388 0.569430
Si Si2 0.402318 0.831067 0.723744
Si Si3 0.161454 0.665387 0.297110
Si Si4 0.982084 0.669140 0.078468
Si Si5 0.945761 0.829997 0.797356
Si Si6 0.833278 0.172100 0.417430
Si Si7 0.166888 0.666910 0.847118
O O1 0.750000 0.845510 0.568410
O O2 0.867988 0.732006 0.629845
O O3 0.865462 0.778357 0.493302
O O4 0.871159 0.000000 0.584200
O O5 0.487394 0.795124 0.743443
O O6 0.387188 0.774046 0.645001
O O7 0.345393 0.755208 0.776433
O O8 0.385261 0.000000 0.729700
O O9 0.250000 0.678184 0.291167
O O10 0.134391 0.500000 0.293274
O O11 0.128185 0.755024 0.232566
O O12 0.998979 0.500000 0.090524
O O13 0.036251 0.761858 0.127606
O O14 0.895174 0.707060 0.094588
O O15 0.000000 0.716748 0.000000
O O16 0.931835 0.000000 0.806554
O O17 0.750000 0.235518 0.404682
O O18 0.828863 0.000000 0.419204
O O19 0.250000 0.701789 0.876809
O O20 0.159350 0.500000 0.826559
#
# Coordination Sequence:
#
# PCOD8210941 Si02
#       7
#     8   8   8   8   8   8   8
#     4   8  14  26  45  67  90 119 156 198 242 281
#     4   9  17  29  46  69  96 127 161 194 232 281
#     4  10  20  34  52  71  91 120 160 203 244 289
#     4   9  18  34  54  73  98 133 166 196 236 285
#     4  10  20  33  51  74  98 124 155 194 241 291
#     4   8  13  23  42  67  93 122 158 198 235 273
#     4   9  17  29  46  70  98 127 160 197 236 278
#
# _framework density 17.71519
#
# number of rings (size 3 to 8) (size 9 to 14) (size 15 to 20)
#    0.000    3.000    0.000    2.143    0.000    2.571 
#    0.000    2.143    0.000    9.429    0.000    0.000 
#    0.000    0.000    0.000    0.000    0.000    0.000 
#
# Total GULP energy -694200.366493 kJ/mol
# GULP energy per Si atom -12396.435116 kJ/mol
# Density = 1.767487 g / cm^3
# Si number density = 17.715190 Si / 1000 Ang^3
#
#
#
# Elastic Constant Matrix: (Units=GPa)
#
#
# Indices 1 2 3 4 5 6 
#
# 1 49.1738 31.2477 50.7696 0.0000 0.0000 0.0000
# 2 31.2477 72.5327 60.0738 0.0000 0.0000 0.0000
# 3 50.7696 60.0738 148.4232 0.0000 0.0000 0.0000
# 4 0.0000 0.0000 0.0000 26.5205 0.0000 0.0000
# 5 0.0000 0.0000 0.0000 0.0000 24.4073 0.0000
# 6 0.0000 0.0000 0.0000 0.0000 0.0000 19.3883
#
#
#
# Elastic Compliance Matrix: (Units=1/GPa)
#
#
# Indices 1 2 3 4 5 6 
#
# 1 0.033975 -0.007539 -0.008570 0.000000 0.000000 0.000000
# 2 -0.007539 0.022412 -0.006492 0.000000 0.000000 0.000000
# 3 -0.008570 -0.006492 0.012297 0.000000 0.000000 0.000000
# 4 0.000000 0.000000 0.000000 0.037707 0.000000 0.000000
# 5 0.000000 0.000000 0.000000 0.000000 0.040971 0.000000
# 6 0.000000 0.000000 0.000000 0.000000 0.000000 0.051578
#
#
# Mechanical properties :
#
#
# Convention : Reuss Voigt Hill
#
# Bulk Modulus (GPa) = 42.58766 61.59021 52.08893
# Shear Modulus (GPa) = 19.84376 22.59913 21.22145
#
# Velocity S-wave (km/s) = 3.35050 3.57556 3.46486
# Velocity P-wave (km/s) = 6.24982 7.20337 6.74347
#
# Compressibility (1/GPa) = 0.02348098
#
# Stress axis : x y z
#
# Youngs Moduli (GPa) = 29.43362 44.61931 81.32182
#
# Poissons Ratio (x) = 0.33636 0.69694
# Poissons Ratio (y) = 0.22189 0.52798
# Poissons Ratio (z) = 0.25225 0.28969
#
# Static dielectric constant tensor:
#      x y z
#    x 3.170730 0.000000 0.000000 
#    y 0.000000 3.202700 0.000000 
#    z 0.000000 0.000000 3.433790 
# 
# 
# High freq. dielectric constant tensor:
#      x y z
#    x 1.666410 0.000000 0.000000 
#    y 0.000000 1.670570 0.000000 
#    z 0.000000 0.000000 1.682590 
# 
# From -- ./inp_files/33413.got.cif
#   From: 2010.03.12/outbox.cif.g09.slc.cpg/sg51_17_cif.got.tgz:33413.got - 2010.04.16 13:43:02.
