data_PCOD8210938
_publ_section_title
;
Structure prediction by ZEFSAII (Michael W. Deem and Ramdas Pophale) SiO2 
 PCOD8210938
Probable space group: P M M A
;
_chemical_formula_sum "Si O2"
_cell_formula_units_Z 48
_cell_length_a 9.338421
_cell_length_b 9.352346
_cell_length_c 30.945740
_cell_angle_alpha 90.000000
_cell_angle_beta 90.000000
_cell_angle_gamma 90.000000
_cell_volume 2702.681614
_symmetry_space_group_name_H-M "P M M A"
_symmetry_group_IT_number 51
_symmetry_cell_setting 'orthorhombic'
loop_
_space_group_symop_operation_xyz
x,y,z
1/2-x,-y,z
1/2+x,-y,-z
-x,y,-z
-x,-y,-z
1/2+x,y,-z
1/2-x,y,z
x,-y,z
loop_
_atom_site_type_symbol
_atom_site_label
_atom_site_fract_x
_atom_site_fract_y
_atom_site_fract_z
Si Si1 0.091373 0.329799 0.039259
Si Si2 0.579810 0.659027 0.866525
Si Si3 0.581992 0.665957 0.289239
Si Si4 0.916950 0.167698 0.784161
Si Si5 0.583810 0.165655 0.541677
Si Si6 0.914234 0.333839 0.625514
O O1 0.250000 0.264731 0.034806
O O2 0.097489 0.500000 0.035841
O O3 0.023519 0.289429 0.086230
O O4 0.000000 0.263541 0.000000
O O5 0.750000 0.652590 0.869489
O O6 0.520855 0.500000 0.855323
O O7 0.529275 0.769094 0.829874
O O8 0.750000 0.697692 0.291066
O O9 0.549745 0.500000 0.279364
O O10 0.510466 0.761366 0.252803
O O11 0.513044 0.712005 0.334617
O O12 0.750000 0.203352 0.776225
O O13 0.945881 0.000000 0.784537
O O14 0.500000 0.224189 0.500000
O O15 0.750000 0.194737 0.533306
O O16 0.529666 0.249166 0.583810
O O17 0.549944 0.000000 0.549523
O O18 0.750000 0.293372 0.636545
O O19 0.929874 0.500000 0.614994
#
# Coordination Sequence:
#
# PCOD8210938 Si02
#       6
#     8   8   8   8   8   8
#     4   8  13  22  38  61  87 114 147 189 234 277
#     4   8  14  26  45  67  91 121 156 194 237 283
#     4  10  21  36  53  74 100 129 161 199 246 297
#     4  10  20  33  51  74  97 125 163 203 243 289
#     4   9  18  32  49  70  97 128 161 196 234 278
#     4   9  18  33  52  73  97 126 160 198 239 283
#
# _framework density 17.760138000000001
#
# number of rings (size 3 to 8) (size 9 to 14) (size 15 to 20)
#    0.000    3.000    0.000    2.000    0.000    3.667 
#    0.000    2.500    0.000    3.500    0.000    0.000 
#    0.000    0.000    0.000    0.000    0.000    0.000 
#
# Total GULP energy -595081.077666 kJ/mol
# GULP energy per Si atom -12397.522451 kJ/mol
# Density = 1.771972 g / cm^3
# Si number density = 17.760138 Si / 1000 Ang^3
#
#
#
# Elastic Constant Matrix: (Units=GPa)
#
#
# Indices 1 2 3 4 5 6 
#
# 1 69.4632 40.9789 74.7895 0.0000 0.0000 0.0000
# 2 40.9789 65.0296 76.5122 0.0000 0.0000 0.0000
# 3 74.7895 76.5122 193.2525 0.0000 0.0000 0.0000
# 4 0.0000 0.0000 0.0000 0.6145 0.0000 0.0000
# 5 0.0000 0.0000 0.0000 0.0000 31.7406 0.0000
# 6 0.0000 0.0000 0.0000 0.0000 0.0000 18.0453
#
#
#
# Elastic Compliance Matrix: (Units=1/GPa)
#
#
# Indices 1 2 3 4 5 6 
#
# 1 0.027175 -0.008893 -0.006996 0.000000 0.000000 0.000000
# 2 -0.008893 0.031698 -0.009108 0.000000 0.000000 0.000000
# 3 -0.006996 -0.009108 0.011488 0.000000 0.000000 0.000000
# 4 0.000000 0.000000 0.000000 1.627332 0.000000 0.000000
# 5 0.000000 0.000000 0.000000 0.000000 0.031505 0.000000
# 6 0.000000 0.000000 0.000000 0.000000 0.000000 0.055416
#
#
# Mechanical properties :
#
#
# Convention : Reuss Voigt Hill
#
# Bulk Modulus (GPa) = 49.10011 79.14517 64.12264
# Shear Modulus (GPa) = 2.71533 19.11106 10.91320
#
# Velocity S-wave (km/s) = 1.23782 3.28390 2.48155
# Velocity P-wave (km/s) = 5.45428 7.68367 6.66288
#
# Compressibility (1/GPa) = 0.02036655
#
# Stress axis : x y z
#
# Youngs Moduli (GPa) = 36.79884 31.54748 87.04731
#
# Poissons Ratio (x) = 0.28057 0.60895
# Poissons Ratio (y) = 0.32727 0.79284
# Poissons Ratio (z) = 0.25743 0.28734
#
# Static dielectric constant tensor:
#      x y z
#    x 3.007060 0.000000 0.000000 
#    y 0.000000 3.100140 0.000000 
#    z 0.000000 0.000000 3.621170 
# 
# 
# High freq. dielectric constant tensor:
#      x y z
#    x 1.663700 0.000000 0.000000 
#    y 0.000000 1.662400 0.000000 
#    z 0.000000 0.000000 1.703200 
# 
# From -- ./inp_files/37044.got.cif
#   From: 2010.03.12/outbox.cif.g09.slc.cpg/sg51_19_cif.got.tgz:37044.got - 2010.04.16 13:43:02.
