data_PCOD8210185
_publ_section_title
;
Structure prediction by ZEFSAII (Michael W. Deem and Ramdas Pophale) SiO2 
 PCOD8210185
Probable space group: P M M A
;
_chemical_formula_sum "Si O2"
_cell_formula_units_Z 56
_cell_length_a 10.335261
_cell_length_b 17.619446
_cell_length_c 18.763820
_cell_angle_alpha 90.000000
_cell_angle_beta 90.000000
_cell_angle_gamma 90.000000
_cell_volume 3416.921139
_symmetry_space_group_name_H-M "P M M A"
_symmetry_group_IT_number 51
_symmetry_cell_setting 'orthorhombic'
loop_
_space_group_symop_operation_xyz
x,y,z
1/2-x,-y,z
1/2+x,-y,-z
-x,y,-z
-x,-y,-z
1/2+x,y,-z
1/2-x,y,z
x,-y,z
loop_
_atom_site_type_symbol
_atom_site_label
_atom_site_fract_x
_atom_site_fract_y
_atom_site_fract_z
Si Si1 0.396930 0.088684 0.442051
Si Si2 0.395840 0.859816 0.286327
Si Si3 0.394336 0.291454 0.207231
Si Si4 0.113794 0.379722 0.946967
Si Si5 0.393762 0.084558 0.820258
Si Si6 0.465791 0.780902 0.920264
Si Si7 0.603296 0.416327 0.209100
O O1 0.500000 0.118336 0.500000
O O2 0.250000 0.105493 0.468124
O O3 0.428315 0.132339 0.369289
O O4 0.416366 0.000000 0.427321
O O5 0.250000 0.890461 0.270167
O O6 0.405559 0.771392 0.268252
O O7 0.499226 0.906605 0.240694
O O8 0.250000 0.326668 0.204905
O O9 0.418488 0.252492 0.129642
O O10 0.496849 0.354988 0.232740
O O11 0.250000 0.404420 0.982440
O O12 0.129434 0.290361 0.928467
O O13 0.091267 0.426546 0.875591
O O14 0.000000 0.399664 0.000000
O O15 0.250000 0.093352 0.786498
O O16 0.404175 0.146171 0.882919
O O17 0.410459 0.000000 0.853015
O O18 0.500000 0.807986 0.000000
O O19 0.750000 0.389768 0.229702
O O20 0.575208 0.500000 0.242398
#
# Coordination Sequence:
#
# PCOD8210185 Si02
#       7
#     8   8   8   8   8   8   8
#     4   9  17  29  46  69  97 127 155 182 214 253
#     4   9  18  33  50  66  90 123 153 181 218 266
#     4   9  18  31  47  67  85 108 148 187 217 258
#     4   9  17  28  42  57  75 102 135 170 212 265
#     4  10  20  31  44  64  86 110 148 195 234 268
#     4   9  18  30  45  59  80 110 144 184 234 279
#     4   9  18  31  44  60  85 113 137 167 214 267
#
# _framework density 16.389023000000002
#
# number of rings (size 3 to 8) (size 9 to 14) (size 15 to 20)
#    0.000    2.857    0.000    0.857    0.000   11.429 
#    0.000    1.429    0.000    0.000    0.000    0.000 
#    0.000    0.571    0.000    1.286    0.000    2.286 
#
# Total GULP energy -693767.279399 kJ/mol
# GULP energy per Si atom -12388.701418 kJ/mol
# Density = 1.635172 g / cm^3
# Si number density = 16.389023 Si / 1000 Ang^3
#
#
#
# Elastic Constant Matrix: (Units=GPa)
#
#
# Indices 1 2 3 4 5 6 
#
# 1 119.0235 41.5137 42.1435 0.0000 0.0000 0.0000
# 2 41.5137 71.3419 23.2437 0.0000 0.0000 0.0000
# 3 42.1435 23.2437 78.7754 0.0000 0.0000 0.0000
# 4 0.0000 0.0000 0.0000 10.1047 0.0000 0.0000
# 5 0.0000 0.0000 0.0000 0.0000 18.3561 0.0000
# 6 0.0000 0.0000 0.0000 0.0000 0.0000 19.0592
#
#
#
# Elastic Compliance Matrix: (Units=1/GPa)
#
#
# Indices 1 2 3 4 5 6 
#
# 1 0.011996 -0.005409 -0.004821 0.000000 0.000000 0.000000
# 2 -0.005409 0.017947 -0.002402 0.000000 0.000000 0.000000
# 3 -0.004821 -0.002402 0.015982 0.000000 0.000000 0.000000
# 4 0.000000 0.000000 0.000000 0.098964 0.000000 0.000000
# 5 0.000000 0.000000 0.000000 0.000000 0.054478 0.000000
# 6 0.000000 0.000000 0.000000 0.000000 0.000000 0.052468
#
#
# Mechanical properties :
#
#
# Convention : Reuss Voigt Hill
#
# Bulk Modulus (GPa) = 48.40180 53.66028 51.03104
# Shear Modulus (GPa) = 17.60650 20.32000 18.96325
#
# Velocity S-wave (km/s) = 3.28119 3.52498 3.40526
# Velocity P-wave (km/s) = 6.62964 7.02709 6.83125
#
# Compressibility (1/GPa) = 0.02066039
#
# Stress axis : x y z
#
# Youngs Moduli (GPa) = 83.36442 55.71912 62.56933
#
# Poissons Ratio (x) = 0.30140 0.30167
# Poissons Ratio (y) = 0.45095 0.15027
# Poissons Ratio (z) = 0.40193 0.13382
#
# Static dielectric constant tensor:
#      x y z
#    x 3.299980 0.000000 0.000000 
#    y 0.000000 3.046990 0.000000 
#    z 0.000000 0.000000 2.780260 
# 
# 
# High freq. dielectric constant tensor:
#      x y z
#    x 1.645100 0.000000 0.000000 
#    y 0.000000 1.625510 0.000000 
#    z 0.000000 0.000000 1.585410 
# 
# From -- ./inp_files/29177.got.cif
#   From: 2010.03.12/outbox.cif.g09.slc.cpg/sg51_15_cif.got.tgz:29177.got - 2010.04.16 13:43:02.
