data_PCOD8210128
_publ_section_title
;
Structure prediction by ZEFSAII (Michael W. Deem and Ramdas Pophale) SiO2 
 PCOD8210128
Probable space group: P M M A
;
_chemical_formula_sum "Si O2"
_cell_formula_units_Z 56
_cell_length_a 14.503583
_cell_length_b 8.654874
_cell_length_c 22.190544
_cell_angle_alpha 90.000000
_cell_angle_beta 90.000000
_cell_angle_gamma 90.000000
_cell_volume 2785.505391
_symmetry_space_group_name_H-M "P M M A"
_symmetry_group_IT_number 51
_symmetry_cell_setting 'orthorhombic'
loop_
_space_group_symop_operation_xyz
x,y,z
1/2-x,-y,z
1/2+x,-y,-z
-x,y,-z
-x,-y,-z
1/2+x,y,-z
1/2-x,y,z
x,-y,z
loop_
_atom_site_type_symbol
_atom_site_label
_atom_site_fract_x
_atom_site_fract_y
_atom_site_fract_z
Si Si1 0.750000 0.317774 0.381696
Si Si2 0.250000 0.316895 0.483340
Si Si3 0.554379 0.320973 0.561484
Si Si4 0.359186 0.673554 0.011180
Si Si5 0.435586 0.179855 0.664175
Si Si6 0.641029 0.178456 0.112166
Si Si7 0.987059 0.319250 0.210655
Si Si8 0.643053 0.180174 0.864776
O O1 0.750000 0.500000 0.385785
O O2 0.750000 0.245796 0.449169
O O3 0.660051 0.267021 0.345813
O O4 0.250000 0.500000 0.489977
O O5 0.340640 0.262823 0.447355
O O6 0.500000 0.294013 0.500000
O O7 0.549996 0.500000 0.580713
O O8 0.510071 0.218954 0.613314
O O9 0.250000 0.670108 0.008429
O O10 0.399264 0.500000 0.015141
O O11 0.391669 0.770435 0.068999
O O12 0.397053 0.755909 0.951192
O O13 0.477145 0.227315 0.727742
O O14 0.414543 0.000000 0.663343
O O15 0.750000 0.201182 0.118001
O O16 0.594565 0.272495 0.165733
O O17 0.612556 0.000000 0.116831
O O18 0.981896 0.500000 0.223729
O O19 0.086767 0.276481 0.184174
O O20 0.750000 0.220781 0.855433
O O21 0.623176 0.000000 0.856530
#
# Coordination Sequence:
#
# PCOD8210128 Si02
#       8
#     4   4   8   8   8   8   8   8
#     4  11  21  41  69  97 125 165 208 247 298 365
#     4   9  18  35  65  99 127 161 206 255 304 355
#     4  10  19  38  66  95 128 166 210 257 303 359
#     4   9  17  32  57  89 122 156 199 248 301 366
#     4  12  26  43  62  92 130 167 205 254 308 364
#     4  10  21  38  60  88 124 160 198 251 312 367
#     4  12  26  43  63  87 118 162 212 255 300 367
#     4  10  21  40  65  90 119 155 198 255 318 372
#
# _framework density 20.104071999999999
#
# number of rings (size 3 to 8) (size 9 to 14) (size 15 to 20)
#    0.000    1.571    1.429    4.071    1.000    4.286 
#    1.286    3.214    0.000    0.000    0.000    0.000 
#    0.000    0.000    0.000    0.000    0.000    0.000 
#
# Total GULP energy -694637.038644 kJ/mol
# GULP energy per Si atom -12404.232833 kJ/mol
# Density = 2.005831 g / cm^3
# Si number density = 20.104072 Si / 1000 Ang^3
#
#
#
# Elastic Constant Matrix: (Units=GPa)
#
#
# Indices 1 2 3 4 5 6 
#
# 1 106.4201 29.8779 38.4733 0.0000 0.0000 0.0000
# 2 29.8779 77.1509 30.0194 0.0000 0.0000 0.0000
# 3 38.4733 30.0194 113.3031 0.0000 0.0000 0.0000
# 4 0.0000 0.0000 0.0000 -58.0412 0.0000 0.0000
# 5 0.0000 0.0000 0.0000 0.0000 24.0649 0.0000
# 6 0.0000 0.0000 0.0000 0.0000 0.0000 28.6161
#
#
#
# Elastic Compliance Matrix: (Units=1/GPa)
#
#
# Indices 1 2 3 4 5 6 
#
# 1 0.011395 -0.003242 -0.003011 0.000000 0.000000 0.000000
# 2 -0.003242 0.015374 -0.002972 0.000000 0.000000 0.000000
# 3 -0.003011 -0.002972 0.010636 0.000000 0.000000 0.000000
# 4 0.000000 0.000000 0.000000 -0.017229 0.000000 0.000000
# 5 0.000000 0.000000 0.000000 0.000000 0.041554 0.000000
# 6 0.000000 0.000000 0.000000 0.000000 0.000000 0.034945
#
#
# Mechanical properties :
#
#
# Convention : Reuss Voigt Hill
#
# Bulk Modulus (GPa) = 52.75571 54.84615 53.80093
# Shear Modulus (GPa) = 41.17179 12.16155 26.66667
#
# Velocity S-wave (km/s) = 4.53032 2.46220 3.64597
# Velocity P-wave (km/s) = 7.32553 5.95177 6.67409
#
# Compressibility (1/GPa) = 0.01895530
#
# Stress axis : x y z
#
# Youngs Moduli (GPa) = 87.75648 65.04679 94.02315
#
# Poissons Ratio (x) = 0.21085 0.28306
# Poissons Ratio (y) = 0.28447 0.27948
# Poissons Ratio (z) = 0.26419 0.19335
#
# Static dielectric constant tensor:
#      x y z
#    x 3.618890 0.000000 0.000000 
#    y 0.000000 3.657680 0.000000 
#    z 0.000000 0.000000 3.742820 
# 
# 
# High freq. dielectric constant tensor:
#      x y z
#    x 1.793900 0.000000 0.000000 
#    y 0.000000 1.785510 0.000000 
#    z 0.000000 0.000000 1.783890 
# 
# From -- ./inp_files/33516.got.cif
#   From: 2010.03.12/outbox.cif.g09.slc.cpg/sg51_17_cif.got.tgz:33516.got - 2010.04.16 13:43:02.
