data_PCOD8210149
_publ_section_title
;
Structure prediction by ZEFSAII (Michael W. Deem and Ramdas Pophale) SiO2 
 PCOD8210149
Probable space group: P M M A
;
_chemical_formula_sum "Si O2"
_cell_formula_units_Z 64
_cell_length_a 25.903132
_cell_length_b 8.911463
_cell_length_c 18.714746
_cell_angle_alpha 90.000000
_cell_angle_beta 90.000000
_cell_angle_gamma 90.000000
_cell_volume 4320.014695
_symmetry_space_group_name_H-M "P M M A"
_symmetry_group_IT_number 51
_symmetry_cell_setting 'orthorhombic'
loop_
_space_group_symop_operation_xyz
x,y,z
1/2-x,-y,z
1/2+x,-y,-z
-x,y,-z
-x,-y,-z
1/2+x,y,-z
1/2-x,y,z
x,-y,z
loop_
_atom_site_type_symbol
_atom_site_label
_atom_site_fract_x
_atom_site_fract_y
_atom_site_fract_z
Si Si1 0.990653 0.321430 0.332217
Si Si2 0.450455 0.677902 0.040177
Si Si3 0.190454 0.826064 0.815181
Si Si4 0.102918 0.823197 0.584901
Si Si5 0.190088 0.324915 0.667865
Si Si6 0.608999 0.676666 0.091103
Si Si7 0.004903 0.322781 0.826727
Si Si8 0.445622 0.334235 0.460659
O O1 0.981446 0.500000 0.333893
O O2 0.939271 0.245567 0.362184
O O3 0.000582 0.255859 0.252833
O O4 0.041187 0.279308 0.379933
O O5 0.454050 0.500000 0.039499
O O6 0.456454 0.733528 0.122924
O O7 0.500000 0.744520 0.000000
O O8 0.400386 0.723905 0.992883
O O9 0.250000 0.795512 0.833149
O O10 0.172880 0.735395 0.745211
O O11 0.158326 0.768656 0.882892
O O12 0.179482 0.000000 0.800910
O O13 0.158780 0.760198 0.606311
O O14 0.092288 0.778598 0.502167
O O15 0.102218 0.000000 0.591806
O O16 0.250000 0.290659 0.653926
O O17 0.177344 0.500000 0.665047
O O18 0.620080 0.500000 0.097946
O O19 0.559484 0.723658 0.138495
O O20 0.002471 0.500000 0.820340
O O21 0.500000 0.342169 0.500000
O O22 0.420114 0.500000 0.459952
#
# Coordination Sequence:
#
# PCOD8210149 Si02
#       8
#     8   8   8   8   8   8   8   8
#     4   9  16  26  41  59  80 109 142 171 197 231
#     4   7  11  20  35  57  80 100 127 162 195 228
#     4  10  20  31  41  56  80 106 132 165 200 230
#     4  11  20  28  41  59  81 108 134 163 200 239
#     4  10  20  33  47  60  76 101 133 167 199 233
#     4   9  15  24  41  60  78 105 137 164 191 230
#     4   8  13  22  38  59  80 102 131 165 198 230
#     4   8  15  27  40  55  77 105 138 171 198 230
#
# _framework density 14.814762999999999
#
# number of rings (size 3 to 8) (size 9 to 14) (size 15 to 20)
#    0.000    3.000    0.000    4.875    0.000    4.750 
#    0.000    0.000    0.000    4.125    0.000    0.000 
#    0.000    1.000    0.000    8.250    0.000    2.000 
#
# Total GULP energy -792906.531908 kJ/mol
# GULP energy per Si atom -12389.164561 kJ/mol
# Density = 1.478104 g / cm^3
# Si number density = 14.814763 Si / 1000 Ang^3
#
#
#
# Elastic Constant Matrix: (Units=GPa)
#
#
# Indices 1 2 3 4 5 6 
#
# 1 58.0598 31.1524 45.7038 0.0000 0.0000 0.0000
# 2 31.1524 55.5626 31.3077 0.0000 0.0000 0.0000
# 3 45.7038 31.3077 112.4018 0.0000 0.0000 0.0000
# 4 0.0000 0.0000 0.0000 7.0786 0.0000 0.0000
# 5 0.0000 0.0000 0.0000 0.0000 25.9993 0.0000
# 6 0.0000 0.0000 0.0000 0.0000 0.0000 14.9153
#
#
#
# Elastic Compliance Matrix: (Units=1/GPa)
#
#
# Indices 1 2 3 4 5 6 
#
# 1 0.031026 -0.012202 -0.009217 0.000000 0.000000 0.000000
# 2 -0.012202 0.026147 -0.002321 0.000000 0.000000 0.000000
# 3 -0.009217 -0.002321 0.013291 0.000000 0.000000 0.000000
# 4 0.000000 0.000000 0.000000 0.141272 0.000000 0.000000
# 5 0.000000 0.000000 0.000000 0.000000 0.038463 0.000000
# 6 0.000000 0.000000 0.000000 0.000000 0.000000 0.067045
#
#
# Mechanical properties :
#
#
# Convention : Reuss Voigt Hill
#
# Bulk Modulus (GPa) = 43.50944 49.15022 46.32983
# Shear Modulus (GPa) = 13.42695 17.45599 15.44147
#
# Velocity S-wave (km/s) = 3.01378 3.43634 3.23197
# Velocity P-wave (km/s) = 6.44541 6.99951 6.72816
#
# Compressibility (1/GPa) = 0.02298352
#
# Stress axis : x y z
#
# Youngs Moduli (GPa) = 32.23090 38.24516 75.23948
#
# Poissons Ratio (x) = 0.46667 0.69347
# Poissons Ratio (y) = 0.39328 0.17466
# Poissons Ratio (z) = 0.29707 0.08878
#
# Static dielectric constant tensor:
#      x y z
#    x 2.679110 0.000000 0.000000 
#    y 0.000000 2.677160 0.000000 
#    z 0.000000 0.000000 3.406590 
# 
# 
# High freq. dielectric constant tensor:
#      x y z
#    x 1.530010 0.000000 0.000000 
#    y 0.000000 1.550370 0.000000 
#    z 0.000000 0.000000 1.564710 
# 
# From -- ./inp_files/34218.got.cif
#   From: 2010.03.12/outbox.cif.g09.slc.cpg/sg51_18_cif.got.tgz:34218.got - 2010.04.16 13:43:02.
