data_PCOD8210270
_publ_section_title
;
Structure prediction by ZEFSAII (Michael W. Deem and Ramdas Pophale) SiO2 
 PCOD8210270
Probable space group: P M M A
;
_chemical_formula_sum "Si O2"
_cell_formula_units_Z 64
_cell_length_a 9.088168
_cell_length_b 14.229602
_cell_length_c 31.048347
_cell_angle_alpha 90.000000
_cell_angle_beta 90.000000
_cell_angle_gamma 90.000000
_cell_volume 4015.203703
_symmetry_space_group_name_H-M "P M M A"
_symmetry_group_IT_number 51
_symmetry_cell_setting 'orthorhombic'
loop_
_space_group_symop_operation_xyz
x,y,z
1/2-x,-y,z
1/2+x,-y,-z
-x,y,-z
-x,-y,-z
1/2+x,y,-z
1/2-x,y,z
x,-y,z
loop_
_atom_site_type_symbol
_atom_site_label
_atom_site_fract_x
_atom_site_fract_y
_atom_site_fract_z
Si Si1 0.083978 0.611771 0.625944
Si Si2 0.077825 0.292154 0.042622
Si Si3 0.419394 0.389404 0.130654
Si Si4 0.077715 0.609285 0.288275
Si Si5 0.417657 0.104081 0.829058
Si Si6 0.916395 0.612076 0.542160
Si Si7 0.079300 0.295987 0.790629
Si Si8 0.576451 0.896570 0.916836
O O1 0.250000 0.651282 0.626169
O O2 0.084600 0.500000 0.624203
O O3 0.000823 0.646457 0.668631
O O4 0.999333 0.651721 0.584247
O O5 0.250000 0.297995 0.034465
O O6 0.032193 0.355441 0.083306
O O7 0.024531 0.184278 0.050355
O O8 0.000000 0.331719 0.000000
O O9 0.250000 0.360672 0.139962
O O10 0.440510 0.500000 0.133473
O O11 0.525679 0.342209 0.165186
O O12 0.250000 0.627309 0.293332
O O13 0.043296 0.500000 0.280055
O O14 0.017070 0.667441 0.248507
O O15 0.250000 0.108326 0.845268
O O16 0.444455 0.183175 0.792786
O O17 0.517453 0.127673 0.869767
O O18 0.454500 0.000000 0.810212
O O19 0.750000 0.650611 0.541901
O O20 0.916342 0.500000 0.542495
O O21 0.000000 0.650194 0.500000
O O22 0.250000 0.322099 0.783382
O O23 0.750000 0.894320 0.912520
O O24 0.521182 0.000000 0.932387
#
# Coordination Sequence:
#
# PCOD8210270 Si02
#       8
#     8   8   8   8   8   8   8   8
#     4   9  16  26  39  55  78 108 145 191 236 274
#     4  10  21  35  50  69  92 116 143 173 208 253
#     4  10  21  37  53  68  89 117 146 178 216 254
#     4  10  20  32  45  62  87 120 153 185 224 267
#     4   9  18  32  50  72  95 116 138 168 209 255
#     4   9  15  22  33  50  73 104 145 191 237 281
#     4  11  21  32  50  73  93 113 142 179 216 256
#     4   9  17  31  51  72  92 114 140 170 205 249
#
# _framework density 15.939416
#
# number of rings (size 3 to 8) (size 9 to 14) (size 15 to 20)
#    0.000    2.375    1.250    1.875    0.000    7.500 
#    0.000    0.000    0.000    0.000    0.000    0.000 
#    0.000    0.000    0.000    0.000    0.000    0.625 
#
# Total GULP energy -793496.826786 kJ/mol
# GULP energy per Si atom -12398.387919 kJ/mol
# Density = 1.590314 g / cm^3
# Si number density = 15.939416 Si / 1000 Ang^3
#
#
#
# Elastic Constant Matrix: (Units=GPa)
#
#
# Indices 1 2 3 4 5 6 
#
# 1 74.3435 23.1939 46.3518 0.0000 0.0000 0.0000
# 2 23.1939 47.1739 30.5145 0.0000 0.0000 0.0000
# 3 46.3518 30.5145 110.4177 0.0000 0.0000 0.0000
# 4 0.0000 0.0000 0.0000 2.3838 0.0000 0.0000
# 5 0.0000 0.0000 0.0000 0.0000 33.6086 0.0000
# 6 0.0000 0.0000 0.0000 0.0000 0.0000 14.6710
#
#
#
# Elastic Compliance Matrix: (Units=1/GPa)
#
#
# Indices 1 2 3 4 5 6 
#
# 1 0.019193 -0.005145 -0.006635 0.000000 0.000000 0.000000
# 2 -0.005145 0.027191 -0.005355 0.000000 0.000000 0.000000
# 3 -0.006635 -0.005355 0.013322 0.000000 0.000000 0.000000
# 4 0.000000 0.000000 0.000000 0.419496 0.000000 0.000000
# 5 0.000000 0.000000 0.000000 0.000000 0.029754 0.000000
# 6 0.000000 0.000000 0.000000 0.000000 0.000000 0.068162
#
#
# Mechanical properties :
#
#
# Convention : Reuss Voigt Hill
#
# Bulk Modulus (GPa) = 39.31311 48.00616 43.65964
# Shear Modulus (GPa) = 8.06626 18.92434 13.49530
#
# Velocity S-wave (km/s) = 2.25201 3.44941 2.91290
# Velocity P-wave (km/s) = 5.61068 6.78586 6.22606
#
# Compressibility (1/GPa) = 0.02543681
#
# Stress axis : x y z
#
# Youngs Moduli (GPa) = 52.10221 36.77637 75.06530
#
# Poissons Ratio (x) = 0.18920 0.49808
# Poissons Ratio (y) = 0.26804 0.40196
# Poissons Ratio (z) = 0.34571 0.19693
#
# Static dielectric constant tensor:
#      x y z
#    x 3.139470 0.000000 0.000000 
#    y 0.000000 2.973540 0.000000 
#    z 0.000000 0.000000 3.008320 
# 
# 
# High freq. dielectric constant tensor:
#      x y z
#    x 1.624210 0.000000 0.000000 
#    y 0.000000 1.574330 0.000000 
#    z 0.000000 0.000000 1.603350 
# 
# From -- ./inp_files/37582.got.cif
#   From: 2010.03.12/outbox.cif.g09.slc.cpg/sg51_19_cif.got.tgz:37582.got - 2010.04.16 13:43:02.
