data_PCOD8210203
_publ_section_title
;
Structure prediction by ZEFSAII (Michael W. Deem and Ramdas Pophale) SiO2 
 PCOD8210203
Probable space group: P M M A
;
_chemical_formula_sum "Si O2"
_cell_formula_units_Z 64
_cell_length_a 23.670149
_cell_length_b 9.068965
_cell_length_c 16.632043
_cell_angle_alpha 90.000000
_cell_angle_beta 90.000000
_cell_angle_gamma 90.000000
_cell_volume 3570.296768
_symmetry_space_group_name_H-M "P M M A"
_symmetry_group_IT_number 51
_symmetry_cell_setting 'orthorhombic'
loop_
_space_group_symop_operation_xyz
x,y,z
1/2-x,-y,z
1/2+x,-y,-z
-x,y,-z
-x,-y,-z
1/2+x,y,-z
1/2-x,y,z
x,-y,z
loop_
_atom_site_type_symbol
_atom_site_label
_atom_site_fract_x
_atom_site_fract_y
_atom_site_fract_z
Si Si1 0.812866 0.333268 0.360582
Si Si2 0.183222 0.662582 0.097897
Si Si3 0.520794 0.826242 0.325733
Si Si4 0.814388 0.325563 0.080506
Si Si5 0.683966 0.171753 0.745459
Si Si6 0.871480 0.827567 0.223684
Si Si7 0.582872 0.669590 0.464888
Si Si8 0.910260 0.325990 0.649692
O O1 0.750000 0.304697 0.392625
O O2 0.820380 0.500000 0.327832
O O3 0.824877 0.223389 0.287667
O O4 0.853236 0.303870 0.435882
O O5 0.250000 0.648621 0.097507
O O6 0.157381 0.500000 0.115914
O O7 0.163227 0.776187 0.166221
O O8 0.165109 0.718614 0.009374
O O9 0.566537 0.784364 0.257267
O O10 0.540493 0.768515 0.412986
O O11 0.462205 0.747214 0.301441
O O12 0.511588 0.000000 0.331197
O O13 0.750000 0.270265 0.096988
O O14 0.816728 0.500000 0.091645
O O15 0.859470 0.250903 0.139436
O O16 0.750000 0.207145 0.732002
O O17 0.649083 0.259626 0.678559
O O18 0.671060 0.000000 0.737583
O O19 0.865692 0.000000 0.210692
O O20 0.563953 0.500000 0.453819
O O21 0.580961 0.717672 0.556985
O O22 0.909488 0.500000 0.663519
#
# Coordination Sequence:
#
# PCOD8210203 Si02
#       8
#     8   8   8   8   8   8   8   8
#     4   9  17  30  47  66  94 132 166 198 242 293
#     4   8  15  30  51  74 101 132 165 200 239 286
#     4  10  21  36  52  71  99 133 168 208 254 299
#     4   9  17  29  48  75 104 134 167 202 242 289
#     4  10  21  36  54  78 107 135 162 196 244 299
#     4  10  20  31  45  69 100 133 167 204 245 288
#     4   9  19  34  51  73  98 126 167 214 254 295
#     4  11  22  35  55  78  98 126 166 210 252 296
#
# _framework density 17.92568
#
# number of rings (size 3 to 8) (size 9 to 14) (size 15 to 20)
#    0.000    2.500    0.000    3.000    0.000    7.750 
#    0.000    2.500    0.000    0.750    0.000    5.250 
#    0.000    0.000    0.000    0.000    0.000    0.000 
#
# Total GULP energy -793547.846752 kJ/mol
# GULP energy per Si atom -12399.185106 kJ/mol
# Density = 1.788488 g / cm^3
# Si number density = 17.925680 Si / 1000 Ang^3
#
#
#
# Elastic Constant Matrix: (Units=GPa)
#
#
# Indices 1 2 3 4 5 6 
#
# 1 92.3376 45.9502 40.1752 0.0000 0.0000 0.0000
# 2 45.9502 83.7559 49.1811 0.0000 0.0000 0.0000
# 3 40.1752 49.1811 80.8257 0.0000 0.0000 0.0000
# 4 0.0000 0.0000 0.0000 20.4532 0.0000 0.0000
# 5 0.0000 0.0000 0.0000 0.0000 17.0855 0.0000
# 6 0.0000 0.0000 0.0000 0.0000 0.0000 27.8986
#
#
#
# Elastic Compliance Matrix: (Units=1/GPa)
#
#
# Indices 1 2 3 4 5 6 
#
# 1 0.015679 -0.006264 -0.003982 0.000000 0.000000 0.000000
# 2 -0.006264 0.021079 -0.009713 0.000000 0.000000 0.000000
# 3 -0.003982 -0.009713 0.020262 0.000000 0.000000 0.000000
# 4 0.000000 0.000000 0.000000 0.048892 0.000000 0.000000
# 5 0.000000 0.000000 0.000000 0.000000 0.058529 0.000000
# 6 0.000000 0.000000 0.000000 0.000000 0.000000 0.035844
#
#
# Mechanical properties :
#
#
# Convention : Reuss Voigt Hill
#
# Bulk Modulus (GPa) = 58.47002 58.61469 58.54235
# Shear Modulus (GPa) = 20.33306 21.19496 20.76401
#
# Velocity S-wave (km/s) = 3.37159 3.44231 3.40713
# Velocity P-wave (km/s) = 6.91705 6.96915 6.94315
#
# Compressibility (1/GPa) = 0.01710278
#
# Stress axis : x y z
#
# Youngs Moduli (GPa) = 63.77756 47.44006 49.35374
#
# Poissons Ratio (x) = 0.29715 0.19654
# Poissons Ratio (y) = 0.39948 0.47937
# Poissons Ratio (z) = 0.25398 0.46078
#
# Static dielectric constant tensor:
#      x y z
#    x 3.269460 0.000000 0.000000 
#    y 0.000000 3.336520 0.000000 
#    z 0.000000 0.000000 3.366220 
# 
# 
# High freq. dielectric constant tensor:
#      x y z
#    x 1.679960 0.000000 0.000000 
#    y 0.000000 1.695740 0.000000 
#    z 0.000000 0.000000 1.685070 
# 
# From -- ./inp_files/26258.got.cif
#   From: 2010.03.12/outbox.cif.g09.slc.cpg/sg51_14_cif.got.tgz:26258.got - 2010.04.16 13:43:02.
