data_PCOD8210638
_publ_section_title
;
Structure prediction by ZEFSAII (Michael W. Deem and Ramdas Pophale) SiO2 
 PCOD8210638
Probable space group: P M M A
;
_chemical_formula_sum "Si O2"
_cell_formula_units_Z 48
_cell_length_a 7.827006
_cell_length_b 9.719527
_cell_length_c 33.877207
_cell_angle_alpha 90.000000
_cell_angle_beta 90.000000
_cell_angle_gamma 90.000000
_cell_volume 2577.201617
_symmetry_space_group_name_H-M "P M M A"
_symmetry_group_IT_number 51
_symmetry_cell_setting 'orthorhombic'
loop_
_space_group_symop_operation_xyz
x,y,z
1/2-x,-y,z
1/2+x,-y,-z
-x,y,-z
-x,-y,-z
1/2+x,y,-z
1/2-x,y,z
x,-y,z
loop_
_atom_site_type_symbol
_atom_site_label
_atom_site_fract_x
_atom_site_fract_y
_atom_site_fract_z
Si Si1 0.551990 0.649004 0.111393
Si Si2 0.750000 0.838744 0.323303
Si Si3 0.440456 0.843566 0.267194
Si Si4 0.053062 0.660913 0.801985
Si Si5 0.558287 0.336810 0.542345
Si Si6 0.050232 0.845995 0.042332
Si Si7 0.750000 0.663462 0.401838
O O1 0.750000 0.627309 0.118727
O O2 0.472505 0.500000 0.099044
O O3 0.479313 0.695868 0.154043
O O4 0.525797 0.758799 0.077504
O O5 0.580627 0.797210 0.299059
O O6 0.750000 0.745067 0.361469
O O7 0.750000 0.000000 0.334551
O O8 0.250000 0.830329 0.285744
O O9 0.444796 0.748468 0.228739
O O10 0.478146 0.000000 0.253985
O O11 0.250000 0.704757 0.797702
O O12 0.028468 0.500000 0.793024
O O13 0.500000 0.276642 0.500000
O O14 0.750000 0.282788 0.552878
O O15 0.560390 0.500000 0.539765
O O16 0.420468 0.289748 0.574815
O O17 0.250000 0.848352 0.047348
O O18 0.972923 0.000000 0.044938
O O19 0.000000 0.780555 0.000000
O O20 0.750000 0.500000 0.394039
#
# Coordination Sequence:
#
# PCOD8210638 Si02
#       7
#     8   4   8   8   8   8   4
#     4   9  19  35  54  78 107 137 169 205 253 315
#     4  10  22  40  56  74 110 150 182 224 278 326
#     4  10  21  37  58  81 104 139 187 227 266 326
#     4   9  18  34  56  81 109 139 171 214 268 321
#     4   9  15  26  47  77 110 140 174 221 274 321
#     4  10  21  36  53  73  99 133 174 217 259 304
#     4  10  20  32  52  82 108 138 182 228 270 320
#
# _framework density 18.624853000000002
#
# number of rings (size 3 to 8) (size 9 to 14) (size 15 to 20)
#    0.000    2.500    1.667    1.500    0.000    4.667 
#    0.000    5.000    0.000    0.500    0.000    0.000 
#    0.000    0.000    0.000    0.000    0.000    0.000 
#
# Total GULP energy -594986.720640 kJ/mol
# GULP energy per Si atom -12395.556680 kJ/mol
# Density = 1.858246 g / cm^3
# Si number density = 18.624853 Si / 1000 Ang^3
#
#
#
# Elastic Constant Matrix: (Units=GPa)
#
#
# Indices 1 2 3 4 5 6 
#
# 1 110.5690 27.6098 57.7646 0.0000 0.0000 0.0000
# 2 27.6098 58.0704 64.0467 0.0000 0.0000 0.0000
# 3 57.7646 64.0467 153.2838 0.0000 0.0000 0.0000
# 4 0.0000 0.0000 0.0000 117.8068 0.0000 0.0000
# 5 0.0000 0.0000 0.0000 0.0000 21.1875 0.0000
# 6 0.0000 0.0000 0.0000 0.0000 0.0000 15.4252
#
#
#
# Elastic Compliance Matrix: (Units=1/GPa)
#
#
# Indices 1 2 3 4 5 6 
#
# 1 0.011310 -0.001255 -0.003738 0.000000 0.000000 0.000000
# 2 -0.001255 0.032078 -0.012930 0.000000 0.000000 0.000000
# 3 -0.003738 -0.012930 0.013335 0.000000 0.000000 0.000000
# 4 0.000000 0.000000 0.000000 0.008488 0.000000 0.000000
# 5 0.000000 0.000000 0.000000 0.000000 0.047198 0.000000
# 6 0.000000 0.000000 0.000000 0.000000 0.000000 0.064829
#
#
# Mechanical properties :
#
#
# Convention : Reuss Voigt Hill
#
# Bulk Modulus (GPa) = 47.89892 68.97394 58.43643
# Shear Modulus (GPa) = 22.72272 42.38406 32.55339
#
# Velocity S-wave (km/s) = 3.49667 4.77558 4.18526
# Velocity P-wave (km/s) = 6.48659 8.21717 7.40262
#
# Compressibility (1/GPa) = 0.02087730
#
# Stress axis : x y z
#
# Youngs Moduli (GPa) = 88.41516 31.17380 74.98965
#
# Poissons Ratio (x) = 0.03912 0.28030
# Poissons Ratio (y) = 0.11095 0.96964
# Poissons Ratio (z) = 0.33049 0.40309
#
# Static dielectric constant tensor:
#      x y z
#    x 3.612870 0.000000 0.000000 
#    y 0.000000 3.389920 0.000000 
#    z 0.000000 0.000000 3.282540 
# 
# 
# High freq. dielectric constant tensor:
#      x y z
#    x 1.731820 0.000000 0.000000 
#    y 0.000000 1.696460 0.000000 
#    z 0.000000 0.000000 1.718280 
# 
# From -- ./inp_files/37113.got.cif
#   From: 2010.03.12/outbox.cif.g09.slc.cpg/sg51_19_cif.got.tgz:37113.got - 2010.04.16 13:43:02.
