data_PCOD8210647
_publ_section_title
;
Structure prediction by ZEFSAII (Michael W. Deem and Ramdas Pophale) SiO2 
 PCOD8210647
Probable space group: P M M A
;
_chemical_formula_sum "Si O2"
_cell_formula_units_Z 56
_cell_length_a 25.458986
_cell_length_b 13.792006
_cell_length_c 7.675535
_cell_angle_alpha 90.000000
_cell_angle_beta 90.000000
_cell_angle_gamma 90.000000
_cell_volume 2695.114348
_symmetry_space_group_name_H-M "P M M A"
_symmetry_group_IT_number 51
_symmetry_cell_setting 'orthorhombic'
loop_
_space_group_symop_operation_xyz
x,y,z
1/2-x,-y,z
1/2+x,-y,-z
-x,y,-z
-x,-y,-z
1/2+x,y,-z
1/2-x,y,z
x,-y,z
loop_
_atom_site_type_symbol
_atom_site_label
_atom_site_fract_x
_atom_site_fract_y
_atom_site_fract_z
Si Si1 0.574196 0.894003 0.192003
Si Si2 0.811200 0.389780 0.574067
Si Si3 0.124275 0.699938 0.730158
Si Si4 0.622698 0.108817 0.819791
Si Si5 0.486844 0.605110 0.701014
Si Si6 0.024801 0.197918 0.310180
Si Si7 0.810965 0.718747 0.923189
O O1 0.607167 0.812009 0.292892
O O2 0.511840 0.875957 0.204068
O O3 0.588005 0.000000 0.271694
O O4 0.586971 0.891932 0.989743
O O5 0.750000 0.379453 0.533829
O O6 0.830505 0.500000 0.552740
O O7 0.840650 0.322540 0.436807
O O8 0.823509 0.357398 0.770849
O O9 0.074139 0.630202 0.733106
O O10 0.156628 0.685324 0.908257
O O11 0.584198 0.158028 0.676320
O O12 0.674023 0.173743 0.853516
O O13 0.639999 0.000000 0.764537
O O14 0.500000 0.593516 0.500000
O O15 0.498592 0.500000 0.790969
O O16 0.522843 0.693451 0.777267
O O17 0.000000 0.209079 0.500000
O O18 0.750000 0.720522 0.973793
#
# Coordination Sequence:
#
# PCOD8210647 Si02
#       7
#     8   8   8   8   8   8   8
#     4   9  19  35  55  81 114 153 197 244 294 356
#     4  10  22  39  61  88 116 153 202 255 311 368
#     4  10  20  38  63  88 120 161 201 249 310 371
#     4  10  21  37  58  82 115 160 202 246 306 365
#     4   9  19  34  55  85 120 161 205 248 302 368
#     4  10  20  32  52  85 119 156 198 247 296 356
#     4  10  23  41  62  90 122 156 205 263 313 369
#
# _framework density 20.77834
#
# number of rings (size 3 to 8) (size 9 to 14) (size 15 to 20)
#    0.000    2.286    0.000    1.714    6.000    3.714 
#    0.000    1.429    0.000   14.143    0.000    0.000 
#    0.000    0.000    0.000    0.000    0.000    0.000 
#
# Total GULP energy -694102.966839 kJ/mol
# GULP energy per Si atom -12394.695836 kJ/mol
# Density = 2.073105 g / cm^3
# Si number density = 20.778340 Si / 1000 Ang^3
#
#
#
# Elastic Constant Matrix: (Units=GPa)
#
#
# Indices 1 2 3 4 5 6 
#
# 1 76.4297 35.6021 42.5879 0.0000 0.0000 0.0000
# 2 35.6021 149.8379 34.2803 0.0000 0.0000 0.0000
# 3 42.5879 34.2803 65.4144 0.0000 0.0000 0.0000
# 4 0.0000 0.0000 0.0000 27.9057 0.0000 0.0000
# 5 0.0000 0.0000 0.0000 0.0000 39.3494 0.0000
# 6 0.0000 0.0000 0.0000 0.0000 0.0000 -89.0139
#
#
#
# Elastic Compliance Matrix: (Units=1/GPa)
#
#
# Indices 1 2 3 4 5 6 
#
# 1 0.021113 -0.002127 -0.012631 0.000000 0.000000 0.000000
# 2 -0.002127 0.007797 -0.002702 0.000000 0.000000 0.000000
# 3 -0.012631 -0.002702 0.024926 0.000000 0.000000 0.000000
# 4 0.000000 0.000000 0.000000 0.035835 0.000000 0.000000
# 5 0.000000 0.000000 0.000000 0.000000 0.025413 0.000000
# 6 0.000000 0.000000 0.000000 0.000000 0.000000 -0.011234
#
#
# Mechanical properties :
#
#
# Convention : Reuss Voigt Hill
#
# Bulk Modulus (GPa) = 52.86007 57.40253 55.13130
# Shear Modulus (GPa) = 34.46502 7.59568 21.03035
#
# Velocity S-wave (km/s) = 4.07713 1.91403 3.18485
# Velocity P-wave (km/s) = 6.90357 5.70708 6.33364
#
# Compressibility (1/GPa) = 0.01891787
#
# Stress axis : x y z
#
# Youngs Moduli (GPa) = 47.36477 128.25003 40.11837
#
# Poissons Ratio (x) = 0.27275 0.50673
# Poissons Ratio (y) = 0.10073 0.10838
# Poissons Ratio (z) = 0.59826 0.34647
#
# Static dielectric constant tensor:
#      x y z
#    x 3.707000 0.000000 0.000000 
#    y 0.000000 4.362260 0.000000 
#    z 0.000000 0.000000 3.607480 
# 
# 
# High freq. dielectric constant tensor:
#      x y z
#    x 1.800130 0.000000 0.000000 
#    y 0.000000 1.827380 0.000000 
#    z 0.000000 0.000000 1.803660 
# 
# From -- ./inp_files/10952.got.cif
#   From: 2010.03.12/outbox.cif.g09.slc.cpg/sg51_6_cif.got.tgz:10952.got - 2010.04.16 13:43:02.
