data_PCOD8210041
_publ_section_title
;
Structure prediction by ZEFSAII (Michael W. Deem and Ramdas Pophale) SiO2 
 PCOD8210041
Probable space group: P M M A
;
_chemical_formula_sum "Si O2"
_cell_formula_units_Z 48
_cell_length_a 17.891607
_cell_length_b 14.071566
_cell_length_c 9.984701
_cell_angle_alpha 90.000000
_cell_angle_beta 90.000000
_cell_angle_gamma 90.000000
_cell_volume 2513.777566
_symmetry_space_group_name_H-M "P M M A"
_symmetry_group_IT_number 51
_symmetry_cell_setting 'orthorhombic'
loop_
_space_group_symop_operation_xyz
x,y,z
1/2-x,-y,z
1/2+x,-y,-z
-x,y,-z
-x,-y,-z
1/2+x,y,-z
1/2-x,y,z
x,-y,z
loop_
_atom_site_type_symbol
_atom_site_label
_atom_site_fract_x
_atom_site_fract_y
_atom_site_fract_z
Si Si1 0.904994 0.000000 0.361239
Si Si2 0.919181 0.000000 0.659996
Si Si3 0.838741 0.500000 0.926258
Si Si4 0.912349 0.690893 0.992496
Si Si5 0.578733 0.201838 0.728392
Si Si6 0.838342 0.500000 0.621103
Si Si7 0.096430 0.203939 0.740821
Si Si8 0.337699 0.303703 0.498979
O O1 0.876583 0.000000 0.515788
O O2 0.876195 0.095204 0.284434
O O3 0.993278 0.000000 0.366617
O O4 0.899342 0.091552 0.749612
O O5 0.750000 0.500000 0.930600
O O6 0.868420 0.592096 0.005188
O O7 0.869923 0.500000 0.773273
O O8 0.889762 0.738670 0.852205
O O9 0.887611 0.765256 0.106726
O O10 0.000000 0.669259 0.000000
O O11 0.490692 0.215475 0.707719
O O12 0.618904 0.229732 0.592322
O O13 0.750000 0.500000 0.629920
O O14 0.867004 0.591189 0.539003
O O15 0.142609 0.278593 0.651266
O O16 0.250000 0.294758 0.473118
#
# Coordination Sequence:
#
# PCOD8210041 Si02
#       8
#     4   4   4   8   8   4   8   8
#     4   9  16  31  55  81 114 148 181 226 279 335
#     4   9  16  29  57  85 108 146 191 224 267 335
#     4  11  21  38  61  79 108 155 191 223 280 337
#     4  10  22  37  58  85 117 146 186 236 277 329
#     4  10  19  36  58  82 112 148 188 227 272 332
#     4   9  20  36  56  80 105 140 185 231 272 325
#     4  10  21  36  56  84 115 148 180 229 286 327
#     4  11  21  36  57  81 109 143 189 233 275 332
#
# _framework density 19.094768999999999
#
# number of rings (size 3 to 8) (size 9 to 14) (size 15 to 20)
#    0.000    2.000    3.333    0.750    0.000    2.000 
#    0.000    8.333    0.000    0.000    0.000    3.500 
#    0.000    0.000    0.000    0.000    0.000    0.000 
#
# Total GULP energy -595165.385048 kJ/mol
# GULP energy per Si atom -12399.278855 kJ/mol
# Density = 1.905131 g / cm^3
# Si number density = 19.094769 Si / 1000 Ang^3
#
#
#
# Elastic Constant Matrix: (Units=GPa)
#
#
# Indices 1 2 3 4 5 6 
#
# 1 30.6076 26.3226 16.4209 0.0000 0.0000 0.0000
# 2 26.3226 142.9824 33.0211 0.0000 0.0000 0.0000
# 3 16.4209 33.0211 74.2804 0.0000 0.0000 0.0000
# 4 0.0000 0.0000 0.0000 34.8985 0.0000 0.0000
# 5 0.0000 0.0000 0.0000 0.0000 20.5041 0.0000
# 6 0.0000 0.0000 0.0000 0.0000 0.0000 14.4589
#
#
#
# Elastic Compliance Matrix: (Units=1/GPa)
#
#
# Indices 1 2 3 4 5 6 
#
# 1 0.041396 -0.006138 -0.006423 0.000000 0.000000 0.000000
# 2 -0.006138 0.008704 -0.002513 0.000000 0.000000 0.000000
# 3 -0.006423 -0.002513 0.015999 0.000000 0.000000 0.000000
# 4 0.000000 0.000000 0.000000 0.028654 0.000000 0.000000
# 5 0.000000 0.000000 0.000000 0.000000 0.048771 0.000000
# 6 0.000000 0.000000 0.000000 0.000000 0.000000 0.069162
#
#
# Mechanical properties :
#
#
# Convention : Reuss Voigt Hill
#
# Bulk Modulus (GPa) = 27.81380 44.37774 36.09577
# Shear Modulus (GPa) = 19.62200 25.44602 22.53401
#
# Velocity S-wave (km/s) = 3.20912 3.65446 3.43901
# Velocity P-wave (km/s) = 5.32250 6.41078 5.89182
#
# Compressibility (1/GPa) = 0.03595337
#
# Stress axis : x y z
#
# Youngs Moduli (GPa) = 24.15709 114.88926 62.50271
#
# Poissons Ratio (x) = 0.70514 0.40144
# Poissons Ratio (y) = 0.14826 0.15704
# Poissons Ratio (z) = 0.15516 0.28867
#
# Static dielectric constant tensor:
#      x y z
#    x 3.160160 0.000000 0.000000 
#    y 0.000000 3.813410 0.000000 
#    z 0.000000 0.000000 3.456410 
# 
# 
# High freq. dielectric constant tensor:
#      x y z
#    x 1.708850 0.000000 0.000000 
#    y 0.000000 1.759060 0.000000 
#    z 0.000000 0.000000 1.737330 
# 
# From -- ./inp_files/9739.got.cif
#   From: 2010.03.12/outbox.cif.g09.slc.cpg/sg51_5_cif.got.tgz:9739.got - 2010.04.16 13:43:02.
