data_PCOD8210865
_publ_section_title
;
Structure prediction by ZEFSAII (Michael W. Deem and Ramdas Pophale) SiO2 
 PCOD8210865
Probable space group: P M M A
;
_chemical_formula_sum "Si O2"
_cell_formula_units_Z 48
_cell_length_a 9.043561
_cell_length_b 18.756469
_cell_length_c 15.522627
_cell_angle_alpha 90.000000
_cell_angle_beta 90.000000
_cell_angle_gamma 90.000000
_cell_volume 2633.029820
_symmetry_space_group_name_H-M "P M M A"
_symmetry_group_IT_number 51
_symmetry_cell_setting 'orthorhombic'
loop_
_space_group_symop_operation_xyz
x,y,z
1/2-x,-y,z
1/2+x,-y,-z
-x,y,-z
-x,-y,-z
1/2+x,y,-z
1/2-x,y,z
x,-y,z
loop_
_atom_site_type_symbol
_atom_site_label
_atom_site_fract_x
_atom_site_fract_y
_atom_site_fract_z
Si Si1 0.918849 0.915358 0.244352
Si Si2 0.577625 0.324752 0.913330
Si Si3 0.583686 0.584918 0.416674
Si Si4 0.923347 0.417865 0.754323
Si Si5 0.082482 0.915092 0.415319
Si Si6 0.923920 0.839666 0.911751
O O1 0.750000 0.888084 0.241745
O O2 0.994773 0.887082 0.331801
O O3 0.009653 0.885647 0.164603
O O4 0.925257 0.000000 0.240203
O O5 0.750000 0.336902 0.926733
O O6 0.517738 0.372072 0.834588
O O7 0.539492 0.242821 0.893621
O O8 0.500000 0.351558 0.000000
O O9 0.500000 0.616256 0.500000
O O10 0.750000 0.614415 0.417264
O O11 0.580819 0.500000 0.419678
O O12 0.503450 0.611925 0.330555
O O13 0.750000 0.407459 0.739587
O O14 0.963672 0.500000 0.772102
O O15 0.250000 0.885529 0.413133
O O16 0.000000 0.885301 0.500000
O O17 0.083738 0.000000 0.417097
O O18 0.750000 0.853967 0.918688
O O19 0.000000 0.864955 0.000000
#
# Coordination Sequence:
#
# PCOD8210865 Si02
#       6
#     8   8   8   8   8   8
#     4  10  20  33  50  74 101 127 159 200 243 286
#     4   9  19  34  51  71  95 126 162 198 237 284
#     4   9  16  26  42  66  95 126 159 194 234 281
#     4   9  17  30  48  71  99 128 158 195 238 280
#     4   9  16  27  45  70 100 132 163 195 234 281
#     4  10  20  35  53  71  94 126 163 200 240 289
#
# _framework density 18.229949000000001
#
# number of rings (size 3 to 8) (size 9 to 14) (size 15 to 20)
#    0.000    2.667    0.000    2.000    0.000    7.000 
#    0.000    0.000    0.000    1.000    0.000    4.667 
#    0.000    0.000    0.000    0.000    0.000    0.000 
#
# Total GULP energy -595262.768440 kJ/mol
# GULP energy per Si atom -12401.307676 kJ/mol
# Density = 1.818846 g / cm^3
# Si number density = 18.229949 Si / 1000 Ang^3
#
#
#
# Elastic Constant Matrix: (Units=GPa)
#
#
# Indices 1 2 3 4 5 6 
#
# 1 116.2454 23.5011 79.1237 0.0000 0.0000 0.0000
# 2 23.5011 20.3973 34.2326 0.0000 0.0000 0.0000
# 3 79.1237 34.2326 179.8984 0.0000 0.0000 0.0000
# 4 0.0000 0.0000 0.0000 -2.3603 0.0000 0.0000
# 5 0.0000 0.0000 0.0000 0.0000 42.8731 0.0000
# 6 0.0000 0.0000 0.0000 0.0000 0.0000 14.9261
#
#
#
# Elastic Compliance Matrix: (Units=1/GPa)
#
#
# Indices 1 2 3 4 5 6 
#
# 1 0.013105 -0.007971 -0.004247 0.000000 0.000000 0.000000
# 2 -0.007971 0.076878 -0.011123 0.000000 0.000000 0.000000
# 3 -0.004247 -0.011123 0.009543 0.000000 0.000000 0.000000
# 4 0.000000 0.000000 0.000000 -0.423676 0.000000 0.000000
# 5 0.000000 0.000000 0.000000 0.000000 0.023325 0.000000
# 6 0.000000 0.000000 0.000000 0.000000 0.000000 0.066997
#
#
# Mechanical properties :
#
#
# Convention : Reuss Voigt Hill
#
# Bulk Modulus (GPa) = 18.92379 65.58401 42.25390
# Shear Modulus (GPa) = -29.49312 23.06670 -3.21321
#
# Velocity S-wave (km/s) = -4.02660 3.56099 -1.32907
# Velocity P-wave (km/s) = 3.34886 7.27747 4.56874
#
# Compressibility (1/GPa) = 0.05284352
#
# Stress axis : x y z
#
# Youngs Moduli (GPa) = 76.30805 13.00759 104.78662
#
# Poissons Ratio (x) = 0.10369 0.44502
# Poissons Ratio (y) = 0.60827 1.16555
# Poissons Ratio (z) = 0.32408 0.14468
#
# Static dielectric constant tensor:
#      x y z
#    x 3.537430 0.000000 0.000000 
#    y 0.000000 2.965330 0.000000 
#    z 0.000000 0.000000 3.579150 
# 
# 
# High freq. dielectric constant tensor:
#      x y z
#    x 1.717860 0.000000 0.000000 
#    y 0.000000 1.657200 0.000000 
#    z 0.000000 0.000000 1.723120 
# 
# From -- ./inp_files/14459.got.cif
#   From: 2010.03.12/outbox.cif.g09.slc.cpg/sg51_8_cif.got.tgz:14459.got - 2010.04.16 13:43:02.
