data_PCOD8210012
_publ_section_title
;
Structure prediction by ZEFSAII (Michael W. Deem and Ramdas Pophale) SiO2 
 PCOD8210012
Probable space group: P M M A
;
_chemical_formula_sum "Si O2"
_cell_formula_units_Z 64
_cell_length_a 23.725029
_cell_length_b 8.889909
_cell_length_c 15.340819
_cell_angle_alpha 90.000000
_cell_angle_beta 90.000000
_cell_angle_gamma 90.000000
_cell_volume 3235.583509
_symmetry_space_group_name_H-M "P M M A"
_symmetry_group_IT_number 51
_symmetry_cell_setting 'orthorhombic'
loop_
_space_group_symop_operation_xyz
x,y,z
1/2-x,-y,z
1/2+x,-y,-z
-x,y,-z
-x,-y,-z
1/2+x,y,-z
1/2-x,y,z
x,-y,z
loop_
_atom_site_type_symbol
_atom_site_label
_atom_site_fract_x
_atom_site_fract_y
_atom_site_fract_z
Si Si1 0.184347 0.174559 0.507022
Si Si2 0.499486 0.674451 0.102292
Si Si3 0.876506 0.674200 0.844954
Si Si4 0.388241 0.178042 0.841917
Si Si5 0.378803 0.678478 0.664763
Si Si6 0.497048 0.322987 0.596457
Si Si7 0.813413 0.177724 0.998145
Si Si8 0.380274 0.673921 0.352153
O O1 0.250000 0.207375 0.495166
O O2 0.162679 0.269763 0.588572
O O3 0.154061 0.223545 0.418188
O O4 0.171872 0.000000 0.524077
O O5 0.510127 0.500000 0.124913
O O6 0.440137 0.731717 0.140076
O O7 0.547415 0.770213 0.149317
O O8 0.500000 0.705149 0.000000
O O9 0.873652 0.500000 0.870701
O O10 0.833260 0.762554 0.904994
O O11 0.857698 0.701445 0.745302
O O12 0.359830 0.248317 0.755842
O O13 0.385008 0.000000 0.835244
O O14 0.353035 0.239693 0.924613
O O15 0.375764 0.500000 0.672535
O O16 0.442035 0.739692 0.645472
O O17 0.500000 0.251083 0.500000
O O18 0.489175 0.500000 0.588088
O O19 0.553711 0.280927 0.648032
O O20 0.750000 0.234093 0.015580
O O21 0.816392 0.000000 0.994778
O O22 0.373394 0.500000 0.380523
#
# Coordination Sequence:
#
# PCOD8210012 Si02
#       8
#     8   8   8   8   8   8   8   8
#     4  11  25  43  60  82 117 157 197 244 294 344
#     4  10  19  35  61  89 120 156 194 239 296 355
#     4  10  21  37  60  90 120 151 192 244 298 347
#     4  11  23  38  59  88 122 157 196 240 296 357
#     4  11  22  39  65  91 118 152 195 241 292 353
#     4   9  16  32  60  89 116 148 183 228 285 342
#     4  10  23  42  60  79 111 157 201 241 290 348
#     4  10  20  37  61  88 118 152 191 235 288 349
#
# _framework density 19.780049999999999
#
# number of rings (size 3 to 8) (size 9 to 14) (size 15 to 20)
#    0.000    1.750    2.500    1.875    0.000    6.000 
#    0.000    6.875    0.000    0.000    0.000    0.000 
#    0.000    0.000    0.000    0.000    0.000    0.000 
#
# Total GULP energy -793809.752779 kJ/mol
# GULP energy per Si atom -12403.277387 kJ/mol
# Density = 1.973503 g / cm^3
# Si number density = 19.780050 Si / 1000 Ang^3
#
#
#
# Elastic Constant Matrix: (Units=GPa)
#
#
# Indices 1 2 3 4 5 6 
#
# 1 82.7612 27.9471 24.7041 0.0000 0.0000 0.0000
# 2 27.9471 49.3082 29.0992 0.0000 0.0000 0.0000
# 3 24.7041 29.0992 109.4902 0.0000 0.0000 0.0000
# 4 0.0000 0.0000 0.0000 33.8567 0.0000 0.0000
# 5 0.0000 0.0000 0.0000 0.0000 10.5652 0.0000
# 6 0.0000 0.0000 0.0000 0.0000 0.0000 29.5086
#
#
#
# Elastic Compliance Matrix: (Units=1/GPa)
#
#
# Indices 1 2 3 4 5 6 
#
# 1 0.015108 -0.007770 -0.001344 0.000000 0.000000 0.000000
# 2 -0.007770 0.028049 -0.005702 0.000000 0.000000 0.000000
# 3 -0.001344 -0.005702 0.010952 0.000000 0.000000 0.000000
# 4 0.000000 0.000000 0.000000 0.029536 0.000000 0.000000
# 5 0.000000 0.000000 0.000000 0.000000 0.094650 0.000000
# 6 0.000000 0.000000 0.000000 0.000000 0.000000 0.033888
#
#
# Mechanical properties :
#
#
# Convention : Reuss Voigt Hill
#
# Bulk Modulus (GPa) = 40.85227 45.00671 42.92949
# Shear Modulus (GPa) = 20.00212 25.44004 22.72108
#
# Velocity S-wave (km/s) = 3.18343 3.59018 3.39290
# Velocity P-wave (km/s) = 5.84897 6.32367 6.09095
#
# Compressibility (1/GPa) = 0.02447844
#
# Stress axis : x y z
#
# Youngs Moduli (GPa) = 66.19088 35.65162 91.30991
#
# Poissons Ratio (x) = 0.27701 0.12270
# Poissons Ratio (y) = 0.51430 0.52061
# Poissons Ratio (z) = 0.08894 0.20327
#
# Static dielectric constant tensor:
#      x y z
#    x 3.667860 0.000000 0.000000 
#    y 0.000000 3.375080 0.000000 
#    z 0.000000 0.000000 3.722440 
# 
# 
# High freq. dielectric constant tensor:
#      x y z
#    x 1.769530 0.000000 0.000000 
#    y 0.000000 1.750380 0.000000 
#    z 0.000000 0.000000 1.787090 
# 
# From -- ./inp_files/26240.got.cif
#   From: 2010.03.12/outbox.cif.g09.slc.cpg/sg51_14_cif.got.tgz:26240.got - 2010.04.16 13:43:02.
