data_PCOD8210637
_publ_section_title
;
Structure prediction by ZEFSAII (Michael W. Deem and Ramdas Pophale) SiO2 
 PCOD8210637
Probable space group: P M M A
;
_chemical_formula_sum "Si O2"
_cell_formula_units_Z 32
_cell_length_a 7.715005
_cell_length_b 9.493740
_cell_length_c 23.817576
_cell_angle_alpha 90.000000
_cell_angle_beta 90.000000
_cell_angle_gamma 90.000000
_cell_volume 1744.500528
_symmetry_space_group_name_H-M "P M M A"
_symmetry_group_IT_number 51
_symmetry_cell_setting 'orthorhombic'
loop_
_space_group_symop_operation_xyz
x,y,z
1/2-x,-y,z
1/2+x,-y,-z
-x,y,-z
-x,-y,-z
1/2+x,y,-z
1/2-x,y,z
x,-y,z
loop_
_atom_site_type_symbol
_atom_site_label
_atom_site_fract_x
_atom_site_fract_y
_atom_site_fract_z
Si Si1 0.750000 0.332621 0.640989
Si Si2 0.548000 0.338772 0.938629
Si Si3 0.750000 0.166028 0.755717
Si Si4 0.556406 0.332779 0.439530
Si Si5 0.942975 0.160019 0.163807
O O1 0.750000 0.500000 0.650674
O O2 0.750000 0.254049 0.699438
O O3 0.579220 0.282171 0.607402
O O4 0.750000 0.322688 0.927140
O O5 0.485914 0.500000 0.933994
O O6 0.446451 0.250732 0.892495
O O7 0.500000 0.279332 0.000000
O O8 0.580011 0.213310 0.790237
O O9 0.750000 0.000000 0.742245
O O10 0.500000 0.271015 0.500000
O O11 0.750000 0.278580 0.424268
O O12 0.553942 0.500000 0.443044
O O13 0.750000 0.172096 0.189843
O O14 0.988280 0.000000 0.147087
#
# Coordination Sequence:
#
# PCOD8210637 Si02
#       5
#     4   8   4   8   8
#     4  10  20  32  52  82 108 136 179 220 259 314
#     4  10  20  34  54  82 114 143 172 214 273 331
#     4  10  22  40  56  74 108 146 181 224 269 314
#     4   9  15  26  47  77 110 139 169 213 265 311
#     4  10  21  38  59  79 101 139 187 227 267 317
#
# _framework density 18.343359
#
# number of rings (size 3 to 8) (size 9 to 14) (size 15 to 20)
#    0.000    2.250    2.500    0.750    0.000    4.000 
#    0.000    0.000    0.000    0.750    0.000    0.000 
#    0.000    0.000    0.000    0.000    0.000    0.000 
#
# Total GULP energy -396807.043681 kJ/mol
# GULP energy per Si atom -12400.220115 kJ/mol
# Density = 1.830161 g / cm^3
# Si number density = 18.343359 Si / 1000 Ang^3
#
#
#
# Elastic Constant Matrix: (Units=GPa)
#
#
# Indices 1 2 3 4 5 6 
#
# 1 152.3079 30.2204 76.2809 0.0000 0.0000 0.0000
# 2 30.2204 39.5895 49.5974 0.0000 0.0000 0.0000
# 3 76.2809 49.5974 156.2995 0.0000 0.0000 0.0000
# 4 0.0000 0.0000 0.0000 -42.4898 0.0000 0.0000
# 5 0.0000 0.0000 0.0000 0.0000 30.2664 0.0000
# 6 0.0000 0.0000 0.0000 0.0000 0.0000 88.0495
#
#
#
# Elastic Compliance Matrix: (Units=1/GPa)
#
#
# Indices 1 2 3 4 5 6 
#
# 1 0.008806 -0.002221 -0.003593 0.000000 0.000000 0.000000
# 2 -0.002221 0.042487 -0.012398 0.000000 0.000000 0.000000
# 3 -0.003593 -0.012398 0.012086 0.000000 0.000000 0.000000
# 4 0.000000 0.000000 0.000000 -0.023535 0.000000 0.000000
# 5 0.000000 0.000000 0.000000 0.000000 0.033040 0.000000
# 6 0.000000 0.000000 0.000000 0.000000 0.000000 0.011357
#
#
# Mechanical properties :
#
#
# Convention : Reuss Voigt Hill
#
# Bulk Modulus (GPa) = 37.09944 73.37716 55.23830
# Shear Modulus (GPa) = 38.56576 27.97176 33.26876
#
# Velocity S-wave (km/s) = 4.59021 3.90923 4.26334
# Velocity P-wave (km/s) = 6.95430 7.77592 7.37656
#
# Compressibility (1/GPa) = 0.02695458
#
# Stress axis : x y z
#
# Youngs Moduli (GPa) = 113.56276 23.53678 82.74232
#
# Poissons Ratio (x) = 0.05227 0.29729
# Poissons Ratio (y) = 0.25218 1.02586
# Poissons Ratio (z) = 0.40802 0.29181
#
# Static dielectric constant tensor:
#      x y z
#    x 3.783320 0.000000 0.000000 
#    y 0.000000 3.040760 0.000000 
#    z 0.000000 0.000000 3.252870 
# 
# 
# High freq. dielectric constant tensor:
#      x y z
#    x 1.733860 0.000000 0.000000 
#    y 0.000000 1.672770 0.000000 
#    z 0.000000 0.000000 1.704350 
# 
# From -- ./inp_files/34262.got.cif
#   From: 2010.03.12/outbox.cif.g09.slc.cpg/sg51_18_cif.got.tgz:34262.got - 2010.04.16 13:43:02.
