data_PCOD8210209
_publ_section_title
;
Structure prediction by ZEFSAII (Michael W. Deem and Ramdas Pophale) SiO2 
 PCOD8210209
Probable space group: P M M A
;
_chemical_formula_sum "Si O2"
_cell_formula_units_Z 64
_cell_length_a 18.873453
_cell_length_b 9.180489
_cell_length_c 20.943953
_cell_angle_alpha 90.000000
_cell_angle_beta 90.000000
_cell_angle_gamma 90.000000
_cell_volume 3628.906956
_symmetry_space_group_name_H-M "P M M A"
_symmetry_group_IT_number 51
_symmetry_cell_setting 'orthorhombic'
loop_
_space_group_symop_operation_xyz
x,y,z
1/2-x,-y,z
1/2+x,-y,-z
-x,y,-z
-x,-y,-z
1/2+x,y,-z
1/2-x,y,z
x,-y,z
loop_
_atom_site_type_symbol
_atom_site_label
_atom_site_fract_x
_atom_site_fract_y
_atom_site_fract_z
Si Si1 0.906601 0.830707 0.352219
Si Si2 0.634691 0.340163 0.237050
Si Si3 0.832446 0.665630 0.607747
Si Si4 0.534209 0.168133 0.068611
Si Si5 0.437404 0.829736 0.303394
Si Si6 0.477798 0.662650 0.185211
Si Si7 0.669520 0.669460 0.460887
Si Si8 0.827967 0.330258 0.100283
O O1 0.855771 0.769322 0.296057
O O2 0.886244 0.758607 0.419080
O O3 0.988128 0.793863 0.337481
O O4 0.892036 0.000000 0.357218
O O5 0.661330 0.500000 0.258950
O O6 0.553730 0.348528 0.216816
O O7 0.677591 0.285762 0.175087
O O8 0.750000 0.685355 0.623055
O O9 0.856152 0.500000 0.622588
O O10 0.875167 0.777472 0.650862
O O11 0.848075 0.703395 0.534280
O O12 0.483677 0.251108 0.118575
O O13 0.613350 0.234391 0.064669
O O14 0.539875 0.000000 0.089350
O O15 0.500000 0.186820 0.000000
O O16 0.428445 0.749036 0.235208
O O17 0.429651 0.000000 0.290186
O O18 0.447086 0.500000 0.172691
O O19 0.750000 0.717401 0.445251
O O20 0.659537 0.500000 0.446162
O O21 0.750000 0.302730 0.069831
O O22 0.850145 0.500000 0.095001
#
# Coordination Sequence:
#
# PCOD8210209 Si02
#       8
#     8   8   8   8   8   8   8   8
#     4  10  20  31  45  70 101 130 162 200 243 294
#     4   8  15  28  45  66  93 125 159 194 235 282
#     4   9  19  36  55  73  93 122 165 211 254 305
#     4  10  20  33  51  77 108 140 171 204 248 301
#     4  10  20  33  51  76 104 130 158 200 253 303
#     4   9  17  31  52  75  98 126 162 202 239 280
#     4   9  19  35  51  66  89 125 167 209 251 297
#     4   9  18  32  50  73 100 132 173 215 249 289
#
# _framework density 17.636164999999998
#
# number of rings (size 3 to 8) (size 9 to 14) (size 15 to 20)
#    0.000    2.750    0.000    3.000    0.000    7.750 
#    0.000    5.000    0.000    0.750    0.000    3.500 
#    0.000    0.000    0.000    0.000    0.000    0.000 
#
# Total GULP energy -793445.616887 kJ/mol
# GULP energy per Si atom -12397.587764 kJ/mol
# Density = 1.759602 g / cm^3
# Si number density = 17.636165 Si / 1000 Ang^3
#
#
#
# Elastic Constant Matrix: (Units=GPa)
#
#
# Indices 1 2 3 4 5 6 
#
# 1 58.3882 45.4087 42.2933 0.0000 0.0000 0.0000
# 2 45.4087 111.3907 64.9406 0.0000 0.0000 0.0000
# 3 42.2933 64.9406 93.6347 0.0000 0.0000 0.0000
# 4 0.0000 0.0000 0.0000 32.0387 0.0000 0.0000
# 5 0.0000 0.0000 0.0000 0.0000 16.0212 0.0000
# 6 0.0000 0.0000 0.0000 0.0000 0.0000 23.2806
#
#
#
# Elastic Compliance Matrix: (Units=1/GPa)
#
#
# Indices 1 2 3 4 5 6 
#
# 1 0.028257 -0.006846 -0.008015 0.000000 0.000000 0.000000
# 2 -0.006846 0.016730 -0.008511 0.000000 0.000000 0.000000
# 3 -0.008015 -0.008511 0.020203 0.000000 0.000000 0.000000
# 4 0.000000 0.000000 0.000000 0.031212 0.000000 0.000000
# 5 0.000000 0.000000 0.000000 0.000000 0.062417 0.000000
# 6 0.000000 0.000000 0.000000 0.000000 0.000000 0.042954
#
#
# Mechanical properties :
#
#
# Convention : Reuss Voigt Hill
#
# Bulk Modulus (GPa) = 54.21369 63.18878 58.70123
# Shear Modulus (GPa) = 19.63358 21.65282 20.64320
#
# Velocity S-wave (km/s) = 3.34017 3.50773 3.42497
# Velocity P-wave (km/s) = 6.75888 7.23273 6.99982
#
# Compressibility (1/GPa) = 0.01844553
#
# Stress axis : x y z
#
# Youngs Moduli (GPa) = 35.38994 59.77234 49.49821
#
# Poissons Ratio (x) = 0.40922 0.39672
# Poissons Ratio (y) = 0.24229 0.42127
# Poissons Ratio (z) = 0.28364 0.50872
#
# Static dielectric constant tensor:
#      x y z
#    x 3.184410 0.000000 0.000000 
#    y 0.000000 3.373330 0.000000 
#    z 0.000000 0.000000 3.218640 
# 
# 
# High freq. dielectric constant tensor:
#      x y z
#    x 1.657850 0.000000 0.000000 
#    y 0.000000 1.687220 0.000000 
#    z 0.000000 0.000000 1.672860 
# 
# From -- ./inp_files/30634.got.cif
#   From: 2010.03.12/outbox.cif.g09.slc.cpg/sg51_16_cif.got.tgz:30634.got - 2010.04.16 13:43:02.
