data_PCOD8210265
_publ_section_title
;
Structure prediction by ZEFSAII (Michael W. Deem and Ramdas Pophale) SiO2 
 PCOD8210265
Probable space group: P M M A
;
_chemical_formula_sum "Si O2"
_cell_formula_units_Z 56
_cell_length_a 18.467340
_cell_length_b 9.602901
_cell_length_c 18.591951
_cell_angle_alpha 90.000000
_cell_angle_beta 90.000000
_cell_angle_gamma 90.000000
_cell_volume 3297.097292
_symmetry_space_group_name_H-M "P M M A"
_symmetry_group_IT_number 51
_symmetry_cell_setting 'orthorhombic'
loop_
_space_group_symop_operation_xyz
x,y,z
1/2-x,-y,z
1/2+x,-y,-z
-x,y,-z
-x,-y,-z
1/2+x,y,-z
1/2-x,y,z
x,-y,z
loop_
_atom_site_type_symbol
_atom_site_label
_atom_site_fract_x
_atom_site_fract_y
_atom_site_fract_z
Si Si1 0.060406 0.657756 0.208179
Si Si2 0.665145 0.654958 0.583626
Si Si3 0.966055 0.662659 0.072133
Si Si4 0.335235 0.840481 0.285343
Si Si5 0.420114 0.660746 0.702158
Si Si6 0.667371 0.666679 0.162847
Si Si7 0.568139 0.663192 0.456267
O O1 0.090186 0.500000 0.209945
O O2 0.126683 0.764041 0.218591
O O3 0.025649 0.692604 0.132032
O O4 0.001326 0.680959 0.270005
O O5 0.750000 0.657100 0.579348
O O6 0.636694 0.500000 0.605150
O O7 0.637392 0.764594 0.642257
O O8 0.637969 0.695636 0.504564
O O9 0.955170 0.500000 0.058443
O O10 0.887119 0.720917 0.099096
O O11 0.000000 0.733075 0.000000
O O12 0.250000 0.825905 0.274293
O O13 0.359844 0.000000 0.289279
O O14 0.399553 0.500000 0.694718
O O15 0.362532 0.724398 0.759942
O O16 0.417762 0.731755 0.622628
O O17 0.750000 0.719367 0.149824
O O18 0.664096 0.500000 0.164143
O O19 0.500000 0.727677 0.500000
O O20 0.553752 0.500000 0.444367
#
# Coordination Sequence:
#
# PCOD8210265 Si02
#       7
#     8   8   8   8   8   8   8
#     4   9  16  28  47  66  85 113 146 177 211 255
#     4   9  17  28  42  60  81 107 140 176 214 258
#     4   8  14  25  41  63  91 118 143 175 214 253
#     4  10  20  32  45  61  83 112 144 181 224 263
#     4   8  14  23  37  59  84 110 140 175 214 254
#     4   8  13  21  34  54  83 117 145 170 209 259
#     4   9  15  22  35  56  80 104 132 170 214 254
#
# _framework density 16.984635999999998
#
# number of rings (size 3 to 8) (size 9 to 14) (size 15 to 20)
#    0.000    3.286    0.000    3.000    0.000    3.714 
#    0.000    3.571    0.000    6.857    0.000    0.000 
#    0.000    9.143    0.000    0.000    0.000    1.143 
#
# Total GULP energy -693785.010642 kJ/mol
# GULP energy per Si atom -12389.018047 kJ/mol
# Density = 1.694598 g / cm^3
# Si number density = 16.984636 Si / 1000 Ang^3
#
#
#
# Elastic Constant Matrix: (Units=GPa)
#
#
# Indices 1 2 3 4 5 6 
#
# 1 73.2575 30.4976 67.6418 0.0000 0.0000 0.0000
# 2 30.4976 49.6255 33.6476 0.0000 0.0000 0.0000
# 3 67.6418 33.6476 125.4226 0.0000 0.0000 0.0000
# 4 0.0000 0.0000 0.0000 0.8996 0.0000 0.0000
# 5 0.0000 0.0000 0.0000 0.0000 22.9069 0.0000
# 6 0.0000 0.0000 0.0000 0.0000 0.0000 10.1700
#
#
#
# Elastic Compliance Matrix: (Units=1/GPa)
#
#
# Indices 1 2 3 4 5 6 
#
# 1 0.030285 -0.009213 -0.013861 0.000000 0.000000 0.000000
# 2 -0.009213 0.027434 -0.002391 0.000000 0.000000 0.000000
# 3 -0.013861 -0.002391 0.016090 0.000000 0.000000 0.000000
# 4 0.000000 0.000000 0.000000 1.111667 0.000000 0.000000
# 5 0.000000 0.000000 0.000000 0.000000 0.043655 0.000000
# 6 0.000000 0.000000 0.000000 0.000000 0.000000 0.098328
#
#
# Mechanical properties :
#
#
# Convention : Reuss Voigt Hill
#
# Bulk Modulus (GPa) = 43.71044 56.87551 50.29298
# Shear Modulus (GPa) = 3.60746 14.56319 9.08533
#
# Velocity S-wave (km/s) = 1.45896 2.93137 2.31533
# Velocity P-wave (km/s) = 5.35063 6.70943 6.06818
#
# Compressibility (1/GPa) = 0.02287783
#
# Stress axis : x y z
#
# Youngs Moduli (GPa) = 33.01999 36.45079 62.15045
#
# Poissons Ratio (x) = 0.33583 0.86148
# Poissons Ratio (y) = 0.30422 0.14860
# Poissons Ratio (z) = 0.45770 0.08716
#
# Static dielectric constant tensor:
#      x y z
#    x 3.241490 0.000000 0.000000 
#    y 0.000000 2.648570 0.000000 
#    z 0.000000 0.000000 3.444500 
# 
# 
# High freq. dielectric constant tensor:
#      x y z
#    x 1.657230 0.000000 0.000000 
#    y 0.000000 1.580910 0.000000 
#    z 0.000000 0.000000 1.657490 
# 
# From -- ./inp_files/30363.got.cif
#   From: 2010.03.12/outbox.cif.g09.slc.cpg/sg51_16_cif.got.tgz:30363.got - 2010.04.16 13:43:02.
