data_PCOD8210063
_publ_section_title
;
Structure prediction by ZEFSAII (Michael W. Deem and Ramdas Pophale) SiO2 
 PCOD8210063
Probable space group: P M M A
;
_chemical_formula_sum "Si O2"
_cell_formula_units_Z 40
_cell_length_a 8.992872
_cell_length_b 10.048002
_cell_length_c 24.220683
_cell_angle_alpha 90.000000
_cell_angle_beta 90.000000
_cell_angle_gamma 90.000000
_cell_volume 2188.590503
_symmetry_space_group_name_H-M "P M M A"
_symmetry_group_IT_number 51
_symmetry_cell_setting 'orthorhombic'
loop_
_space_group_symop_operation_xyz
x,y,z
1/2-x,-y,z
1/2+x,-y,-z
-x,y,-z
-x,-y,-z
1/2+x,y,-z
1/2-x,y,z
x,-y,z
loop_
_atom_site_type_symbol
_atom_site_label
_atom_site_fract_x
_atom_site_fract_y
_atom_site_fract_z
Si Si1 0.424562 0.348221 0.942768
Si Si2 0.576904 0.155709 0.857435
Si Si3 0.574593 0.500000 0.440419
Si Si4 0.920439 0.000000 0.557635
Si Si5 0.575861 0.264736 0.622412
Si Si6 0.925569 0.146309 0.734041
O O1 0.250000 0.331682 0.950232
O O2 0.466925 0.500000 0.926485
O O3 0.479046 0.247248 0.896437
O O4 0.500000 0.307314 0.000000
O O5 0.750000 0.185158 0.868071
O O6 0.530187 0.196600 0.795027
O O7 0.542602 0.000000 0.868027
O O8 0.750000 0.500000 0.449127
O O9 0.500000 0.500000 0.500000
O O10 0.526329 0.373121 0.405731
O O11 0.963327 0.127351 0.593127
O O12 0.000000 0.000000 0.500000
O O13 0.750000 0.000000 0.542439
O O14 0.750000 0.302740 0.616839
O O15 0.525864 0.250689 0.686675
O O16 0.750000 0.128925 0.730664
O O17 0.996434 0.000000 0.723348
#
# Coordination Sequence:
#
# PCOD8210063 Si02
#       6
#     8   8   4   4   8   8
#     4  10  21  37  56  78 108 147 187 229 274 321
#     4   9  18  33  56  85 113 143 181 224 267 318
#     4  12  26  42  56  76 108 146 183 224 273 326
#     4  10  20  32  54  84 108 134 173 222 269 318
#     4  10  19  36  60  83 108 141 179 222 270 322
#     4   8  14  30  57  85 111 139 177 222 266 316
#
# _framework density 18.276603999999999
#
# number of rings (size 3 to 8) (size 9 to 14) (size 15 to 20)
#    0.000    2.400    1.000    3.300    0.000    4.400 
#    1.800    1.000    0.000    1.200    0.000    0.000 
#    0.000    0.000    0.000    0.000    0.000    0.000 
#
# Total GULP energy -495873.669408 kJ/mol
# GULP energy per Si atom -12396.841735 kJ/mol
# Density = 1.823501 g / cm^3
# Si number density = 18.276604 Si / 1000 Ang^3
#
#
#
# Elastic Constant Matrix: (Units=GPa)
#
#
# Indices 1 2 3 4 5 6 
#
# 1 75.4088 53.8539 61.1014 0.0000 0.0000 0.0000
# 2 53.8539 106.5721 77.2689 0.0000 0.0000 0.0000
# 3 61.1014 77.2689 165.6749 0.0000 0.0000 0.0000
# 4 0.0000 0.0000 0.0000 288.2057 0.0000 0.0000
# 5 0.0000 0.0000 0.0000 0.0000 29.3995 0.0000
# 6 0.0000 0.0000 0.0000 0.0000 0.0000 36.5064
#
#
#
# Elastic Compliance Matrix: (Units=1/GPa)
#
#
# Indices 1 2 3 4 5 6 
#
# 1 0.022853 -0.008215 -0.004597 0.000000 0.000000 0.000000
# 2 -0.008215 0.017131 -0.004960 0.000000 0.000000 0.000000
# 3 -0.004597 -0.004960 0.010044 0.000000 0.000000 0.000000
# 4 0.000000 0.000000 0.000000 0.003470 0.000000 0.000000
# 5 0.000000 0.000000 0.000000 0.000000 0.034014 0.000000
# 6 0.000000 0.000000 0.000000 0.000000 0.000000 0.027392
#
#
# Mechanical properties :
#
#
# Convention : Reuss Voigt Hill
#
# Bulk Modulus (GPa) = 69.04015 81.34492 75.19254
# Shear Modulus (GPa) = 32.20083 81.18444 56.69263
#
# Velocity S-wave (km/s) = 4.20201 6.67205 5.57553
# Velocity P-wave (km/s) = 7.83579 10.19605 9.09283
#
# Compressibility (1/GPa) = 0.01448433
#
# Stress axis : x y z
#
# Youngs Moduli (GPa) = 43.75874 58.37438 99.55896
#
# Poissons Ratio (x) = 0.47957 0.45763
# Poissons Ratio (y) = 0.35950 0.49379
# Poissons Ratio (z) = 0.20114 0.28952
#
# Static dielectric constant tensor:
#      x y z
#    x 3.126080 0.000000 0.000000 
#    y 0.000000 3.378430 0.000000 
#    z 0.000000 0.000000 3.694450 
# 
# 
# High freq. dielectric constant tensor:
#      x y z
#    x 1.683920 0.000000 0.000000 
#    y 0.000000 1.704740 0.000000 
#    z 0.000000 0.000000 1.724120 
# 
# From -- ./inp_files/36015.got.cif
#   From: 2010.03.12/outbox.cif.g09.slc.cpg/sg51_19_cif.got.tgz:36015.got - 2010.04.16 13:43:02.
