data_PCOD8210317
_publ_section_title
;
Structure prediction by ZEFSAII (Michael W. Deem and Ramdas Pophale) SiO2 
 PCOD8210317
Probable space group: P M M A
;
_chemical_formula_sum "Si O2"
_cell_formula_units_Z 56
_cell_length_a 8.863303
_cell_length_b 15.161130
_cell_length_c 20.820051
_cell_angle_alpha 90.000000
_cell_angle_beta 90.000000
_cell_angle_gamma 90.000000
_cell_volume 2797.750339
_symmetry_space_group_name_H-M "P M M A"
_symmetry_group_IT_number 51
_symmetry_cell_setting 'orthorhombic'
loop_
_space_group_symop_operation_xyz
x,y,z
1/2-x,-y,z
1/2+x,-y,-z
-x,y,-z
-x,-y,-z
1/2+x,y,-z
1/2-x,y,z
x,-y,z
loop_
_atom_site_type_symbol
_atom_site_label
_atom_site_fract_x
_atom_site_fract_y
_atom_site_fract_z
Si Si1 0.084511 0.670984 0.939943
Si Si2 0.416410 0.125488 0.937887
Si Si3 0.073413 0.404891 0.694942
Si Si4 0.573433 0.100345 0.801126
Si Si5 0.427594 0.899335 0.564701
Si Si6 0.569890 0.209929 0.313584
Si Si7 0.418032 0.402624 0.173647
O O1 0.250000 0.626712 0.930056
O O2 0.106020 0.772851 0.953429
O O3 0.978233 0.664842 0.878386
O O4 0.000000 0.625266 0.000000
O O5 0.250000 0.082445 0.930507
O O6 0.507769 0.109488 0.872487
O O7 0.500000 0.082568 0.000000
O O8 0.250000 0.408430 0.684027
O O9 0.006540 0.500000 0.666916
O O10 0.013375 0.310351 0.668784
O O11 0.036778 0.401455 0.769474
O O12 0.750000 0.121355 0.804132
O O13 0.499100 0.170735 0.752049
O O14 0.543725 0.000000 0.776704
O O15 0.500000 0.859301 0.500000
O O16 0.250000 0.890168 0.558328
O O17 0.487843 0.847188 0.626474
O O18 0.479618 0.000000 0.573647
O O19 0.750000 0.207266 0.305412
O O20 0.250000 0.374083 0.196583
O O21 0.412962 0.500000 0.142880
#
# Coordination Sequence:
#
# PCOD8210317 Si02
#       7
#     8   8   8   8   8   8   8
#     4  10  20  33  49  68  89 117 157 205 258 316
#     4  10  21  37  56  75  97 131 175 221 269 322
#     4   9  18  33  53  77 104 135 173 216 261 311
#     4  11  24  38  53  78 110 142 178 222 273 327
#     4   9  18  33  54  81 113 148 185 223 264 315
#     4  10  20  35  57  83 111 145 183 224 271 319
#     4  10  20  32  46  66  93 125 161 204 258 317
#
# _framework density 20.016082000000001
#
# number of rings (size 3 to 8) (size 9 to 14) (size 15 to 20)
#    0.000    2.143    0.000    3.000    0.000    9.429 
#    0.000    1.429    0.000    0.429    0.000    0.000 
#    0.000    0.000    0.000    0.000    0.000    0.000 
#
# Total GULP energy -693784.398846 kJ/mol
# GULP energy per Si atom -12389.007122 kJ/mol
# Density = 1.997052 g / cm^3
# Si number density = 20.016082 Si / 1000 Ang^3
#
#
#
# Elastic Constant Matrix: (Units=GPa)
#
#
# Indices 1 2 3 4 5 6 
#
# 1 59.6356 30.1411 27.3785 0.0000 0.0000 0.0000
# 2 30.1411 104.6237 47.7824 0.0000 0.0000 0.0000
# 3 27.3785 47.7824 113.9776 0.0000 0.0000 0.0000
# 4 0.0000 0.0000 0.0000 22.5383 0.0000 0.0000
# 5 0.0000 0.0000 0.0000 0.0000 29.4573 0.0000
# 6 0.0000 0.0000 0.0000 0.0000 0.0000 12.9039
#
#
#
# Elastic Compliance Matrix: (Units=1/GPa)
#
#
# Indices 1 2 3 4 5 6 
#
# 1 0.020433 -0.004508 -0.003018 0.000000 0.000000 0.000000
# 2 -0.004508 0.012816 -0.004290 0.000000 0.000000 0.000000
# 3 -0.003018 -0.004290 0.011297 0.000000 0.000000 0.000000
# 4 0.000000 0.000000 0.000000 0.044369 0.000000 0.000000
# 5 0.000000 0.000000 0.000000 0.000000 0.033947 0.000000
# 6 0.000000 0.000000 0.000000 0.000000 0.000000 0.077496
#
#
# Mechanical properties :
#
#
# Convention : Reuss Voigt Hill
#
# Bulk Modulus (GPa) = 47.81626 54.31566 51.06596
# Shear Modulus (GPa) = 21.64863 24.50888 23.07876
#
# Velocity S-wave (km/s) = 3.29228 3.50302 3.39928
# Velocity P-wave (km/s) = 6.19620 6.59973 6.40115
#
# Compressibility (1/GPa) = 0.02091339
#
# Stress axis : x y z
#
# Youngs Moduli (GPa) = 48.94140 78.02726 88.51809
#
# Poissons Ratio (x) = 0.35175 0.26717
# Poissons Ratio (y) = 0.22063 0.37974
# Poissons Ratio (z) = 0.14772 0.33473
#
# Static dielectric constant tensor:
#      x y z
#    x 3.815870 0.000000 0.000000 
#    y 0.000000 4.100710 0.000000 
#    z 0.000000 0.000000 3.409330 
# 
# 
# High freq. dielectric constant tensor:
#      x y z
#    x 1.781420 0.000000 0.000000 
#    y 0.000000 1.791370 0.000000 
#    z 0.000000 0.000000 1.749530 
# 
# From -- ./inp_files/32039.got.cif
#   From: 2010.03.12/outbox.cif.g09.slc.cpg/sg51_17_cif.got.tgz:32039.got - 2010.04.16 13:43:02.
