data_PCOD8210169
_publ_section_title
;
Structure prediction by ZEFSAII (Michael W. Deem and Ramdas Pophale) SiO2 
 PCOD8210169
Probable space group: P M M A
;
_chemical_formula_sum "Si O2"
_cell_formula_units_Z 40
_cell_length_a 9.767818
_cell_length_b 19.226318
_cell_length_c 14.569015
_cell_angle_alpha 90.000000
_cell_angle_beta 90.000000
_cell_angle_gamma 90.000000
_cell_volume 2736.048998
_symmetry_space_group_name_H-M "P M M A"
_symmetry_group_IT_number 51
_symmetry_cell_setting 'orthorhombic'
loop_
_space_group_symop_operation_xyz
x,y,z
1/2-x,-y,z
1/2+x,-y,-z
-x,y,-z
-x,-y,-z
1/2+x,y,-z
1/2-x,y,z
x,-y,z
loop_
_atom_site_type_symbol
_atom_site_label
_atom_site_fract_x
_atom_site_fract_y
_atom_site_fract_z
Si Si1 0.594824 0.419574 0.249990
Si Si2 0.003904 0.165539 0.890665
Si Si3 0.410432 0.313420 0.910647
Si Si4 0.750000 0.923094 0.104055
Si Si5 0.250000 0.920285 0.115184
Si Si6 0.906821 0.417363 0.583059
O O1 0.750000 0.407967 0.287701
O O2 0.571087 0.500000 0.225916
O O3 0.571496 0.377779 0.156837
O O4 0.483743 0.393829 0.324126
O O5 0.028778 0.244975 0.859019
O O6 0.122684 0.116683 0.854356
O O7 0.873630 0.126952 0.848254
O O8 0.000000 0.167606 0.000000
O O9 0.250000 0.301219 0.937103
O O10 0.500000 0.330788 0.000000
O O11 0.750000 0.000000 0.144597
O O12 0.750000 0.924998 0.994176
O O13 0.250000 0.000000 0.154207
O O14 0.750000 0.388142 0.580266
O O15 0.901591 0.500000 0.576504
O O16 0.000000 0.387712 0.500000
#
# Coordination Sequence:
#
# PCOD8210169 Si02
#       6
#     8   8   8   4   4   8
#     4   9  18  32  46  61  82 108 142 181 216 250
#     4   9  16  25  36  52  72  98 130 168 206 249
#     4  10  20  31  43  57  77 110 148 184 218 249
#     4   9  14  22  36  52  71  93 122 163 207 245
#     4   9  16  24  36  54  73  93 124 165 207 247
#     4   9  16  27  45  68  89 107 128 160 206 258
#
# _framework density 14.619622
#
# number of rings (size 3 to 8) (size 9 to 14) (size 15 to 20)
#    0.000    2.800    1.000    1.200    4.200    6.000 
#    0.000    0.000    0.000    0.000    0.000    0.000 
#    0.000    0.000    0.000    0.000    0.000    6.000 
#
# Total GULP energy -495604.167588 kJ/mol
# GULP energy per Si atom -12390.104190 kJ/mol
# Density = 1.458635 g / cm^3
# Si number density = 14.619622 Si / 1000 Ang^3
#
#
#
# Elastic Constant Matrix: (Units=GPa)
#
#
# Indices 1 2 3 4 5 6 
#
# 1 137.5118 46.5317 43.2811 0.0000 0.0000 0.0000
# 2 46.5317 76.3611 31.5559 0.0000 0.0000 0.0000
# 3 43.2811 31.5559 48.4023 0.0000 0.0000 0.0000
# 4 0.0000 0.0000 0.0000 0.6143 0.0000 0.0000
# 5 0.0000 0.0000 0.0000 0.0000 19.0192 0.0000
# 6 0.0000 0.0000 0.0000 0.0000 0.0000 22.9880
#
#
#
# Elastic Compliance Matrix: (Units=1/GPa)
#
#
# Indices 1 2 3 4 5 6 
#
# 1 0.010776 -0.003538 -0.007330 0.000000 0.000000 0.000000
# 2 -0.003538 0.019086 -0.009280 0.000000 0.000000 0.000000
# 3 -0.007330 -0.009280 0.033264 0.000000 0.000000 0.000000
# 4 0.000000 0.000000 0.000000 1.627867 0.000000 0.000000
# 5 0.000000 0.000000 0.000000 0.000000 0.052578 0.000000
# 6 0.000000 0.000000 0.000000 0.000000 0.000000 0.043501
#
#
# Mechanical properties :
#
#
# Convention : Reuss Voigt Hill
#
# Bulk Modulus (GPa) = 43.79751 56.11250 49.95500
# Shear Modulus (GPa) = 2.72483 17.91809 10.32146
#
# Velocity S-wave (km/s) = 1.36670 3.50468 2.65995
# Velocity P-wave (km/s) = 5.70207 7.40554 6.60892
#
# Compressibility (1/GPa) = 0.02283235
#
# Stress axis : x y z
#
# Youngs Moduli (GPa) = 92.79770 52.39362 30.06228
#
# Poissons Ratio (x) = 0.18535 0.22034
# Poissons Ratio (y) = 0.32829 0.27898
# Poissons Ratio (z) = 0.68017 0.48621
#
# Static dielectric constant tensor:
#      x y z
#    x 3.177100 0.000000 0.000000 
#    y 0.000000 2.844530 0.000000 
#    z 0.000000 0.000000 2.369870 
# 
# 
# High freq. dielectric constant tensor:
#      x y z
#    x 1.582340 0.000000 0.000000 
#    y 0.000000 1.547490 0.000000 
#    z 0.000000 0.000000 1.493640 
# 
# From -- ./inp_files/14286.got.cif
#   From: 2010.03.12/outbox.cif.g09.slc.cpg/sg51_8_cif.got.tgz:14286.got - 2010.04.16 13:43:02.
