data_PCOD8210951
_publ_section_title
;
Structure prediction by ZEFSAII (Michael W. Deem and Ramdas Pophale) SiO2 
 PCOD8210951
Probable space group: P M M A
;
_chemical_formula_sum "Si O2"
_cell_formula_units_Z 64
_cell_length_a 14.823481
_cell_length_b 9.464888
_cell_length_c 23.697694
_cell_angle_alpha 90.000000
_cell_angle_beta 90.000000
_cell_angle_gamma 90.000000
_cell_volume 3324.847784
_symmetry_space_group_name_H-M "P M M A"
_symmetry_group_IT_number 51
_symmetry_cell_setting 'orthorhombic'
loop_
_space_group_symop_operation_xyz
x,y,z
1/2-x,-y,z
1/2+x,-y,-z
-x,y,-z
-x,-y,-z
1/2+x,y,-z
1/2-x,y,z
x,-y,z
loop_
_atom_site_type_symbol
_atom_site_label
_atom_site_fract_x
_atom_site_fract_y
_atom_site_fract_z
Si Si1 0.594985 0.659744 0.969146
Si Si2 0.645515 0.665599 0.426352
Si Si3 0.646933 0.162022 0.537396
Si Si4 0.850071 0.168193 0.181876
Si Si5 0.350236 0.849792 0.937898
Si Si6 0.144100 0.335499 0.154548
Si Si7 0.473246 0.835058 0.240583
Si Si8 0.497007 0.836467 0.368170
O O1 0.629857 0.500000 0.971077
O O2 0.596763 0.711854 0.904531
O O3 0.500000 0.680165 0.000000
O O4 0.659676 0.752126 0.007619
O O5 0.750000 0.692396 0.410825
O O6 0.623539 0.500000 0.430048
O O7 0.620937 0.736765 0.485936
O O8 0.584240 0.739040 0.378872
O O9 0.750000 0.186272 0.556700
O O10 0.583152 0.202690 0.589216
O O11 0.631494 0.000000 0.518175
O O12 0.750000 0.230831 0.196982
O O13 0.889029 0.219543 0.120038
O O14 0.925338 0.219793 0.226281
O O15 0.845279 0.000000 0.182087
O O16 0.250000 0.885596 0.918093
O O17 0.399130 0.000000 0.952954
O O18 0.250000 0.301810 0.150306
O O19 0.126471 0.500000 0.166164
O O20 0.102050 0.248143 0.205621
O O21 0.457728 0.804371 0.306368
O O22 0.462209 0.000000 0.226142
O O23 0.526553 0.000000 0.373545
#
# Coordination Sequence:
#
# PCOD8210951 Si02
#       8
#     8   8   8   8   8   8   8   8
#     4  10  20  33  51  75 101 130 167 214 267 321
#     4  10  21  36  55  82 114 145 178 217 262 316
#     4   9  18  34  55  78 108 144 178 218 271 325
#     4   8  15  30  51  75 105 137 168 211 271 331
#     4   9  17  29  47  71  96 123 158 201 252 311
#     4  10  22  39  55  73 105 148 185 220 270 326
#     4  10  21  36  56  81 105 136 183 230 264 305
#     4  10  21  35  54  82 111 141 180 224 271 320
#
# _framework density 19.249002000000001
#
# number of rings (size 3 to 8) (size 9 to 14) (size 15 to 20)
#    0.000    2.500    0.000    2.625    0.000    6.000 
#    0.000    2.500    0.000    2.625    0.000    0.000 
#    0.000    0.000    0.000    0.000    0.000    0.000 
#
# Total GULP energy -793154.421462 kJ/mol
# GULP energy per Si atom -12393.037835 kJ/mol
# Density = 1.920519 g / cm^3
# Si number density = 19.249002 Si / 1000 Ang^3
#
#
#
# Elastic Constant Matrix: (Units=GPa)
#
#
# Indices 1 2 3 4 5 6 
#
# 1 88.4674 39.4951 51.2740 0.0000 0.0000 0.0000
# 2 39.4951 66.4761 48.9898 0.0000 0.0000 0.0000
# 3 51.2740 48.9898 115.6167 0.0000 0.0000 0.0000
# 4 0.0000 0.0000 0.0000 15.3243 0.0000 0.0000
# 5 0.0000 0.0000 0.0000 0.0000 27.8676 0.0000
# 6 0.0000 0.0000 0.0000 0.0000 0.0000 26.1775
#
#
#
# Elastic Compliance Matrix: (Units=1/GPa)
#
#
# Indices 1 2 3 4 5 6 
#
# 1 0.017000 -0.006608 -0.004740 0.000000 0.000000 0.000000
# 2 -0.006608 0.024441 -0.007426 0.000000 0.000000 0.000000
# 3 -0.004740 -0.007426 0.013898 0.000000 0.000000 0.000000
# 4 0.000000 0.000000 0.000000 0.065256 0.000000 0.000000
# 5 0.000000 0.000000 0.000000 0.000000 0.035884 0.000000
# 6 0.000000 0.000000 0.000000 0.000000 0.000000 0.038201
#
#
# Mechanical properties :
#
#
# Convention : Reuss Voigt Hill
#
# Bulk Modulus (GPa) = 56.20137 61.11977 58.66057
# Shear Modulus (GPa) = 20.99449 22.59397 21.79423
#
# Velocity S-wave (km/s) = 3.30613 3.42975 3.36851
# Velocity P-wave (km/s) = 6.62075 6.89242 6.75795
#
# Compressibility (1/GPa) = 0.01779316
#
# Stress axis : x y z
#
# Youngs Moduli (GPa) = 58.82209 40.91415 71.95358
#
# Poissons Ratio (x) = 0.27034 0.34103
# Poissons Ratio (y) = 0.38867 0.53434
# Poissons Ratio (z) = 0.27879 0.30383
#
# Static dielectric constant tensor:
#      x y z
#    x 3.588040 0.000000 0.000000 
#    y 0.000000 3.351520 0.000000 
#    z 0.000000 0.000000 3.519900 
# 
# 
# High freq. dielectric constant tensor:
#      x y z
#    x 1.752110 0.000000 0.000000 
#    y 0.000000 1.728550 0.000000 
#    z 0.000000 0.000000 1.747170 
# 
# From -- ./inp_files/35761.got.cif
#   From: 2010.03.12/outbox.cif.g09.slc.cpg/sg51_18_cif.got.tgz:35761.got - 2010.04.16 13:43:02.
