data_PCOD8210107
_publ_section_title
;
Structure prediction by ZEFSAII (Michael W. Deem and Ramdas Pophale) SiO2 
 PCOD8210107
Probable space group: P M M A
;
_chemical_formula_sum "Si O2"
_cell_formula_units_Z 56
_cell_length_a 8.796402
_cell_length_b 14.588488
_cell_length_c 23.561715
_cell_angle_alpha 90.000000
_cell_angle_beta 90.000000
_cell_angle_gamma 90.000000
_cell_volume 3023.585470
_symmetry_space_group_name_H-M "P M M A"
_symmetry_group_IT_number 51
_symmetry_cell_setting 'orthorhombic'
loop_
_space_group_symop_operation_xyz
x,y,z
1/2-x,-y,z
1/2+x,-y,-z
-x,y,-z
-x,-y,-z
1/2+x,y,-z
1/2-x,y,z
x,-y,z
loop_
_atom_site_type_symbol
_atom_site_label
_atom_site_fract_x
_atom_site_fract_y
_atom_site_fract_z
Si Si1 0.430028 0.000000 0.436784
Si Si2 0.570930 0.396201 0.939517
Si Si3 0.424841 0.500000 0.559172
Si Si4 0.929678 0.102710 0.225107
Si Si5 0.920583 0.395495 0.758606
Si Si6 0.926321 0.273922 0.155307
Si Si7 0.574902 0.859952 0.352409
Si Si8 0.423778 0.351478 0.646444
O O1 0.500000 0.000000 0.500000
O O2 0.480883 0.911913 0.400592
O O3 0.250000 0.000000 0.443647
O O4 0.750000 0.390070 0.944832
O O5 0.523135 0.500000 0.919874
O O6 0.517683 0.315870 0.897403
O O7 0.500000 0.373590 0.000000
O O8 0.250000 0.500000 0.547345
O O9 0.500000 0.500000 0.500000
O O10 0.472846 0.407866 0.591543
O O11 0.750000 0.115232 0.228278
O O12 0.989091 0.174210 0.176906
O O13 0.992386 0.122467 0.288787
O O14 0.977342 0.000000 0.206400
O O15 0.750000 0.357848 0.770893
O O16 0.928667 0.500000 0.778364
O O17 0.049603 0.340775 0.791890
O O18 0.958113 0.385039 0.693137
O O19 0.750000 0.269130 0.138632
O O20 0.750000 0.892801 0.354781
O O21 0.557217 0.754400 0.367710
O O22 0.250000 0.374029 0.665061
#
# Coordination Sequence:
#
# PCOD8210107 Si02
#       8
#     4   8   4   8   8   8   8   8
#     4  12  26  42  60  84 110 144 185 234 291 350
#     4  10  21  38  59  85 120 160 199 239 283 332
#     4  10  22  38  56  76 104 140 183 228 273 336
#     4   9  17  32  57  85 112 145 183 226 281 342
#     4  11  22  33  49  78 115 150 183 227 279 330
#     4  11  21  34  56  86 116 152 194 234 281 338
#     4  10  19  37  62  85 110 142 181 231 288 345
#     4  10  20  36  58  81 106 140 181 226 279 338
#
# _framework density 18.521058
#
# number of rings (size 3 to 8) (size 9 to 14) (size 15 to 20)
#    0.000    1.714    2.857    2.357    0.000    5.143 
#    0.000    1.429    0.000    0.429    0.000    0.000 
#    0.000    0.000    0.000    0.000    0.000    0.000 
#
# Total GULP energy -694193.101791 kJ/mol
# GULP energy per Si atom -12396.305389 kJ/mol
# Density = 1.847890 g / cm^3
# Si number density = 18.521058 Si / 1000 Ang^3
#
#
#
# Elastic Constant Matrix: (Units=GPa)
#
#
# Indices 1 2 3 4 5 6 
#
# 1 57.8206 34.8478 36.8664 0.0000 0.0000 0.0000
# 2 34.8478 141.4746 70.6237 0.0000 0.0000 0.0000
# 3 36.8664 70.6237 132.7164 0.0000 0.0000 0.0000
# 4 0.0000 0.0000 0.0000 25.4014 0.0000 0.0000
# 5 0.0000 0.0000 0.0000 0.0000 33.2333 0.0000
# 6 0.0000 0.0000 0.0000 0.0000 0.0000 23.0309
#
#
#
# Elastic Compliance Matrix: (Units=1/GPa)
#
#
# Indices 1 2 3 4 5 6 
#
# 1 0.022052 -0.003233 -0.004405 0.000000 0.000000 0.000000
# 2 -0.003233 0.010099 -0.004476 0.000000 0.000000 0.000000
# 3 -0.004405 -0.004476 0.011141 0.000000 0.000000 0.000000
# 4 0.000000 0.000000 0.000000 0.039368 0.000000 0.000000
# 5 0.000000 0.000000 0.000000 0.000000 0.030090 0.000000
# 6 0.000000 0.000000 0.000000 0.000000 0.000000 0.043420
#
#
# Mechanical properties :
#
#
# Convention : Reuss Voigt Hill
#
# Bulk Modulus (GPa) = 52.45708 68.52084 60.48896
# Shear Modulus (GPa) = 26.77332 28.97802 27.87567
#
# Velocity S-wave (km/s) = 3.80618 3.95979 3.88374
# Velocity P-wave (km/s) = 6.90655 7.61466 7.26923
#
# Compressibility (1/GPa) = 0.01906321
#
# Stress axis : x y z
#
# Youngs Moduli (GPa) = 45.34719 99.01805 89.76172
#
# Poissons Ratio (x) = 0.32009 0.39544
# Poissons Ratio (y) = 0.14659 0.40179
# Poissons Ratio (z) = 0.19978 0.44322
#
# Static dielectric constant tensor:
#      x y z
#    x 3.468660 0.000000 0.000000 
#    y 0.000000 3.629250 0.000000 
#    z 0.000000 0.000000 3.195900 
# 
# 
# High freq. dielectric constant tensor:
#      x y z
#    x 1.705500 0.000000 0.000000 
#    y 0.000000 1.724870 0.000000 
#    z 0.000000 0.000000 1.708660 
# 
# From -- ./inp_files/32057.got.cif
#   From: 2010.03.12/outbox.cif.g09.slc.cpg/sg51_17_cif.got.tgz:32057.got - 2010.04.16 13:43:02.
