data_PCOD8210735
_publ_section_title
;
Structure prediction by ZEFSAII (Michael W. Deem and Ramdas Pophale) SiO2 
 PCOD8210735
Probable space group: P M M A
;
_chemical_formula_sum "Si O2"
_cell_formula_units_Z 56
_cell_length_a 8.827789
_cell_length_b 18.883513
_cell_length_c 18.714078
_cell_angle_alpha 90.000000
_cell_angle_beta 90.000000
_cell_angle_gamma 90.000000
_cell_volume 3119.630596
_symmetry_space_group_name_H-M "P M M A"
_symmetry_group_IT_number 51
_symmetry_cell_setting 'orthorhombic'
loop_
_space_group_symop_operation_xyz
x,y,z
1/2-x,-y,z
1/2+x,-y,-z
-x,y,-z
-x,-y,-z
1/2+x,y,-z
1/2-x,y,z
x,-y,z
loop_
_atom_site_type_symbol
_atom_site_label
_atom_site_fract_x
_atom_site_fract_y
_atom_site_fract_z
Si Si1 0.575391 0.713776 0.926237
Si Si2 0.927868 0.418370 0.574586
Si Si3 0.916874 0.080539 0.933529
Si Si4 0.071213 0.645879 0.711434
Si Si5 0.925517 0.219141 0.777645
Si Si6 0.572956 0.078606 0.213997
Si Si7 0.073225 0.420850 0.157078
O O1 0.750000 0.706112 0.943225
O O2 0.544530 0.771779 0.863535
O O3 0.513118 0.636841 0.900035
O O4 0.500000 0.737634 0.000000
O O5 0.750000 0.405161 0.571325
O O6 0.967105 0.500000 0.590911
O O7 0.000000 0.394394 0.500000
O O8 0.999772 0.369664 0.635011
O O9 0.750000 0.115837 0.917033
O O10 0.032288 0.083658 0.868617
O O11 0.884581 0.000000 0.955106
O O12 0.000000 0.119553 0.000000
O O13 0.250000 0.641492 0.705741
O O14 0.022234 0.724116 0.734700
O O15 0.013562 0.588143 0.768337
O O16 0.750000 0.230655 0.759915
O O17 0.978088 0.141768 0.749063
O O18 0.750000 0.092239 0.224801
O O19 0.528123 0.000000 0.243759
O O20 0.250000 0.407147 0.173090
O O21 0.043898 0.500000 0.127389
#
# Coordination Sequence:
#
# PCOD8210735 Si02
#       7
#     8   8   8   8   8   8   8
#     4   9  19  33  48  66  88 118 157 204 256 305
#     4  10  20  34  53  79 112 147 179 210 244 283
#     4   9  16  26  40  58  81 110 144 183 231 288
#     4  11  21  33  51  75 103 134 170 209 248 293
#     4  10  21  37  53  69  93 128 168 205 248 304
#     4  10  20  33  49  70  94 117 147 194 249 302
#     4   9  18  33  50  68  93 126 164 206 253 303
#
# _framework density 17.950842000000002
#
# number of rings (size 3 to 8) (size 9 to 14) (size 15 to 20)
#    0.000    2.286    0.000    4.286    0.000    9.143 
#    0.000    1.429    0.000    0.000    0.000    0.000 
#    0.000    0.571    0.000    2.143    0.000    3.286 
#
# Total GULP energy -694173.626089 kJ/mol
# GULP energy per Si atom -12395.957609 kJ/mol
# Density = 1.790998 g / cm^3
# Si number density = 17.950842 Si / 1000 Ang^3
#
#
#
# Elastic Constant Matrix: (Units=GPa)
#
#
# Indices 1 2 3 4 5 6 
#
# 1 71.2584 20.9684 27.6596 0.0000 0.0000 0.0000
# 2 20.9684 95.6003 16.3630 0.0000 0.0000 0.0000
# 3 27.6596 16.3630 74.4499 0.0000 0.0000 0.0000
# 4 0.0000 0.0000 0.0000 -10.0380 0.0000 0.0000
# 5 0.0000 0.0000 0.0000 0.0000 27.4885 0.0000
# 6 0.0000 0.0000 0.0000 0.0000 0.0000 24.1774
#
#
#
# Elastic Compliance Matrix: (Units=1/GPa)
#
#
# Indices 1 2 3 4 5 6 
#
# 1 0.017073 -0.002763 -0.005736 0.000000 0.000000 0.000000
# 2 -0.002763 0.011316 -0.001461 0.000000 0.000000 0.000000
# 3 -0.005736 -0.001461 0.015884 0.000000 0.000000 0.000000
# 4 0.000000 0.000000 0.000000 -0.099621 0.000000 0.000000
# 5 0.000000 0.000000 0.000000 0.000000 0.036379 0.000000
# 6 0.000000 0.000000 0.000000 0.000000 0.000000 0.041361
#
#
# Mechanical properties :
#
#
# Convention : Reuss Voigt Hill
#
# Bulk Modulus (GPa) = 41.06038 41.25449 41.15744
# Shear Modulus (GPa) = 99.15150 20.08008 59.61579
#
# Velocity S-wave (km/s) = 7.44009 3.34820 5.76911
# Velocity P-wave (km/s) = 9.83514 6.16272 8.20698
#
# Compressibility (1/GPa) = 0.02435438
#
# Stress axis : x y z
#
# Youngs Moduli (GPa) = 58.57275 88.36866 62.95734
#
# Poissons Ratio (x) = 0.24416 0.36110
# Poissons Ratio (y) = 0.16183 0.09196
# Poissons Ratio (z) = 0.33595 0.12908
#
# Static dielectric constant tensor:
#      x y z
#    x 3.375340 0.000000 0.000000 
#    y 0.000000 3.569990 0.000000 
#    z 0.000000 0.000000 3.072790 
# 
# 
# High freq. dielectric constant tensor:
#      x y z
#    x 1.705100 0.000000 0.000000 
#    y 0.000000 1.703070 0.000000 
#    z 0.000000 0.000000 1.645010 
# 
# From -- ./inp_files/28197.got.cif
#   From: 2010.03.12/outbox.cif.g09.slc.cpg/sg51_15_cif.got.tgz:28197.got - 2010.04.16 13:43:02.
