data_PCOD8210973
_publ_section_title
;
Structure prediction by ZEFSAII (Michael W. Deem and Ramdas Pophale) SiO2 
 PCOD8210973
Probable space group: P M M A
;
_chemical_formula_sum "Si O2"
_cell_formula_units_Z 64
_cell_length_a 13.901295
_cell_length_b 9.004103
_cell_length_c 25.911676
_cell_angle_alpha 90.000000
_cell_angle_beta 90.000000
_cell_angle_gamma 90.000000
_cell_volume 3243.330593
_symmetry_space_group_name_H-M "P M M A"
_symmetry_group_IT_number 51
_symmetry_cell_setting 'orthorhombic'
loop_
_space_group_symop_operation_xyz
x,y,z
1/2-x,-y,z
1/2+x,-y,-z
-x,y,-z
-x,-y,-z
1/2+x,y,-z
1/2-x,y,z
x,-y,z
loop_
_atom_site_type_symbol
_atom_site_label
_atom_site_fract_x
_atom_site_fract_y
_atom_site_fract_z
Si Si1 0.048831 0.824106 0.078846
Si Si2 0.141281 0.828713 0.669786
Si Si3 0.951403 0.826270 0.723900
Si Si4 0.143828 0.660069 0.571913
Si Si5 0.897932 0.162468 0.524338
Si Si6 0.143623 0.824462 0.972350
Si Si7 0.361166 0.324102 0.177824
Si Si8 0.136591 0.669975 0.373582
O O1 0.090134 0.732717 0.125994
O O2 0.937149 0.775764 0.069343
O O3 0.056837 0.000000 0.089467
O O4 0.111309 0.775324 0.029399
O O5 0.250000 0.778357 0.685806
O O6 0.095002 0.749386 0.619084
O O7 0.066261 0.798405 0.716172
O O8 0.142596 0.000000 0.654367
O O9 0.920199 0.745369 0.775526
O O10 0.890722 0.760672 0.676959
O O11 0.928272 0.000000 0.728348
O O12 0.250000 0.631772 0.593252
O O13 0.091577 0.500000 0.563313
O O14 0.159544 0.745899 0.518315
O O15 0.911335 0.256362 0.576241
O O16 0.000000 0.136234 0.500000
O O17 0.850285 0.000000 0.535178
O O18 0.250000 0.757244 0.959553
O O19 0.149077 0.000000 0.971680
O O20 0.250000 0.273119 0.180199
O O21 0.369568 0.500000 0.180866
O O22 0.250000 0.678762 0.381621
O O23 0.101770 0.500000 0.368132
#
# Coordination Sequence:
#
# PCOD8210973 Si02
#       8
#     8   8   8   8   8   8   8   8
#     4   9  17  31  55  85 114 150 195 236 274 320
#     4   9  19  37  59  82 108 136 169 214 268 325
#     4  11  23  39  61  85 106 136 181 227 271 322
#     4  10  20  33  51  76 102 129 164 204 251 312
#     4  11  23  36  51  74 103 135 173 216 262 315
#     4   8  14  27  51  85 122 155 189 232 279 324
#     4  11  24  40  57  79 110 147 185 229 281 328
#     4  11  24  40  57  79 109 143 177 218 272 328
#
# _framework density 19.732802
#
# number of rings (size 3 to 8) (size 9 to 14) (size 15 to 20)
#    0.000    2.000    0.000    4.500    0.000   11.250 
#    0.000    1.875    0.000    4.875    0.000    0.000 
#    0.000    0.000    0.000    0.000    0.000    0.000 
#
# Total GULP energy -793191.546309 kJ/mol
# GULP energy per Si atom -12393.617911 kJ/mol
# Density = 1.968789 g / cm^3
# Si number density = 19.732802 Si / 1000 Ang^3
#
#
#
# Elastic Constant Matrix: (Units=GPa)
#
#
# Indices 1 2 3 4 5 6 
#
# 1 97.5369 50.0151 43.4383 0.0000 0.0000 0.0000
# 2 50.0151 96.5307 64.3226 0.0000 0.0000 0.0000
# 3 43.4383 64.3226 123.0491 0.0000 0.0000 0.0000
# 4 0.0000 0.0000 0.0000 -271.2622 0.0000 0.0000
# 5 0.0000 0.0000 0.0000 0.0000 28.8956 0.0000
# 6 0.0000 0.0000 0.0000 0.0000 0.0000 24.8597
#
#
#
# Elastic Compliance Matrix: (Units=1/GPa)
#
#
# Indices 1 2 3 4 5 6 
#
# 1 0.014215 -0.006171 -0.001792 0.000000 0.000000 0.000000
# 2 -0.006171 0.018575 -0.007532 0.000000 0.000000 0.000000
# 3 -0.001792 -0.007532 0.012697 0.000000 0.000000 0.000000
# 4 0.000000 0.000000 0.000000 -0.003686 0.000000 0.000000
# 5 0.000000 0.000000 0.000000 0.000000 0.034607 0.000000
# 6 0.000000 0.000000 0.000000 0.000000 0.000000 0.040226
#
#
# Mechanical properties :
#
#
# Convention : Reuss Voigt Hill
#
# Bulk Modulus (GPa) = 68.97845 70.29653 69.63749
# Shear Modulus (GPa) = 32.79635 -32.87867 -0.04116
#
# Velocity S-wave (km/s) = 4.08121 -4.08633 -0.14458
# Velocity P-wave (km/s) = 7.56575 3.66571 5.94466
#
# Compressibility (1/GPa) = 0.01449728
#
# Stress axis : x y z
#
# Youngs Moduli (GPa) = 70.34780 53.83481 78.76077
#
# Poissons Ratio (x) = 0.33221 0.14117
# Poissons Ratio (y) = 0.43411 0.59320
# Poissons Ratio (z) = 0.12609 0.40546
#
# Static dielectric constant tensor:
#      x y z
#    x 4.008240 0.000000 0.000000 
#    y 0.000000 3.810040 0.000000 
#    z 0.000000 0.000000 3.454290 
# 
# 
# High freq. dielectric constant tensor:
#      x y z
#    x 1.784940 0.000000 0.000000 
#    y 0.000000 1.764160 0.000000 
#    z 0.000000 0.000000 1.750230 
# 
# From -- ./inp_files/35618.got.cif
#   From: 2010.03.12/outbox.cif.g09.slc.cpg/sg51_18_cif.got.tgz:35618.got - 2010.04.16 13:43:02.
