data_PCOD8210696
_publ_section_title
;
Structure prediction by ZEFSAII (Michael W. Deem and Ramdas Pophale) SiO2 
 PCOD8210696
Probable space group: P M M A
;
_chemical_formula_sum "Si O2"
_cell_formula_units_Z 40
_cell_length_a 10.149933
_cell_length_b 9.123706
_cell_length_c 24.006781
_cell_angle_alpha 90.000000
_cell_angle_beta 90.000000
_cell_angle_gamma 90.000000
_cell_volume 2223.148065
_symmetry_space_group_name_H-M "P M M A"
_symmetry_group_IT_number 51
_symmetry_cell_setting 'orthorhombic'
loop_
_space_group_symop_operation_xyz
x,y,z
1/2-x,-y,z
1/2+x,-y,-z
-x,y,-z
-x,-y,-z
1/2+x,y,-z
1/2-x,y,z
x,-y,z
loop_
_atom_site_type_symbol
_atom_site_label
_atom_site_fract_x
_atom_site_fract_y
_atom_site_fract_z
Si Si1 0.899912 0.673492 0.748128
Si Si2 0.401500 0.828537 0.830542
Si Si3 0.478729 0.325540 0.373360
Si Si4 0.750000 0.325291 0.547527
Si Si5 0.104416 0.174226 0.956524
Si Si6 0.750000 0.674833 0.422197
O O1 0.750000 0.720173 0.762157
O O2 0.915428 0.500000 0.749935
O O3 0.937328 0.734599 0.687061
O O4 0.999502 0.740659 0.792105
O O5 0.250000 0.790772 0.815268
O O6 0.432007 0.778974 0.893798
O O7 0.427743 0.000000 0.822790
O O8 0.475223 0.500000 0.372679
O O9 0.378283 0.266636 0.420067
O O10 0.623091 0.266133 0.389088
O O11 0.750000 0.500000 0.546006
O O12 0.750000 0.262011 0.484991
O O13 0.250000 0.233387 0.972082
O O14 0.104415 0.000000 0.960359
O O15 0.000000 0.242848 0.000000
O O16 0.750000 0.500000 0.424467
#
# Coordination Sequence:
#
# PCOD8210696 Si02
#       6
#     8   8   8   4   8   4
#     4  10  20  33  48  68  98 134 168 201 240 288
#     4   9  19  34  51  74 102 128 160 203 243 282
#     4   9  16  26  38  58  88 120 154 192 235 285
#     4   9  14  24  38  54  85 121 148 187 240 286
#     4   8  14  26  45  70  98 124 151 189 238 286
#     4   9  16  22  36  60  83 115 156 189 232 292
#
# _framework density 17.992504
#
# number of rings (size 3 to 8) (size 9 to 14) (size 15 to 20)
#    0.000    3.000    1.000    1.800    1.400    4.000 
#    0.000    2.000    0.000    0.600    0.000    0.000 
#    0.000    4.800    0.000    0.000    0.000    0.000 
#
# Total GULP energy -495833.657524 kJ/mol
# GULP energy per Si atom -12395.841438 kJ/mol
# Density = 1.795155 g / cm^3
# Si number density = 17.992504 Si / 1000 Ang^3
#
#
#
# Elastic Constant Matrix: (Units=GPa)
#
#
# Indices 1 2 3 4 5 6 
#
# 1 170.5736 25.8962 97.3684 0.0000 0.0000 0.0000
# 2 25.8962 12.2530 23.2015 0.0000 0.0000 0.0000
# 3 97.3684 23.2015 141.1470 0.0000 0.0000 0.0000
# 4 0.0000 0.0000 0.0000 74.2398 0.0000 0.0000
# 5 0.0000 0.0000 0.0000 0.0000 43.8620 0.0000
# 6 0.0000 0.0000 0.0000 0.0000 0.0000 18.8709
#
#
#
# Elastic Compliance Matrix: (Units=1/GPa)
#
#
# Indices 1 2 3 4 5 6 
#
# 1 0.010892 -0.012765 -0.005415 0.000000 0.000000 0.000000
# 2 -0.012765 0.133456 -0.013131 0.000000 0.000000 0.000000
# 3 -0.005415 -0.013131 0.012979 0.000000 0.000000 0.000000
# 4 0.000000 0.000000 0.000000 0.013470 0.000000 0.000000
# 5 0.000000 0.000000 0.000000 0.000000 0.022799 0.000000
# 6 0.000000 0.000000 0.000000 0.000000 0.000000 0.052992
#
#
# Mechanical properties :
#
#
# Convention : Reuss Voigt Hill
#
# Bulk Modulus (GPa) = 10.55935 68.54508 39.55221
# Shear Modulus (GPa) = 14.67233 39.22838 26.95035
#
# Velocity S-wave (km/s) = 2.85874 4.67439 3.87443
# Velocity P-wave (km/s) = 4.09610 8.20442 6.48423
#
# Compressibility (1/GPa) = 0.09470281
#
# Stress axis : x y z
#
# Youngs Moduli (GPa) = 91.81290 7.49313 77.04823
#
# Poissons Ratio (x) = 0.09565 0.41723
# Poissons Ratio (y) = 1.17202 1.01174
# Poissons Ratio (z) = 0.49718 0.09839
#
# Static dielectric constant tensor:
#      x y z
#    x 3.663210 0.000000 0.000000 
#    y 0.000000 2.624680 0.000000 
#    z 0.000000 0.000000 3.536590 
# 
# 
# High freq. dielectric constant tensor:
#      x y z
#    x 1.713750 0.000000 0.000000 
#    y 0.000000 1.620460 0.000000 
#    z 0.000000 0.000000 1.707620 
# 
# From -- ./inp_files/35993.got.cif
#   From: 2010.03.12/outbox.cif.g09.slc.cpg/sg51_18_cif.got.tgz:35993.got - 2010.04.16 13:43:02.
