data_PCOD8210633
_publ_section_title
;
Structure prediction by ZEFSAII (Michael W. Deem and Ramdas Pophale) SiO2 
 PCOD8210633
Probable space group: P M M A
;
_chemical_formula_sum "Si O2"
_cell_formula_units_Z 56
_cell_length_a 9.070565
_cell_length_b 16.880562
_cell_length_c 20.513078
_cell_angle_alpha 90.000000
_cell_angle_beta 90.000000
_cell_angle_gamma 90.000000
_cell_volume 3140.885269
_symmetry_space_group_name_H-M "P M M A"
_symmetry_group_IT_number 51
_symmetry_cell_setting 'orthorhombic'
loop_
_space_group_symop_operation_xyz
x,y,z
1/2-x,-y,z
1/2+x,-y,-z
-x,y,-z
-x,-y,-z
1/2+x,y,-z
1/2-x,y,z
x,-y,z
loop_
_atom_site_type_symbol
_atom_site_label
_atom_site_fract_x
_atom_site_fract_y
_atom_site_fract_z
Si Si1 0.924828 0.500000 0.120700
Si Si2 0.079722 0.765291 0.186557
Si Si3 0.921050 0.754827 0.564949
Si Si4 0.923236 0.345224 0.934352
Si Si5 0.424208 0.341110 0.307404
Si Si6 0.577352 0.911021 0.233262
Si Si7 0.919702 0.088409 0.631949
Si Si8 0.423739 0.500000 0.727684
O O1 0.750000 0.500000 0.109200
O O2 0.966877 0.500000 0.196483
O O3 0.996404 0.424714 0.087078
O O4 0.250000 0.784712 0.197191
O O5 0.049102 0.721990 0.118944
O O6 0.022036 0.711049 0.246023
O O7 0.993532 0.848366 0.183692
O O8 0.750000 0.743631 0.552636
O O9 0.971721 0.703164 0.626629
O O10 0.961905 0.847164 0.577388
O O11 0.000000 0.724381 0.500000
O O12 0.750000 0.361706 0.944565
O O13 0.000000 0.314052 0.000000
O O14 0.250000 0.356493 0.303338
O O15 0.508065 0.423917 0.307129
O O16 0.750000 0.897586 0.234732
O O17 0.517682 0.895209 0.305313
O O18 0.536729 0.000000 0.210117
O O19 0.750000 0.100129 0.653422
O O20 0.947459 0.000000 0.603803
O O21 0.250000 0.500000 0.717250
#
# Coordination Sequence:
#
# PCOD8210633 Si02
#       8
#     4   8   8   8   8   8   8   4
#     4  11  22  36  55  84 119 151 182 218 270 326
#     4  10  20  36  59  82 107 146 189 224 266 324
#     4  10  21  36  54  78 107 143 183 225 275 326
#     4  11  23  38  57  82 115 151 186 224 269 323
#     4  10  20  38  59  80 107 141 184 227 271 325
#     4  10  20  32  51  83 116 143 177 228 281 319
#     4   9  17  32  53  76 107 146 184 220 264 326
#     4  11  23  36  57  88 113 137 177 230 279 318
#
# _framework density 17.829367999999999
#
# number of rings (size 3 to 8) (size 9 to 14) (size 15 to 20)
#    0.000    1.857    2.857    1.500    0.000    4.571 
#    0.000    0.357    0.000    0.429    0.000    0.000 
#    0.000    0.000    0.000    0.000    0.000    0.000 
#
# Total GULP energy -694529.634070 kJ/mol
# GULP energy per Si atom -12402.314894 kJ/mol
# Density = 1.778879 g / cm^3
# Si number density = 17.829368 Si / 1000 Ang^3
#
#
#
# Elastic Constant Matrix: (Units=GPa)
#
#
# Indices 1 2 3 4 5 6 
#
# 1 70.6123 55.5636 51.0408 0.0000 0.0000 0.0000
# 2 55.5636 121.6960 62.0664 0.0000 0.0000 0.0000
# 3 51.0408 62.0664 121.4211 0.0000 0.0000 0.0000
# 4 0.0000 0.0000 0.0000 21.5339 0.0000 0.0000
# 5 0.0000 0.0000 0.0000 0.0000 29.5187 0.0000
# 6 0.0000 0.0000 0.0000 0.0000 0.0000 22.9274
#
#
#
# Elastic Compliance Matrix: (Units=1/GPa)
#
#
# Indices 1 2 3 4 5 6 
#
# 1 0.025315 -0.008293 -0.006402 0.000000 0.000000 0.000000
# 2 -0.008293 0.013832 -0.003584 0.000000 0.000000 0.000000
# 3 -0.006402 -0.003584 0.012759 0.000000 0.000000 0.000000
# 4 0.000000 0.000000 0.000000 0.046439 0.000000 0.000000
# 5 0.000000 0.000000 0.000000 0.000000 0.033877 0.000000
# 6 0.000000 0.000000 0.000000 0.000000 0.000000 0.043616
#
#
# Mechanical properties :
#
#
# Convention : Reuss Voigt Hill
#
# Bulk Modulus (GPa) = 65.16005 72.34122 68.75063
# Shear Modulus (GPa) = 22.98716 24.46656 23.72686
#
# Velocity S-wave (km/s) = 3.59456 3.70842 3.65193
# Velocity P-wave (km/s) = 7.33850 7.68107 7.51174
#
# Compressibility (1/GPa) = 0.01534683
#
# Stress axis : x y z
#
# Youngs Moduli (GPa) = 39.50157 72.29821 78.37442
#
# Poissons Ratio (x) = 0.59958 0.50179
# Poissons Ratio (y) = 0.32759 0.28091
# Poissons Ratio (z) = 0.25291 0.25913
#
# Static dielectric constant tensor:
#      x y z
#    x 3.317510 0.000000 0.000000 
#    y 0.000000 3.431150 0.000000 
#    z 0.000000 0.000000 3.224560 
# 
# 
# High freq. dielectric constant tensor:
#      x y z
#    x 1.692580 0.000000 0.000000 
#    y 0.000000 1.695170 0.000000 
#    z 0.000000 0.000000 1.674170 
# 
# From -- ./inp_files/32159.got.cif
#   From: 2010.03.12/outbox.cif.g09.slc.cpg/sg51_17_cif.got.tgz:32159.got - 2010.04.16 13:43:02.
