data_PCOD8210079
_publ_section_title
;
Structure prediction by ZEFSAII (Michael W. Deem and Ramdas Pophale) SiO2 
 PCOD8210079
Probable space group: P M M A
;
_chemical_formula_sum "Si O2"
_cell_formula_units_Z 64
_cell_length_a 21.642686
_cell_length_b 15.525516
_cell_length_c 8.969413
_cell_angle_alpha 90.000000
_cell_angle_beta 90.000000
_cell_angle_gamma 90.000000
_cell_volume 3013.847154
_symmetry_space_group_name_H-M "P M M A"
_symmetry_group_IT_number 51
_symmetry_cell_setting 'orthorhombic'
loop_
_space_group_symop_operation_xyz
x,y,z
1/2-x,-y,z
1/2+x,-y,-z
-x,y,-z
-x,-y,-z
1/2+x,y,-z
1/2-x,y,z
x,-y,z
loop_
_atom_site_type_symbol
_atom_site_label
_atom_site_fract_x
_atom_site_fract_y
_atom_site_fract_z
Si Si1 0.681696 0.904180 0.888485
Si Si2 0.999929 0.188288 0.674698
Si Si3 0.137076 0.769599 0.323308
Si Si4 0.639084 0.406537 0.163643
Si Si5 0.678916 0.243432 0.352282
Si Si6 0.611588 0.099131 0.180434
Si Si7 0.507478 0.354244 0.165702
Si Si8 0.128928 0.595346 0.176196
O O1 0.750000 0.897639 0.964506
O O2 0.682973 0.837904 0.750515
O O3 0.671897 0.000000 0.822701
O O4 0.626291 0.885146 0.005669
O O5 0.929618 0.195632 0.732302
O O6 0.000000 0.164853 0.500000
O O7 0.040839 0.120667 0.770988
O O8 0.027001 0.282477 0.711590
O O9 0.137633 0.765198 0.500669
O O10 0.156110 0.673295 0.272578
O O11 0.667396 0.500000 0.208994
O O12 0.667479 0.332209 0.264909
O O13 0.565124 0.418206 0.174843
O O14 0.652774 0.386200 0.990784
O O15 0.750000 0.238977 0.397947
O O16 0.660901 0.160010 0.259550
O O17 0.624679 0.000000 0.222961
O O18 0.445042 0.405302 0.200692
O O19 0.500000 0.312403 0.000000
O O20 0.152072 0.500000 0.227878
#
# Coordination Sequence:
#
# PCOD8210079 Si02
#       8
#     8   8   8   8   8   8   8   8
#     4  10  23  44  67  92 121 158 212 264 305 364
#     4  11  21  38  59  91 132 161 198 248 313 379
#     4  11  23  39  65  91 128 166 203 256 320 371
#     4  10  19  36  61  90 124 160 205 254 304 362
#     4  12  25  42  62  86 120 163 213 256 305 369
#     4  11  24  42  66  92 122 161 204 254 315 372
#     4   9  17  31  59  89 122 159 199 245 302 363
#     4   9  19  34  58  92 124 159 200 247 303 369
#
# _framework density 21.235316000000001
#
# number of rings (size 3 to 8) (size 9 to 14) (size 15 to 20)
#    0.000    1.625    2.500    1.875    3.500    4.250 
#    0.000    1.875    0.000    6.750    0.000    0.000 
#    0.000    0.000    0.000    0.000    0.000    0.000 
#
# Total GULP energy -793013.903908 kJ/mol
# GULP energy per Si atom -12390.842249 kJ/mol
# Density = 2.118698 g / cm^3
# Si number density = 21.235316 Si / 1000 Ang^3
#
#
#
# Elastic Constant Matrix: (Units=GPa)
#
#
# Indices 1 2 3 4 5 6 
#
# 1 54.8626 26.3873 6.4040 0.0000 0.0000 0.0000
# 2 26.3873 155.4155 59.7238 0.0000 0.0000 0.0000
# 3 6.4040 59.7238 80.8311 0.0000 0.0000 0.0000
# 4 0.0000 0.0000 0.0000 9.8853 0.0000 0.0000
# 5 0.0000 0.0000 0.0000 0.0000 26.6584 0.0000
# 6 0.0000 0.0000 0.0000 0.0000 0.0000 19.9965
#
#
#
# Elastic Compliance Matrix: (Units=1/GPa)
#
#
# Indices 1 2 3 4 5 6 
#
# 1 0.019944 -0.003881 0.001287 0.000000 0.000000 0.000000
# 2 -0.003881 0.009741 -0.006890 0.000000 0.000000 0.000000
# 3 0.001287 -0.006890 0.017360 0.000000 0.000000 0.000000
# 4 0.000000 0.000000 0.000000 0.101160 0.000000 0.000000
# 5 0.000000 0.000000 0.000000 0.000000 0.037512 0.000000
# 6 0.000000 0.000000 0.000000 0.000000 0.000000 0.050009
#
#
# Mechanical properties :
#
#
# Convention : Reuss Voigt Hill
#
# Bulk Modulus (GPa) = 35.61487 52.90438 44.25962
# Shear Modulus (GPa) = 18.93570 24.54765 21.74167
#
# Velocity S-wave (km/s) = 2.98939 3.40366 3.20323
# Velocity P-wave (km/s) = 5.35940 6.35720 5.87951
#
# Compressibility (1/GPa) = 0.02807816
#
# Stress axis : x y z
#
# Youngs Moduli (GPa) = 50.14122 102.65958 57.60308
#
# Poissons Ratio (x) = 0.39841 -0.07416
# Poissons Ratio (y) = 0.19459 0.39688
# Poissons Ratio (z) = -0.06455 0.70731
#
# Static dielectric constant tensor:
#      x y z
#    x 3.785660 0.000000 0.000000 
#    y 0.000000 3.849530 0.000000 
#    z 0.000000 0.000000 3.611210 
# 
# 
# High freq. dielectric constant tensor:
#      x y z
#    x 1.827390 0.000000 0.000000 
#    y 0.000000 1.836190 0.000000 
#    z 0.000000 0.000000 1.816180 
# 
# From -- ./inp_files/11918.got.cif
#   From: 2010.03.12/outbox.cif.g09.slc.cpg/sg51_6_cif.got.tgz:11918.got - 2010.04.16 13:43:02.
