data_PCOD8210083
_publ_section_title
;
Structure prediction by ZEFSAII (Michael W. Deem and Ramdas Pophale) SiO2 
 PCOD8210083
Probable space group: P M M A
;
_chemical_formula_sum "Si O2"
_cell_formula_units_Z 48
_cell_length_a 14.494802
_cell_length_b 16.926391
_cell_length_c 9.797120
_cell_angle_alpha 90.000000
_cell_angle_beta 90.000000
_cell_angle_gamma 90.000000
_cell_volume 2403.671331
_symmetry_space_group_name_H-M "P M M A"
_symmetry_group_IT_number 51
_symmetry_cell_setting 'orthorhombic'
loop_
_space_group_symop_operation_xyz
x,y,z
1/2-x,-y,z
1/2+x,-y,-z
-x,y,-z
-x,-y,-z
1/2+x,y,-z
1/2-x,y,z
x,-y,z
loop_
_atom_site_type_symbol
_atom_site_label
_atom_site_fract_x
_atom_site_fract_y
_atom_site_fract_z
Si Si1 0.750000 0.905660 0.789406
Si Si2 0.149211 0.592763 0.357850
Si Si3 0.358548 0.590973 0.661565
Si Si4 0.059796 0.091455 0.617934
Si Si5 0.493619 0.665557 0.159229
Si Si6 0.250000 0.093764 0.527218
Si Si7 0.550301 0.154125 0.859972
O O1 0.750000 0.879771 0.631165
O O2 0.841591 0.869785 0.861445
O O3 0.750000 0.000000 0.807625
O O4 0.250000 0.630523 0.327890
O O5 0.160181 0.500000 0.366112
O O6 0.114125 0.619814 0.508314
O O7 0.081812 0.613040 0.235037
O O8 0.250000 0.599600 0.685207
O O9 0.389779 0.500000 0.685136
O O10 0.408134 0.648144 0.770479
O O11 0.162041 0.129402 0.608405
O O12 0.000000 0.133140 0.500000
O O13 0.007892 0.100156 0.758827
O O14 0.071263 0.000000 0.583144
O O15 0.462283 0.755161 0.180705
O O16 0.500000 0.642775 0.000000
O O17 0.250000 0.000000 0.532499
O O18 0.500000 0.135513 0.000000
#
# Coordination Sequence:
#
# PCOD8210083 Si02
#       7
#     4   8   8   8   8   4   8
#     4  11  22  43  71  89 116 162 205 253 317 374
#     4   9  19  37  63  90 115 153 207 259 296 346
#     4   9  19  39  64  90 120 159 210 259 297 345
#     4  10  19  36  62  89 117 148 196 251 298 362
#     4  11  24  39  54  84 126 167 193 245 306 360
#     4   9  18  35  63  95 117 146 189 249 310 352
#     4  11  26  43  58  90 127 164 200 253 309 371
#
# _framework density 19.969450999999999
#
# number of rings (size 3 to 8) (size 9 to 14) (size 15 to 20)
#    0.000    2.000    1.667    2.500    1.167    6.667 
#    6.000    2.500    0.000    0.000    0.000    0.000 
#    0.000    0.000    0.000    0.000    0.000    0.000 
#
# Total GULP energy -594952.744585 kJ/mol
# GULP energy per Si atom -12394.848846 kJ/mol
# Density = 1.992400 g / cm^3
# Si number density = 19.969451 Si / 1000 Ang^3
#
#
#
# Elastic Constant Matrix: (Units=GPa)
#
#
# Indices 1 2 3 4 5 6 
#
# 1 176.4178 37.9570 73.8588 0.0000 0.0000 0.0000
# 2 37.9570 47.9364 32.0056 0.0000 0.0000 0.0000
# 3 73.8588 32.0056 112.8654 0.0000 0.0000 0.0000
# 4 0.0000 0.0000 0.0000 -16.2135 0.0000 0.0000
# 5 0.0000 0.0000 0.0000 0.0000 10.7184 0.0000
# 6 0.0000 0.0000 0.0000 0.0000 0.0000 25.4861
#
#
#
# Elastic Compliance Matrix: (Units=1/GPa)
#
#
# Indices 1 2 3 4 5 6 
#
# 1 0.008289 -0.003629 -0.004395 0.000000 0.000000 0.000000
# 2 -0.003629 0.027322 -0.005373 0.000000 0.000000 0.000000
# 3 -0.004395 -0.005373 0.013260 0.000000 0.000000 0.000000
# 4 0.000000 0.000000 0.000000 -0.061677 0.000000 0.000000
# 5 0.000000 0.000000 0.000000 0.000000 0.093298 0.000000
# 6 0.000000 0.000000 0.000000 0.000000 0.000000 0.039237
#
#
# Mechanical properties :
#
#
# Convention : Reuss Voigt Hill
#
# Bulk Modulus (GPa) = 45.29698 69.42915 57.36307
# Shear Modulus (GPa) = 32.49233 16.89140 24.69187
#
# Velocity S-wave (km/s) = 4.03811 2.91153 3.52018
# Velocity P-wave (km/s) = 6.66890 6.79307 6.73127
#
# Compressibility (1/GPa) = 0.02207653
#
# Stress axis : x y z
#
# Youngs Moduli (GPa) = 120.63686 36.60083 75.41420
#
# Poissons Ratio (x) = 0.13282 0.33148
# Poissons Ratio (y) = 0.43779 0.40520
# Poissons Ratio (z) = 0.53025 0.19665
#
# Static dielectric constant tensor:
#      x y z
#    x 3.919300 0.000000 0.000000 
#    y 0.000000 3.410140 0.000000 
#    z 0.000000 0.000000 3.235480 
# 
# 
# High freq. dielectric constant tensor:
#      x y z
#    x 1.800690 0.000000 0.000000 
#    y 0.000000 1.756250 0.000000 
#    z 0.000000 0.000000 1.774450 
# 
# From -- ./inp_files/8306.got.cif
#   From: 2010.03.12/outbox.cif.g09.slc.cpg/sg51_5_cif.got.tgz:8306.got - 2010.04.16 13:43:02.
