data_PCOD8210858
_publ_section_title
;
Structure prediction by ZEFSAII (Michael W. Deem and Ramdas Pophale) SiO2 
 PCOD8210858
Probable space group: P M M A
;
_chemical_formula_sum "Si O2"
_cell_formula_units_Z 56
_cell_length_a 23.820650
_cell_length_b 9.424129
_cell_length_c 14.068463
_cell_angle_alpha 90.000000
_cell_angle_beta 90.000000
_cell_angle_gamma 90.000000
_cell_volume 3158.213481
_symmetry_space_group_name_H-M "P M M A"
_symmetry_group_IT_number 51
_symmetry_cell_setting 'orthorhombic'
loop_
_space_group_symop_operation_xyz
x,y,z
1/2-x,-y,z
1/2+x,-y,-z
-x,y,-z
-x,-y,-z
1/2+x,y,-z
1/2-x,y,z
x,-y,z
loop_
_atom_site_type_symbol
_atom_site_label
_atom_site_fract_x
_atom_site_fract_y
_atom_site_fract_z
Si Si1 0.023043 0.332497 0.199972
Si Si2 0.685603 0.664230 0.491127
Si Si3 0.686581 0.835031 0.305628
Si Si4 0.131760 0.335477 0.315286
Si Si5 0.416958 0.835824 0.039775
Si Si6 0.812168 0.839170 0.840507
Si Si7 0.417522 0.834611 0.820226
O O1 0.015441 0.500000 0.185034
O O2 0.964701 0.260320 0.232463
O O3 0.068311 0.298400 0.282784
O O4 0.040987 0.261754 0.099984
O O5 0.750000 0.697130 0.520549
O O6 0.678114 0.500000 0.465487
O O7 0.667420 0.752753 0.399564
O O8 0.643430 0.709396 0.576024
O O9 0.750000 0.791452 0.274596
O O10 0.643699 0.795988 0.221224
O O11 0.683811 0.000000 0.330496
O O12 0.144348 0.500000 0.301440
O O13 0.176468 0.256762 0.250202
O O14 0.353636 0.805855 0.072942
O O15 0.434611 0.000000 0.054879
O O16 0.418759 0.792301 0.930458
O O17 0.750000 0.808916 0.879538
O O18 0.819403 0.000000 0.805516
O O19 0.431168 0.000000 0.804514
#
# Coordination Sequence:
#
# PCOD8210858 Si02
#       7
#     8   8   8   8   8   8   8
#     4  10  20  33  50  73  99 126 160 201 239 279
#     4   9  17  31  52  74  95 123 158 194 235 284
#     4   9  19  35  53  74  98 123 157 200 240 281
#     4   9  18  32  49  70  97 129 161 193 236 288
#     4   9  18  32  49  69  96 130 164 197 235 283
#     4   9  17  28  44  70 100 126 156 196 239 282
#     4  10  20  34  52  71  94 128 163 195 238 286
#
# _framework density 17.731545000000001
#
# number of rings (size 3 to 8) (size 9 to 14) (size 15 to 20)
#    0.000    2.714    0.000    1.286    0.000    5.429 
#    0.000    5.000    0.000    4.286    0.000    4.000 
#    0.000    0.000    0.000    0.000    0.000    0.000 
#
# Total GULP energy -694346.901243 kJ/mol
# GULP energy per Si atom -12399.051808 kJ/mol
# Density = 1.769119 g / cm^3
# Si number density = 17.731545 Si / 1000 Ang^3
#
#
#
# Elastic Constant Matrix: (Units=GPa)
#
#
# Indices 1 2 3 4 5 6 
#
# 1 120.4143 46.7950 57.0855 0.0000 0.0000 0.0000
# 2 46.7950 54.6829 39.7857 0.0000 0.0000 0.0000
# 3 57.0855 39.7857 87.7598 0.0000 0.0000 0.0000
# 4 0.0000 0.0000 0.0000 21.8987 0.0000 0.0000
# 5 0.0000 0.0000 0.0000 0.0000 19.4564 0.0000
# 6 0.0000 0.0000 0.0000 0.0000 0.0000 24.9750
#
#
#
# Elastic Compliance Matrix: (Units=1/GPa)
#
#
# Indices 1 2 3 4 5 6 
#
# 1 0.014017 -0.008000 -0.005491 0.000000 0.000000 0.000000
# 2 -0.008000 0.031854 -0.009237 0.000000 0.000000 0.000000
# 3 -0.005491 -0.009237 0.019154 0.000000 0.000000 0.000000
# 4 0.000000 0.000000 0.000000 0.045665 0.000000 0.000000
# 5 0.000000 0.000000 0.000000 0.000000 0.051397 0.000000
# 6 0.000000 0.000000 0.000000 0.000000 0.000000 0.040040
#
#
# Mechanical properties :
#
#
# Convention : Reuss Voigt Hill
#
# Bulk Modulus (GPa) = 51.10143 61.13215 56.11679
# Shear Modulus (GPa) = 19.67694 21.21206 20.44450
#
# Velocity S-wave (km/s) = 3.33485 3.46249 3.39927
# Velocity P-wave (km/s) = 6.61138 7.10890 6.86465
#
# Compressibility (1/GPa) = 0.01956892
#
# Stress axis : x y z
#
# Youngs Moduli (GPa) = 71.34437 31.39344 52.20848
#
# Poissons Ratio (x) = 0.25114 0.28666
# Poissons Ratio (y) = 0.57074 0.48226
# Poissons Ratio (z) = 0.39173 0.28999
#
# Static dielectric constant tensor:
#      x y z
#    x 3.509070 0.000000 0.000000 
#    y 0.000000 3.282250 0.000000 
#    z 0.000000 0.000000 3.178900 
# 
# 
# High freq. dielectric constant tensor:
#      x y z
#    x 1.691650 0.000000 0.000000 
#    y 0.000000 1.683190 0.000000 
#    z 0.000000 0.000000 1.668690 
# 
# From -- ./inp_files/25765.got.cif
#   From: 2010.03.12/outbox.cif.g09.slc.cpg/sg51_13_cif.got.tgz:25765.got - 2010.04.16 13:43:02.
