data_PCOD8210143
_publ_section_title
;
Structure prediction by ZEFSAII (Michael W. Deem and Ramdas Pophale) SiO2 
 PCOD8210143
Probable space group: P M M A
;
_chemical_formula_sum "Si O2"
_cell_formula_units_Z 48
_cell_length_a 15.422504
_cell_length_b 12.578552
_cell_length_c 14.318437
_cell_angle_alpha 90.000000
_cell_angle_beta 90.000000
_cell_angle_gamma 90.000000
_cell_volume 2777.673235
_symmetry_space_group_name_H-M "P M M A"
_symmetry_group_IT_number 51
_symmetry_cell_setting 'orthorhombic'
loop_
_space_group_symop_operation_xyz
x,y,z
1/2-x,-y,z
1/2+x,-y,-z
-x,y,-z
-x,-y,-z
1/2+x,y,-z
1/2-x,y,z
x,-y,z
loop_
_atom_site_type_symbol
_atom_site_label
_atom_site_fract_x
_atom_site_fract_y
_atom_site_fract_z
Si Si1 0.750000 0.625871 0.391681
Si Si2 0.596552 0.621625 0.729639
Si Si3 0.411897 0.000000 0.938911
Si Si4 0.097729 0.622774 0.740829
Si Si5 0.352486 0.227254 0.113393
Si Si6 0.147727 0.781911 0.898664
Si Si7 0.750000 0.626521 0.599699
Si Si8 0.344413 0.000000 0.127641
O O1 0.750000 0.500000 0.400099
O O2 0.835207 0.664998 0.336784
O O3 0.750000 0.675990 0.495619
O O4 0.620472 0.500000 0.749647
O O5 0.497710 0.634330 0.695095
O O6 0.604526 0.680075 0.828106
O O7 0.663528 0.667772 0.652888
O O8 0.399640 0.894492 0.875411
O O9 0.500000 0.000000 0.000000
O O10 0.333252 0.000000 0.014290
O O11 0.116907 0.500000 0.767463
O O12 0.106061 0.691359 0.834454
O O13 0.250000 0.225126 0.128691
O O14 0.391661 0.112516 0.150904
O O15 0.374751 0.248295 0.005513
O O16 0.250000 0.789058 0.879847
O O17 0.750000 0.500000 0.593600
O O18 0.250000 0.000000 0.174565
#
# Coordination Sequence:
#
# PCOD8210143 Si02
#       8
#     4   8   4   8   8   8   4   4
#     4   9  18  36  55  72  97 130 169 218 263 309
#     4  10  20  32  48  75 105 131 165 207 254 314
#     4  10  20  30  48  74 100 131 179 220 246 287
#     4  10  21  34  50  75 106 136 174 212 253 315
#     4   9  17  30  49  69  99 135 168 207 244 296
#     4  10  20  34  51  71 103 144 177 212 254 294
#     4   9  18  34  55  74  97 128 165 212 271 317
#     4   8  16  30  44  62  90 127 166 204 240 276
#
# _framework density 17.280649
#
# number of rings (size 3 to 8) (size 9 to 14) (size 15 to 20)
#    0.000    2.500    1.667    1.750    4.667    1.333 
#    0.000    6.667    0.000    0.000    0.000    2.333 
#    0.000    2.667    0.000    0.000    0.000    0.000 
#
# Total GULP energy -594769.504661 kJ/mol
# GULP energy per Si atom -12391.031347 kJ/mol
# Density = 1.724132 g / cm^3
# Si number density = 17.280649 Si / 1000 Ang^3
#
#
#
# Elastic Constant Matrix: (Units=GPa)
#
#
# Indices 1 2 3 4 5 6 
#
# 1 105.8921 35.5520 48.1555 0.0000 0.0000 0.0000
# 2 35.5520 79.2108 48.2041 0.0000 0.0000 0.0000
# 3 48.1555 48.2041 98.1952 0.0000 0.0000 0.0000
# 4 0.0000 0.0000 0.0000 2.7337 0.0000 0.0000
# 5 0.0000 0.0000 0.0000 0.0000 15.9776 0.0000
# 6 0.0000 0.0000 0.0000 0.0000 0.0000 17.2479
#
#
#
# Elastic Compliance Matrix: (Units=1/GPa)
#
#
# Indices 1 2 3 4 5 6 
#
# 1 0.012544 -0.002690 -0.004831 0.000000 0.000000 0.000000
# 2 -0.002690 0.018580 -0.007801 0.000000 0.000000 0.000000
# 3 -0.004831 -0.007801 0.016383 0.000000 0.000000 0.000000
# 4 0.000000 0.000000 0.000000 0.365809 0.000000 0.000000
# 5 0.000000 0.000000 0.000000 0.000000 0.062588 0.000000
# 6 0.000000 0.000000 0.000000 0.000000 0.000000 0.057978
#
#
# Mechanical properties :
#
#
# Convention : Reuss Voigt Hill
#
# Bulk Modulus (GPa) = 59.30878 60.79126 60.05002
# Shear Modulus (GPa) = 8.76969 17.28426 13.02697
#
# Velocity S-wave (km/s) = 2.25519 3.16604 2.74861
# Velocity P-wave (km/s) = 6.41690 6.97282 6.70063
#
# Compressibility (1/GPa) = 0.01686091
#
# Stress axis : x y z
#
# Youngs Moduli (GPa) = 79.72172 53.82266 61.04013
#
# Poissons Ratio (x) = 0.14479 0.29488
# Poissons Ratio (y) = 0.21445 0.47620
# Poissons Ratio (z) = 0.38513 0.41990
#
# Static dielectric constant tensor:
#      x y z
#    x 3.400910 0.000000 0.000000 
#    y 0.000000 3.296570 0.000000 
#    z 0.000000 0.000000 3.076580 
# 
# 
# High freq. dielectric constant tensor:
#      x y z
#    x 1.682260 0.000000 0.000000 
#    y 0.000000 1.652440 0.000000 
#    z 0.000000 0.000000 1.626170 
# 
# From -- ./inp_files/24130.got.cif
#   From: 2010.03.12/outbox.cif.g09.slc.cpg/sg51_13_cif.got.tgz:24130.got - 2010.04.16 13:43:02.
