data_PCOD8210345
_publ_section_title
;
Structure prediction by ZEFSAII (Michael W. Deem and Ramdas Pophale) SiO2 
 PCOD8210345
Probable space group: P M M A
;
_chemical_formula_sum "Si O2"
_cell_formula_units_Z 48
_cell_length_a 17.157894
_cell_length_b 7.669370
_cell_length_c 18.071918
_cell_angle_alpha 90.000000
_cell_angle_beta 90.000000
_cell_angle_gamma 90.000000
_cell_volume 2378.087982
_symmetry_space_group_name_H-M "P M M A"
_symmetry_group_IT_number 51
_symmetry_cell_setting 'orthorhombic'
loop_
_space_group_symop_operation_xyz
x,y,z
1/2-x,-y,z
1/2+x,-y,-z
-x,y,-z
-x,-y,-z
1/2+x,y,-z
1/2-x,y,z
x,-y,z
loop_
_atom_site_type_symbol
_atom_site_label
_atom_site_fract_x
_atom_site_fract_y
_atom_site_fract_z
Si Si1 0.838473 0.207041 0.185245
Si Si2 0.663909 0.000000 0.665027
Si Si3 0.071363 0.194173 0.954993
Si Si4 0.663117 0.299961 0.916139
Si Si5 0.605277 0.698309 0.760805
Si Si6 0.998738 0.000000 0.587199
Si Si7 0.555756 0.303004 0.315021
O O1 0.750000 0.277517 0.175388
O O2 0.895403 0.284821 0.120277
O O3 0.867603 0.265342 0.266366
O O4 0.838941 0.000000 0.179281
O O5 0.659936 0.826581 0.714591
O O6 0.750000 0.000000 0.626526
O O7 0.592980 0.000000 0.607097
O O8 0.043183 0.000000 0.934357
O O9 0.142451 0.184507 0.012943
O O10 0.000000 0.291483 0.000000
O O11 0.750000 0.256160 0.890007
O O12 0.653840 0.500000 0.939937
O O13 0.607626 0.253487 0.847244
O O14 0.634371 0.500000 0.746850
O O15 0.516072 0.725196 0.739745
O O16 0.000000 0.000000 0.500000
O O17 0.045060 0.830071 0.616858
O O18 0.559091 0.500000 0.346969
#
# Coordination Sequence:
#
# PCOD8210345 Si02
#       7
#     8   4   8   8   8   4   8
#     4  10  20  35  54  79 115 157 202 258 313 352
#     4  10  20  34  58  87 111 147 189 220 270 340
#     4  10  21  34  50  72 103 146 195 245 295 345
#     4  10  20  32  46  69 103 139 176 225 281 325
#     4   9  19  34  53  80 114 147 184 232 279 335
#     4  10  22  42  64  89 125 153 180 226 280 338
#     4  10  20  37  63  88 112 150 193 230 280 345
#
# _framework density 20.184282
#
# number of rings (size 3 to 8) (size 9 to 14) (size 15 to 20)
#    0.000    2.167    0.833    2.000    1.167    3.667 
#    0.000    0.833    0.000    0.000    0.000    0.000 
#    0.000    0.000    0.000    0.000    0.000    0.000 
#
# Total GULP energy -594938.640816 kJ/mol
# GULP energy per Si atom -12394.555017 kJ/mol
# Density = 2.013834 g / cm^3
# Si number density = 20.184282 Si / 1000 Ang^3
#
#
#
# Elastic Constant Matrix: (Units=GPa)
#
#
# Indices 1 2 3 4 5 6 
#
# 1 100.2669 28.3197 42.7979 0.0000 0.0000 0.0000
# 2 28.3197 79.8640 40.7176 0.0000 0.0000 0.0000
# 3 42.7979 40.7176 133.1855 0.0000 0.0000 0.0000
# 4 0.0000 0.0000 0.0000 15.5449 0.0000 0.0000
# 5 0.0000 0.0000 0.0000 0.0000 20.1172 0.0000
# 6 0.0000 0.0000 0.0000 0.0000 0.0000 -1.4243
#
#
#
# Elastic Compliance Matrix: (Units=1/GPa)
#
#
# Indices 1 2 3 4 5 6 
#
# 1 0.012038 -0.002720 -0.003037 0.000000 0.000000 0.000000
# 2 -0.002720 0.015448 -0.003849 0.000000 0.000000 0.000000
# 3 -0.003037 -0.003849 0.009661 0.000000 0.000000 0.000000
# 4 0.000000 0.000000 0.000000 0.064330 0.000000 0.000000
# 5 0.000000 0.000000 0.000000 0.000000 0.049709 0.000000
# 6 0.000000 0.000000 0.000000 0.000000 0.000000 -0.702094
#
#
# Mechanical properties :
#
#
# Convention : Reuss Voigt Hill
#
# Bulk Modulus (GPa) = 55.75559 59.66519 57.71039
# Shear Modulus (GPa) = -9.51079 20.27964 5.38442
#
# Velocity S-wave (km/s) = -2.17306 3.17318 1.63506
# Velocity P-wave (km/s) = 4.62460 6.56123 5.67612
#
# Compressibility (1/GPa) = 0.01793542
#
# Stress axis : x y z
#
# Youngs Moduli (GPa) = 83.07111 64.73275 103.51224
#
# Poissons Ratio (x) = 0.17610 0.31432
# Poissons Ratio (y) = 0.22599 0.39838
# Poissons Ratio (z) = 0.25225 0.24913
#
# Static dielectric constant tensor:
#      x y z
#    x 3.752630 0.000000 0.000000 
#    y 0.000000 3.664910 0.000000 
#    z 0.000000 0.000000 3.298930 
# 
# 
# High freq. dielectric constant tensor:
#      x y z
#    x 1.791370 0.000000 0.000000 
#    y 0.000000 1.784600 0.000000 
#    z 0.000000 0.000000 1.751520 
# 
# From -- ./inp_files/25002.got.cif
#   From: 2010.03.12/outbox.cif.g09.slc.cpg/sg51_13_cif.got.tgz:25002.got - 2010.04.16 13:43:02.
