data_PCOD8210913
_publ_section_title
;
Structure prediction by ZEFSAII (Michael W. Deem and Ramdas Pophale) SiO2 
 PCOD8210913
Probable space group: P M M A
;
_chemical_formula_sum "Si O2"
_cell_formula_units_Z 56
_cell_length_a 8.724838
_cell_length_b 14.399138
_cell_length_c 23.541392
_cell_angle_alpha 90.000000
_cell_angle_beta 90.000000
_cell_angle_gamma 90.000000
_cell_volume 2957.508523
_symmetry_space_group_name_H-M "P M M A"
_symmetry_group_IT_number 51
_symmetry_cell_setting 'orthorhombic'
loop_
_space_group_symop_operation_xyz
x,y,z
1/2-x,-y,z
1/2+x,-y,-z
-x,y,-z
-x,-y,-z
1/2+x,y,-z
1/2-x,y,z
x,-y,z
loop_
_atom_site_type_symbol
_atom_site_label
_atom_site_fract_x
_atom_site_fract_y
_atom_site_fract_z
Si Si1 0.569790 0.893925 0.881569
Si Si2 0.570031 0.729983 0.058083
Si Si3 0.075900 0.890304 0.763558
Si Si4 0.930529 0.894936 0.440260
Si Si5 0.429799 0.785990 0.338179
Si Si6 0.431999 0.601977 0.280296
Si Si7 0.075545 0.391599 0.152914
O O1 0.750000 0.881399 0.874213
O O2 0.505990 0.830917 0.932179
O O3 0.489027 0.858493 0.824090
O O4 0.525649 0.000000 0.895239
O O5 0.750000 0.741509 0.051635
O O6 0.533460 0.661050 0.109441
O O7 0.500000 0.688755 0.000000
O O8 0.250000 0.854407 0.756608
O O9 0.968094 0.849382 0.715313
O O10 0.068173 0.000000 0.757533
O O11 0.750000 0.890983 0.445097
O O12 0.000000 0.863176 0.500000
O O13 0.983511 0.822183 0.393307
O O14 0.984825 0.000000 0.424830
O O15 0.250000 0.790103 0.350005
O O16 0.485977 0.680500 0.324854
O O17 0.250000 0.597810 0.277703
O O18 0.495570 0.500000 0.298786
O O19 0.487964 0.627298 0.216622
O O20 0.250000 0.354854 0.146300
O O21 0.068387 0.500000 0.139023
#
# Coordination Sequence:
#
# PCOD8210913 Si02
#       7
#     8   8   8   8   8   8   8
#     4  10  21  38  58  78 103 136 174 218 268 322
#     4  12  25  39  56  77 104 137 175 220 266 320
#     4  10  20  33  50  76 110 143 174 212 261 316
#     4  10  21  37  55  76 107 146 185 225 267 313
#     4  11  20  30  52  82 110 143 181 221 264 312
#     4   8  16  32  54  80 108 138 172 211 258 311
#     4   9  18  36  61  84 108 139 175 218 268 320
#
# _framework density 18.934857000000001
#
# number of rings (size 3 to 8) (size 9 to 14) (size 15 to 20)
#    0.000    2.000    0.000    5.143    0.000    6.286 
#    0.000    0.714    0.000    3.857    0.000    0.000 
#    0.000    0.000    0.000    0.000    0.000    0.000 
#
# Total GULP energy -694481.444662 kJ/mol
# GULP energy per Si atom -12401.454369 kJ/mol
# Density = 1.889176 g / cm^3
# Si number density = 18.934857 Si / 1000 Ang^3
#
#
#
# Elastic Constant Matrix: (Units=GPa)
#
#
# Indices 1 2 3 4 5 6 
#
# 1 58.0098 32.3319 20.8529 0.0000 0.0000 0.0000
# 2 32.3319 85.5672 68.0809 0.0000 0.0000 0.0000
# 3 20.8529 68.0809 101.4541 0.0000 0.0000 0.0000
# 4 0.0000 0.0000 0.0000 52.0652 0.0000 0.0000
# 5 0.0000 0.0000 0.0000 0.0000 34.3530 0.0000
# 6 0.0000 0.0000 0.0000 0.0000 0.0000 23.6112
#
#
#
# Elastic Compliance Matrix: (Units=1/GPa)
#
#
# Indices 1 2 3 4 5 6 
#
# 1 0.022079 -0.010153 0.002275 0.000000 0.000000 0.000000
# 2 -0.010153 0.029743 -0.017872 0.000000 0.000000 0.000000
# 3 0.002275 -0.017872 0.021382 0.000000 0.000000 0.000000
# 4 0.000000 0.000000 0.000000 0.019207 0.000000 0.000000
# 5 0.000000 0.000000 0.000000 0.000000 0.029110 0.000000
# 6 0.000000 0.000000 0.000000 0.000000 0.000000 0.042353
#
#
# Mechanical properties :
#
#
# Convention : Reuss Voigt Hill
#
# Bulk Modulus (GPa) = 46.07385 54.17361 50.12373
# Shear Modulus (GPa) = 22.46098 30.25689 26.35893
#
# Velocity S-wave (km/s) = 3.44790 4.00177 3.73511
# Velocity P-wave (km/s) = 6.34321 7.07282 6.71793
#
# Compressibility (1/GPa) = 0.02170429
#
# Stress axis : x y z
#
# Youngs Moduli (GPa) = 45.29112 33.62164 46.76784
#
# Poissons Ratio (x) = 0.34135 -0.10639
# Poissons Ratio (y) = 0.45983 0.83584
# Poissons Ratio (z) = -0.10303 0.60089
#
# Static dielectric constant tensor:
#      x y z
#    x 3.409720 0.000000 0.000000 
#    y 0.000000 3.739920 0.000000 
#    z 0.000000 0.000000 3.338010 
# 
# 
# High freq. dielectric constant tensor:
#      x y z
#    x 1.731420 0.000000 0.000000 
#    y 0.000000 1.737990 0.000000 
#    z 0.000000 0.000000 1.724280 
# 
# From -- ./inp_files/31909.got.cif
#   From: 2010.03.12/outbox.cif.g09.slc.cpg/sg51_16_cif.got.tgz:31909.got - 2010.04.16 13:43:02.
