data_PCOD8210829
_publ_section_title
;
Structure prediction by ZEFSAII (Michael W. Deem and Ramdas Pophale) SiO2 
 PCOD8210829
Probable space group: P M M A
;
_chemical_formula_sum "Si O2"
_cell_formula_units_Z 48
_cell_length_a 8.933347
_cell_length_b 9.354715
_cell_length_c 30.971455
_cell_angle_alpha 90.000000
_cell_angle_beta 90.000000
_cell_angle_gamma 90.000000
_cell_volume 2588.250896
_symmetry_space_group_name_H-M "P M M A"
_symmetry_group_IT_number 51
_symmetry_cell_setting 'orthorhombic'
loop_
_space_group_symop_operation_xyz
x,y,z
1/2-x,-y,z
1/2+x,-y,-z
-x,y,-z
-x,-y,-z
1/2+x,y,-z
1/2-x,y,z
x,-y,z
loop_
_atom_site_type_symbol
_atom_site_label
_atom_site_fract_x
_atom_site_fract_y
_atom_site_fract_z
Si Si1 0.577659 0.167795 0.379398
Si Si2 0.078096 0.669119 0.785307
Si Si3 0.075359 0.165128 0.290971
Si Si4 0.418528 0.330001 0.128037
Si Si5 0.925120 0.665144 0.544057
Si Si6 0.918988 0.670517 0.042820
O O1 0.750000 0.214260 0.381057
O O2 0.511044 0.216189 0.333625
O O3 0.487924 0.245730 0.416554
O O4 0.556673 0.000000 0.386242
O O5 0.250000 0.717660 0.781688
O O6 0.061450 0.500000 0.780606
O O7 0.980941 0.741022 0.748404
O O8 0.014313 0.722680 0.831110
O O9 0.250000 0.192533 0.298352
O O10 0.040953 0.000000 0.280825
O O11 0.250000 0.269515 0.131548
O O12 0.416028 0.500000 0.126329
O O13 0.494627 0.269228 0.084656
O O14 0.750000 0.692053 0.540112
O O15 0.964547 0.500000 0.552103
O O16 0.000000 0.720300 0.500000
O O17 0.750000 0.728880 0.043568
O O18 0.919948 0.500000 0.043081
O O19 0.000000 0.729193 0.000000
#
# Coordination Sequence:
#
# PCOD8210829 Si02
#       6
#     8   8   8   8   8   8
#     4  10  21  37  57  80 105 135 171 210 253 300
#     4  10  20  33  50  73 100 131 167 206 250 301
#     4  10  21  37  56  77 102 133 169 210 255 301
#     4   9  16  26  40  59  86 120 157 199 246 294
#     4  10  21  37  57  81 109 141 175 211 252 297
#     4   9  15  22  33  51  78 114 155 196 240 293
#
# _framework density 18.545344
#
# number of rings (size 3 to 8) (size 9 to 14) (size 15 to 20)
#    0.000    2.333    0.000    3.000    0.000    9.000 
#    0.000    0.000    0.000    0.000    0.000    0.000 
#    0.000    0.667    0.000    2.500    0.000    5.500 
#
# Total GULP energy -595327.108603 kJ/mol
# GULP energy per Si atom -12402.648096 kJ/mol
# Density = 1.850313 g / cm^3
# Si number density = 18.545344 Si / 1000 Ang^3
#
#
#
# Elastic Constant Matrix: (Units=GPa)
#
#
# Indices 1 2 3 4 5 6 
#
# 1 89.4098 18.7537 34.9572 0.0000 0.0000 0.0000
# 2 18.7537 20.8823 30.7561 0.0000 0.0000 0.0000
# 3 34.9572 30.7561 138.2006 0.0000 0.0000 0.0000
# 4 0.0000 0.0000 0.0000 44.2869 0.0000 0.0000
# 5 0.0000 0.0000 0.0000 0.0000 45.8930 0.0000
# 6 0.0000 0.0000 0.0000 0.0000 0.0000 42.9633
#
#
#
# Elastic Compliance Matrix: (Units=1/GPa)
#
#
# Indices 1 2 3 4 5 6 
#
# 1 0.013891 -0.010860 -0.001097 0.000000 0.000000 0.000000
# 2 -0.010860 0.079727 -0.014996 0.000000 0.000000 0.000000
# 3 -0.001097 -0.014996 0.010851 0.000000 0.000000 0.000000
# 4 0.000000 0.000000 0.000000 0.022580 0.000000 0.000000
# 5 0.000000 0.000000 0.000000 0.000000 0.021790 0.000000
# 6 0.000000 0.000000 0.000000 0.000000 0.000000 0.023276
#
#
# Mechanical properties :
#
#
# Convention : Reuss Voigt Hill
#
# Bulk Modulus (GPa) = 19.77712 46.38074 33.07893
# Shear Modulus (GPa) = 20.58681 37.56370 29.07526
#
# Velocity S-wave (km/s) = 3.33540 4.50544 3.96383
# Velocity P-wave (km/s) = 5.05179 7.22004 6.23095
#
# Compressibility (1/GPa) = 0.05056348
#
# Stress axis : x y z
#
# Youngs Moduli (GPa) = 71.98830 12.54281 92.16051
#
# Poissons Ratio (x) = 0.13621 0.10109
# Poissons Ratio (y) = 0.78177 1.38204
# Poissons Ratio (z) = 0.07897 0.18809
#
# Static dielectric constant tensor:
#      x y z
#    x 5.277590 0.000000 0.000000 
#    y 0.000000 2.964000 0.000000 
#    z 0.000000 0.000000 3.633070 
# 
# 
# High freq. dielectric constant tensor:
#      x y z
#    x 1.741860 0.000000 0.000000 
#    y 0.000000 1.668190 0.000000 
#    z 0.000000 0.000000 1.737380 
# 
# From -- ./inp_files/34537.got.cif
#   From: 2010.03.12/outbox.cif.g09.slc.cpg/sg51_18_cif.got.tgz:34537.got - 2010.04.16 13:43:02.
