data_PCOD8210698
_publ_section_title
;
Structure prediction by ZEFSAII (Michael W. Deem and Ramdas Pophale) SiO2 
 PCOD8210698
Probable space group: P M M A
;
_chemical_formula_sum "Si O2"
_cell_formula_units_Z 64
_cell_length_a 8.955006
_cell_length_b 14.376175
_cell_length_c 28.401673
_cell_angle_alpha 90.000000
_cell_angle_beta 90.000000
_cell_angle_gamma 90.000000
_cell_volume 3656.395408
_symmetry_space_group_name_H-M "P M M A"
_symmetry_group_IT_number 51
_symmetry_cell_setting 'orthorhombic'
loop_
_space_group_symop_operation_xyz
x,y,z
1/2-x,-y,z
1/2+x,-y,-z
-x,y,-z
-x,-y,-z
1/2+x,y,-z
1/2-x,y,z
x,-y,z
loop_
_atom_site_type_symbol
_atom_site_label
_atom_site_fract_x
_atom_site_fract_y
_atom_site_fract_z
Si Si1 0.920997 0.108139 0.694585
Si Si2 0.921087 0.715514 0.452526
Si Si3 0.074734 0.606241 0.264010
Si Si4 0.579417 0.896016 0.401189
Si Si5 0.073687 0.892449 0.141734
Si Si6 0.926351 0.779594 0.225162
Si Si7 0.582154 0.889631 0.045973
Si Si8 0.581699 0.391128 0.628492
O O1 0.750000 0.140630 0.701422
O O2 0.968882 0.128769 0.641311
O O3 0.028187 0.165218 0.728279
O O4 0.939159 0.000000 0.706906
O O5 0.750000 0.692837 0.460294
O O6 0.951504 0.825067 0.443772
O O7 0.000000 0.682219 0.500000
O O8 0.972202 0.659734 0.406906
O O9 0.250000 0.620149 0.255283
O O10 0.028398 0.500000 0.253096
O O11 0.034765 0.631998 0.317983
O O12 0.982391 0.673245 0.229419
O O13 0.750000 0.886647 0.383106
O O14 0.547569 0.000000 0.420057
O O15 0.250000 0.878553 0.141692
O O16 0.001924 0.827593 0.180756
O O17 0.009927 0.858922 0.091753
O O18 0.031526 0.000000 0.151862
O O19 0.750000 0.781515 0.218652
O O20 0.750000 0.849167 0.048764
O O21 0.587552 0.000000 0.042256
O O22 0.500000 0.848074 0.000000
O O23 0.750000 0.356469 0.619263
O O24 0.569757 0.500000 0.619335
#
# Coordination Sequence:
#
# PCOD8210698 Si02
#       8
#     8   8   8   8   8   8   8   8
#     4  10  20  33  50  72  97 128 165 200 236 284
#     4  11  23  36  52  74  98 125 154 187 230 278
#     4   9  19  37  59  79  99 126 160 198 241 291
#     4   9  19  36  54  72  95 122 155 195 236 278
#     4  10  20  33  48  68  98 137 180 222 260 299
#     4  12  23  32  47  72 103 136 166 202 249 297
#     4   9  16  27  44  66  94 131 175 219 261 304
#     4   9  19  37  59  79  98 121 150 187 232 282
#
# _framework density 17.503578999999998
#
# number of rings (size 3 to 8) (size 9 to 14) (size 15 to 20)
#    0.000    2.125    0.000    4.500    0.000    9.000 
#    0.000    1.250    0.000    0.000    0.000    0.000 
#    0.000    0.500    0.000    1.875    0.000    2.875 
#
# Total GULP energy -793689.136684 kJ/mol
# GULP energy per Si atom -12401.392761 kJ/mol
# Density = 1.746374 g / cm^3
# Si number density = 17.503579 Si / 1000 Ang^3
#
#
#
# Elastic Constant Matrix: (Units=GPa)
#
#
# Indices 1 2 3 4 5 6 
#
# 1 108.7105 45.8723 53.8330 0.0000 0.0000 0.0000
# 2 45.8723 62.4783 52.7646 0.0000 0.0000 0.0000
# 3 53.8330 52.7646 87.6982 0.0000 0.0000 0.0000
# 4 0.0000 0.0000 0.0000 14.8236 0.0000 0.0000
# 5 0.0000 0.0000 0.0000 0.0000 32.1916 0.0000
# 6 0.0000 0.0000 0.0000 0.0000 0.0000 24.2793
#
#
#
# Elastic Compliance Matrix: (Units=1/GPa)
#
#
# Indices 1 2 3 4 5 6 
#
# 1 0.014337 -0.006290 -0.005016 0.000000 0.000000 0.000000
# 2 -0.006290 0.035299 -0.017377 0.000000 0.000000 0.000000
# 3 -0.005016 -0.017377 0.024937 0.000000 0.000000 0.000000
# 4 0.000000 0.000000 0.000000 0.067460 0.000000 0.000000
# 5 0.000000 0.000000 0.000000 0.000000 0.031064 0.000000
# 6 0.000000 0.000000 0.000000 0.000000 0.000000 0.041187
#
#
# Mechanical properties :
#
#
# Convention : Reuss Voigt Hill
#
# Bulk Modulus (GPa) = 58.11733 62.64742 60.38238
# Shear Modulus (GPa) = 18.02540 21.35336 19.68938
#
# Velocity S-wave (km/s) = 3.21255 3.49656 3.35756
# Velocity P-wave (km/s) = 6.85827 7.22289 7.04294
#
# Compressibility (1/GPa) = 0.01720657
#
# Stress axis : x y z
#
# Youngs Moduli (GPa) = 69.74999 28.32935 40.10119
#
# Poissons Ratio (x) = 0.17819 0.20115
# Poissons Ratio (y) = 0.43873 0.69684
# Poissons Ratio (z) = 0.34988 0.49228
#
# Static dielectric constant tensor:
#      x y z
#    x 3.406970 0.000000 0.000000 
#    y 0.000000 3.219960 0.000000 
#    z 0.000000 0.000000 3.183830 
# 
# 
# High freq. dielectric constant tensor:
#      x y z
#    x 1.686740 0.000000 0.000000 
#    y 0.000000 1.658520 0.000000 
#    z 0.000000 0.000000 1.662280 
# 
# From -- ./inp_files/34818.got.cif
#   From: 2010.03.12/outbox.cif.g09.slc.cpg/sg51_18_cif.got.tgz:34818.got - 2010.04.16 13:43:02.
