data_PCOD8210074
_publ_section_title
;
Structure prediction by ZEFSAII (Michael W. Deem and Ramdas Pophale) SiO2 
 PCOD8210074
Probable space group: P M M A
;
_chemical_formula_sum "Si O2"
_cell_formula_units_Z 48
_cell_length_a 15.117669
_cell_length_b 8.793074
_cell_length_c 19.096143
_cell_angle_alpha 90.000000
_cell_angle_beta 90.000000
_cell_angle_gamma 90.000000
_cell_volume 2538.465226
_symmetry_space_group_name_H-M "P M M A"
_symmetry_group_IT_number 51
_symmetry_cell_setting 'orthorhombic'
loop_
_space_group_symop_operation_xyz
x,y,z
1/2-x,-y,z
1/2+x,-y,-z
-x,y,-z
-x,-y,-z
1/2+x,y,-z
1/2-x,y,z
x,-y,z
loop_
_atom_site_type_symbol
_atom_site_label
_atom_site_fract_x
_atom_site_fract_y
_atom_site_fract_z
Si Si1 0.848565 0.819233 0.177302
Si Si2 0.250000 0.319533 0.576820
Si Si3 0.250000 0.680112 0.417656
Si Si4 0.496211 0.180499 0.079057
Si Si5 0.599308 0.179949 0.331369
Si Si6 0.086339 0.679831 0.326704
Si Si7 0.648771 0.321457 0.827375
O O1 0.750000 0.760134 0.158132
O O2 0.874623 0.759872 0.254241
O O3 0.918825 0.753985 0.121253
O O4 0.850637 0.000000 0.176759
O O5 0.250000 0.500000 0.581071
O O6 0.250000 0.261232 0.496945
O O7 0.337429 0.256240 0.612488
O O8 0.250000 0.500000 0.413152
O O9 0.162922 0.739866 0.378077
O O10 0.405516 0.236219 0.112947
O O11 0.497186 0.000000 0.080607
O O12 0.500000 0.242708 0.000000
O O13 0.500692 0.230713 0.349660
O O14 0.609280 0.000000 0.336434
O O15 0.070817 0.500000 0.333569
O O16 0.111834 0.726259 0.248065
O O17 0.750000 0.268542 0.833548
O O18 0.639742 0.500000 0.838890
#
# Coordination Sequence:
#
# PCOD8210074 Si02
#       7
#     8   4   4   8   8   8   8
#     4   9  17  32  54  77 105 145 184 221 272 328
#     4  11  23  39  59  85 114 147 190 238 280 332
#     4   9  20  39  61  83 114 151 188 232 282 336
#     4  10  21  36  56  84 115 147 188 233 279 337
#     4  11  21  36  58  84 114 149 187 233 286 339
#     4  10  19  36  61  86 110 146 194 235 277 338
#     4  10  20  35  58  85 113 146 187 236 285 333
#
# _framework density 18.909063
#
# number of rings (size 3 to 8) (size 9 to 14) (size 15 to 20)
#    0.000    2.000    3.333    0.750    0.000    2.000 
#    0.000    7.083    0.000    0.000    0.000    0.000 
#    0.000    0.000    0.000    0.000    0.000    0.000 
#
# Total GULP energy -595310.446856 kJ/mol
# GULP energy per Si atom -12402.300976 kJ/mol
# Density = 1.886603 g / cm^3
# Si number density = 18.909063 Si / 1000 Ang^3
#
#
#
# Elastic Constant Matrix: (Units=GPa)
#
#
# Indices 1 2 3 4 5 6 
#
# 1 164.0721 26.3062 76.7674 0.0000 0.0000 0.0000
# 2 26.3062 31.4146 33.1383 0.0000 0.0000 0.0000
# 3 76.7674 33.1383 157.0523 0.0000 0.0000 0.0000
# 4 0.0000 0.0000 0.0000 22.6603 0.0000 0.0000
# 5 0.0000 0.0000 0.0000 0.0000 36.8888 0.0000
# 6 0.0000 0.0000 0.0000 0.0000 0.0000 28.2707
#
#
#
# Elastic Compliance Matrix: (Units=1/GPa)
#
#
# Indices 1 2 3 4 5 6 
#
# 1 0.008172 -0.003382 -0.003281 0.000000 0.000000 0.000000
# 2 -0.003382 0.042346 -0.007282 0.000000 0.000000 0.000000
# 3 -0.003281 -0.007282 0.009507 0.000000 0.000000 0.000000
# 4 0.000000 0.000000 0.000000 0.044130 0.000000 0.000000
# 5 0.000000 0.000000 0.000000 0.000000 0.027109 0.000000
# 6 0.000000 0.000000 0.000000 0.000000 0.000000 0.035372
#
#
# Mechanical properties :
#
#
# Convention : Reuss Voigt Hill
#
# Bulk Modulus (GPa) = 31.11810 69.44031 50.27921
# Shear Modulus (GPa) = 24.36185 31.98575 28.17380
#
# Velocity S-wave (km/s) = 3.59328 4.11732 3.86419
# Velocity P-wave (km/s) = 5.80586 7.70753 6.82327
#
# Compressibility (1/GPa) = 0.03213564
#
# Stress axis : x y z
#
# Youngs Moduli (GPa) = 122.36442 23.61493 105.18017
#
# Poissons Ratio (x) = 0.07988 0.34509
# Poissons Ratio (y) = 0.41389 0.76590
# Poissons Ratio (z) = 0.40147 0.17196
#
# Static dielectric constant tensor:
#      x y z
#    x 3.748850 0.000000 0.000000 
#    y 0.000000 3.120120 0.000000 
#    z 0.000000 0.000000 3.625700 
# 
# 
# High freq. dielectric constant tensor:
#      x y z
#    x 1.753460 0.000000 0.000000 
#    y 0.000000 1.704700 0.000000 
#    z 0.000000 0.000000 1.736190 
# 
# From -- ./inp_files/29609.got.cif
#   From: 2010.03.12/outbox.cif.g09.slc.cpg/sg51_15_cif.got.tgz:29609.got - 2010.04.16 13:43:02.
