data_PCOD8210445
_publ_section_title
;
Structure prediction by ZEFSAII (Michael W. Deem and Ramdas Pophale) SiO2 
 PCOD8210445
Probable space group: P M M A
;
_chemical_formula_sum "Si O2"
_cell_formula_units_Z 48
_cell_length_a 13.656226
_cell_length_b 14.793139
_cell_length_c 13.870730
_cell_angle_alpha 90.000000
_cell_angle_beta 90.000000
_cell_angle_gamma 90.000000
_cell_volume 2802.143367
_symmetry_space_group_name_H-M "P M M A"
_symmetry_group_IT_number 51
_symmetry_cell_setting 'orthorhombic'
loop_
_space_group_symop_operation_xyz
x,y,z
1/2-x,-y,z
1/2+x,-y,-z
-x,y,-z
-x,-y,-z
1/2+x,y,-z
1/2-x,y,z
x,-y,z
loop_
_atom_site_type_symbol
_atom_site_label
_atom_site_fract_x
_atom_site_fract_y
_atom_site_fract_z
Si Si1 0.022022 0.104899 0.890873
Si Si2 0.971137 0.775862 0.605378
Si Si3 0.363019 0.777944 0.754107
Si Si4 0.360265 0.102236 0.262639
Si Si5 0.863409 0.403730 0.326269
Si Si6 0.865024 0.394679 0.543473
O O1 0.109196 0.169585 0.851968
O O2 0.925344 0.126516 0.830177
O O3 0.054660 0.000000 0.882555
O O4 0.000000 0.132126 0.000000
O O5 0.882189 0.835727 0.645373
O O6 0.930993 0.671379 0.610856
O O7 0.000000 0.807831 0.500000
O O8 0.065929 0.805223 0.667414
O O9 0.250000 0.799208 0.728496
O O10 0.380935 0.668852 0.759158
O O11 0.250000 0.118376 0.228191
O O12 0.378982 0.000000 0.295691
O O13 0.750000 0.420833 0.342355
O O14 0.912663 0.500000 0.297611
O O15 0.899255 0.370833 0.433078
O O16 0.750000 0.374909 0.559855
O O17 0.888509 0.500000 0.566400
#
# Coordination Sequence:
#
# PCOD8210445 Si02
#       6
#     8   8   8   8   8   8
#     4   9  19  36  57  79  98 117 151 203 261 314
#     4  11  20  29  47  70 100 139 174 206 240 282
#     4  10  20  32  47  73 105 134 167 206 249 299
#     4   9  19  35  52  70  94 125 161 199 243 300
#     4   8  14  26  44  66  96 133 170 205 238 277
#     4   9  17  29  46  70 100 135 177 218 250 281
#
# _framework density 17.129745
#
# number of rings (size 3 to 8) (size 9 to 14) (size 15 to 20)
#    0.000    2.667    1.667    1.500    0.000    3.000 
#    0.000    1.667    0.000    0.500    0.000    0.000 
#    0.000   10.667    0.000    0.000    0.000    0.000 
#
# Total GULP energy -594636.098041 kJ/mol
# GULP energy per Si atom -12388.252043 kJ/mol
# Density = 1.709076 g / cm^3
# Si number density = 17.129745 Si / 1000 Ang^3
#
#
#
# Elastic Constant Matrix: (Units=GPa)
#
#
# Indices 1 2 3 4 5 6 
#
# 1 85.5618 38.5723 31.4919 0.0000 0.0000 0.0000
# 2 38.5723 90.6390 54.2929 0.0000 0.0000 0.0000
# 3 31.4919 54.2929 90.0955 0.0000 0.0000 0.0000
# 4 0.0000 0.0000 0.0000 20.4379 0.0000 0.0000
# 5 0.0000 0.0000 0.0000 0.0000 19.2361 0.0000
# 6 0.0000 0.0000 0.0000 0.0000 0.0000 24.7960
#
#
#
# Elastic Compliance Matrix: (Units=1/GPa)
#
#
# Indices 1 2 3 4 5 6 
#
# 1 0.014722 -0.004980 -0.002145 0.000000 0.000000 0.000000
# 2 -0.004980 0.018950 -0.009678 0.000000 0.000000 0.000000
# 3 -0.002145 -0.009678 0.017681 0.000000 0.000000 0.000000
# 4 0.000000 0.000000 0.000000 0.048929 0.000000 0.000000
# 5 0.000000 0.000000 0.000000 0.000000 0.051986 0.000000
# 6 0.000000 0.000000 0.000000 0.000000 0.000000 0.040329
#
#
# Mechanical properties :
#
#
# Convention : Reuss Voigt Hill
#
# Bulk Modulus (GPa) = 56.35098 57.22341 56.78719
# Shear Modulus (GPa) = 21.54068 22.35662 21.94865
#
# Velocity S-wave (km/s) = 3.54997 3.61658 3.58343
# Velocity P-wave (km/s) = 7.05486 7.13568 7.09539
#
# Compressibility (1/GPa) = 0.01774592
#
# Stress axis : x y z
#
# Youngs Moduli (GPa) = 67.92522 52.77129 56.55675
#
# Poissons Ratio (x) = 0.26283 0.12129
# Poissons Ratio (y) = 0.33830 0.54738
# Poissons Ratio (z) = 0.14567 0.51075
#
# Static dielectric constant tensor:
#      x y z
#    x 3.369160 0.000000 0.000000 
#    y 0.000000 3.407430 0.000000 
#    z 0.000000 0.000000 2.908610 
# 
# 
# High freq. dielectric constant tensor:
#      x y z
#    x 1.677020 0.000000 0.000000 
#    y 0.000000 1.664910 0.000000 
#    z 0.000000 0.000000 1.613410 
# 
# From -- ./inp_files/16449.got.cif
#   From: 2010.03.12/outbox.cif.g09.slc.cpg/sg51_9_cif.got.tgz:16449.got - 2010.04.16 13:43:02.
