data_PCOD8210798
_publ_section_title
;
Structure prediction by ZEFSAII (Michael W. Deem and Ramdas Pophale) SiO2 
 PCOD8210798
Probable space group: P M M A
;
_chemical_formula_sum "Si O2"
_cell_formula_units_Z 40
_cell_length_a 9.167417
_cell_length_b 9.225462
_cell_length_c 26.029866
_cell_angle_alpha 90.000000
_cell_angle_beta 90.000000
_cell_angle_gamma 90.000000
_cell_volume 2201.440963
_symmetry_space_group_name_H-M "P M M A"
_symmetry_group_IT_number 51
_symmetry_cell_setting 'orthorhombic'
loop_
_space_group_symop_operation_xyz
x,y,z
1/2-x,-y,z
1/2+x,-y,-z
-x,y,-z
-x,-y,-z
1/2+x,y,-z
1/2-x,y,z
x,-y,z
loop_
_atom_site_type_symbol
_atom_site_label
_atom_site_fract_x
_atom_site_fract_y
_atom_site_fract_z
Si Si1 0.411348 0.172652 0.047680
Si Si2 0.919048 0.670207 0.741455
Si Si3 0.076584 0.838778 0.159303
Si Si4 0.914875 0.827573 0.549418
Si Si5 0.579307 0.831209 0.348786
O O1 0.250000 0.238764 0.043362
O O2 0.482237 0.213932 0.103292
O O3 0.405776 0.000000 0.043850
O O4 0.500000 0.239880 0.000000
O O5 0.750000 0.711791 0.731930
O O6 0.943495 0.500000 0.740483
O O7 0.974193 0.728808 0.796508
O O8 0.018370 0.741737 0.698554
O O9 0.250000 0.844508 0.155172
O O10 0.017086 0.000000 0.172537
O O11 0.750000 0.766231 0.549949
O O12 0.000000 0.764780 0.500000
O O13 0.998447 0.774789 0.600197
O O14 0.912779 0.000000 0.546891
O O15 0.750000 0.801324 0.355557
O O16 0.546865 0.000000 0.339114
#
# Coordination Sequence:
#
# PCOD8210798 Si02
#       5
#     8   8   8   8   8
#     4   8  13  22  38  61  87 114 145 184 231 279
#     4  10  20  33  50  71  94 124 163 204 246 291
#     4   8  14  26  45  67  91 120 154 193 237 284
#     4   9  16  27  46  73 103 131 159 195 238 282
#     4  10  20  33  50  73 100 130 164 200 239 285
#
# _framework density 18.169917000000002
#
# number of rings (size 3 to 8) (size 9 to 14) (size 15 to 20)
#    0.000    3.000    0.000    3.000    0.000    4.800 
#    0.000    1.000    0.000    4.800    0.000    0.000 
#    0.000    0.000    0.000    0.000    0.000    0.000 
#
# Total GULP energy -495810.015706 kJ/mol
# GULP energy per Si atom -12395.250393 kJ/mol
# Density = 1.812856 g / cm^3
# Si number density = 18.169917 Si / 1000 Ang^3
#
#
#
# Elastic Constant Matrix: (Units=GPa)
#
#
# Indices 1 2 3 4 5 6 
#
# 1 93.9024 31.7563 73.2911 0.0000 0.0000 0.0000
# 2 31.7563 42.9580 46.1822 0.0000 0.0000 0.0000
# 3 73.2911 46.1822 185.1266 0.0000 0.0000 0.0000
# 4 0.0000 0.0000 0.0000 -1.5467 0.0000 0.0000
# 5 0.0000 0.0000 0.0000 0.0000 34.5815 0.0000
# 6 0.0000 0.0000 0.0000 0.0000 0.0000 14.6240
#
#
#
# Elastic Compliance Matrix: (Units=1/GPa)
#
#
# Indices 1 2 3 4 5 6 
#
# 1 0.016917 -0.007250 -0.004889 0.000000 0.000000 0.000000
# 2 -0.007250 0.034917 -0.005840 0.000000 0.000000 0.000000
# 3 -0.004889 -0.005840 0.008794 0.000000 0.000000 0.000000
# 4 0.000000 0.000000 0.000000 -0.646558 0.000000 0.000000
# 5 0.000000 0.000000 0.000000 0.000000 0.028917 0.000000
# 6 0.000000 0.000000 0.000000 0.000000 0.000000 0.068381
#
#
# Mechanical properties :
#
#
# Convention : Reuss Voigt Hill
#
# Bulk Modulus (GPa) = 40.53553 69.38290 54.95921
# Shear Modulus (GPa) = -11.24981 20.91559 4.83289
#
# Velocity S-wave (km/s) = -2.49096 3.39648 1.63267
# Velocity P-wave (km/s) = 3.75292 7.32461 5.81955
#
# Compressibility (1/GPa) = 0.02466972
#
# Stress axis : x y z
#
# Youngs Moduli (GPa) = 59.11256 28.63975 113.71340
#
# Poissons Ratio (x) = 0.20764 0.55592
# Poissons Ratio (y) = 0.42857 0.66410
# Poissons Ratio (z) = 0.28899 0.16726
#
# Static dielectric constant tensor:
#      x y z
#    x 3.309840 0.000000 0.000000 
#    y 0.000000 2.897390 0.000000 
#    z 0.000000 0.000000 3.754530 
# 
# 
# High freq. dielectric constant tensor:
#      x y z
#    x 1.684560 0.000000 0.000000 
#    y 0.000000 1.650490 0.000000 
#    z 0.000000 0.000000 1.726520 
# 
# From -- ./inp_files/34328.got.cif
#   From: 2010.03.12/outbox.cif.g09.slc.cpg/sg51_18_cif.got.tgz:34328.got - 2010.04.16 13:43:02.
