data_PCOD8210460
_publ_section_title
;
Structure prediction by ZEFSAII (Michael W. Deem and Ramdas Pophale) SiO2 
 PCOD8210460
Probable space group: P M M A
;
_chemical_formula_sum "Si O2"
_cell_formula_units_Z 64
_cell_length_a 17.612774
_cell_length_b 9.304202
_cell_length_c 20.736117
_cell_angle_alpha 90.000000
_cell_angle_beta 90.000000
_cell_angle_gamma 90.000000
_cell_volume 3398.085701
_symmetry_space_group_name_H-M "P M M A"
_symmetry_group_IT_number 51
_symmetry_cell_setting 'orthorhombic'
loop_
_space_group_symop_operation_xyz
x,y,z
1/2-x,-y,z
1/2+x,-y,-z
-x,y,-z
-x,-y,-z
1/2+x,y,-z
1/2-x,y,z
x,-y,z
loop_
_atom_site_type_symbol
_atom_site_label
_atom_site_fract_x
_atom_site_fract_y
_atom_site_fract_z
Si Si1 0.340536 0.662934 0.887448
Si Si2 0.659693 0.661162 0.726588
Si Si3 0.159600 0.837310 0.764637
Si Si4 0.159929 0.839064 0.392849
Si Si5 0.587380 0.332729 0.493189
Si Si6 0.159703 0.338488 0.130945
Si Si7 0.340608 0.837959 0.010701
Si Si8 0.661997 0.334045 0.359648
O O1 0.250000 0.661380 0.886819
O O2 0.371957 0.500000 0.887018
O O3 0.372340 0.747430 0.825213
O O4 0.370982 0.744523 0.950799
O O5 0.750000 0.662017 0.723777
O O6 0.629651 0.500000 0.713563
O O7 0.625679 0.764291 0.671433
O O8 0.632927 0.713191 0.797789
O O9 0.250000 0.836786 0.766776
O O10 0.131295 0.762016 0.699157
O O11 0.128302 0.000000 0.767606
O O12 0.250000 0.839974 0.389437
O O13 0.136260 0.754760 0.456160
O O14 0.127224 0.000000 0.395761
O O15 0.500000 0.290875 0.500000
O O16 0.602189 0.500000 0.506513
O O17 0.614013 0.289256 0.421944
O O18 0.250000 0.338753 0.127861
O O19 0.130010 0.500000 0.117442
O O20 0.126970 0.231576 0.076690
O O21 0.250000 0.838565 0.011052
O O22 0.371961 0.000000 0.004879
O O23 0.750000 0.303072 0.374435
O O24 0.649461 0.500000 0.341007
#
# Coordination Sequence:
#
# PCOD8210460 Si02
#       8
#     8   8   8   8   8   8   8   8
#     4   9  15  22  32  46  68 101 140 179 217 259
#     4   8  14  25  41  59  80 109 146 187 227 267
#     4   9  16  25  38  57  80 105 137 179 222 263
#     4  10  20  32  48  71  96 122 154 192 234 280
#     4  10  21  36  53  72  94 122 155 190 230 277
#     4   8  13  21  32  47  69 100 139 179 218 261
#     4   9  15  20  27  42  67 101 139 177 217 261
#     4   9  17  30  48  68  89 115 148 185 225 270
#
# _framework density 18.834135
#
# number of rings (size 3 to 8) (size 9 to 14) (size 15 to 20)
#    0.000    3.000    0.000    2.625    0.000    7.000 
#    0.000    3.750    0.000    0.000    0.000    0.000 
#    0.000    0.000    0.000    1.125    0.000   23.750 
#
# Total GULP energy -793413.955883 kJ/mol
# GULP energy per Si atom -12397.093061 kJ/mol
# Density = 1.879127 g / cm^3
# Si number density = 18.834135 Si / 1000 Ang^3
#
#
#
# Elastic Constant Matrix: (Units=GPa)
#
#
# Indices 1 2 3 4 5 6 
#
# 1 5.5485 7.2623 5.0040 0.0000 0.0000 0.0000
# 2 7.2623 138.6853 91.8526 0.0000 0.0000 0.0000
# 3 5.0040 91.8526 156.7710 0.0000 0.0000 0.0000
# 4 0.0000 0.0000 0.0000 22.9166 0.0000 0.0000
# 5 0.0000 0.0000 0.0000 0.0000 -0.5832 0.0000
# 6 0.0000 0.0000 0.0000 0.0000 0.0000 7.0635
#
#
#
# Elastic Compliance Matrix: (Units=1/GPa)
#
#
# Indices 1 2 3 4 5 6 
#
# 1 0.193505 -0.009874 -0.000391 0.000000 0.000000 0.000000
# 2 -0.009874 0.012287 -0.006884 0.000000 0.000000 0.000000
# 3 -0.000391 -0.006884 0.010424 0.000000 0.000000 0.000000
# 4 0.000000 0.000000 0.000000 0.043637 0.000000 0.000000
# 5 0.000000 0.000000 0.000000 0.000000 -1.714665 0.000000
# 6 0.000000 0.000000 0.000000 0.000000 0.000000 0.141573
#
#
# Mechanical properties :
#
#
# Convention : Reuss Voigt Hill
#
# Bulk Modulus (GPa) = 5.49696 56.58252 31.03974
# Shear Modulus (GPa) = -4.10408 19.00509 7.45051
#
# Velocity S-wave (km/s) = -1.47777 3.18004 1.99109
# Velocity P-wave (km/s) = 0.11500 6.60237 4.66929
#
# Compressibility (1/GPa) = 0.18191885
#
# Stress axis : x y z
#
# Youngs Moduli (GPa) = 5.16781 81.38864 95.92890
#
# Poissons Ratio (x) = 0.80361 0.03755
# Poissons Ratio (y) = 0.05103 0.66034
# Poissons Ratio (z) = 0.00202 0.56025
#
# Static dielectric constant tensor:
#      x y z
#    x 2.619050 0.000000 0.000000 
#    y 0.000000 3.662020 0.000000 
#    z 0.000000 0.000000 3.748810 
# 
# 
# High freq. dielectric constant tensor:
#      x y z
#    x 1.650220 0.000000 0.000000 
#    y 0.000000 1.736720 0.000000 
#    z 0.000000 0.000000 1.751000 
# 
# From -- ./inp_files/34085.got.cif
#   From: 2010.03.12/outbox.cif.g09.slc.cpg/sg51_18_cif.got.tgz:34085.got - 2010.04.16 13:43:02.
