data_PCOD8210462
_publ_section_title
;
Structure prediction by ZEFSAII (Michael W. Deem and Ramdas Pophale) SiO2 
 PCOD8210462
Probable space group: P M M A
;
_chemical_formula_sum "Si O2"
_cell_formula_units_Z 40
_cell_length_a 9.600654
_cell_length_b 8.785177
_cell_length_c 25.687817
_cell_angle_alpha 90.000000
_cell_angle_beta 90.000000
_cell_angle_gamma 90.000000
_cell_volume 2166.598973
_symmetry_space_group_name_H-M "P M M A"
_symmetry_group_IT_number 51
_symmetry_cell_setting 'orthorhombic'
loop_
_space_group_symop_operation_xyz
x,y,z
1/2-x,-y,z
1/2+x,-y,-z
-x,y,-z
-x,-y,-z
1/2+x,y,-z
1/2-x,y,z
x,-y,z
loop_
_atom_site_type_symbol
_atom_site_label
_atom_site_fract_x
_atom_site_fract_y
_atom_site_fract_z
Si Si1 0.590424 0.178247 0.156550
Si Si2 0.094139 0.681105 0.545607
Si Si3 0.092096 0.680846 0.245541
Si Si4 0.906621 0.318986 0.339278
Si Si5 0.910419 0.675203 0.048581
O O1 0.750000 0.227692 0.168111
O O2 0.487404 0.265614 0.194496
O O3 0.549044 0.223495 0.098091
O O4 0.570047 0.000000 0.164040
O O5 0.250000 0.739824 0.535956
O O6 0.088948 0.500000 0.542827
O O7 0.043810 0.734346 0.603096
O O8 0.000000 0.753706 0.500000
O O9 0.250000 0.743785 0.245454
O O10 0.091985 0.500000 0.246479
O O11 0.012910 0.747157 0.296439
O O12 0.750000 0.258378 0.327860
O O13 0.905021 0.500000 0.336964
O O14 0.750000 0.696511 0.033392
O O15 0.945136 0.500000 0.061703
O O16 0.000000 0.734321 0.000000
#
# Coordination Sequence:
#
# PCOD8210462 Si02
#       5
#     8   8   8   8   8
#     4  10  21  36  53  73  98 130 166 200 238 287
#     4   8  13  20  31  50  78 113 150 187 231 282
#     4  10  20  32  48  71  96 124 161 204 248 291
#     4   8  14  25  40  58  83 118 158 196 236 285
#     4   9  18  33  53  76 101 129 161 196 233 276
#
# _framework density 18.462116000000002
#
# number of rings (size 3 to 8) (size 9 to 14) (size 15 to 20)
#    0.000    3.000    0.000    2.400    0.000    4.400 
#    0.000    6.000    0.000    0.000    0.000    0.000 
#    0.000    0.800    0.000    2.600    0.000    5.200 
#
# Total GULP energy -495861.672317 kJ/mol
# GULP energy per Si atom -12396.541808 kJ/mol
# Density = 1.842010 g / cm^3
# Si number density = 18.462116 Si / 1000 Ang^3
#
#
#
# Elastic Constant Matrix: (Units=GPa)
#
#
# Indices 1 2 3 4 5 6 
#
# 1 121.1587 13.4499 93.7193 0.0000 0.0000 0.0000
# 2 13.4499 10.6275 9.0253 0.0000 0.0000 0.0000
# 3 93.7193 9.0253 146.5955 0.0000 0.0000 0.0000
# 4 0.0000 0.0000 0.0000 -1.3291 0.0000 0.0000
# 5 0.0000 0.0000 0.0000 0.0000 42.6292 0.0000
# 6 0.0000 0.0000 0.0000 0.0000 0.0000 12.3442
#
#
#
# Elastic Compliance Matrix: (Units=1/GPa)
#
#
# Indices 1 2 3 4 5 6 
#
# 1 0.018055 -0.013767 -0.010695 0.000000 0.000000 0.000000
# 2 -0.013767 0.109784 0.002042 0.000000 0.000000 0.000000
# 3 -0.010695 0.002042 0.013533 0.000000 0.000000 0.000000
# 4 0.000000 0.000000 0.000000 -0.752392 0.000000 0.000000
# 5 0.000000 0.000000 0.000000 0.000000 0.023458 0.000000
# 6 0.000000 0.000000 0.000000 0.000000 0.000000 0.081010
#
#
# Mechanical properties :
#
#
# Convention : Reuss Voigt Hill
#
# Bulk Modulus (GPa) = 10.35921 56.75231 33.55576
# Shear Modulus (GPa) = -11.64046 21.54135 4.95044
#
# Velocity S-wave (km/s) = -2.51371 3.41953 1.63928
# Velocity P-wave (km/s) = 1.67384 6.81157 4.66882
#
# Compressibility (1/GPa) = 0.09653247
#
# Stress axis : x y z
#
# Youngs Moduli (GPa) = 55.38737 9.10882 73.89322
#
# Poissons Ratio (x) = 0.12540 0.79028
# Poissons Ratio (y) = 0.76251 -0.15092
# Poissons Ratio (z) = 0.59236 -0.01860
#
# Static dielectric constant tensor:
#      x y z
#    x 3.614820 0.000000 0.000000 
#    y 0.000000 2.886820 0.000000 
#    z 0.000000 0.000000 3.671950 
# 
# 
# High freq. dielectric constant tensor:
#      x y z
#    x 1.714730 0.000000 0.000000 
#    y 0.000000 1.663530 0.000000 
#    z 0.000000 0.000000 1.730350 
# 
# From -- ./inp_files/34316.got.cif
#   From: 2010.03.12/outbox.cif.g09.slc.cpg/sg51_18_cif.got.tgz:34316.got - 2010.04.16 13:43:02.
