data_PCOD8210105
_publ_section_title
;
Structure prediction by ZEFSAII (Michael W. Deem and Ramdas Pophale) SiO2 
 PCOD8210105
Probable space group: P M M A
;
_chemical_formula_sum "Si O2"
_cell_formula_units_Z 48
_cell_length_a 28.293989
_cell_length_b 8.588365
_cell_length_c 9.963502
_cell_angle_alpha 90.000000
_cell_angle_beta 90.000000
_cell_angle_gamma 90.000000
_cell_volume 2421.122067
_symmetry_space_group_name_H-M "P M M A"
_symmetry_group_IT_number 51
_symmetry_cell_setting 'orthorhombic'
loop_
_space_group_symop_operation_xyz
x,y,z
1/2-x,-y,z
1/2+x,-y,-z
-x,y,-z
-x,-y,-z
1/2+x,y,-z
1/2-x,y,z
x,-y,z
loop_
_atom_site_type_symbol
_atom_site_label
_atom_site_fract_x
_atom_site_fract_y
_atom_site_fract_z
Si Si1 0.868620 0.819860 0.011773
Si Si2 0.961228 0.325799 0.113330
Si Si3 0.020872 0.314689 0.361904
Si Si4 0.805012 0.819282 0.511901
Si Si5 0.695789 0.679337 0.232988
Si Si6 0.375973 0.317046 0.279104
O O1 0.863696 0.767677 0.858779
O O2 0.856018 0.000000 0.022663
O O3 0.920851 0.791268 0.067889
O O4 0.832030 0.723608 0.100012
O O5 0.940398 0.500000 0.138453
O O6 0.985531 0.256567 0.246218
O O7 0.000000 0.336537 0.000000
O O8 0.022047 0.500000 0.364788
O O9 0.073990 0.252942 0.335983
O O10 0.000000 0.246083 0.500000
O O11 0.750000 0.775382 0.530753
O O12 0.821578 0.778819 0.360994
O O13 0.834900 0.717439 0.615259
O O14 0.814388 0.000000 0.539657
O O15 0.750000 0.715580 0.201439
O O16 0.687173 0.500000 0.268756
O O17 0.379106 0.500000 0.250594
#
# Coordination Sequence:
#
# PCOD8210105 Si02
#       6
#     8   8   8   8   8   8
#     4  12  25  39  59  89 125 162 200 250 312 364
#     4  10  19  37  61  84 117 158 201 246 294 354
#     4   9  19  35  57  87 117 151 196 248 298 345
#     4  10  22  41  63  90 126 161 192 240 308 366
#     4  10  22  42  67  92 117 153 203 251 297 361
#     4  11  22  39  62  89 120 160 210 252 293 354
#
# _framework density 19.825519
#
# number of rings (size 3 to 8) (size 9 to 14) (size 15 to 20)
#    0.000    1.667    1.667    3.000    2.333    3.000 
#    0.000    0.000    0.000    2.500    0.000    0.000 
#    0.000    0.000    0.000    0.000    0.000    0.000 
#
# Total GULP energy -595384.128907 kJ/mol
# GULP energy per Si atom -12403.836019 kJ/mol
# Density = 1.978040 g / cm^3
# Si number density = 19.825519 Si / 1000 Ang^3
#
#
#
# Elastic Constant Matrix: (Units=GPa)
#
#
# Indices 1 2 3 4 5 6 
#
# 1 83.6044 14.0533 50.9944 0.0000 0.0000 0.0000
# 2 14.0533 38.9597 2.2065 0.0000 0.0000 0.0000
# 3 50.9944 2.2065 134.4818 0.0000 0.0000 0.0000
# 4 0.0000 0.0000 0.0000 30.2868 0.0000 0.0000
# 5 0.0000 0.0000 0.0000 0.0000 40.5579 0.0000
# 6 0.0000 0.0000 0.0000 0.0000 0.0000 25.2185
#
#
#
# Elastic Compliance Matrix: (Units=1/GPa)
#
#
# Indices 1 2 3 4 5 6 
#
# 1 0.016728 -0.005680 -0.006250 0.000000 0.000000 0.000000
# 2 -0.005680 0.027620 0.001701 0.000000 0.000000 0.000000
# 3 -0.006250 0.001701 0.009778 0.000000 0.000000 0.000000
# 4 0.000000 0.000000 0.000000 0.033018 0.000000 0.000000
# 5 0.000000 0.000000 0.000000 0.000000 0.024656 0.000000
# 6 0.000000 0.000000 0.000000 0.000000 0.000000 0.039654
#
#
# Mechanical properties :
#
#
# Convention : Reuss Voigt Hill
#
# Bulk Modulus (GPa) = 29.70231 43.50605 36.60418
# Shear Modulus (GPa) = 27.30233 31.86542 29.58387
#
# Velocity S-wave (km/s) = 3.71500 4.01346 3.86711
# Velocity P-wave (km/s) = 5.78066 6.59312 6.20021
#
# Compressibility (1/GPa) = 0.03366741
#
# Stress axis : x y z
#
# Youngs Moduli (GPa) = 59.77992 36.20550 102.27071
#
# Poissons Ratio (x) = 0.20565 0.63919
# Poissons Ratio (y) = 0.33955 -0.17393
# Poissons Ratio (z) = 0.37362 -0.06157
#
# Static dielectric constant tensor:
#      x y z
#    x 3.572850 0.000000 0.000000 
#    y 0.000000 3.475320 0.000000 
#    z 0.000000 0.000000 3.720950 
# 
# 
# High freq. dielectric constant tensor:
#      x y z
#    x 1.776750 0.000000 0.000000 
#    y 0.000000 1.758300 0.000000 
#    z 0.000000 0.000000 1.786170 
# 
# From -- ./inp_files/12853.got.cif
#   From: 2010.03.12/outbox.cif.g09.slc.cpg/sg51_7_cif.got.tgz:12853.got - 2010.04.16 13:43:02.
