data_PCOD8210284
_publ_section_title
;
Structure prediction by ZEFSAII (Michael W. Deem and Ramdas Pophale) SiO2 
 PCOD8210284
Probable space group: P M M A
;
_chemical_formula_sum "Si O2"
_cell_formula_units_Z 64
_cell_length_a 9.376423
_cell_length_b 15.177903
_cell_length_c 25.769586
_cell_angle_alpha 90.000000
_cell_angle_beta 90.000000
_cell_angle_gamma 90.000000
_cell_volume 3667.384169
_symmetry_space_group_name_H-M "P M M A"
_symmetry_group_IT_number 51
_symmetry_cell_setting 'orthorhombic'
loop_
_space_group_symop_operation_xyz
x,y,z
1/2-x,-y,z
1/2+x,-y,-z
-x,y,-z
-x,-y,-z
1/2+x,y,-z
1/2-x,y,z
x,-y,z
loop_
_atom_site_type_symbol
_atom_site_label
_atom_site_fract_x
_atom_site_fract_y
_atom_site_fract_z
Si Si1 0.414795 0.600586 0.347171
Si Si2 0.586933 0.905169 0.746779
Si Si3 0.588236 0.604876 0.048961
Si Si4 0.594247 0.902262 0.625034
Si Si5 0.595464 0.828914 0.455213
Si Si6 0.090759 0.625562 0.547532
Si Si7 0.584898 0.397100 0.851303
Si Si8 0.419837 0.711696 0.247773
O O1 0.250000 0.622329 0.360841
O O2 0.427473 0.500000 0.326702
O O3 0.509784 0.611389 0.398317
O O4 0.471721 0.666667 0.301748
O O5 0.750000 0.906057 0.765412
O O6 0.574567 0.905153 0.685618
O O7 0.516520 0.811080 0.763036
O O8 0.517957 0.000000 0.766717
O O9 0.750000 0.641597 0.047586
O O10 0.589577 0.500000 0.046906
O O11 0.509639 0.637589 0.100905
O O12 0.500000 0.642441 0.000000
O O13 0.750000 0.863302 0.611042
O O14 0.475637 0.839785 0.600867
O O15 0.578260 0.000000 0.601691
O O16 0.500000 0.873931 0.500000
O O17 0.750000 0.874922 0.455542
O O18 0.611352 0.726763 0.465948
O O19 0.250000 0.582910 0.550677
O O20 0.000000 0.582425 0.500000
O O21 0.750000 0.376357 0.863620
O O22 0.561643 0.500000 0.841569
O O23 0.529736 0.347744 0.800120
O O24 0.250000 0.717239 0.250461
#
# Coordination Sequence:
#
# PCOD8210284 Si02
#       8
#     8   8   8   8   8   8   8   8
#     4  10  20  33  50  71  92 117 150 185 224 272
#     4   8  14  25  43  67  90 112 142 180 220 261
#     4   9  16  26  41  62  90 126 166 203 235 266
#     4   9  17  29  45  64  85 109 137 171 215 266
#     4  10  20  32  46  63  82 105 134 168 209 260
#     4  10  21  36  52  68  85 109 143 183 227 272
#     4   9  16  26  41  63  93 128 163 195 226 263
#     4   9  16  27  45  67  93 124 154 186 224 268
#
# _framework density 17.451129999999999
#
# number of rings (size 3 to 8) (size 9 to 14) (size 15 to 20)
#    0.000    2.750    0.000    3.000    0.000    6.500 
#    0.000    0.625    0.000    2.250    0.000    0.000 
#    0.000    0.500    0.000    0.875    0.000    1.250 
#
# Total GULP energy -792852.691398 kJ/mol
# GULP energy per Si atom -12388.323303 kJ/mol
# Density = 1.741141 g / cm^3
# Si number density = 17.451130 Si / 1000 Ang^3
#
#
#
# Elastic Constant Matrix: (Units=GPa)
#
#
# Indices 1 2 3 4 5 6 
#
# 1 95.7040 21.5835 53.4223 0.0000 0.0000 0.0000
# 2 21.5835 72.0316 38.7720 0.0000 0.0000 0.0000
# 3 53.4223 38.7720 107.6336 0.0000 0.0000 0.0000
# 4 0.0000 0.0000 0.0000 2.4279 0.0000 0.0000
# 5 0.0000 0.0000 0.0000 0.0000 23.9931 0.0000
# 6 0.0000 0.0000 0.0000 0.0000 0.0000 1.2835
#
#
#
# Elastic Compliance Matrix: (Units=1/GPa)
#
#
# Indices 1 2 3 4 5 6 
#
# 1 0.014473 -0.000583 -0.006973 0.000000 0.000000 0.000000
# 2 -0.000583 0.017246 -0.005923 0.000000 0.000000 0.000000
# 3 -0.006973 -0.005923 0.014885 0.000000 0.000000 0.000000
# 4 0.000000 0.000000 0.000000 0.411870 0.000000 0.000000
# 5 0.000000 0.000000 0.000000 0.000000 0.041679 0.000000
# 6 0.000000 0.000000 0.000000 0.000000 0.000000 0.779139
#
#
# Mechanical properties :
#
#
# Convention : Reuss Voigt Hill
#
# Bulk Modulus (GPa) = 50.90275 55.88055 53.39165
# Shear Modulus (GPa) = 3.80866 16.31366 10.06116
#
# Velocity S-wave (km/s) = 1.47892 3.06080 2.40372
# Velocity P-wave (km/s) = 5.66995 6.67698 6.19396
#
# Compressibility (1/GPa) = 0.01964530
#
# Stress axis : x y z
#
# Youngs Moduli (GPa) = 69.09445 57.98593 67.17988
#
# Poissons Ratio (x) = 0.03382 0.46847
# Poissons Ratio (y) = 0.04029 0.39789
# Poissons Ratio (z) = 0.48182 0.34344
#
# Static dielectric constant tensor:
#      x y z
#    x 3.289530 0.000000 0.000000 
#    y 0.000000 2.748030 0.000000 
#    z 0.000000 0.000000 3.095210 
# 
# 
# High freq. dielectric constant tensor:
#      x y z
#    x 1.652050 0.000000 0.000000 
#    y 0.000000 1.662530 0.000000 
#    z 0.000000 0.000000 1.649490 
# 
# From -- ./inp_files/35129.got.cif
#   From: 2010.03.12/outbox.cif.g09.slc.cpg/sg51_18_cif.got.tgz:35129.got - 2010.04.16 13:43:02.
