data_PCOD8210451
_publ_section_title
;
Structure prediction by ZEFSAII (Michael W. Deem and Ramdas Pophale) SiO2 
 PCOD8210451
Probable space group: P M M A
;
_chemical_formula_sum "Si O2"
_cell_formula_units_Z 48
_cell_length_a 8.751052
_cell_length_b 24.110921
_cell_length_c 13.689093
_cell_angle_alpha 90.000000
_cell_angle_beta 90.000000
_cell_angle_gamma 90.000000
_cell_volume 2888.342819
_symmetry_space_group_name_H-M "P M M A"
_symmetry_group_IT_number 51
_symmetry_cell_setting 'orthorhombic'
loop_
_space_group_symop_operation_xyz
x,y,z
1/2-x,-y,z
1/2+x,-y,-z
-x,y,-z
-x,-y,-z
1/2+x,y,-z
1/2-x,y,z
x,-y,z
loop_
_atom_site_type_symbol
_atom_site_label
_atom_site_fract_x
_atom_site_fract_y
_atom_site_fract_z
Si Si1 0.430914 0.170193 0.108013
Si Si2 0.428485 0.617132 0.896316
Si Si3 0.071244 0.060076 0.893901
Si Si4 0.426777 0.561839 0.280176
Si Si5 0.930513 0.668914 0.605039
Si Si6 0.930963 0.273202 0.214985
O O1 0.250000 0.172306 0.100536
O O2 0.485944 0.111845 0.157442
O O3 0.489645 0.217696 0.178912
O O4 0.500000 0.177701 0.000000
O O5 0.250000 0.613319 0.908109
O O6 0.480975 0.570923 0.819412
O O7 0.479022 0.677854 0.859103
O O8 0.500000 0.603931 0.000000
O O9 0.250000 0.073835 0.902167
O O10 0.045987 0.000000 0.840420
O O11 0.000000 0.055189 0.000000
O O12 0.250000 0.569445 0.253996
O O13 0.462214 0.500000 0.320063
O O14 0.475769 0.606367 0.362181
O O15 0.750000 0.677710 0.602757
O O16 0.000000 0.680369 0.500000
O O17 0.005342 0.713208 0.677947
O O18 0.750000 0.265331 0.219895
#
# Coordination Sequence:
#
# PCOD8210451 Si02
#       6
#     8   8   8   8   8   8
#     4  11  20  29  44  67  96 130 165 199 236 277
#     4  10  20  32  48  68  91 122 155 189 229 272
#     4   9  16  26  40  59  87 125 166 203 236 270
#     4   9  19  35  52  70  93 120 151 187 225 270
#     4  10  20  35  54  74  95 119 148 184 232 284
#     4  10  20  34  50  69  93 120 155 196 236 279
#
# _framework density 16.618525999999999
#
# number of rings (size 3 to 8) (size 9 to 14) (size 15 to 20)
#    0.000    2.167    0.000    5.000    0.000    6.000 
#    0.000    0.000    0.000    0.000    0.000    0.000 
#    0.000    0.667    0.000    2.500    0.000    4.167 
#
# Total GULP energy -595079.369332 kJ/mol
# GULP energy per Si atom -12397.486861 kJ/mol
# Density = 1.658070 g / cm^3
# Si number density = 16.618526 Si / 1000 Ang^3
#
#
#
# Elastic Constant Matrix: (Units=GPa)
#
#
# Indices 1 2 3 4 5 6 
#
# 1 89.0487 47.5787 34.5639 0.0000 0.0000 0.0000
# 2 47.5787 128.2085 39.5601 0.0000 0.0000 0.0000
# 3 34.5639 39.5601 82.9734 0.0000 0.0000 0.0000
# 4 0.0000 0.0000 0.0000 28.9234 0.0000 0.0000
# 5 0.0000 0.0000 0.0000 0.0000 24.2221 0.0000
# 6 0.0000 0.0000 0.0000 0.0000 0.0000 25.0075
#
#
#
# Elastic Compliance Matrix: (Units=1/GPa)
#
#
# Indices 1 2 3 4 5 6 
#
# 1 0.015196 -0.004322 -0.004270 0.000000 0.000000 0.000000
# 2 -0.004322 0.010374 -0.003146 0.000000 0.000000 0.000000
# 3 -0.004270 -0.003146 0.015331 0.000000 0.000000 0.000000
# 4 0.000000 0.000000 0.000000 0.034574 0.000000 0.000000
# 5 0.000000 0.000000 0.000000 0.000000 0.041285 0.000000
# 6 0.000000 0.000000 0.000000 0.000000 0.000000 0.039988
#
#
# Mechanical properties :
#
#
# Convention : Reuss Voigt Hill
#
# Bulk Modulus (GPa) = 57.38486 60.40399 58.89443
# Shear Modulus (GPa) = 26.87713 27.53245 27.20479
#
# Velocity S-wave (km/s) = 4.02593 4.07471 4.05039
# Velocity P-wave (km/s) = 7.49776 7.65271 7.57563
#
# Compressibility (1/GPa) = 0.01742620
#
# Stress axis : x y z
#
# Youngs Moduli (GPa) = 65.80555 96.39104 65.22924
#
# Poissons Ratio (x) = 0.41660 0.27850
# Poissons Ratio (y) = 0.28441 0.20521
# Poissons Ratio (z) = 0.28097 0.30324
#
# Static dielectric constant tensor:
#      x y z
#    x 3.449110 0.000000 0.000000 
#    y 0.000000 3.625780 0.000000 
#    z 0.000000 0.000000 2.706500 
# 
# 
# High freq. dielectric constant tensor:
#      x y z
#    x 1.658960 0.000000 0.000000 
#    y 0.000000 1.645740 0.000000 
#    z 0.000000 0.000000 1.598510 
# 
# From -- ./inp_files/14427.got.cif
#   From: 2010.03.12/outbox.cif.g09.slc.cpg/sg51_8_cif.got.tgz:14427.got - 2010.04.16 13:43:02.
