data_PCOD8210497
_publ_section_title
;
Structure prediction by ZEFSAII (Michael W. Deem and Ramdas Pophale) SiO2 
 PCOD8210497
Probable space group: P M M A
;
_chemical_formula_sum "Si O2"
_cell_formula_units_Z 48
_cell_length_a 24.696887
_cell_length_b 9.028684
_cell_length_c 12.553893
_cell_angle_alpha 90.000000
_cell_angle_beta 90.000000
_cell_angle_gamma 90.000000
_cell_volume 2799.271938
_symmetry_space_group_name_H-M "P M M A"
_symmetry_group_IT_number 51
_symmetry_cell_setting 'orthorhombic'
loop_
_space_group_symop_operation_xyz
x,y,z
1/2-x,-y,z
1/2+x,-y,-z
-x,y,-z
-x,-y,-z
1/2+x,y,-z
1/2-x,y,z
x,-y,z
loop_
_atom_site_type_symbol
_atom_site_label
_atom_site_fract_x
_atom_site_fract_y
_atom_site_fract_z
Si Si1 0.186759 0.171980 0.775270
Si Si2 0.114549 0.824862 0.387672
Si Si3 0.185815 0.668269 0.218158
Si Si4 0.314233 0.836320 0.012911
Si Si5 0.996222 0.836900 0.373802
Si Si6 0.390571 0.674437 0.613788
O O1 0.250000 0.204775 0.760697
O O2 0.167112 0.213202 0.895014
O O3 0.155401 0.278373 0.695754
O O4 0.174183 0.000000 0.751036
O O5 0.161055 0.769363 0.309800
O O6 0.122560 0.748631 0.501323
O O7 0.055897 0.784308 0.335457
O O8 0.119645 0.000000 0.404886
O O9 0.250000 0.683814 0.226740
O O10 0.166680 0.500000 0.233371
O O11 0.164837 0.722724 0.102481
O O12 0.250000 0.843799 0.012917
O O13 0.337318 0.000000 0.039349
O O14 0.949198 0.723762 0.339645
O O15 0.000000 0.846876 0.500000
O O16 0.982220 0.000000 0.327369
O O17 0.390425 0.500000 0.598912
#
# Coordination Sequence:
#
# PCOD8210497 Si02
#       6
#     8   8   8   8   8   8
#     4   9  18  33  52  72  96 129 166 200 234 278
#     4  10  20  34  52  71  94 128 166 201 236 279
#     4  10  20  32  48  73 103 130 156 193 242 290
#     4   8  15  30  51  71  91 122 165 202 231 274
#     4   8  16  32  51  69  90 121 163 202 234 278
#     4  11  21  31  48  74 102 129 156 194 245 292
#
# _framework density 17.147316
#
# number of rings (size 3 to 8) (size 9 to 14) (size 15 to 20)
#    0.000    2.667    0.000    4.500    0.000    6.333 
#    0.000    1.667    0.000    1.000    0.000    7.000 
#    0.000    0.000    0.000    0.000    0.000    0.000 
#
# Total GULP energy -595004.774613 kJ/mol
# GULP energy per Si atom -12395.932804 kJ/mol
# Density = 1.710829 g / cm^3
# Si number density = 17.147316 Si / 1000 Ang^3
#
#
#
# Elastic Constant Matrix: (Units=GPa)
#
#
# Indices 1 2 3 4 5 6 
#
# 1 57.4299 46.1798 40.7912 0.0000 0.0000 0.0000
# 2 46.1798 116.1961 57.6667 0.0000 0.0000 0.0000
# 3 40.7912 57.6667 91.4293 0.0000 0.0000 0.0000
# 4 0.0000 0.0000 0.0000 17.0975 0.0000 0.0000
# 5 0.0000 0.0000 0.0000 0.0000 -0.9409 0.0000
# 6 0.0000 0.0000 0.0000 0.0000 0.0000 21.0289
#
#
#
# Elastic Compliance Matrix: (Units=1/GPa)
#
#
# Indices 1 2 3 4 5 6 
#
# 1 0.029420 -0.007538 -0.008371 0.000000 0.000000 0.000000
# 2 -0.007538 0.014459 -0.005757 0.000000 0.000000 0.000000
# 3 -0.008371 -0.005757 0.018303 0.000000 0.000000 0.000000
# 4 0.000000 0.000000 0.000000 0.058488 0.000000 0.000000
# 5 0.000000 0.000000 0.000000 0.000000 -1.062832 0.000000
# 6 0.000000 0.000000 0.000000 0.000000 0.000000 0.047554
#
#
# Mechanical properties :
#
#
# Convention : Reuss Voigt Hill
#
# Bulk Modulus (GPa) = 53.04958 61.59229 57.32094
# Shear Modulus (GPa) = -5.91720 15.46495 4.77388
#
# Velocity S-wave (km/s) = -1.85965 3.00640 1.67035
# Velocity P-wave (km/s) = 5.13747 6.93172 6.10092
#
# Compressibility (1/GPa) = 0.01885029
#
# Stress axis : x y z
#
# Youngs Moduli (GPa) = 33.99094 69.16241 54.63549
#
# Poissons Ratio (x) = 0.52132 0.45738
# Poissons Ratio (y) = 0.25621 0.31451
# Poissons Ratio (z) = 0.28455 0.39814
#
# Static dielectric constant tensor:
#      x y z
#    x 3.313870 0.000000 0.000000 
#    y 0.000000 3.284180 0.000000 
#    z 0.000000 0.000000 3.151530 
# 
# 
# High freq. dielectric constant tensor:
#      x y z
#    x 1.645340 0.000000 0.000000 
#    y 0.000000 1.665240 0.000000 
#    z 0.000000 0.000000 1.645740 
# 
# From -- ./inp_files/18586.got.cif
#   From: 2010.03.12/outbox.cif.g09.slc.cpg/sg51_10_cif.got.tgz:18586.got - 2010.04.16 13:43:02.
