data_PCOD8210118
_publ_section_title
;
Structure prediction by ZEFSAII (Michael W. Deem and Ramdas Pophale) SiO2 
 PCOD8210118
Probable space group: P M M A
;
_chemical_formula_sum "Si O2"
_cell_formula_units_Z 64
_cell_length_a 23.436785
_cell_length_b 8.956062
_cell_length_c 15.324853
_cell_angle_alpha 90.000000
_cell_angle_beta 90.000000
_cell_angle_gamma 90.000000
_cell_volume 3216.706560
_symmetry_space_group_name_H-M "P M M A"
_symmetry_group_IT_number 51
_symmetry_cell_setting 'orthorhombic'
loop_
_space_group_symop_operation_xyz
x,y,z
1/2-x,-y,z
1/2+x,-y,-z
-x,y,-z
-x,-y,-z
1/2+x,y,-z
1/2-x,y,z
x,-y,z
loop_
_atom_site_type_symbol
_atom_site_label
_atom_site_fract_x
_atom_site_fract_y
_atom_site_fract_z
Si Si1 0.183462 0.827652 0.489490
Si Si2 0.373867 0.675562 0.837682
Si Si3 0.389211 0.823381 0.158912
Si Si4 0.380352 0.323691 0.335587
Si Si5 0.998619 0.326293 0.101781
Si Si6 0.184421 0.172426 0.994966
Si Si7 0.117838 0.826622 0.660667
Si Si8 0.492514 0.172516 0.399584
O O1 0.250000 0.805191 0.505790
O O2 0.164249 0.730558 0.407635
O O3 0.150293 0.769086 0.574675
O O4 0.167593 0.000000 0.471270
O O5 0.367688 0.500000 0.836605
O O6 0.437730 0.725612 0.862026
O O7 0.329660 0.737509 0.907972
O O8 0.357496 0.738325 0.743078
O O9 0.361461 0.747896 0.243819
O O10 0.454589 0.772427 0.150630
O O11 0.386305 0.000000 0.170023
O O12 0.353634 0.767915 0.075134
O O13 0.377566 0.500000 0.328090
O O14 0.444551 0.275490 0.357934
O O15 0.011031 0.500000 0.120358
O O16 0.000000 0.290295 0.000000
O O17 0.250000 0.198223 0.020121
O O18 0.170902 0.000000 0.976764
O O19 0.050759 0.794778 0.651315
O O20 0.130681 0.000000 0.675200
O O21 0.500000 0.216546 0.500000
O O22 0.473817 0.000000 0.391248
#
# Coordination Sequence:
#
# PCOD8210118 Si02
#       8
#     8   8   8   8   8   8   8   8
#     4  10  22  43  67  87 113 156 208 255 299 350
#     4  11  23  38  60  90 124 159 195 238 296 362
#     4  11  23  39  63  91 119 156 206 251 296 353
#     4  12  25  39  60  91 128 161 196 242 304 368
#     4  10  20  37  60  88 125 161 192 237 303 365
#     4  10  23  43  64  86 114 152 202 255 299 345
#     4  10  21  38  62  91 122 157 199 247 298 350
#     4  10  19  37  64  91 122 157 200 248 295 353
#
# _framework density 19.896127
#
# number of rings (size 3 to 8) (size 9 to 14) (size 15 to 20)
#    0.000    1.500    2.500    2.625    0.000    6.500 
#    0.000    2.500    0.000    0.000    0.000    0.000 
#    0.000    0.000    0.000    0.000    0.000    0.000 
#
# Total GULP energy -794029.520905 kJ/mol
# GULP energy per Si atom -12406.711264 kJ/mol
# Density = 1.985084 g / cm^3
# Si number density = 19.896127 Si / 1000 Ang^3
#
#
#
# Elastic Constant Matrix: (Units=GPa)
#
#
# Indices 1 2 3 4 5 6 
#
# 1 70.7685 25.4555 21.7717 0.0000 0.0000 0.0000
# 2 25.4555 76.4583 43.6353 0.0000 0.0000 0.0000
# 3 21.7717 43.6353 124.5718 0.0000 0.0000 0.0000
# 4 0.0000 0.0000 0.0000 26.5241 0.0000 0.0000
# 5 0.0000 0.0000 0.0000 0.0000 15.6910 0.0000
# 6 0.0000 0.0000 0.0000 0.0000 0.0000 21.1684
#
#
#
# Elastic Compliance Matrix: (Units=1/GPa)
#
#
# Indices 1 2 3 4 5 6 
#
# 1 0.016190 -0.004719 -0.001177 0.000000 0.000000 0.000000
# 2 -0.004719 0.017722 -0.005383 0.000000 0.000000 0.000000
# 3 -0.001177 -0.005383 0.010119 0.000000 0.000000 0.000000
# 4 0.000000 0.000000 0.000000 0.037702 0.000000 0.000000
# 5 0.000000 0.000000 0.000000 0.000000 0.063731 0.000000
# 6 0.000000 0.000000 0.000000 0.000000 0.000000 0.047240
#
#
# Mechanical properties :
#
#
# Convention : Reuss Voigt Hill
#
# Bulk Modulus (GPa) = 46.56786 50.39152 48.47969
# Shear Modulus (GPa) = 22.48021 24.73912 23.60967
#
# Velocity S-wave (km/s) = 3.36501 3.53003 3.44851
# Velocity P-wave (km/s) = 6.20919 6.48052 6.34631
#
# Compressibility (1/GPa) = 0.02147404
#
# Stress axis : x y z
#
# Youngs Moduli (GPa) = 61.76703 56.42656 98.82638
#
# Poissons Ratio (x) = 0.26625 0.11629
# Poissons Ratio (y) = 0.29145 0.53199
# Poissons Ratio (z) = 0.07268 0.30375
#
# Static dielectric constant tensor:
#      x y z
#    x 3.582040 0.000000 0.000000 
#    y 0.000000 3.487300 0.000000 
#    z 0.000000 0.000000 3.790700 
# 
# 
# High freq. dielectric constant tensor:
#      x y z
#    x 1.772290 0.000000 0.000000 
#    y 0.000000 1.767070 0.000000 
#    z 0.000000 0.000000 1.792490 
# 
# From -- ./inp_files/26175.got.cif
#   From: 2010.03.12/outbox.cif.g09.slc.cpg/sg51_14_cif.got.tgz:26175.got - 2010.04.16 13:43:02.
