data_PCOD8210508
_publ_section_title
;
Structure prediction by ZEFSAII (Michael W. Deem and Ramdas Pophale) SiO2 
 PCOD8210508
Probable space group: P M M A
;
_chemical_formula_sum "Si O2"
_cell_formula_units_Z 40
_cell_length_a 8.963720
_cell_length_b 13.705700
_cell_length_c 18.461372
_cell_angle_alpha 90.000000
_cell_angle_beta 90.000000
_cell_angle_gamma 90.000000
_cell_volume 2268.054452
_symmetry_space_group_name_H-M "P M M A"
_symmetry_group_IT_number 51
_symmetry_cell_setting 'orthorhombic'
loop_
_space_group_symop_operation_xyz
x,y,z
1/2-x,-y,z
1/2+x,-y,-z
-x,y,-z
-x,-y,-z
1/2+x,y,-z
1/2-x,y,z
x,-y,z
loop_
_atom_site_type_symbol
_atom_site_label
_atom_site_fract_x
_atom_site_fract_y
_atom_site_fract_z
Si Si1 0.923205 0.888893 0.355156
Si Si2 0.579386 0.792448 0.204847
Si Si3 0.073855 0.712149 0.425628
Si Si4 0.424940 0.888880 0.073667
Si Si5 0.921645 0.610410 0.295929
O O1 0.750000 0.869612 0.372588
O O2 0.956374 0.863913 0.271682
O O3 0.021106 0.821814 0.407538
O O4 0.969400 0.000000 0.369863
O O5 0.750000 0.804517 0.179785
O O6 0.473471 0.819269 0.138774
O O7 0.543727 0.681117 0.228228
O O8 0.250000 0.710455 0.433681
O O9 0.000000 0.676660 0.500000
O O10 0.024920 0.636806 0.363659
O O11 0.250000 0.880955 0.063482
O O12 0.475229 0.000000 0.090331
O O13 0.500000 0.851218 0.000000
O O14 0.750000 0.625446 0.320145
O O15 0.954088 0.500000 0.271127
#
# Coordination Sequence:
#
# PCOD8210508 Si02
#       5
#     8   8   8   8   8
#     4   9  18  33  52  73  99 133 170 205 245 296
#     4   9  17  31  52  76 101 129 161 200 246 294
#     4  11  22  35  51  72 100 131 165 207 253 301
#     4  10  20  32  48  73 105 139 171 202 238 282
#     4   9  19  37  58  77  98 127 164 205 251 302
#
# _framework density 17.636258999999999
#
# number of rings (size 3 to 8) (size 9 to 14) (size 15 to 20)
#    0.000    2.400    0.000    4.200    0.000    6.800 
#    0.000    0.000    0.000    0.600    0.000    0.000 
#    0.000    0.000    0.000    0.000    0.000    0.000 
#
# Total GULP energy -496100.343387 kJ/mol
# GULP energy per Si atom -12402.508585 kJ/mol
# Density = 1.759612 g / cm^3
# Si number density = 17.636259 Si / 1000 Ang^3
#
#
#
# Elastic Constant Matrix: (Units=GPa)
#
#
# Indices 1 2 3 4 5 6 
#
# 1 95.8083 34.2605 50.7372 0.0000 0.0000 0.0000
# 2 34.2605 102.9012 34.2946 0.0000 0.0000 0.0000
# 3 50.7372 34.2946 95.9485 0.0000 0.0000 0.0000
# 4 0.0000 0.0000 0.0000 14.3778 0.0000 0.0000
# 5 0.0000 0.0000 0.0000 0.0000 34.6569 0.0000
# 6 0.0000 0.0000 0.0000 0.0000 0.0000 23.9411
#
#
#
# Elastic Compliance Matrix: (Units=1/GPa)
#
#
# Indices 1 2 3 4 5 6 
#
# 1 0.015126 -0.002691 -0.007037 0.000000 0.000000 0.000000
# 2 -0.002691 0.011511 -0.002691 0.000000 0.000000 0.000000
# 3 -0.007037 -0.002691 0.015105 0.000000 0.000000 0.000000
# 4 0.000000 0.000000 0.000000 0.069552 0.000000 0.000000
# 5 0.000000 0.000000 0.000000 0.000000 0.028854 0.000000
# 6 0.000000 0.000000 0.000000 0.000000 0.000000 0.041769
#
#
# Mechanical properties :
#
#
# Convention : Reuss Voigt Hill
#
# Bulk Modulus (GPa) = 59.15722 59.24917 59.20320
# Shear Modulus (GPa) = 23.54147 26.28619 24.91383
#
# Velocity S-wave (km/s) = 3.65750 3.86484 3.76260
# Velocity P-wave (km/s) = 7.17302 7.32011 7.24694
#
# Compressibility (1/GPa) = 0.01690411
#
# Stress axis : x y z
#
# Youngs Moduli (GPa) = 66.10991 86.87352 66.20196
#
# Poissons Ratio (x) = 0.23378 0.46586
# Poissons Ratio (y) = 0.17790 0.17817
# Poissons Ratio (z) = 0.46521 0.23381
#
# Static dielectric constant tensor:
#      x y z
#    x 3.196870 0.000000 0.000000 
#    y 0.000000 3.326400 0.000000 
#    z 0.000000 0.000000 3.120380 
# 
# 
# High freq. dielectric constant tensor:
#      x y z
#    x 1.681810 0.000000 0.000000 
#    y 0.000000 1.675000 0.000000 
#    z 0.000000 0.000000 1.670400 
# 
# From -- ./inp_files/20497.got.cif
#   From: 2010.03.12/outbox.cif.g09.slc.cpg/sg51_11_cif.got.tgz:20497.got - 2010.04.16 13:43:02.
