data_PCOD8210996
_publ_section_title
;
Structure prediction by ZEFSAII (Michael W. Deem and Ramdas Pophale) SiO2 
 PCOD8210996
Probable space group: P M M A
;
_chemical_formula_sum "Si O2"
_cell_formula_units_Z 40
_cell_length_a 17.490821
_cell_length_b 9.002734
_cell_length_c 13.898012
_cell_angle_alpha 90.000000
_cell_angle_beta 90.000000
_cell_angle_gamma 90.000000
_cell_volume 2188.453363
_symmetry_space_group_name_H-M "P M M A"
_symmetry_group_IT_number 51
_symmetry_cell_setting 'orthorhombic'
loop_
_space_group_symop_operation_xyz
x,y,z
1/2-x,-y,z
1/2+x,-y,-z
-x,y,-z
-x,-y,-z
1/2+x,y,-z
1/2-x,y,z
x,-y,z
loop_
_atom_site_type_symbol
_atom_site_label
_atom_site_fract_x
_atom_site_fract_y
_atom_site_fract_z
Si Si1 0.057744 0.672683 0.783475
Si Si2 0.161570 0.174667 0.926728
Si Si3 0.014535 0.173658 0.392538
Si Si4 0.400342 0.672049 0.111738
Si Si5 0.834638 0.169559 0.713400
O O1 0.075215 0.500000 0.771250
O O2 0.131463 0.752714 0.828140
O O3 0.041816 0.739951 0.678604
O O4 0.986499 0.701664 0.854075
O O5 0.250000 0.217114 0.939792
O O6 0.149074 0.000000 0.920852
O O7 0.113053 0.237469 0.015076
O O8 0.000000 0.232084 0.500000
O O9 0.102950 0.209657 0.367436
O O10 0.996078 0.000000 0.383591
O O11 0.385105 0.500000 0.090482
O O12 0.342460 0.726175 0.193940
O O13 0.750000 0.193523 0.669113
O O14 0.846009 0.000000 0.748241
#
# Coordination Sequence:
#
# PCOD8210996 Si02
#       5
#     8   8   8   8   8
#     4  10  21  36  54  76 102 133 170 211 255 304
#     4  11  23  36  51  74 104 138 174 209 247 296
#     4   9  18  34  55  76 100 133 172 213 259 307
#     4  10  20  33  51  76 104 134 168 206 250 301
#     4   9  17  30  49  74 102 131 166 209 255 302
#
# _framework density 18.277749
#
# number of rings (size 3 to 8) (size 9 to 14) (size 15 to 20)
#    0.000    2.200    0.000    3.000    0.000    9.600 
#    0.000    1.000    0.000    3.600    0.000    0.000 
#    0.000    0.000    0.000    0.000    0.000    0.000 
#
# Total GULP energy -496124.664021 kJ/mol
# GULP energy per Si atom -12403.116601 kJ/mol
# Density = 1.823615 g / cm^3
# Si number density = 18.277749 Si / 1000 Ang^3
#
#
#
# Elastic Constant Matrix: (Units=GPa)
#
#
# Indices 1 2 3 4 5 6 
#
# 1 50.7652 37.3176 45.6232 0.0000 0.0000 0.0000
# 2 37.3176 84.6240 55.9656 0.0000 0.0000 0.0000
# 3 45.6232 55.9656 134.3221 0.0000 0.0000 0.0000
# 4 0.0000 0.0000 0.0000 18.2768 0.0000 0.0000
# 5 0.0000 0.0000 0.0000 0.0000 16.8604 0.0000
# 6 0.0000 0.0000 0.0000 0.0000 0.0000 18.3311
#
#
#
# Elastic Compliance Matrix: (Units=1/GPa)
#
#
# Indices 1 2 3 4 5 6 
#
# 1 0.033556 -0.010021 -0.007222 0.000000 0.000000 0.000000
# 2 -0.010021 0.019304 -0.004639 0.000000 0.000000 0.000000
# 3 -0.007222 -0.004639 0.011831 0.000000 0.000000 0.000000
# 4 0.000000 0.000000 0.000000 0.054714 0.000000 0.000000
# 5 0.000000 0.000000 0.000000 0.000000 0.059310 0.000000
# 6 0.000000 0.000000 0.000000 0.000000 0.000000 0.054552
#
#
# Mechanical properties :
#
#
# Convention : Reuss Voigt Hill
#
# Bulk Modulus (GPa) = 47.78848 60.83601 54.31224
# Shear Modulus (GPa) = 17.60514 19.41400 18.50957
#
# Velocity S-wave (km/s) = 3.10691 3.26262 3.18572
# Velocity P-wave (km/s) = 6.25084 6.89561 6.58113
#
# Compressibility (1/GPa) = 0.02092555
#
# Stress axis : x y z
#
# Youngs Moduli (GPa) = 29.80135 51.80167 84.52489
#
# Poissons Ratio (x) = 0.51911 0.61044
# Poissons Ratio (y) = 0.29864 0.39215
# Poissons Ratio (z) = 0.21523 0.24033
#
# Static dielectric constant tensor:
#      x y z
#    x 3.403140 0.000000 0.000000 
#    y 0.000000 3.414730 0.000000 
#    z 0.000000 0.000000 3.277040 
# 
# 
# High freq. dielectric constant tensor:
#      x y z
#    x 1.705860 0.000000 0.000000 
#    y 0.000000 1.714820 0.000000 
#    z 0.000000 0.000000 1.694840 
# 
# From -- ./inp_files/17083.got.cif
#   From: 2010.03.12/outbox.cif.g09.slc.cpg/sg51_9_cif.got.tgz:17083.got - 2010.04.16 13:43:02.
