data_PCOD8210364
_publ_section_title
;
Structure prediction by ZEFSAII (Michael W. Deem and Ramdas Pophale) SiO2 
 PCOD8210364
Probable space group: P M M A
;
_chemical_formula_sum "Si O2"
_cell_formula_units_Z 64
_cell_length_a 23.821065
_cell_length_b 9.351831
_cell_length_c 16.754314
_cell_angle_alpha 90.000000
_cell_angle_beta 90.000000
_cell_angle_gamma 90.000000
_cell_volume 3732.368149
_symmetry_space_group_name_H-M "P M M A"
_symmetry_group_IT_number 51
_symmetry_cell_setting 'orthorhombic'
loop_
_space_group_symop_operation_xyz
x,y,z
1/2-x,-y,z
1/2+x,-y,-z
-x,y,-z
-x,-y,-z
1/2+x,y,-z
1/2-x,y,z
x,-y,z
loop_
_atom_site_type_symbol
_atom_site_label
_atom_site_fract_x
_atom_site_fract_y
_atom_site_fract_z
Si Si1 0.592890 0.336742 0.635940
Si Si2 0.684746 0.666604 0.070124
Si Si3 0.185261 0.333351 0.237348
Si Si4 0.469672 0.663114 0.660981
Si Si5 0.316553 0.839090 0.083088
Si Si6 0.867329 0.333138 0.234046
Si Si7 0.187646 0.161436 0.633998
Si Si8 0.086339 0.167397 0.525439
O O1 0.601087 0.500000 0.606855
O O2 0.645769 0.288413 0.689020
O O3 0.534838 0.322617 0.686545
O O4 0.587028 0.233437 0.561515
O O5 0.750000 0.700503 0.089779
O O6 0.677442 0.500000 0.049761
O O7 0.644888 0.715049 0.143468
O O8 0.661947 0.756478 0.995148
O O9 0.250000 0.297331 0.259105
O O10 0.178329 0.500000 0.216587
O O11 0.163336 0.244155 0.161736
O O12 0.455185 0.500000 0.637011
O O13 0.430126 0.710099 0.735763
O O14 0.459883 0.760403 0.582765
O O15 0.250000 0.841284 0.081771
O O16 0.341042 0.000000 0.083911
O O17 0.856651 0.500000 0.240951
O O18 0.821435 0.260408 0.289930
O O19 0.250000 0.184101 0.600818
O O20 0.147256 0.201083 0.561416
O O21 0.176810 0.000000 0.662860
O O22 0.072470 0.000000 0.519661
#
# Coordination Sequence:
#
# PCOD8210364 Si02
#       8
#     8   8   8   8   8   8   8   8
#     4  10  20  33  50  70  90 116 151 190 233 277
#     4   9  16  26  43  68  95 120 147 180 218 261
#     4   9  18  33  51  70  93 119 148 186 232 278
#     4   9  18  33  50  67  91 121 153 191 231 269
#     4   9  17  29  46  69  95 121 149 181 220 267
#     4   9  17  29  46  68  92 120 155 191 224 262
#     4   9  18  31  44  61  91 127 155 183 226 274
#     4  10  20  32  47  68  92 120 156 194 229 268
#
# _framework density 17.147290000000002
#
# number of rings (size 3 to 8) (size 9 to 14) (size 15 to 20)
#    0.000    2.750    0.000    1.500    0.000    6.250 
#    0.000    1.250    0.000    0.750    0.000    5.250 
#    0.000    0.000    0.000    0.000    0.000    0.000 
#
# Total GULP energy -793440.346009 kJ/mol
# GULP energy per Si atom -12397.505406 kJ/mol
# Density = 1.710826 g / cm^3
# Si number density = 17.147290 Si / 1000 Ang^3
#
#
#
# Elastic Constant Matrix: (Units=GPa)
#
#
# Indices 1 2 3 4 5 6 
#
# 1 84.6569 31.5847 52.0253 0.0000 0.0000 0.0000
# 2 31.5847 66.0096 50.5934 0.0000 0.0000 0.0000
# 3 52.0253 50.5934 110.2748 0.0000 0.0000 0.0000
# 4 0.0000 0.0000 0.0000 18.2592 0.0000 0.0000
# 5 0.0000 0.0000 0.0000 0.0000 16.0653 0.0000
# 6 0.0000 0.0000 0.0000 0.0000 0.0000 16.6420
#
#
#
# Elastic Compliance Matrix: (Units=1/GPa)
#
#
# Indices 1 2 3 4 5 6 
#
# 1 0.017030 -0.003070 -0.006626 0.000000 0.000000 0.000000
# 2 -0.003070 0.023919 -0.009526 0.000000 0.000000 0.000000
# 3 -0.006626 -0.009526 0.016564 0.000000 0.000000 0.000000
# 4 0.000000 0.000000 0.000000 0.054767 0.000000 0.000000
# 5 0.000000 0.000000 0.000000 0.000000 0.062246 0.000000
# 6 0.000000 0.000000 0.000000 0.000000 0.000000 0.060089
#
#
# Mechanical properties :
#
#
# Convention : Reuss Voigt Hill
#
# Bulk Modulus (GPa) = 52.43709 58.81644 55.62677
# Shear Modulus (GPa) = 17.89456 18.64249 18.26852
#
# Velocity S-wave (km/s) = 3.23395 3.30084 3.26757
# Velocity P-wave (km/s) = 6.67768 6.99304 6.83718
#
# Compressibility (1/GPa) = 0.01907047
#
# Stress axis : x y z
#
# Youngs Moduli (GPa) = 58.72141 41.80735 60.37065
#
# Poissons Ratio (x) = 0.12836 0.39999
# Poissons Ratio (y) = 0.18029 0.57506
# Poissons Ratio (z) = 0.38907 0.39824
#
# Static dielectric constant tensor:
#      x y z
#    x 3.263790 0.000000 0.000000 
#    y 0.000000 3.287830 0.000000 
#    z 0.000000 0.000000 3.133690 
# 
# 
# High freq. dielectric constant tensor:
#      x y z
#    x 1.646620 0.000000 0.000000 
#    y 0.000000 1.664660 0.000000 
#    z 0.000000 0.000000 1.649320 
# 
# From -- ./inp_files/30895.got.cif
#   From: 2010.03.12/outbox.cif.g09.slc.cpg/sg51_16_cif.got.tgz:30895.got - 2010.04.16 13:43:02.
