data_PCOD8210734
_publ_section_title
;
Structure prediction by ZEFSAII (Michael W. Deem and Ramdas Pophale) SiO2 
 PCOD8210734
Probable space group: P M M A
;
_chemical_formula_sum "Si O2"
_cell_formula_units_Z 64
_cell_length_a 8.882784
_cell_length_b 19.671613
_cell_length_c 19.872683
_cell_angle_alpha 90.000000
_cell_angle_beta 90.000000
_cell_angle_gamma 90.000000
_cell_volume 3472.526579
_symmetry_space_group_name_H-M "P M M A"
_symmetry_group_IT_number 51
_symmetry_cell_setting 'orthorhombic'
loop_
_space_group_symop_operation_xyz
x,y,z
1/2-x,-y,z
1/2+x,-y,-z
-x,y,-z
-x,-y,-z
1/2+x,y,-z
1/2-x,y,z
x,-y,z
loop_
_atom_site_type_symbol
_atom_site_label
_atom_site_fract_x
_atom_site_fract_y
_atom_site_fract_z
Si Si1 0.926752 0.072830 0.607852
Si Si2 0.425066 0.579200 0.070218
Si Si3 0.427924 0.218630 0.432581
Si Si4 0.579931 0.258282 0.301328
Si Si5 0.572110 0.686453 0.162914
Si Si6 0.920196 0.893791 0.261297
Si Si7 0.572437 0.792305 0.932554
Si Si8 0.075961 0.923727 0.889314
O O1 0.750000 0.079010 0.602610
O O2 0.994650 0.140958 0.573556
O O3 0.970972 0.070570 0.685751
O O4 0.980019 0.000000 0.575241
O O5 0.250000 0.598742 0.066846
O O6 0.450218 0.500000 0.084116
O O7 0.503361 0.618136 0.131681
O O8 0.500000 0.601287 0.000000
O O9 0.500000 0.250491 0.500000
O O10 0.250000 0.220449 0.438863
O O11 0.474476 0.262911 0.367294
O O12 0.750000 0.269144 0.326873
O O13 0.537680 0.313476 0.243568
O O14 0.561047 0.186993 0.263569
O O15 0.750000 0.689840 0.149900
O O16 0.495413 0.752562 0.130555
O O17 0.750000 0.915410 0.278667
O O18 0.967727 0.920935 0.188863
O O19 0.750000 0.782836 0.934529
O O20 0.530126 0.871979 0.929378
O O21 0.500000 0.760632 0.000000
O O22 0.250000 0.902247 0.899472
O O23 0.046473 0.000000 0.916179
#
# Coordination Sequence:
#
# PCOD8210734 Si02
#       8
#     8   8   8   8   8   8   8   8
#     4   9  18  30  43  63  91 121 158 205 256 314
#     4  10  21  37  57  85 122 160 194 225 261 309
#     4  10  20  33  49  69  97 132 169 212 265 321
#     4   9  18  33  54  76 101 131 168 214 261 312
#     4  11  21  37  60  84 111 142 181 224 267 314
#     4   9  16  30  49  69  92 120 157 202 258 318
#     4  12  25  39  55  73  99 132 173 220 271 325
#     4  10  20  35  53  71  94 124 163 215 274 331
#
# _framework density 18.430384
#
# number of rings (size 3 to 8) (size 9 to 14) (size 15 to 20)
#    0.000    2.000    1.250    3.000    0.000    4.250 
#    0.000    0.000    0.000    0.000    0.000    0.000 
#    0.000    0.500    0.000    1.625    0.000    2.375 
#
# Total GULP energy -793414.372035 kJ/mol
# GULP energy per Si atom -12397.099563 kJ/mol
# Density = 1.838844 g / cm^3
# Si number density = 18.430384 Si / 1000 Ang^3
#
#
#
# Elastic Constant Matrix: (Units=GPa)
#
#
# Indices 1 2 3 4 5 6 
#
# 1 93.7550 32.4373 54.1955 0.0000 0.0000 0.0000
# 2 32.4373 62.1018 35.1656 0.0000 0.0000 0.0000
# 3 54.1955 35.1656 110.6449 0.0000 0.0000 0.0000
# 4 0.0000 0.0000 0.0000 -40.5276 0.0000 0.0000
# 5 0.0000 0.0000 0.0000 0.0000 30.7470 0.0000
# 6 0.0000 0.0000 0.0000 0.0000 0.0000 23.6345
#
#
#
# Elastic Compliance Matrix: (Units=1/GPa)
#
#
# Indices 1 2 3 4 5 6 
#
# 1 0.015958 -0.004767 -0.006301 0.000000 0.000000 0.000000
# 2 -0.004767 0.021061 -0.004359 0.000000 0.000000 0.000000
# 3 -0.006301 -0.004359 0.013510 0.000000 0.000000 0.000000
# 4 0.000000 0.000000 0.000000 -0.024675 0.000000 0.000000
# 5 0.000000 0.000000 0.000000 0.000000 0.032524 0.000000
# 6 0.000000 0.000000 0.000000 0.000000 0.000000 0.042311
#
#
# Mechanical properties :
#
#
# Convention : Reuss Voigt Hill
#
# Bulk Modulus (GPa) = 50.82785 56.67762 53.75273
# Shear Modulus (GPa) = 36.20558 12.41767 24.31162
#
# Velocity S-wave (km/s) = 4.43702 2.59851 3.63589
# Velocity P-wave (km/s) = 7.34082 6.31047 6.84506
#
# Compressibility (1/GPa) = 0.01967426
#
# Stress axis : x y z
#
# Youngs Moduli (GPa) = 62.66492 47.48198 74.02099
#
# Poissons Ratio (x) = 0.22635 0.46643
# Poissons Ratio (y) = 0.29872 0.32263
# Poissons Ratio (z) = 0.39487 0.20696
#
# Static dielectric constant tensor:
#      x y z
#    x 3.344680 0.000000 0.000000 
#    y 0.000000 3.222050 0.000000 
#    z 0.000000 0.000000 3.386060 
# 
# 
# High freq. dielectric constant tensor:
#      x y z
#    x 1.715290 0.000000 0.000000 
#    y 0.000000 1.677810 0.000000 
#    z 0.000000 0.000000 1.711010 
# 
# From -- ./inp_files/28417.got.cif
#   From: 2010.03.12/outbox.cif.g09.slc.cpg/sg51_15_cif.got.tgz:28417.got - 2010.04.16 13:43:02.
