data_PCOD8210182
_publ_section_title
;
Structure prediction by ZEFSAII (Michael W. Deem and Ramdas Pophale) SiO2 
 PCOD8210182
Probable space group: P M M A
;
_chemical_formula_sum "Si O2"
_cell_formula_units_Z 56
_cell_length_a 19.066438
_cell_length_b 9.376521
_cell_length_c 18.022490
_cell_angle_alpha 90.000000
_cell_angle_beta 90.000000
_cell_angle_gamma 90.000000
_cell_volume 3222.004105
_symmetry_space_group_name_H-M "P M M A"
_symmetry_group_IT_number 51
_symmetry_cell_setting 'orthorhombic'
loop_
_space_group_symop_operation_xyz
x,y,z
1/2-x,-y,z
1/2+x,-y,-z
-x,y,-z
-x,-y,-z
1/2+x,y,-z
1/2-x,y,z
x,-y,z
loop_
_atom_site_type_symbol
_atom_site_label
_atom_site_fract_x
_atom_site_fract_y
_atom_site_fract_z
Si Si1 0.914895 0.331202 0.079293
Si Si2 0.166508 0.160364 0.362433
Si Si3 0.166652 0.161478 0.800586
Si Si4 0.833368 0.340092 0.336903
Si Si5 0.166553 0.339785 0.498915
Si Si6 0.331342 0.667086 0.219246
Si Si7 0.926810 0.668226 0.913319
O O1 0.902175 0.500000 0.087420
O O2 0.859459 0.247875 0.128591
O O3 0.993336 0.287973 0.104720
O O4 0.903546 0.277982 0.994665
O O5 0.250000 0.159790 0.365661
O O6 0.135499 0.233726 0.436796
O O7 0.141236 0.249675 0.291380
O O8 0.136860 0.000000 0.357356
O O9 0.250000 0.166328 0.801498
O O10 0.136597 0.233463 0.725300
O O11 0.138695 0.000000 0.803390
O O12 0.750000 0.340008 0.334760
O O13 0.860974 0.500000 0.320231
O O14 0.858642 0.290575 0.418955
O O15 0.250000 0.338332 0.495442
O O16 0.139614 0.500000 0.482627
O O17 0.250000 0.698019 0.203150
O O18 0.344858 0.500000 0.232728
O O19 0.374872 0.728774 0.149467
O O20 0.921538 0.500000 0.915137
#
# Coordination Sequence:
#
# PCOD8210182 Si02
#       7
#     8   8   8   8   8   8   8
#     4   9  17  32  52  69  88 115 150 190 227 268
#     4   9  16  24  35  56  87 119 149 180 216 259
#     4  10  20  31  43  65  97 125 150 184 225 268
#     4   8  14  25  41  61  85 115 151 186 220 261
#     4   8  13  22  37  57  82 113 148 183 218 258
#     4   9  16  27  44  65  90 118 147 181 222 266
#     4   8  16  31  50  71  90 112 148 191 228 264
#
# _framework density 17.380486999999999
#
# number of rings (size 3 to 8) (size 9 to 14) (size 15 to 20)
#    0.000    3.286    0.000    2.571    0.000    3.714 
#    0.000    7.143    0.000    1.714    0.000    1.000 
#    0.000    8.000    0.000    0.000    0.000    0.000 
#
# Total GULP energy -694080.903803 kJ/mol
# GULP energy per Si atom -12394.301854 kJ/mol
# Density = 1.734093 g / cm^3
# Si number density = 17.380487 Si / 1000 Ang^3
#
#
#
# Elastic Constant Matrix: (Units=GPa)
#
#
# Indices 1 2 3 4 5 6 
#
# 1 19.3752 20.3582 28.5616 0.0000 0.0000 0.0000
# 2 20.3582 92.3738 68.8848 0.0000 0.0000 0.0000
# 3 28.5616 68.8848 143.9272 0.0000 0.0000 0.0000
# 4 0.0000 0.0000 0.0000 8.7730 0.0000 0.0000
# 5 0.0000 0.0000 0.0000 0.0000 3.4671 0.0000
# 6 0.0000 0.0000 0.0000 0.0000 0.0000 11.1822
#
#
#
# Elastic Compliance Matrix: (Units=1/GPa)
#
#
# Indices 1 2 3 4 5 6 
#
# 1 0.077195 -0.008691 -0.011159 0.000000 0.000000 0.000000
# 2 -0.008691 0.017812 -0.006800 0.000000 0.000000 0.000000
# 3 -0.011159 -0.006800 0.012417 0.000000 0.000000 0.000000
# 4 0.000000 0.000000 0.000000 0.113987 0.000000 0.000000
# 5 0.000000 0.000000 0.000000 0.000000 0.288423 0.000000
# 6 0.000000 0.000000 0.000000 0.000000 0.000000 0.089428
#
#
# Mechanical properties :
#
#
# Convention : Reuss Voigt Hill
#
# Bulk Modulus (GPa) = 18.47661 54.58726 36.53193
# Shear Modulus (GPa) = 7.45597 13.87590 10.66594
#
# Velocity S-wave (km/s) = 2.07344 2.82859 2.47993
# Velocity P-wave (km/s) = 4.04796 6.49179 5.40968
#
# Compressibility (1/GPa) = 0.05412249
#
# Stress axis : x y z
#
# Youngs Moduli (GPa) = 12.95425 56.14150 80.53392
#
# Poissons Ratio (x) = 0.48794 0.89869
# Poissons Ratio (y) = 0.11259 0.54765
# Poissons Ratio (z) = 0.14456 0.38178
#
# Static dielectric constant tensor:
#      x y z
#    x 2.837700 0.000000 0.000000 
#    y 0.000000 3.220970 0.000000 
#    z 0.000000 0.000000 3.669680 
# 
# 
# High freq. dielectric constant tensor:
#      x y z
#    x 1.614440 0.000000 0.000000 
#    y 0.000000 1.655910 0.000000 
#    z 0.000000 0.000000 1.688290 
# 
# From -- ./inp_files/30418.got.cif
#   From: 2010.03.12/outbox.cif.g09.slc.cpg/sg51_16_cif.got.tgz:30418.got - 2010.04.16 13:43:02.
