data_PCOD8210611
_publ_section_title
;
Structure prediction by ZEFSAII (Michael W. Deem and Ramdas Pophale) SiO2 
 PCOD8210611
Probable space group: P M M A
;
_chemical_formula_sum "Si O2"
_cell_formula_units_Z 48
_cell_length_a 7.708309
_cell_length_b 9.270987
_cell_length_c 34.350587
_cell_angle_alpha 90.000000
_cell_angle_beta 90.000000
_cell_angle_gamma 90.000000
_cell_volume 2454.817727
_symmetry_space_group_name_H-M "P M M A"
_symmetry_group_IT_number 51
_symmetry_cell_setting 'orthorhombic'
loop_
_space_group_symop_operation_xyz
x,y,z
1/2-x,-y,z
1/2+x,-y,-z
-x,y,-z
-x,-y,-z
1/2+x,y,-z
1/2-x,y,z
x,-y,z
loop_
_atom_site_type_symbol
_atom_site_label
_atom_site_fract_x
_atom_site_fract_y
_atom_site_fract_z
Si Si1 0.556073 0.828481 0.457915
Si Si2 0.448846 0.666610 0.736544
Si Si3 0.550705 0.658401 0.887288
Si Si4 0.250000 0.333133 0.322553
Si Si5 0.546007 0.836298 0.186751
Si Si6 0.750000 0.828524 0.597098
Si Si7 0.545948 0.839060 0.957963
O O1 0.500000 0.766966 0.500000
O O2 0.750000 0.773456 0.447522
O O3 0.421179 0.772603 0.425535
O O4 0.551760 0.000000 0.459536
O O5 0.250000 0.700659 0.724139
O O6 0.469574 0.500000 0.748753
O O7 0.576034 0.705466 0.701219
O O8 0.508439 0.762465 0.772902
O O9 0.750000 0.636086 0.897537
O O10 0.462963 0.500000 0.882130
O O11 0.539109 0.750040 0.848209
O O12 0.461962 0.741985 0.923646
O O13 0.250000 0.500000 0.334643
O O14 0.250000 0.235919 0.360322
O O15 0.750000 0.831025 0.181159
O O16 0.476195 0.000000 0.186716
O O17 0.750000 0.000000 0.600289
O O18 0.750000 0.847992 0.952219
O O19 0.464742 0.000000 0.955093
O O20 0.500000 0.770768 0.000000
#
# Coordination Sequence:
#
# PCOD8210611 Si02
#       7
#     8   8   8   4   8   4   8
#     4   9  15  26  47  76 108 140 177 225 277 324
#     4   9  19  37  58  78 104 140 182 225 268 321
#     4  10  21  35  52  76 106 138 174 214 255 310
#     4  10  22  38  56  78 108 148 188 222 270 336
#     4  10  21  36  55  81 109 135 167 214 271 322
#     4  10  20  32  50  80 110 138 180 230 274 322
#     4   9  18  33  51  71  98 133 172 214 261 311
#
# _framework density 19.553387000000001
#
# number of rings (size 3 to 8) (size 9 to 14) (size 15 to 20)
#    0.000    2.500    0.833    1.000    1.167    4.333 
#    0.000    1.667    0.000    0.500    0.000    0.000 
#    0.000    0.000    0.000    0.000    0.000    0.000 
#
# Total GULP energy -595114.334503 kJ/mol
# GULP energy per Si atom -12398.215302 kJ/mol
# Density = 1.950888 g / cm^3
# Si number density = 19.553387 Si / 1000 Ang^3
#
#
#
# Elastic Constant Matrix: (Units=GPa)
#
#
# Indices 1 2 3 4 5 6 
#
# 1 91.2494 30.4652 58.0353 0.0000 0.0000 0.0000
# 2 30.4652 98.0880 72.4154 0.0000 0.0000 0.0000
# 3 58.0353 72.4154 163.5363 0.0000 0.0000 0.0000
# 4 0.0000 0.0000 0.0000 4.8608 0.0000 0.0000
# 5 0.0000 0.0000 0.0000 0.0000 29.8389 0.0000
# 6 0.0000 0.0000 0.0000 0.0000 0.0000 6.6421
#
#
#
# Elastic Compliance Matrix: (Units=1/GPa)
#
#
# Indices 1 2 3 4 5 6 
#
# 1 0.014223 -0.001027 -0.004593 0.000000 0.000000 0.000000
# 2 -0.001027 0.015221 -0.006375 0.000000 0.000000 0.000000
# 3 -0.004593 -0.006375 0.010568 0.000000 0.000000 0.000000
# 4 0.000000 0.000000 0.000000 0.205729 0.000000 0.000000
# 5 0.000000 0.000000 0.000000 0.000000 0.033513 0.000000
# 6 0.000000 0.000000 0.000000 0.000000 0.000000 0.150555
#
#
# Mechanical properties :
#
#
# Convention : Reuss Voigt Hill
#
# Bulk Modulus (GPa) = 62.41673 74.96726 68.69200
# Shear Modulus (GPa) = 10.88994 21.06553 15.97773
#
# Velocity S-wave (km/s) = 2.36250 3.28584 2.86166
# Velocity P-wave (km/s) = 6.27952 7.26764 6.79158
#
# Compressibility (1/GPa) = 0.01602134
#
# Stress axis : x y z
#
# Youngs Moduli (GPa) = 70.30979 65.70023 94.62726
#
# Poissons Ratio (x) = 0.06746 0.43459
# Poissons Ratio (y) = 0.07220 0.60329
# Poissons Ratio (z) = 0.32291 0.41887
#
# Static dielectric constant tensor:
#      x y z
#    x 3.627080 0.000000 0.000000 
#    y 0.000000 3.622730 0.000000 
#    z 0.000000 0.000000 3.482270 
# 
# 
# High freq. dielectric constant tensor:
#      x y z
#    x 1.761930 0.000000 0.000000 
#    y 0.000000 1.740880 0.000000 
#    z 0.000000 0.000000 1.759160 
# 
# From -- ./inp_files/37076.got.cif
#   From: 2010.03.12/outbox.cif.g09.slc.cpg/sg51_19_cif.got.tgz:37076.got - 2010.04.16 13:43:02.
