data_PCOD8210490
_publ_section_title
;
Structure prediction by ZEFSAII (Michael W. Deem and Ramdas Pophale) SiO2 
 PCOD8210490
Probable space group: P M M A
;
_chemical_formula_sum "Si O2"
_cell_formula_units_Z 48
_cell_length_a 31.062986
_cell_length_b 9.280425
_cell_length_c 9.641825
_cell_angle_alpha 90.000000
_cell_angle_beta 90.000000
_cell_angle_gamma 90.000000
_cell_volume 2779.523249
_symmetry_space_group_name_H-M "P M M A"
_symmetry_group_IT_number 51
_symmetry_cell_setting 'orthorhombic'
loop_
_space_group_symop_operation_xyz
x,y,z
1/2-x,-y,z
1/2+x,-y,-z
-x,y,-z
-x,-y,-z
1/2+x,y,-z
1/2-x,y,z
x,-y,z
loop_
_atom_site_type_symbol
_atom_site_label
_atom_site_fract_x
_atom_site_fract_y
_atom_site_fract_z
Si Si1 0.704106 0.163556 0.371284
Si Si2 0.702640 0.667691 0.649343
Si Si3 0.047161 0.331842 0.840260
Si Si4 0.449069 0.330514 0.154127
Si Si5 0.620650 0.167218 0.670831
Si Si6 0.612202 0.837855 0.343897
O O1 0.750000 0.175972 0.287629
O O2 0.705623 0.279810 0.491997
O O3 0.660703 0.190796 0.281227
O O4 0.699853 0.000000 0.433725
O O5 0.750000 0.691807 0.719486
O O6 0.690091 0.500000 0.651638
O O7 0.664854 0.757658 0.725155
O O8 0.052723 0.500000 0.824947
O O9 0.077967 0.263188 0.727254
O O10 0.998051 0.288750 0.808643
O O11 0.060398 0.285316 0.995375
O O12 0.440939 0.500000 0.176568
O O13 0.419418 0.238085 0.253303
O O14 0.614280 0.193756 0.507574
O O15 0.622778 0.000000 0.709405
O O16 0.597237 0.000000 0.314251
#
# Coordination Sequence:
#
# PCOD8210490 Si02
#       6
#     8   8   8   8   8   8
#     4   8  14  26  43  64  94 129 159 189 228 274
#     4   9  16  26  43  68  96 126 159 194 232 275
#     4   9  19  35  53  70  91 123 160 198 242 290
#     4   9  19  36  53  69  91 122 162 202 240 286
#     4  10  20  32  48  73 101 128 158 194 237 281
#     4   9  18  30  46  72 101 125 155 196 236 278
#
# _framework density 17.269148999999999
#
# number of rings (size 3 to 8) (size 9 to 14) (size 15 to 20)
#    0.000    3.000    0.000    3.000    0.000    6.333 
#    0.000    5.000    0.000    1.000    0.000    4.667 
#    0.000    0.000    0.000    0.000    0.000    0.000 
#
# Total GULP energy -594656.615006 kJ/mol
# GULP energy per Si atom -12388.679479 kJ/mol
# Density = 1.722984 g / cm^3
# Si number density = 17.269149 Si / 1000 Ang^3
#
#
#
# Elastic Constant Matrix: (Units=GPa)
#
#
# Indices 1 2 3 4 5 6 
#
# 1 152.9790 67.9980 49.9684 0.0000 0.0000 0.0000
# 2 67.9980 72.1593 28.9444 0.0000 0.0000 0.0000
# 3 49.9684 28.9444 38.4228 0.0000 0.0000 0.0000
# 4 0.0000 0.0000 0.0000 18.5319 0.0000 0.0000
# 5 0.0000 0.0000 0.0000 0.0000 -4.8251 0.0000
# 6 0.0000 0.0000 0.0000 0.0000 0.0000 32.4995
#
#
#
# Elastic Compliance Matrix: (Units=1/GPa)
#
#
# Indices 1 2 3 4 5 6 
#
# 1 0.014348 -0.008650 -0.012144 0.000000 0.000000 0.000000
# 2 -0.008650 0.025073 -0.007639 0.000000 0.000000 0.000000
# 3 -0.012144 -0.007639 0.047574 0.000000 0.000000 0.000000
# 4 0.000000 0.000000 0.000000 0.053961 0.000000 0.000000
# 5 0.000000 0.000000 0.000000 0.000000 -0.207250 0.000000
# 6 0.000000 0.000000 0.000000 0.000000 0.000000 0.030770
#
#
# Mechanical properties :
#
#
# Convention : Reuss Voigt Hill
#
# Bulk Modulus (GPa) = 33.18965 61.93143 47.56054
# Shear Modulus (GPa) = 159.31366 17.01795 88.16580
#
# Velocity S-wave (km/s) = 9.61528 3.14260 7.15296
# Velocity P-wave (km/s) = 11.93869 7.00773 9.78878
#
# Compressibility (1/GPa) = 0.03012988
#
# Stress axis : x y z
#
# Youngs Moduli (GPa) = 69.69577 39.88305 21.02004
#
# Poissons Ratio (x) = 0.34497 0.25526
# Poissons Ratio (y) = 0.60284 0.16058
# Poissons Ratio (z) = 0.84636 0.30468
#
# Static dielectric constant tensor:
#      x y z
#    x 3.700320 0.000000 0.000000 
#    y 0.000000 3.213810 0.000000 
#    z 0.000000 0.000000 2.785900 
# 
# 
# High freq. dielectric constant tensor:
#      x y z
#    x 1.693040 0.000000 0.000000 
#    y 0.000000 1.672710 0.000000 
#    z 0.000000 0.000000 1.608820 
# 
# From -- ./inp_files/19011.got.cif
#   From: 2010.03.12/outbox.cif.g09.slc.cpg/sg51_10_cif.got.tgz:19011.got - 2010.04.16 13:43:02.
