data_PCOD8210384
_publ_section_title
;
Structure prediction by ZEFSAII (Michael W. Deem and Ramdas Pophale) SiO2 
 PCOD8210384
Probable space group: P M M A
;
_chemical_formula_sum "Si O2"
_cell_formula_units_Z 56
_cell_length_a 9.358340
_cell_length_b 18.674992
_cell_length_c 18.620268
_cell_angle_alpha 90.000000
_cell_angle_beta 90.000000
_cell_angle_gamma 90.000000
_cell_volume 3254.206974
_symmetry_space_group_name_H-M "P M M A"
_symmetry_group_IT_number 51
_symmetry_cell_setting 'orthorhombic'
loop_
_space_group_symop_operation_xyz
x,y,z
1/2-x,-y,z
1/2+x,-y,-z
-x,y,-z
-x,-y,-z
1/2+x,y,-z
1/2-x,y,z
x,-y,z
loop_
_atom_site_type_symbol
_atom_site_label
_atom_site_fract_x
_atom_site_fract_y
_atom_site_fract_z
Si Si1 0.086733 0.294578 0.214259
Si Si2 0.917538 0.847512 0.701634
Si Si3 0.419866 0.078908 0.154128
Si Si4 0.580419 0.419419 0.277935
Si Si5 0.082122 0.082852 0.573317
Si Si6 0.906571 0.584457 0.436724
Si Si7 0.583999 0.787338 0.930301
O O1 0.250000 0.318536 0.221949
O O2 0.052429 0.233881 0.273464
O O3 0.055611 0.267184 0.134304
O O4 0.988780 0.363888 0.223446
O O5 0.750000 0.858821 0.683506
O O6 0.968549 0.899297 0.766054
O O7 0.014535 0.865923 0.633534
O O8 0.250000 0.081878 0.153300
O O9 0.475730 0.134677 0.094372
O O10 0.479586 0.000000 0.135827
O O11 0.750000 0.412980 0.275075
O O12 0.533321 0.500000 0.256863
O O13 0.525888 0.400518 0.358476
O O14 0.250000 0.100112 0.564341
O O15 0.000000 0.100468 0.500000
O O16 0.058292 0.000000 0.594854
O O17 0.750000 0.619554 0.442055
O O18 0.893685 0.500000 0.448388
O O19 0.000000 0.619880 0.500000
O O20 0.750000 0.791044 0.949849
O O21 0.500000 0.760638 0.000000
#
# Coordination Sequence:
#
# PCOD8210384 Si02
#       7
#     8   8   8   8   8   8   8
#     4   9  19  34  51  73  98 124 158 197 236 286
#     4   9  17  31  50  69  92 125 164 202 241 287
#     4   8  14  26  46  70  95 125 158 191 230 276
#     4   9  18  32  50  73  99 126 159 200 244 288
#     4  10  20  32  47  69  96 127 166 211 254 292
#     4   8  14  25  41  63  91 119 147 180 218 264
#     4   9  18  32  49  71  98 126 157 190 226 275
#
# _framework density 17.208494000000002
#
# number of rings (size 3 to 8) (size 9 to 14) (size 15 to 20)
#    0.000    3.143    0.000    3.429    0.000    3.714 
#    0.000    4.286    0.000    3.000    0.000    0.000 
#    0.000    0.000    0.000    0.000    0.000    0.000 
#
# Total GULP energy -694129.127756 kJ/mol
# GULP energy per Si atom -12395.162996 kJ/mol
# Density = 1.716933 g / cm^3
# Si number density = 17.208494 Si / 1000 Ang^3
#
#
#
# Elastic Constant Matrix: (Units=GPa)
#
#
# Indices 1 2 3 4 5 6 
#
# 1 68.3095 41.5822 56.1688 0.0000 0.0000 0.0000
# 2 41.5822 87.7970 49.1755 0.0000 0.0000 0.0000
# 3 56.1688 49.1755 110.8897 0.0000 0.0000 0.0000
# 4 0.0000 0.0000 0.0000 15.0101 0.0000 0.0000
# 5 0.0000 0.0000 0.0000 0.0000 32.0053 0.0000
# 6 0.0000 0.0000 0.0000 0.0000 0.0000 23.5249
#
#
#
# Elastic Compliance Matrix: (Units=1/GPa)
#
#
# Indices 1 2 3 4 5 6 
#
# 1 0.028054 -0.007088 -0.011067 0.000000 0.000000 0.000000
# 2 -0.007088 0.016945 -0.003924 0.000000 0.000000 0.000000
# 3 -0.011067 -0.003924 0.016364 0.000000 0.000000 0.000000
# 4 0.000000 0.000000 0.000000 0.066622 0.000000 0.000000
# 5 0.000000 0.000000 0.000000 0.000000 0.031245 0.000000
# 6 0.000000 0.000000 0.000000 0.000000 0.000000 0.042508
#
#
# Mechanical properties :
#
#
# Convention : Reuss Voigt Hill
#
# Bulk Modulus (GPa) = 58.12431 62.31658 60.22044
# Shear Modulus (GPa) = 19.87042 22.11270 20.99156
#
# Velocity S-wave (km/s) = 3.40175 3.58856 3.49641
# Velocity P-wave (km/s) = 7.01991 7.31175 7.16731
#
# Compressibility (1/GPa) = 0.01720450
#
# Stress axis : x y z
#
# Youngs Moduli (GPa) = 35.64566 59.01476 61.11080
#
# Poissons Ratio (x) = 0.41831 0.67629
# Poissons Ratio (y) = 0.25267 0.23980
# Poissons Ratio (z) = 0.39448 0.23158
#
# Static dielectric constant tensor:
#      x y z
#    x 3.087030 0.000000 0.000000 
#    y 0.000000 3.073630 0.000000 
#    z 0.000000 0.000000 3.128480 
# 
# 
# High freq. dielectric constant tensor:
#      x y z
#    x 1.648480 0.000000 0.000000 
#    y 0.000000 1.644830 0.000000 
#    z 0.000000 0.000000 1.659150 
# 
# From -- ./inp_files/28187.got.cif
#   From: 2010.03.12/outbox.cif.g09.slc.cpg/sg51_15_cif.got.tgz:28187.got - 2010.04.16 13:43:02.
