data_PCOD8210224
_publ_section_title
;
Structure prediction by ZEFSAII (Michael W. Deem and Ramdas Pophale) SiO2 
 PCOD8210224
Probable space group: P M M A
;
_chemical_formula_sum "Si O2"
_cell_formula_units_Z 52
_cell_length_a 9.505007
_cell_length_b 8.331817
_cell_length_c 35.329642
_cell_angle_alpha 90.000000
_cell_angle_beta 90.000000
_cell_angle_gamma 90.000000
_cell_volume 2797.894923
_symmetry_space_group_name_H-M "P M M A"
_symmetry_group_IT_number 51
_symmetry_cell_setting 'orthorhombic'
loop_
_space_group_symop_operation_xyz
x,y,z
1/2-x,-y,z
1/2+x,-y,-z
-x,y,-z
-x,-y,-z
1/2+x,y,-z
1/2-x,y,z
x,-y,z
loop_
_atom_site_type_symbol
_atom_site_label
_atom_site_fract_x
_atom_site_fract_y
_atom_site_fract_z
Si Si1 0.582653 0.681128 0.915320
Si Si2 0.906947 0.685675 0.311313
Si Si3 0.086820 0.184026 0.244820
Si Si4 0.091052 0.315207 0.167989
Si Si5 0.914793 0.817026 0.388737
Si Si6 0.093217 0.312079 0.533611
Si Si7 0.917619 0.000000 0.961160
O O1 0.750000 0.676727 0.913135
O O2 0.533323 0.500000 0.929542
O O3 0.518664 0.711961 0.873123
O O4 0.534187 0.833694 0.940498
O O5 0.750000 0.757820 0.304033
O O6 0.894932 0.500000 0.319494
O O7 0.980545 0.762002 0.348659
O O8 0.002852 0.713099 0.275033
O O9 0.250000 0.237249 0.245782
O O10 0.022300 0.216191 0.202699
O O11 0.067431 0.000000 0.255505
O O12 0.250000 0.253987 0.163685
O O13 0.083668 0.500000 0.179618
O O14 0.750000 0.780386 0.385646
O O15 0.976000 0.723715 0.425290
O O16 0.951927 0.000000 0.395534
O O17 0.250000 0.235604 0.531539
O O18 0.102858 0.500000 0.527485
O O19 0.000000 0.234914 0.500000
O O20 0.750000 0.000000 0.967505
O O21 0.000000 0.000000 0.000000
#
# Coordination Sequence:
#
# PCOD8210224 Si02
#       7
#     8   8   8   8   8   8   4
#     4   8  15  28  47  72  99 128 165 207 248 293
#     4  10  20  34  52  71  93 127 169 205 237 282
#     4  10  20  31  47  74 104 130 157 196 248 297
#     4   8  14  26  45  69  96 125 159 200 242 283
#     4   9  17  30  49  70  91 119 156 196 234 276
#     4   9  17  30  48  69  92 117 148 186 228 277
#     4  10  20  32  50  74 100 130 166 208 250 298
#
# _framework density 18.585401000000001
#
# number of rings (size 3 to 8) (size 9 to 14) (size 15 to 20)
#    0.000    2.923    0.000    2.308    1.077    4.308 
#    0.000    0.769    0.000    3.692    0.000    2.154 
#    0.000    0.000    0.000    0.000    0.000    0.000 
#
# Total GULP energy -644242.812024 kJ/mol
# GULP energy per Si atom -12389.284847 kJ/mol
# Density = 1.854310 g / cm^3
# Si number density = 18.585401 Si / 1000 Ang^3
#
#
#
# Elastic Constant Matrix: (Units=GPa)
#
#
# Indices 1 2 3 4 5 6 
#
# 1 29.8990 16.2132 34.9245 0.0000 0.0000 0.0000
# 2 16.2132 71.0627 49.8693 0.0000 0.0000 0.0000
# 3 34.9245 49.8693 151.0024 0.0000 0.0000 0.0000
# 4 0.0000 0.0000 0.0000 29.8899 0.0000 0.0000
# 5 0.0000 0.0000 0.0000 0.0000 24.7411 0.0000
# 6 0.0000 0.0000 0.0000 0.0000 0.0000 13.7296
#
#
#
# Elastic Compliance Matrix: (Units=1/GPa)
#
#
# Indices 1 2 3 4 5 6 
#
# 1 0.046684 -0.004001 -0.009476 0.000000 0.000000 0.000000
# 2 -0.004001 0.018660 -0.005237 0.000000 0.000000 0.000000
# 3 -0.009476 -0.005237 0.010544 0.000000 0.000000 0.000000
# 4 0.000000 0.000000 0.000000 0.033456 0.000000 0.000000
# 5 0.000000 0.000000 0.000000 0.000000 0.040419 0.000000
# 6 0.000000 0.000000 0.000000 0.000000 0.000000 0.072835
#
#
# Mechanical properties :
#
#
# Convention : Reuss Voigt Hill
#
# Bulk Modulus (GPa) = 26.00147 50.44203 38.22175
# Shear Modulus (GPa) = 18.32530 23.73593 21.03062
#
# Velocity S-wave (km/s) = 3.14348 3.57757 3.36753
# Velocity P-wave (km/s) = 5.21497 6.65319 5.97749
#
# Compressibility (1/GPa) = 0.03845936
#
# Stress axis : x y z
#
# Youngs Moduli (GPa) = 21.42047 53.58967 94.84379
#
# Poissons Ratio (x) = 0.21443 0.89873
# Poissons Ratio (y) = 0.08571 0.49672
# Poissons Ratio (z) = 0.20298 0.28066
#
# Static dielectric constant tensor:
#      x y z
#    x 2.965420 0.000000 0.000000 
#    y 0.000000 3.475250 0.000000 
#    z 0.000000 0.000000 3.671630 
# 
# 
# High freq. dielectric constant tensor:
#      x y z
#    x 1.651980 0.000000 0.000000 
#    y 0.000000 1.725800 0.000000 
#    z 0.000000 0.000000 1.736410 
# 
# From -- ./inp_files/36558.got.cif
#   From: 2010.03.12/outbox.cif.g09.slc.cpg/sg51_19_cif.got.tgz:36558.got - 2010.04.16 13:43:02.
