data_PCOD8210856
_publ_section_title
;
Structure prediction by ZEFSAII (Michael W. Deem and Ramdas Pophale) SiO2 
 PCOD8210856
Probable space group: P M M A
;
_chemical_formula_sum "Si O2"
_cell_formula_units_Z 48
_cell_length_a 9.030452
_cell_length_b 8.920668
_cell_length_c 31.270709
_cell_angle_alpha 90.000000
_cell_angle_beta 90.000000
_cell_angle_gamma 90.000000
_cell_volume 2519.095274
_symmetry_space_group_name_H-M "P M M A"
_symmetry_group_IT_number 51
_symmetry_cell_setting 'orthorhombic'
loop_
_space_group_symop_operation_xyz
x,y,z
1/2-x,-y,z
1/2+x,-y,-z
-x,y,-z
-x,-y,-z
1/2+x,y,-z
1/2-x,y,z
x,-y,z
loop_
_atom_site_type_symbol
_atom_site_label
_atom_site_fract_x
_atom_site_fract_y
_atom_site_fract_z
Si Si1 0.582769 0.821245 0.874089
Si Si2 0.082587 0.822083 0.622063
Si Si3 0.417209 0.178761 0.958031
Si Si4 0.577512 0.674178 0.543558
Si Si5 0.417313 0.821337 0.293855
Si Si6 0.082698 0.821234 0.790109
O O1 0.750000 0.759727 0.873802
O O2 0.500521 0.759400 0.916147
O O3 0.498676 0.759506 0.832324
O O4 0.582280 0.000000 0.874096
O O5 0.250000 0.759621 0.620020
O O6 0.990416 0.767899 0.581810
O O7 0.005422 0.760078 0.665003
O O8 0.082645 0.000000 0.622260
O O9 0.250000 0.240254 0.957952
O O10 0.417807 0.000000 0.958029
O O11 0.500000 0.240606 0.000000
O O12 0.500000 0.726802 0.500000
O O13 0.750000 0.710970 0.539753
O O14 0.547404 0.500000 0.552303
O O15 0.250000 0.759175 0.295257
O O16 0.497194 0.759327 0.251416
O O17 0.416925 0.000000 0.293499
O O18 0.250000 0.759730 0.789486
O O19 0.082433 0.000000 0.790071
#
# Coordination Sequence:
#
# PCOD8210856 Si02
#       6
#     8   8   8   8   8   8
#     4   9  15  21  28  38  52  72 101 137 179 230
#     4  10  20  33  50  73  99 126 156 190 229 273
#     4   9  15  21  27  34  45  63  90 128 176 228
#     4  10  21  37  56  76  98 126 159 193 230 272
#     4   9  16  26  40  58  81 108 136 168 208 253
#     4   9  15  22  32  46  65  89 117 150 190 239
#
# _framework density 19.054459999999999
#
# number of rings (size 3 to 8) (size 9 to 14) (size 15 to 20)
#    0.000    2.667    0.000    3.000    0.000   10.333 
#    0.000    0.000    0.000    0.000    0.000    0.000 
#    0.000    0.000    0.000    0.000    0.000    0.000 
#
# Total GULP energy -595208.899440 kJ/mol
# GULP energy per Si atom -12400.185405 kJ/mol
# Density = 1.901109 g / cm^3
# Si number density = 19.054460 Si / 1000 Ang^3
#
#
#
# Elastic Constant Matrix: (Units=GPa)
#
#
# Indices 1 2 3 4 5 6 
#
# 1 185.8676 9.9171 98.3670 0.0000 0.0000 0.0000
# 2 9.9171 3.2851 9.8353 0.0000 0.0000 0.0000
# 3 98.3670 9.8353 194.2139 0.0000 0.0000 0.0000
# 4 0.0000 0.0000 0.0000 -3.0784 0.0000 0.0000
# 5 0.0000 0.0000 0.0000 0.0000 47.7981 0.0000
# 6 0.0000 0.0000 0.0000 0.0000 0.0000 9.4949
#
#
#
# Elastic Compliance Matrix: (Units=1/GPa)
#
#
# Indices 1 2 3 4 5 6 
#
# 1 0.007855 -0.013911 -0.003274 0.000000 0.000000 0.000000
# 2 -0.013911 0.383440 -0.012372 0.000000 0.000000 0.000000
# 3 -0.003274 -0.012372 0.007434 0.000000 0.000000 0.000000
# 4 0.000000 0.000000 0.000000 -0.324846 0.000000 0.000000
# 5 0.000000 0.000000 0.000000 0.000000 0.020921 0.000000
# 6 0.000000 0.000000 0.000000 0.000000 0.000000 0.105320
#
#
# Mechanical properties :
#
#
# Convention : Reuss Voigt Hill
#
# Bulk Modulus (GPa) = 2.94451 68.84504 35.89478
# Shear Modulus (GPa) = 13.42481 28.52607 20.97544
#
# Velocity S-wave (km/s) = 2.65722 3.87341 3.32145
# Velocity P-wave (km/s) = 3.31105 7.49757 5.79554
#
# Compressibility (1/GPa) = 0.33961481
#
# Stress axis : x y z
#
# Youngs Moduli (GPa) = 127.30514 2.60797 134.52095
#
# Poissons Ratio (x) = 0.03628 0.44043
# Poissons Ratio (y) = 1.77094 1.66433
# Poissons Ratio (z) = 0.41681 0.03227
#
# Static dielectric constant tensor:
#      x y z
#    x 3.814750 0.000000 0.000000 
#    y 0.000000 2.636370 0.000000 
#    z 0.000000 0.000000 3.725900 
# 
# 
# High freq. dielectric constant tensor:
#      x y z
#    x 1.764160 0.000000 0.000000 
#    y 0.000000 1.649250 0.000000 
#    z 0.000000 0.000000 1.762110 
# 
# From -- ./inp_files/36155.got.cif
#   From: 2010.03.12/outbox.cif.g09.slc.cpg/sg51_19_cif.got.tgz:36155.got - 2010.04.16 13:43:02.
