data_PCOD8210972
_publ_section_title
;
Structure prediction by ZEFSAII (Michael W. Deem and Ramdas Pophale) SiO2 
 PCOD8210972
Probable space group: P M M A
;
_chemical_formula_sum "Si O2"
_cell_formula_units_Z 64
_cell_length_a 15.488561
_cell_length_b 9.148577
_cell_length_c 23.244090
_cell_angle_alpha 90.000000
_cell_angle_beta 90.000000
_cell_angle_gamma 90.000000
_cell_volume 3293.647874
_symmetry_space_group_name_H-M "P M M A"
_symmetry_group_IT_number 51
_symmetry_cell_setting 'orthorhombic'
loop_
_space_group_symop_operation_xyz
x,y,z
1/2-x,-y,z
1/2+x,-y,-z
-x,y,-z
-x,-y,-z
1/2+x,y,-z
1/2-x,y,z
x,-y,z
loop_
_atom_site_type_symbol
_atom_site_label
_atom_site_fract_x
_atom_site_fract_y
_atom_site_fract_z
Si Si1 0.152885 0.835469 0.532797
Si Si2 0.497423 0.171207 0.866793
Si Si3 0.406643 0.334859 0.427445
Si Si4 0.843897 0.165869 0.675339
Si Si5 0.015515 0.829619 0.736370
Si Si6 0.151160 0.672177 0.072814
Si Si7 0.348086 0.830838 0.954584
Si Si8 0.910550 0.334283 0.366176
O O1 0.250000 0.836248 0.508717
O O2 0.093120 0.749825 0.487742
O O3 0.155500 0.757648 0.595148
O O4 0.117073 0.000000 0.539832
O O5 0.469886 0.214209 0.802337
O O6 0.584572 0.257022 0.882539
O O7 0.415939 0.216581 0.905850
O O8 0.518340 0.000000 0.871757
O O9 0.377167 0.500000 0.439674
O O10 0.341984 0.263374 0.381820
O O11 0.500630 0.326713 0.400550
O O12 0.750000 0.182442 0.705424
O O13 0.916812 0.213303 0.720715
O O14 0.860705 0.000000 0.655170
O O15 0.081009 0.737642 0.696871
O O16 0.033872 0.000000 0.725841
O O17 0.250000 0.710290 0.090757
O O18 0.136163 0.500000 0.071350
O O19 0.130676 0.734815 0.009979
O O20 0.250000 0.802512 0.932622
O O21 0.360646 0.000000 0.971443
O O22 0.877914 0.500000 0.358397
#
# Coordination Sequence:
#
# PCOD8210972 Si02
#       8
#     8   8   8   8   8   8   8   8
#     4  11  23  36  52  76 102 128 162 206 256 308
#     4  10  20  34  55  81 107 141 184 225 267 314
#     4  10  20  33  51  76 102 128 161 202 251 308
#     4   9  17  30  48  70  98 133 170 207 250 302
#     4   9  19  35  53  74 102 136 175 216 255 301
#     4  10  21  35  52  79 114 147 177 214 265 321
#     4   9  18  34  55  79 108 141 178 221 268 318
#     4  10  21  37  55  74  99 133 170 207 251 303
#
# _framework density 19.431341
#
# number of rings (size 3 to 8) (size 9 to 14) (size 15 to 20)
#    0.000    2.250    0.000    2.625    0.000    9.500 
#    0.000    1.875    0.000    2.250    0.000    0.000 
#    0.000    0.000    0.000    0.000    0.000    0.000 
#
# Total GULP energy -793616.234717 kJ/mol
# GULP energy per Si atom -12400.253667 kJ/mol
# Density = 1.938711 g / cm^3
# Si number density = 19.431341 Si / 1000 Ang^3
#
#
#
# Elastic Constant Matrix: (Units=GPa)
#
#
# Indices 1 2 3 4 5 6 
#
# 1 50.0314 25.9330 25.3276 0.0000 0.0000 0.0000
# 2 25.9330 106.9159 54.2988 0.0000 0.0000 0.0000
# 3 25.3276 54.2988 113.7565 0.0000 0.0000 0.0000
# 4 0.0000 0.0000 0.0000 15.7597 0.0000 0.0000
# 5 0.0000 0.0000 0.0000 0.0000 21.6476 0.0000
# 6 0.0000 0.0000 0.0000 0.0000 0.0000 20.9593
#
#
#
# Elastic Compliance Matrix: (Units=1/GPa)
#
#
# Indices 1 2 3 4 5 6 
#
# 1 0.023795 -0.004067 -0.003357 0.000000 0.000000 0.000000
# 2 -0.004067 0.013041 -0.005319 0.000000 0.000000 0.000000
# 3 -0.003357 -0.005319 0.012077 0.000000 0.000000 0.000000
# 4 0.000000 0.000000 0.000000 0.063453 0.000000 0.000000
# 5 0.000000 0.000000 0.000000 0.000000 0.046195 0.000000
# 6 0.000000 0.000000 0.000000 0.000000 0.000000 0.047711
#
#
# Mechanical properties :
#
#
# Convention : Reuss Voigt Hill
#
# Bulk Modulus (GPa) = 42.68535 53.53585 48.11060
# Shear Modulus (GPa) = 20.87101 22.68294 21.77698
#
# Velocity S-wave (km/s) = 3.28089 3.42034 3.35134
# Velocity P-wave (km/s) = 6.03053 6.57339 6.30780
#
# Compressibility (1/GPa) = 0.02342724
#
# Stress axis : x y z
#
# Youngs Moduli (GPa) = 42.02623 76.68066 82.80123
#
# Poissons Ratio (x) = 0.31185 0.27793
# Poissons Ratio (y) = 0.17091 0.44045
# Poissons Ratio (z) = 0.14107 0.40789
#
# Static dielectric constant tensor:
#      x y z
#    x 3.492570 0.000000 0.000000 
#    y 0.000000 3.624370 0.000000 
#    z 0.000000 0.000000 3.446590 
# 
# 
# High freq. dielectric constant tensor:
#      x y z
#    x 1.751480 0.000000 0.000000 
#    y 0.000000 1.757240 0.000000 
#    z 0.000000 0.000000 1.743810 
# 
# From -- ./inp_files/35640.got.cif
#   From: 2010.03.12/outbox.cif.g09.slc.cpg/sg51_18_cif.got.tgz:35640.got - 2010.04.16 13:43:02.
