data_PCOD8210958
_publ_section_title
;
Structure prediction by ZEFSAII (Michael W. Deem and Ramdas Pophale) SiO2 
 PCOD8210958
Probable space group: P M M A
;
_chemical_formula_sum "Si O2"
_cell_formula_units_Z 64
_cell_length_a 24.123816
_cell_length_b 8.859264
_cell_length_c 15.515299
_cell_angle_alpha 90.000000
_cell_angle_beta 90.000000
_cell_angle_gamma 90.000000
_cell_volume 3315.918138
_symmetry_space_group_name_H-M "P M M A"
_symmetry_group_IT_number 51
_symmetry_cell_setting 'orthorhombic'
loop_
_space_group_symop_operation_xyz
x,y,z
1/2-x,-y,z
1/2+x,-y,-z
-x,y,-z
-x,-y,-z
1/2+x,y,-z
1/2-x,y,z
x,-y,z
loop_
_atom_site_type_symbol
_atom_site_label
_atom_site_fract_x
_atom_site_fract_y
_atom_site_fract_z
Si Si1 0.118493 0.321607 0.276513
Si Si2 0.345101 0.332014 0.598510
Si Si3 0.498023 0.827818 0.259614
Si Si4 0.531457 0.334853 0.416578
Si Si5 0.813218 0.177936 0.060744
Si Si6 0.619293 0.178589 0.225487
Si Si7 0.686720 0.677296 0.887021
Si Si8 0.687500 0.824706 0.571302
O O1 0.121384 0.500000 0.287828
O O2 0.056096 0.275280 0.249107
O O3 0.155363 0.262983 0.197204
O O4 0.142228 0.251177 0.365081
O O5 0.319028 0.500000 0.610290
O O6 0.405228 0.345705 0.557232
O O7 0.350693 0.254573 0.692353
O O8 0.311402 0.239148 0.526720
O O9 0.519087 0.806716 0.356443
O O10 0.554174 0.777286 0.208145
O O11 0.481811 0.000000 0.239877
O O12 0.500000 0.288947 0.500000
O O13 0.511954 0.500000 0.379362
O O14 0.750000 0.231906 0.074105
O O15 0.848505 0.237076 0.141487
O O16 0.817443 0.000000 0.052954
O O17 0.838384 0.247679 0.973172
O O18 0.624330 0.000000 0.238982
O O19 0.750000 0.727846 0.875888
O O20 0.679924 0.500000 0.896931
O O21 0.750000 0.799502 0.607807
O O22 0.672227 0.000000 0.566255
#
# Coordination Sequence:
#
# PCOD8210958 Si02
#       8
#     8   8   8   8   8   8   8   8
#     4  11  22  37  57  79 107 143 181 225 276 326
#     4  10  20  33  52  78 107 141 179 218 262 313
#     4  10  20  33  51  75 105 142 182 222 264 317
#     4   9  17  30  48  70  97 131 172 217 262 307
#     4   9  18  34  58  84 107 136 176 221 269 322
#     4   9  19  36  55  79 114 150 182 221 271 322
#     4   9  19  36  57  81 107 135 171 219 275 330
#     4  11  24  39  55  78 109 144 182 225 272 325
#
# _framework density 19.300837999999999
#
# number of rings (size 3 to 8) (size 9 to 14) (size 15 to 20)
#    0.000    2.250    0.000    2.625    0.000    5.750 
#    0.000    3.125    0.000    3.750    0.000    0.000 
#    0.000    0.000    0.000    0.000    0.000    0.000 
#
# Total GULP energy -792990.307064 kJ/mol
# GULP energy per Si atom -12390.473548 kJ/mol
# Density = 1.925691 g / cm^3
# Si number density = 19.300838 Si / 1000 Ang^3
#
#
#
# Elastic Constant Matrix: (Units=GPa)
#
#
# Indices 1 2 3 4 5 6 
#
# 1 85.2043 29.5253 48.8619 0.0000 0.0000 0.0000
# 2 29.5253 66.0404 41.4728 0.0000 0.0000 0.0000
# 3 48.8619 41.4728 108.6650 0.0000 0.0000 0.0000
# 4 0.0000 0.0000 0.0000 63.8541 0.0000 0.0000
# 5 0.0000 0.0000 0.0000 0.0000 31.7971 0.0000
# 6 0.0000 0.0000 0.0000 0.0000 0.0000 33.0127
#
#
#
# Elastic Compliance Matrix: (Units=1/GPa)
#
#
# Indices 1 2 3 4 5 6 
#
# 1 0.016427 -0.003558 -0.006028 0.000000 0.000000 0.000000
# 2 -0.003558 0.020686 -0.006295 0.000000 0.000000 0.000000
# 3 -0.006028 -0.006295 0.014316 0.000000 0.000000 0.000000
# 4 0.000000 0.000000 0.000000 0.015661 0.000000 0.000000
# 5 0.000000 0.000000 0.000000 0.000000 0.031449 0.000000
# 6 0.000000 0.000000 0.000000 0.000000 0.000000 0.030291
#
#
# Mechanical properties :
#
#
# Convention : Reuss Voigt Hill
#
# Bulk Modulus (GPa) = 50.85062 55.51441 53.18252
# Shear Modulus (GPa) = 29.91351 35.06943 32.49147
#
# Velocity S-wave (km/s) = 3.94109 4.26724 4.10740
# Velocity P-wave (km/s) = 6.86390 7.28727 7.07875
#
# Compressibility (1/GPa) = 0.01966544
#
# Stress axis : x y z
#
# Youngs Moduli (GPa) = 60.87707 48.34105 69.85282
#
# Poissons Ratio (x) = 0.17201 0.42109
# Poissons Ratio (y) = 0.21662 0.43973
# Poissons Ratio (z) = 0.36698 0.30431
#
# Static dielectric constant tensor:
#      x y z
#    x 3.697330 0.000000 0.000000 
#    y 0.000000 3.528380 0.000000 
#    z 0.000000 0.000000 3.452670 
# 
# 
# High freq. dielectric constant tensor:
#      x y z
#    x 1.753790 0.000000 0.000000 
#    y 0.000000 1.750460 0.000000 
#    z 0.000000 0.000000 1.739940 
# 
# From -- ./inp_files/26360.got.cif
#   From: 2010.03.12/outbox.cif.g09.slc.cpg/sg51_14_cif.got.tgz:26360.got - 2010.04.16 13:43:02.
