data_PCOD8210864
_publ_section_title
;
Structure prediction by ZEFSAII (Michael W. Deem and Ramdas Pophale) SiO2 
 PCOD8210864
Probable space group: P M M A
;
_chemical_formula_sum "Si O2"
_cell_formula_units_Z 48
_cell_length_a 8.755798
_cell_length_b 23.405910
_cell_length_c 13.744220
_cell_angle_alpha 90.000000
_cell_angle_beta 90.000000
_cell_angle_gamma 90.000000
_cell_volume 2816.704986
_symmetry_space_group_name_H-M "P M M A"
_symmetry_group_IT_number 51
_symmetry_cell_setting 'orthorhombic'
loop_
_space_group_symop_operation_xyz
x,y,z
1/2-x,-y,z
1/2+x,-y,-z
-x,y,-z
-x,-y,-z
1/2+x,y,-z
1/2-x,y,z
x,-y,z
loop_
_atom_site_type_symbol
_atom_site_label
_atom_site_fract_x
_atom_site_fract_y
_atom_site_fract_z
Si Si1 0.572398 0.433770 0.397265
Si Si2 0.931361 0.726475 0.103678
Si Si3 0.927198 0.229052 0.601697
Si Si4 0.568907 0.662765 0.720990
Si Si5 0.071245 0.934412 0.896866
Si Si6 0.929900 0.166748 0.793713
O O1 0.500000 0.416552 0.500000
O O2 0.750000 0.418030 0.400376
O O3 0.544744 0.500000 0.374037
O O4 0.488606 0.399107 0.312271
O O5 0.750000 0.726478 0.099394
O O6 0.989317 0.678064 0.177660
O O7 0.989012 0.789043 0.134135
O O8 0.000000 0.710038 0.000000
O O9 0.750000 0.231070 0.582765
O O10 0.982670 0.290880 0.639961
O O11 0.970197 0.181473 0.682018
O O12 0.000000 0.211907 0.500000
O O13 0.750000 0.663400 0.736333
O O14 0.250000 0.921869 0.900907
O O15 0.992359 0.896548 0.813715
O O16 0.035797 0.000000 0.870994
O O17 0.000000 0.917405 0.000000
O O18 0.750000 0.170702 0.812603
#
# Coordination Sequence:
#
# PCOD8210864 Si02
#       6
#     8   8   8   8   8   8
#     4  10  20  33  50  74 103 135 170 207 249 296
#     4  11  21  34  52  74 101 132 165 202 246 293
#     4   9  19  32  48  71  98 127 159 198 241 288
#     4  10  20  34  51  74 102 131 166 205 248 297
#     4  10  20  33  50  73  99 128 162 200 244 293
#     4  10  20  34  50  72 101 131 164 201 244 291
#
# _framework density 17.041188999999999
#
# number of rings (size 3 to 8) (size 9 to 14) (size 15 to 20)
#    0.000    2.000    0.000    5.500    0.000    7.333 
#    0.000    0.000    0.000    1.000    0.000    0.000 
#    0.000    0.000    0.000    0.000    0.000    0.000 
#
# Total GULP energy -595355.606537 kJ/mol
# GULP energy per Si atom -12403.241803 kJ/mol
# Density = 1.700240 g / cm^3
# Si number density = 17.041189 Si / 1000 Ang^3
#
#
#
# Elastic Constant Matrix: (Units=GPa)
#
#
# Indices 1 2 3 4 5 6 
#
# 1 114.3524 50.0764 62.4199 0.0000 0.0000 0.0000
# 2 50.0764 91.8838 62.6605 0.0000 0.0000 0.0000
# 3 62.4199 62.6605 132.8865 0.0000 0.0000 0.0000
# 4 0.0000 0.0000 0.0000 47.0262 0.0000 0.0000
# 5 0.0000 0.0000 0.0000 0.0000 33.7698 0.0000
# 6 0.0000 0.0000 0.0000 0.0000 0.0000 30.1105
#
#
#
# Elastic Compliance Matrix: (Units=1/GPa)
#
#
# Indices 1 2 3 4 5 6 
#
# 1 0.012788 -0.004235 -0.004010 0.000000 0.000000 0.000000
# 2 -0.004235 0.017444 -0.006236 0.000000 0.000000 0.000000
# 3 -0.004010 -0.006236 0.012349 0.000000 0.000000 0.000000
# 4 0.000000 0.000000 0.000000 0.021265 0.000000 0.000000
# 5 0.000000 0.000000 0.000000 0.000000 0.029612 0.000000
# 6 0.000000 0.000000 0.000000 0.000000 0.000000 0.033211
#
#
# Mechanical properties :
#
#
# Convention : Reuss Voigt Hill
#
# Bulk Modulus (GPa) = 73.42449 76.60403 75.01426
# Shear Modulus (GPa) = 31.21637 33.11236 32.16436
#
# Velocity S-wave (km/s) = 4.28462 4.41282 4.34919
# Velocity P-wave (km/s) = 8.22541 8.42697 8.32680
#
# Compressibility (1/GPa) = 0.01361943
#
# Stress axis : x y z
#
# Youngs Moduli (GPa) = 78.19621 57.32568 80.97515
#
# Poissons Ratio (x) = 0.24277 0.32472
# Poissons Ratio (y) = 0.33115 0.50498
# Poissons Ratio (z) = 0.31357 0.35750
#
# Static dielectric constant tensor:
#      x y z
#    x 3.239710 0.000000 0.000000 
#    y 0.000000 3.133400 0.000000 
#    z 0.000000 0.000000 3.220280 
# 
# 
# High freq. dielectric constant tensor:
#      x y z
#    x 1.675430 0.000000 0.000000 
#    y 0.000000 1.646670 0.000000 
#    z 0.000000 0.000000 1.649050 
# 
# From -- ./inp_files/14428.got.cif
#   From: 2010.03.12/outbox.cif.g09.slc.cpg/sg51_8_cif.got.tgz:14428.got - 2010.04.16 13:43:02.
