data_PCOD8210330
_publ_section_title
;
Structure prediction by ZEFSAII (Michael W. Deem and Ramdas Pophale) SiO2 
 PCOD8210330
Probable space group: P M M A
;
_chemical_formula_sum "Si O2"
_cell_formula_units_Z 64
_cell_length_a 18.809407
_cell_length_b 9.235720
_cell_length_c 20.919040
_cell_angle_alpha 90.000000
_cell_angle_beta 90.000000
_cell_angle_gamma 90.000000
_cell_volume 3634.022502
_symmetry_space_group_name_H-M "P M M A"
_symmetry_group_IT_number 51
_symmetry_cell_setting 'orthorhombic'
loop_
_space_group_symop_operation_xyz
x,y,z
1/2-x,-y,z
1/2+x,-y,-z
-x,y,-z
-x,-y,-z
1/2+x,y,-z
1/2-x,y,z
x,-y,z
loop_
_atom_site_type_symbol
_atom_site_label
_atom_site_fract_x
_atom_site_fract_y
_atom_site_fract_z
Si Si1 0.334579 0.336112 0.506231
Si Si2 0.566279 0.834328 0.871311
Si Si3 0.076911 0.334188 0.877463
Si Si4 0.581758 0.330570 0.264766
Si Si5 0.934110 0.833365 0.731572
Si Si6 0.834414 0.165423 0.370471
Si Si7 0.168159 0.831230 0.381758
Si Si8 0.914746 0.839219 0.005689
O O1 0.250000 0.335266 0.507600
O O2 0.364151 0.500000 0.508982
O O3 0.364141 0.246074 0.566510
O O4 0.361591 0.259254 0.441710
O O5 0.501861 0.724639 0.871721
O O6 0.603341 0.816430 0.801886
O O7 0.615504 0.799603 0.933996
O O8 0.537958 0.000000 0.879225
O O9 0.073664 0.500000 0.895940
O O10 0.111787 0.309054 0.807682
O O11 0.117543 0.258410 0.937132
O O12 0.578518 0.500000 0.282291
O O13 0.503556 0.265008 0.274706
O O14 0.637386 0.248342 0.308820
O O15 0.876379 0.783175 0.680014
O O16 0.956825 0.000000 0.720389
O O17 0.750000 0.171000 0.368430
O O18 0.861760 0.000000 0.371278
O O19 0.250000 0.793541 0.367492
O O20 0.158924 0.000000 0.397875
O O21 0.891864 0.000000 0.024519
O O22 0.000000 0.822007 0.000000
#
# Coordination Sequence:
#
# PCOD8210330 Si02
#       8
#     8   8   8   8   8   8   8   8
#     4   9  17  30  49  71  94 120 149 184 226 268
#     4   8  14  24  37  55  81 114 150 184 223 268
#     4   9  16  24  36  57  84 113 145 181 222 265
#     4  10  20  32  46  67  96 125 152 186 229 275
#     4   9  17  30  47  66  93 127 157 188 229 275
#     4  10  20  34  53  74  93 116 149 187 225 269
#     4   9  17  30  49  72  95 120 153 191 228 268
#     4   8  13  21  34  53  78 110 147 184 222 264
#
# _framework density 17.611339000000001
#
# number of rings (size 3 to 8) (size 9 to 14) (size 15 to 20)
#    0.000    3.000    0.000    2.250    0.000    6.500 
#    0.000    0.625    0.000    3.750    0.000    0.875 
#    0.000    3.000    0.000    0.000    0.000    0.250 
#
# Total GULP energy -792913.003191 kJ/mol
# GULP energy per Si atom -12389.265675 kJ/mol
# Density = 1.757125 g / cm^3
# Si number density = 17.611339 Si / 1000 Ang^3
#
#
#
# Elastic Constant Matrix: (Units=GPa)
#
#
# Indices 1 2 3 4 5 6 
#
# 1 17.8690 19.9711 25.7560 0.0000 0.0000 0.0000
# 2 19.9711 115.6210 84.2088 0.0000 0.0000 0.0000
# 3 25.7560 84.2088 174.0801 0.0000 0.0000 0.0000
# 4 0.0000 0.0000 0.0000 30.3713 0.0000 0.0000
# 5 0.0000 0.0000 0.0000 0.0000 5.9544 0.0000
# 6 0.0000 0.0000 0.0000 0.0000 0.0000 14.1174
#
#
#
# Elastic Compliance Matrix: (Units=1/GPa)
#
#
# Indices 1 2 3 4 5 6 
#
# 1 0.075161 -0.007540 -0.007473 0.000000 0.000000 0.000000
# 2 -0.007540 0.014110 -0.005710 0.000000 0.000000 0.000000
# 3 -0.007473 -0.005710 0.009612 0.000000 0.000000 0.000000
# 4 0.000000 0.000000 0.000000 0.032926 0.000000 0.000000
# 5 0.000000 0.000000 0.000000 0.000000 0.167942 0.000000
# 6 0.000000 0.000000 0.000000 0.000000 0.000000 0.070835
#
#
# Mechanical properties :
#
#
# Convention : Reuss Voigt Hill
#
# Bulk Modulus (GPa) = 17.41010 63.04910 40.22960
# Shear Modulus (GPa) = 11.59613 21.93089 16.76351
#
# Velocity S-wave (km/s) = 2.56881 3.53267 3.08857
# Velocity P-wave (km/s) = 4.32499 7.24691 5.96755
#
# Compressibility (1/GPa) = 0.05743793
#
# Stress axis : x y z
#
# Youngs Moduli (GPa) = 13.30469 70.87220 104.03326
#
# Poissons Ratio (x) = 0.53435 0.77748
# Poissons Ratio (y) = 0.10031 0.59403
# Poissons Ratio (z) = 0.09943 0.40468
#
# Static dielectric constant tensor:
#      x y z
#    x 2.621540 0.000000 0.000000 
#    y 0.000000 3.403900 0.000000 
#    z 0.000000 0.000000 3.977130 
# 
# 
# High freq. dielectric constant tensor:
#      x y z
#    x 1.602110 0.000000 0.000000 
#    y 0.000000 1.688810 0.000000 
#    z 0.000000 0.000000 1.710940 
# 
# From -- ./inp_files/34229.got.cif
#   From: 2010.03.12/outbox.cif.g09.slc.cpg/sg51_18_cif.got.tgz:34229.got - 2010.04.16 13:43:02.
