data_PCOD8210273
_publ_section_title
;
Structure prediction by ZEFSAII (Michael W. Deem and Ramdas Pophale) SiO2 
 PCOD8210273
Probable space group: P M M A
;
_chemical_formula_sum "Si O2"
_cell_formula_units_Z 64
_cell_length_a 8.975827
_cell_length_b 14.220010
_cell_length_c 31.180672
_cell_angle_alpha 90.000000
_cell_angle_beta 90.000000
_cell_angle_gamma 90.000000
_cell_volume 3979.787155
_symmetry_space_group_name_H-M "P M M A"
_symmetry_group_IT_number 51
_symmetry_cell_setting 'orthorhombic'
loop_
_space_group_symop_operation_xyz
x,y,z
1/2-x,-y,z
1/2+x,-y,-z
-x,y,-z
-x,-y,-z
1/2+x,y,-z
1/2-x,y,z
x,-y,z
loop_
_atom_site_type_symbol
_atom_site_label
_atom_site_fract_x
_atom_site_fract_y
_atom_site_fract_z
Si Si1 0.418217 0.387831 0.957613
Si Si2 0.417687 0.388253 0.126579
Si Si3 0.072935 0.605693 0.374511
Si Si4 0.577308 0.106456 0.321554
Si Si5 0.074042 0.719455 0.456723
Si Si6 0.921701 0.106739 0.420800
Si Si7 0.926347 0.715647 0.709186
Si Si8 0.075259 0.609340 0.787000
O O1 0.250000 0.349393 0.957300
O O2 0.419058 0.500000 0.957261
O O3 0.502985 0.347816 0.915905
O O4 0.500000 0.349426 0.000000
O O5 0.250000 0.348290 0.129043
O O6 0.415517 0.500000 0.124306
O O7 0.509251 0.354704 0.167992
O O8 0.250000 0.604644 0.374503
O O9 0.008643 0.500000 0.373136
O O10 0.014125 0.656255 0.417419
O O11 0.014337 0.661493 0.333023
O O12 0.750000 0.130579 0.314310
O O13 0.534435 0.118539 0.371208
O O14 0.476706 0.175988 0.293353
O O15 0.543179 0.000000 0.306674
O O16 0.250000 0.713985 0.461391
O O17 0.000000 0.679870 0.500000
O O18 0.025930 0.827146 0.449331
O O19 0.750000 0.134613 0.428100
O O20 0.950499 0.000000 0.435565
O O21 0.750000 0.709681 0.713560
O O22 0.999030 0.668411 0.750054
O O23 0.250000 0.628347 0.787248
O O24 0.037980 0.500000 0.779492
#
# Coordination Sequence:
#
# PCOD8210273 Si02
#       8
#     8   8   8   8   8   8   8   8
#     4   9  15  22  33  50  73 104 145 193 241 286
#     4   9  16  26  39  55  78 110 149 194 241 284
#     4   9  19  35  52  70  93 119 148 183 222 261
#     4   9  18  33  53  75  99 123 145 176 219 265
#     4  11  22  36  53  73  95 121 150 182 219 262
#     4   9  18  34  55  76  98 122 145 174 214 259
#     4  11  20  32  52  75  96 120 150 186 226 270
#     4  10  20  32  45  64  91 123 158 195 235 279
#
# _framework density 16.081263
#
# number of rings (size 3 to 8) (size 9 to 14) (size 15 to 20)
#    0.000    2.375    1.250    3.000    0.000    5.250 
#    0.000    1.250    0.000    3.375    0.000    0.000 
#    0.000    0.000    0.000    0.000    0.000    0.625 
#
# Total GULP energy -793663.264207 kJ/mol
# GULP energy per Si atom -12400.988503 kJ/mol
# Density = 1.604466 g / cm^3
# Si number density = 16.081263 Si / 1000 Ang^3
#
#
#
# Elastic Constant Matrix: (Units=GPa)
#
#
# Indices 1 2 3 4 5 6 
#
# 1 85.2480 29.8992 55.0723 0.0000 0.0000 0.0000
# 2 29.8992 66.4344 43.5482 0.0000 0.0000 0.0000
# 3 55.0723 43.5482 137.0069 0.0000 0.0000 0.0000
# 4 0.0000 0.0000 0.0000 6.8443 0.0000 0.0000
# 5 0.0000 0.0000 0.0000 0.0000 30.5422 0.0000
# 6 0.0000 0.0000 0.0000 0.0000 0.0000 18.9726
#
#
#
# Elastic Compliance Matrix: (Units=1/GPa)
#
#
# Indices 1 2 3 4 5 6 
#
# 1 0.016614 -0.003915 -0.005434 0.000000 0.000000 0.000000
# 2 -0.003915 0.019937 -0.004763 0.000000 0.000000 0.000000
# 3 -0.005434 -0.004763 0.010997 0.000000 0.000000 0.000000
# 4 0.000000 0.000000 0.000000 0.146106 0.000000 0.000000
# 5 0.000000 0.000000 0.000000 0.000000 0.032742 0.000000
# 6 0.000000 0.000000 0.000000 0.000000 0.000000 0.052708
#
#
# Mechanical properties :
#
#
# Convention : Reuss Voigt Hill
#
# Bulk Modulus (GPa) = 51.75075 60.63651 56.19363
# Shear Modulus (GPa) = 15.93527 21.94978 18.94252
#
# Velocity S-wave (km/s) = 3.15131 3.69850 3.43581
# Velocity P-wave (km/s) = 6.74475 7.48510 7.12455
#
# Compressibility (1/GPa) = 0.01932339
#
# Stress axis : x y z
#
# Youngs Moduli (GPa) = 60.18981 50.15830 90.93293
#
# Poissons Ratio (x) = 0.19639 0.49411
# Poissons Ratio (y) = 0.23567 0.43313
# Poissons Ratio (z) = 0.32706 0.23891
#
# Static dielectric constant tensor:
#      x y z
#    x 3.040830 0.000000 0.000000 
#    y 0.000000 2.802860 0.000000 
#    z 0.000000 0.000000 3.100120 
# 
# 
# High freq. dielectric constant tensor:
#      x y z
#    x 1.622410 0.000000 0.000000 
#    y 0.000000 1.575380 0.000000 
#    z 0.000000 0.000000 1.615710 
# 
# From -- ./inp_files/37518.got.cif
#   From: 2010.03.12/outbox.cif.g09.slc.cpg/sg51_19_cif.got.tgz:37518.got - 2010.04.16 13:43:02.
