data_PCOD8210419
_publ_section_title
;
Structure prediction by ZEFSAII (Michael W. Deem and Ramdas Pophale) SiO2 
 PCOD8210419
Probable space group: P M M A
;
_chemical_formula_sum "Si O2"
_cell_formula_units_Z 44
_cell_length_a 9.158398
_cell_length_b 20.814054
_cell_length_c 13.545825
_cell_angle_alpha 90.000000
_cell_angle_beta 90.000000
_cell_angle_gamma 90.000000
_cell_volume 2582.151089
_symmetry_space_group_name_H-M "P M M A"
_symmetry_group_IT_number 51
_symmetry_cell_setting 'orthorhombic'
loop_
_space_group_symop_operation_xyz
x,y,z
1/2-x,-y,z
1/2+x,-y,-z
-x,y,-z
-x,-y,-z
1/2+x,y,-z
1/2-x,y,z
x,-y,z
loop_
_atom_site_type_symbol
_atom_site_label
_atom_site_fract_x
_atom_site_fract_y
_atom_site_fract_z
Si Si1 0.579842 0.311297 0.900166
Si Si2 0.579899 0.818237 0.795137
Si Si3 0.082067 0.748978 0.402609
Si Si4 0.919722 0.073429 0.100924
Si Si5 0.579092 0.381423 0.701417
Si Si6 0.575405 0.500000 0.393323
O O1 0.750000 0.310024 0.922370
O O2 0.529333 0.240487 0.865297
O O3 0.545416 0.363362 0.815099
O O4 0.500000 0.332153 0.000000
O O5 0.750000 0.833225 0.811931
O O6 0.547967 0.800259 0.682292
O O7 0.484534 0.881207 0.814822
O O8 0.250000 0.748513 0.429406
O O9 0.035478 0.678199 0.367667
O O10 0.000000 0.770911 0.500000
O O11 0.750000 0.087604 0.086002
O O12 0.948523 0.000000 0.132469
O O13 0.000000 0.090652 0.000000
O O14 0.750000 0.399425 0.688746
O O15 0.474909 0.438864 0.669439
O O16 0.750000 0.500000 0.406065
O O17 0.500000 0.500000 0.500000
#
# Coordination Sequence:
#
# PCOD8210419 Si02
#       6
#     8   8   8   8   8   4
#     4   9  18  32  51  74 101 130 161 199 240 284
#     4   9  18  32  49  72 100 129 161 198 241 287
#     4   9  18  32  51  74  99 126 159 199 243 289
#     4  10  20  32  47  70  99 130 163 198 237 283
#     4   9  19  36  53  72 100 131 161 197 241 286
#     4  12  24  36  53  76  99 126 161 200 242 290
#
# _framework density 17.040057000000001
#
# number of rings (size 3 to 8) (size 9 to 14) (size 15 to 20)
#    0.000    2.545    0.000    4.636    0.000    6.909 
#    0.000    4.091    0.000    0.545    0.000    0.000 
#    0.000    0.000    0.000    0.000    0.000    0.000 
#
# Total GULP energy -545604.538101 kJ/mol
# GULP energy per Si atom -12400.103139 kJ/mol
# Density = 1.700127 g / cm^3
# Si number density = 17.040057 Si / 1000 Ang^3
#
#
#
# Elastic Constant Matrix: (Units=GPa)
#
#
# Indices 1 2 3 4 5 6 
#
# 1 84.5062 57.2714 53.5278 0.0000 0.0000 0.0000
# 2 57.2714 97.6606 44.8780 0.0000 0.0000 0.0000
# 3 53.5278 44.8780 107.1087 0.0000 0.0000 0.0000
# 4 0.0000 0.0000 0.0000 46.9614 0.0000 0.0000
# 5 0.0000 0.0000 0.0000 0.0000 36.3726 0.0000
# 6 0.0000 0.0000 0.0000 0.0000 0.0000 29.7469
#
#
#
# Elastic Compliance Matrix: (Units=1/GPa)
#
#
# Indices 1 2 3 4 5 6 
#
# 1 0.023607 -0.010431 -0.007427 0.000000 0.000000 0.000000
# 2 -0.010431 0.017290 -0.002032 0.000000 0.000000 0.000000
# 3 -0.007427 -0.002032 0.013899 0.000000 0.000000 0.000000
# 4 0.000000 0.000000 0.000000 0.021294 0.000000 0.000000
# 5 0.000000 0.000000 0.000000 0.000000 0.027493 0.000000
# 6 0.000000 0.000000 0.000000 0.000000 0.000000 0.033617
#
#
# Mechanical properties :
#
#
# Convention : Reuss Voigt Hill
#
# Bulk Modulus (GPa) = 66.59077 66.73666 66.66371
# Shear Modulus (GPa) = 27.47453 31.52273 29.49863
#
# Velocity S-wave (km/s) = 4.01976 4.30574 4.16520
# Velocity P-wave (km/s) = 7.79156 7.99805 7.89548
#
# Compressibility (1/GPa) = 0.01501710
#
# Stress axis : x y z
#
# Youngs Moduli (GPa) = 42.35963 57.83611 71.94595
#
# Poissons Ratio (x) = 0.60329 0.53436
# Poissons Ratio (y) = 0.44186 0.14616
# Poissons Ratio (z) = 0.31462 0.11750
#
# Static dielectric constant tensor:
#      x y z
#    x 3.161160 0.000000 0.000000 
#    y 0.000000 3.102380 0.000000 
#    z 0.000000 0.000000 3.229150 
# 
# 
# High freq. dielectric constant tensor:
#      x y z
#    x 1.657020 0.000000 0.000000 
#    y 0.000000 1.647910 0.000000 
#    z 0.000000 0.000000 1.655760 
# 
# From -- ./inp_files/20943.got.cif
#   From: 2010.03.12/outbox.cif.g09.slc.cpg/sg51_11_cif.got.tgz:20943.got - 2010.04.16 13:43:02.
