data_PCOD8210857
_publ_section_title
;
Structure prediction by ZEFSAII (Michael W. Deem and Ramdas Pophale) SiO2 
 PCOD8210857
Probable space group: P M M A
;
_chemical_formula_sum "Si O2"
_cell_formula_units_Z 40
_cell_length_a 9.015616
_cell_length_b 9.052457
_cell_length_c 26.018736
_cell_angle_alpha 90.000000
_cell_angle_beta 90.000000
_cell_angle_gamma 90.000000
_cell_volume 2123.479490
_symmetry_space_group_name_H-M "P M M A"
_symmetry_group_IT_number 51
_symmetry_cell_setting 'orthorhombic'
loop_
_space_group_symop_operation_xyz
x,y,z
1/2-x,-y,z
1/2+x,-y,-z
-x,y,-z
-x,-y,-z
1/2+x,y,-z
1/2-x,y,z
x,-y,z
loop_
_atom_site_type_symbol
_atom_site_label
_atom_site_fract_x
_atom_site_fract_y
_atom_site_fract_z
Si Si1 0.082448 0.176180 0.651585
Si Si2 0.076959 0.671287 0.052478
Si Si3 0.581568 0.175399 0.145881
Si Si4 0.417498 0.175984 0.247445
Si Si5 0.082525 0.823851 0.449490
O O1 0.250000 0.236693 0.652376
O O2 0.996821 0.237480 0.701467
O O3 0.001286 0.236998 0.600783
O O4 0.081984 0.000000 0.651689
O O5 0.250000 0.705437 0.047775
O O6 0.044856 0.500000 0.063332
O O7 0.010190 0.765349 0.098242
O O8 0.000000 0.723022 0.000000
O O9 0.750000 0.234016 0.143655
O O10 0.506641 0.235119 0.198073
O O11 0.577095 0.000000 0.144328
O O12 0.250000 0.237424 0.245385
O O13 0.416975 0.000000 0.248209
O O14 0.250000 0.763272 0.449242
O O15 0.000000 0.762835 0.500000
O O16 0.081882 0.000000 0.449515
#
# Coordination Sequence:
#
# PCOD8210857 Si02
#       5
#     8   8   8   8   8
#     4   9  15  22  32  46  66  94 129 170 216 265
#     4  10  21  37  56  76  98 126 159 193 231 277
#     4  10  20  33  50  73  99 126 157 194 235 278
#     4   9  16  26  40  58  81 109 141 179 223 269
#     4   9  15  21  28  39  57  84 122 168 215 261
#
# _framework density 18.837007
#
# number of rings (size 3 to 8) (size 9 to 14) (size 15 to 20)
#    0.000    2.600    0.000    3.000    0.000   10.000 
#    0.000    0.000    0.000    0.000    0.000    0.000 
#    0.000    0.000    0.000    0.000    0.000    1.000 
#
# Total GULP energy -496025.434362 kJ/mol
# GULP energy per Si atom -12400.635859 kJ/mol
# Density = 1.879413 g / cm^3
# Si number density = 18.837007 Si / 1000 Ang^3
#
#
#
# Elastic Constant Matrix: (Units=GPa)
#
#
# Indices 1 2 3 4 5 6 
#
# 1 170.2907 12.8551 89.9817 0.0000 0.0000 0.0000
# 2 12.8551 5.3509 13.8140 0.0000 0.0000 0.0000
# 3 89.9817 13.8140 185.9115 0.0000 0.0000 0.0000
# 4 0.0000 0.0000 0.0000 -4.4519 0.0000 0.0000
# 5 0.0000 0.0000 0.0000 0.0000 47.1502 0.0000
# 6 0.0000 0.0000 0.0000 0.0000 0.0000 11.8249
#
#
#
# Elastic Compliance Matrix: (Units=1/GPa)
#
#
# Indices 1 2 3 4 5 6 
#
# 1 0.008479 -0.012096 -0.003205 0.000000 0.000000 0.000000
# 2 -0.012096 0.248501 -0.012610 0.000000 0.000000 0.000000
# 3 -0.003205 -0.012610 0.007867 0.000000 0.000000 0.000000
# 4 0.000000 0.000000 0.000000 -0.224624 0.000000 0.000000
# 5 0.000000 0.000000 0.000000 0.000000 0.021209 0.000000
# 6 0.000000 0.000000 0.000000 0.000000 0.000000 0.084567
#
#
# Mechanical properties :
#
#
# Convention : Reuss Voigt Hill
#
# Bulk Modulus (GPa) = 4.78413 66.09496 35.43954
# Shear Modulus (GPa) = 18.41651 27.23146 22.82399
#
# Velocity S-wave (km/s) = 3.13017 3.80628 3.48466
# Velocity P-wave (km/s) = 3.95085 7.38112 5.91989
#
# Compressibility (1/GPa) = 0.20902463
#
# Stress axis : x y z
#
# Youngs Moduli (GPa) = 117.93869 4.02413 127.11061
#
# Poissons Ratio (x) = 0.04868 0.40740
# Poissons Ratio (y) = 1.42657 1.60289
# Poissons Ratio (z) = 0.37800 0.05075
#
# Static dielectric constant tensor:
#      x y z
#    x 3.793120 0.000000 0.000000 
#    y 0.000000 2.688280 0.000000 
#    z 0.000000 0.000000 3.688070 
# 
# 
# High freq. dielectric constant tensor:
#      x y z
#    x 1.755170 0.000000 0.000000 
#    y 0.000000 1.647450 0.000000 
#    z 0.000000 0.000000 1.752690 
# 
# From -- ./inp_files/31358.got.cif
#   From: 2010.03.12/outbox.cif.g09.slc.cpg/sg51_16_cif.got.tgz:31358.got - 2010.04.16 13:43:02.
