data_PCOD8210688
_publ_section_title
;
Structure prediction by ZEFSAII (Michael W. Deem and Ramdas Pophale) SiO2 
 PCOD8210688
Probable space group: P M M A
;
_chemical_formula_sum "Si O2"
_cell_formula_units_Z 64
_cell_length_a 23.377755
_cell_length_b 8.955145
_cell_length_c 17.239459
_cell_angle_alpha 90.000000
_cell_angle_beta 90.000000
_cell_angle_gamma 90.000000
_cell_volume 3609.101184
_symmetry_space_group_name_H-M "P M M A"
_symmetry_group_IT_number 51
_symmetry_cell_setting 'orthorhombic'
loop_
_space_group_symop_operation_xyz
x,y,z
1/2-x,-y,z
1/2+x,-y,-z
-x,y,-z
-x,-y,-z
1/2+x,y,-z
1/2-x,y,z
x,-y,z
loop_
_atom_site_type_symbol
_atom_site_label
_atom_site_fract_x
_atom_site_fract_y
_atom_site_fract_z
Si Si1 0.184822 0.826985 0.786942
Si Si2 0.995112 0.674994 0.414337
Si Si3 0.568995 0.674025 0.727470
Si Si4 0.887364 0.323741 0.083607
Si Si5 0.313302 0.670880 0.206240
Si Si6 0.815042 0.825612 0.954664
Si Si7 0.907506 0.836458 0.323316
Si Si8 0.482601 0.167622 0.829993
O O1 0.250000 0.781956 0.778929
O O2 0.157398 0.719186 0.850027
O O3 0.157633 0.800246 0.701158
O O4 0.176288 0.000000 0.812878
O O5 0.001811 0.500000 0.421459
O O6 0.043194 0.738125 0.354027
O O7 0.000000 0.747702 0.500000
O O8 0.932126 0.714714 0.382426
O O9 0.553899 0.500000 0.732518
O O10 0.637341 0.704215 0.729904
O O11 0.540688 0.750527 0.803058
O O12 0.894705 0.500000 0.079569
O O13 0.862042 0.264737 0.002901
O O14 0.950182 0.253108 0.100013
O O15 0.250000 0.697280 0.243357
O O16 0.318869 0.500000 0.177034
O O17 0.322213 0.780312 0.134455
O O18 0.750000 0.789361 0.982716
O O19 0.827831 0.000000 0.963651
O O20 0.940414 0.834029 0.242293
O O21 0.912950 0.000000 0.362284
O O22 0.497710 0.000000 0.857413
#
# Coordination Sequence:
#
# PCOD8210688 Si02
#       8
#     8   8   8   8   8   8   8   8
#     4   9  17  29  44  63  90 125 162 196 231 274
#     4   9  17  29  47  71  97 123 149 181 225 275
#     4   9  17  31  51  73  96 122 154 192 234 282
#     4  11  20  29  44  67  95 125 160 202 242 280
#     4   9  18  33  52  72  93 119 154 196 240 285
#     4  10  20  33  48  66  91 124 161 202 246 287
#     4   8  15  27  43  64  89 118 152 188 224 264
#     4   9  17  30  47  67  93 124 157 193 236 283
#
# _framework density 17.732946999999999
#
# number of rings (size 3 to 8) (size 9 to 14) (size 15 to 20)
#    0.000    2.750    0.000    3.000    0.000    6.250 
#    0.000    0.625    0.000    4.500    0.000    1.750 
#    0.000    0.000    0.000    0.000    0.000    0.000 
#
# Total GULP energy -793200.352409 kJ/mol
# GULP energy per Si atom -12393.755506 kJ/mol
# Density = 1.769259 g / cm^3
# Si number density = 17.732947 Si / 1000 Ang^3
#
#
#
# Elastic Constant Matrix: (Units=GPa)
#
#
# Indices 1 2 3 4 5 6 
#
# 1 101.8778 28.4515 37.0033 0.0000 0.0000 0.0000
# 2 28.4515 67.6848 25.0648 0.0000 0.0000 0.0000
# 3 37.0033 25.0648 63.7116 0.0000 0.0000 0.0000
# 4 0.0000 0.0000 0.0000 16.3119 0.0000 0.0000
# 5 0.0000 0.0000 0.0000 0.0000 19.3530 0.0000
# 6 0.0000 0.0000 0.0000 0.0000 0.0000 23.7876
#
#
#
# Elastic Compliance Matrix: (Units=1/GPa)
#
#
# Indices 1 2 3 4 5 6 
#
# 1 0.012979 -0.003119 -0.006311 0.000000 0.000000 0.000000
# 2 -0.003119 0.018043 -0.005287 0.000000 0.000000 0.000000
# 3 -0.006311 -0.005287 0.021441 0.000000 0.000000 0.000000
# 4 0.000000 0.000000 0.000000 0.061305 0.000000 0.000000
# 5 0.000000 0.000000 0.000000 0.000000 0.051672 0.000000
# 6 0.000000 0.000000 0.000000 0.000000 0.000000 0.042039
#
#
# Mechanical properties :
#
#
# Convention : Reuss Voigt Hill
#
# Bulk Modulus (GPa) = 43.42248 46.03483 44.72866
# Shear Modulus (GPa) = 20.44248 21.40749 20.92498
#
# Velocity S-wave (km/s) = 3.39897 3.47827 3.43885
# Velocity P-wave (km/s) = 6.32013 6.49212 6.40670
#
# Compressibility (1/GPa) = 0.02302954
#
# Stress axis : x y z
#
# Youngs Moduli (GPa) = 77.04804 55.42267 46.63906
#
# Poissons Ratio (x) = 0.17284 0.29435
# Poissons Ratio (y) = 0.24028 0.24659
# Poissons Ratio (z) = 0.48627 0.29303
#
# Static dielectric constant tensor:
#      x y z
#    x 3.538330 0.000000 0.000000 
#    y 0.000000 3.279060 0.000000 
#    z 0.000000 0.000000 3.153170 
# 
# 
# High freq. dielectric constant tensor:
#      x y z
#    x 1.685140 0.000000 0.000000 
#    y 0.000000 1.683870 0.000000 
#    z 0.000000 0.000000 1.648310 
# 
# From -- ./inp_files/30933.got.cif
#   From: 2010.03.12/outbox.cif.g09.slc.cpg/sg51_16_cif.got.tgz:30933.got - 2010.04.16 13:43:02.
