data_PCOD8210075
_publ_section_title
;
Structure prediction by ZEFSAII (Michael W. Deem and Ramdas Pophale) SiO2 
 PCOD8210075
Probable space group: P M M A
;
_chemical_formula_sum "Si O2"
_cell_formula_units_Z 48
_cell_length_a 18.128679
_cell_length_b 8.697179
_cell_length_c 16.000135
_cell_angle_alpha 90.000000
_cell_angle_beta 90.000000
_cell_angle_gamma 90.000000
_cell_volume 2522.715146
_symmetry_space_group_name_H-M "P M M A"
_symmetry_group_IT_number 51
_symmetry_cell_setting 'orthorhombic'
loop_
_space_group_symop_operation_xyz
x,y,z
1/2-x,-y,z
1/2+x,-y,-z
-x,y,-z
-x,-y,-z
1/2+x,y,-z
1/2-x,y,z
x,-y,z
loop_
_atom_site_type_symbol
_atom_site_label
_atom_site_fract_x
_atom_site_fract_y
_atom_site_fract_z
Si Si1 0.527688 0.819150 0.137310
Si Si2 0.538592 0.680531 0.317905
Si Si3 0.605369 0.818766 0.975900
Si Si4 0.750000 0.815897 0.894661
Si Si5 0.334875 0.181829 0.575714
Si Si6 0.608669 0.181824 0.605620
Si Si7 0.750000 0.817001 0.706456
O O1 0.534781 0.723093 0.220999
O O2 0.457329 0.756814 0.086219
O O3 0.522978 0.000000 0.159557
O O4 0.595277 0.781265 0.074212
O O5 0.537466 0.500000 0.328975
O O6 0.616268 0.744083 0.351620
O O7 0.469067 0.746956 0.368183
O O8 0.681183 0.746301 0.944390
O O9 0.603895 0.000000 0.964601
O O10 0.750000 0.754342 0.800412
O O11 0.750000 0.000000 0.894612
O O12 0.250000 0.240751 0.580719
O O13 0.371666 0.230968 0.488307
O O14 0.336311 0.000000 0.586297
O O15 0.675562 0.245064 0.662890
O O16 0.600989 0.000000 0.614677
O O17 0.750000 0.000000 0.700764
#
# Coordination Sequence:
#
# PCOD8210075 Si02
#       7
#     8   8   8   4   8   8   4
#     4   9  17  34  55  76 104 142 185 231 275 320
#     4  12  25  37  53  82 116 154 193 225 271 337
#     4   8  15  28  51  79 107 136 174 229 288 329
#     4   9  14  22  42  80 113 130 158 213 281 337
#     4  10  21  40  63  85 109 141 187 239 286 329
#     4  10  19  36  61  87 112 141 183 234 284 332
#     4   9  16  28  55  90 117 138 170 227 289 335
#
# _framework density 19.027118000000002
#
# number of rings (size 3 to 8) (size 9 to 14) (size 15 to 20)
#    0.000    2.333    0.833    4.000    0.000    5.667 
#    1.500    2.083    0.000    0.000    0.000    1.167 
#    0.000    0.000    0.000    0.000    0.000    0.000 
#
# Total GULP energy -595000.494405 kJ/mol
# GULP energy per Si atom -12395.843633 kJ/mol
# Density = 1.898381 g / cm^3
# Si number density = 19.027118 Si / 1000 Ang^3
#
#
#
# Elastic Constant Matrix: (Units=GPa)
#
#
# Indices 1 2 3 4 5 6 
#
# 1 134.3937 28.6319 71.9890 0.0000 0.0000 0.0000
# 2 28.6319 27.8592 22.2482 0.0000 0.0000 0.0000
# 3 71.9890 22.2482 114.4866 0.0000 0.0000 0.0000
# 4 0.0000 0.0000 0.0000 5.7009 0.0000 0.0000
# 5 0.0000 0.0000 0.0000 0.0000 32.0872 0.0000
# 6 0.0000 0.0000 0.0000 0.0000 0.0000 4.5899
#
#
#
# Elastic Compliance Matrix: (Units=1/GPa)
#
#
# Indices 1 2 3 4 5 6 
#
# 1 0.012497 -0.007775 -0.006347 0.000000 0.000000 0.000000
# 2 -0.007775 0.047326 -0.004308 0.000000 0.000000 0.000000
# 3 -0.006347 -0.004308 0.013563 0.000000 0.000000 0.000000
# 4 0.000000 0.000000 0.000000 0.175411 0.000000 0.000000
# 5 0.000000 0.000000 0.000000 0.000000 0.031165 0.000000
# 6 0.000000 0.000000 0.000000 0.000000 0.000000 0.217871
#
#
# Mechanical properties :
#
#
# Convention : Reuss Voigt Hill
#
# Bulk Modulus (GPa) = 27.37816 58.05308 42.71562
# Shear Modulus (GPa) = 9.14297 18.73362 13.93830
#
# Velocity S-wave (km/s) = 2.19446 3.14120 2.70950
# Velocity P-wave (km/s) = 4.56521 6.61310 5.68218
#
# Compressibility (1/GPa) = 0.03652546
#
# Stress axis : x y z
#
# Youngs Moduli (GPa) = 80.01775 21.13024 73.72995
#
# Poissons Ratio (x) = 0.16428 0.46799
# Poissons Ratio (y) = 0.62213 0.31762
# Poissons Ratio (z) = 0.50790 0.09103
#
# Static dielectric constant tensor:
#      x y z
#    x 4.023150 0.000000 0.000000 
#    y 0.000000 2.976770 0.000000 
#    z 0.000000 0.000000 3.603990 
# 
# 
# High freq. dielectric constant tensor:
#      x y z
#    x 1.750360 0.000000 0.000000 
#    y 0.000000 1.689330 0.000000 
#    z 0.000000 0.000000 1.750860 
# 
# From -- ./inp_files/24863.got.cif
#   From: 2010.03.12/outbox.cif.g09.slc.cpg/sg51_13_cif.got.tgz:24863.got - 2010.04.16 13:43:02.
