data_PCOD8210168
_publ_section_title
;
Structure prediction by ZEFSAII (Michael W. Deem and Ramdas Pophale) SiO2 
 PCOD8210168
Probable space group: P M M A
;
_chemical_formula_sum "Si O2"
_cell_formula_units_Z 64
_cell_length_a 17.732855
_cell_length_b 9.232984
_cell_length_c 23.168424
_cell_angle_alpha 90.000000
_cell_angle_beta 90.000000
_cell_angle_gamma 90.000000
_cell_volume 3793.300414
_symmetry_space_group_name_H-M "P M M A"
_symmetry_group_IT_number 51
_symmetry_cell_setting 'orthorhombic'
loop_
_space_group_symop_operation_xyz
x,y,z
1/2-x,-y,z
1/2+x,-y,-z
-x,y,-z
-x,-y,-z
1/2+x,y,-z
1/2-x,y,z
x,-y,z
loop_
_atom_site_type_symbol
_atom_site_label
_atom_site_fract_x
_atom_site_fract_y
_atom_site_fract_z
Si Si1 0.958554 0.170969 0.742530
Si Si2 0.572280 0.336998 0.040294
Si Si3 0.459192 0.833937 0.632013
Si Si4 0.115930 0.832915 0.425349
Si Si5 0.977298 0.168825 0.873837
Si Si6 0.334853 0.662641 0.318325
Si Si7 0.336386 0.830910 0.049097
Si Si8 0.165540 0.172953 0.550354
O O1 0.982758 0.210953 0.806867
O O2 0.880008 0.248653 0.729803
O O3 0.019806 0.230018 0.695389
O O4 0.945638 0.000000 0.734563
O O5 0.598040 0.500000 0.055549
O O6 0.547107 0.253782 0.097952
O O7 0.500000 0.337596 0.000000
O O8 0.641304 0.255784 0.008843
O O9 0.527538 0.814481 0.587228
O O10 0.386008 0.760814 0.602117
O O11 0.439762 0.000000 0.642050
O O12 0.163241 0.738865 0.380440
O O13 0.133806 0.772958 0.488976
O O14 0.140918 0.000000 0.418840
O O15 0.894611 0.211586 0.899416
O O16 0.991498 0.000000 0.884337
O O17 0.250000 0.659257 0.295628
O O18 0.367465 0.500000 0.323936
O O19 0.250000 0.791170 0.066803
O O20 0.343189 0.000000 0.034684
O O21 0.250000 0.230888 0.559721
O O22 0.162189 0.000000 0.551250
#
# Coordination Sequence:
#
# PCOD8210168 Si02
#       8
#     8   8   8   8   8   8   8   8
#     4   9  18  31  48  66  85 117 157 190 218 255
#     4   9  17  29  46  68  93 122 153 182 216 261
#     4   8  14  25  40  60  86 113 142 180 223 263
#     4   9  16  27  44  63  82 108 144 182 220 269
#     4   9  17  30  48  69  91 118 155 193 224 260
#     4  10  20  31  42  60  89 120 146 179 225 271
#     4   9  17  29  46  69  96 121 144 179 228 271
#     4   9  15  22  38  65  89 107 134 178 230 277
#
# _framework density 16.871850999999999
#
# number of rings (size 3 to 8) (size 9 to 14) (size 15 to 20)
#    0.000    3.000    0.000    2.250    0.000    5.750 
#    0.000    1.250    0.000    6.750    0.000    3.500 
#    0.000    0.000    0.000    0.000    0.000    0.000 
#
# Total GULP energy -793217.205675 kJ/mol
# GULP energy per Si atom -12394.018839 kJ/mol
# Density = 1.683345 g / cm^3
# Si number density = 16.871851 Si / 1000 Ang^3
#
#
#
# Elastic Constant Matrix: (Units=GPa)
#
#
# Indices 1 2 3 4 5 6 
#
# 1 67.3839 22.2437 51.8155 0.0000 0.0000 0.0000
# 2 22.2437 47.2687 38.6623 0.0000 0.0000 0.0000
# 3 51.8155 38.6623 125.0646 0.0000 0.0000 0.0000
# 4 0.0000 0.0000 0.0000 8.9685 0.0000 0.0000
# 5 0.0000 0.0000 0.0000 0.0000 17.0531 0.0000
# 6 0.0000 0.0000 0.0000 0.0000 0.0000 13.8432
#
#
#
# Elastic Compliance Matrix: (Units=1/GPa)
#
#
# Indices 1 2 3 4 5 6 
#
# 1 0.022312 -0.003933 -0.008028 0.000000 0.000000 0.000000
# 2 -0.003933 0.029009 -0.007338 0.000000 0.000000 0.000000
# 3 -0.008028 -0.007338 0.013591 0.000000 0.000000 0.000000
# 4 0.000000 0.000000 0.000000 0.111501 0.000000 0.000000
# 5 0.000000 0.000000 0.000000 0.000000 0.058640 0.000000
# 6 0.000000 0.000000 0.000000 0.000000 0.000000 0.072238
#
#
# Mechanical properties :
#
#
# Convention : Reuss Voigt Hill
#
# Bulk Modulus (GPa) = 38.00519 51.68449 44.84484
# Shear Modulus (GPa) = 14.09801 16.43933 15.26867
#
# Velocity S-wave (km/s) = 2.89380 3.12487 3.01155
# Velocity P-wave (km/s) = 5.80863 6.61209 6.22334
#
# Compressibility (1/GPa) = 0.02631219
#
# Stress axis : x y z
#
# Youngs Moduli (GPa) = 44.81873 34.47256 73.58051
#
# Poissons Ratio (x) = 0.13559 0.59072
# Poissons Ratio (y) = 0.17628 0.53994
# Poissons Ratio (z) = 0.35982 0.25296
#
# Static dielectric constant tensor:
#      x y z
#    x 3.171730 0.000000 0.000000 
#    y 0.000000 2.996920 0.000000 
#    z 0.000000 0.000000 3.220080 
# 
# 
# High freq. dielectric constant tensor:
#      x y z
#    x 1.636130 0.000000 0.000000 
#    y 0.000000 1.623600 0.000000 
#    z 0.000000 0.000000 1.641890 
# 
# From -- ./inp_files/35918.got.cif
#   From: 2010.03.12/outbox.cif.g09.slc.cpg/sg51_18_cif.got.tgz:35918.got - 2010.04.16 13:43:02.
