data_PCOD8210086
_publ_section_title
;
Structure prediction by ZEFSAII (Michael W. Deem and Ramdas Pophale) SiO2 
 PCOD8210086
Probable space group: P M M A
;
_chemical_formula_sum "Si O2"
_cell_formula_units_Z 48
_cell_length_a 18.851242
_cell_length_b 8.795640
_cell_length_c 15.105098
_cell_angle_alpha 90.000000
_cell_angle_beta 90.000000
_cell_angle_gamma 90.000000
_cell_volume 2504.557240
_symmetry_space_group_name_H-M "P M M A"
_symmetry_group_IT_number 51
_symmetry_cell_setting 'orthorhombic'
loop_
_space_group_symop_operation_xyz
x,y,z
1/2-x,-y,z
1/2+x,-y,-z
-x,y,-z
-x,-y,-z
1/2+x,y,-z
1/2-x,y,z
x,-y,z
loop_
_atom_site_type_symbol
_atom_site_label
_atom_site_fract_x
_atom_site_fract_y
_atom_site_fract_z
Si Si1 0.576980 0.820841 0.031349
Si Si2 0.420099 0.320059 0.781463
Si Si3 0.072001 0.320370 0.279734
Si Si4 0.332262 0.823806 0.629709
Si Si5 0.081862 0.324916 0.476478
Si Si6 0.832495 0.322820 0.881440
O O1 0.599302 0.746293 0.123363
O O2 0.576087 0.000000 0.043252
O O3 0.500000 0.760151 0.000000
O O4 0.636040 0.774689 0.960811
O O5 0.422044 0.500000 0.788745
O O6 0.496033 0.253088 0.750075
O O7 0.360301 0.272451 0.712247
O O8 0.064183 0.500000 0.285324
O O9 0.093604 0.261471 0.376955
O O10 0.131645 0.269373 0.210177
O O11 0.250000 0.786695 0.617621
O O12 0.371219 0.778116 0.539748
O O13 0.346149 0.000000 0.649123
O O14 0.105979 0.500000 0.486535
O O15 0.000000 0.307592 0.500000
O O16 0.750000 0.287134 0.873262
O O17 0.847738 0.500000 0.899459
#
# Coordination Sequence:
#
# PCOD8210086 Si02
#       6
#     8   8   8   8   8   8
#     4  11  23  38  59  89 121 156 197 241 296 357
#     4  11  21  38  65  90 115 152 200 250 294 344
#     4   9  18  34  59  90 119 147 190 247 292 337
#     4  11  25  42  58  85 126 162 195 244 302 357
#     4  10  19  36  62  92 119 151 199 247 292 347
#     4  10  21  38  60  87 119 156 197 243 297 351
#
# _framework density 19.165064999999998
#
# number of rings (size 3 to 8) (size 9 to 14) (size 15 to 20)
#    0.000    1.667    3.333    1.500    0.000    4.000 
#    0.000    2.500    0.000    0.000    0.000    0.000 
#    0.000    0.000    0.000    0.000    0.000    0.000 
#
# Total GULP energy -595406.334097 kJ/mol
# GULP energy per Si atom -12404.298627 kJ/mol
# Density = 1.912144 g / cm^3
# Si number density = 19.165065 Si / 1000 Ang^3
#
#
#
# Elastic Constant Matrix: (Units=GPa)
#
#
# Indices 1 2 3 4 5 6 
#
# 1 100.7958 34.1109 51.3862 0.0000 0.0000 0.0000
# 2 34.1109 53.3999 35.6699 0.0000 0.0000 0.0000
# 3 51.3862 35.6699 170.3430 0.0000 0.0000 0.0000
# 4 0.0000 0.0000 0.0000 19.7622 0.0000 0.0000
# 5 0.0000 0.0000 0.0000 0.0000 32.7380 0.0000
# 6 0.0000 0.0000 0.0000 0.0000 0.0000 24.4073
#
#
#
# Elastic Compliance Matrix: (Units=1/GPa)
#
#
# Indices 1 2 3 4 5 6 
#
# 1 0.013620 -0.006924 -0.002659 0.000000 0.000000 0.000000
# 2 -0.006924 0.025292 -0.003207 0.000000 0.000000 0.000000
# 3 -0.002659 -0.003207 0.007344 0.000000 0.000000 0.000000
# 4 0.000000 0.000000 0.000000 0.050602 0.000000 0.000000
# 5 0.000000 0.000000 0.000000 0.000000 0.030546 0.000000
# 6 0.000000 0.000000 0.000000 0.000000 0.000000 0.040971
#
#
# Mechanical properties :
#
#
# Convention : Reuss Voigt Hill
#
# Bulk Modulus (GPa) = 48.36622 62.98586 55.67604
# Shear Modulus (GPa) = 24.89462 28.93961 26.91711
#
# Velocity S-wave (km/s) = 3.60802 3.89011 3.75172
# Velocity P-wave (km/s) = 6.53058 7.28791 6.91961
#
# Compressibility (1/GPa) = 0.02067559
#
# Stress axis : x y z
#
# Youngs Moduli (GPa) = 73.42327 39.53807 136.16256
#
# Poissons Ratio (x) = 0.27376 0.36201
# Poissons Ratio (y) = 0.50839 0.43673
# Poissons Ratio (z) = 0.19521 0.12682
#
# Static dielectric constant tensor:
#      x y z
#    x 5.376840 0.000000 0.000000 
#    y 0.000000 3.316230 0.000000 
#    z 0.000000 0.000000 3.817930 
# 
# 
# High freq. dielectric constant tensor:
#      x y z
#    x 1.743220 0.000000 0.000000 
#    y 0.000000 1.728620 0.000000 
#    z 0.000000 0.000000 1.763980 
# 
# From -- ./inp_files/24705.got.cif
#   From: 2010.03.12/outbox.cif.g09.slc.cpg/sg51_13_cif.got.tgz:24705.got - 2010.04.16 13:43:02.
