data_PCOD8210441
_publ_section_title
;
Structure prediction by ZEFSAII (Michael W. Deem and Ramdas Pophale) SiO2 
 PCOD8210441
Probable space group: P M M A
;
_chemical_formula_sum "Si O2"
_cell_formula_units_Z 64
_cell_length_a 14.233869
_cell_length_b 9.132783
_cell_length_c 26.773164
_cell_angle_alpha 90.000000
_cell_angle_beta 90.000000
_cell_angle_gamma 90.000000
_cell_volume 3480.373086
_symmetry_space_group_name_H-M "P M M A"
_symmetry_group_IT_number 51
_symmetry_cell_setting 'orthorhombic'
loop_
_space_group_symop_operation_xyz
x,y,z
1/2-x,-y,z
1/2+x,-y,-z
-x,y,-z
-x,-y,-z
1/2+x,y,-z
1/2-x,y,z
x,-y,z
loop_
_atom_site_type_symbol
_atom_site_label
_atom_site_fract_x
_atom_site_fract_y
_atom_site_fract_z
Si Si1 0.538245 0.826591 0.076453
Si Si2 0.145087 0.826510 0.021793
Si Si3 0.447938 0.325582 0.735139
Si Si4 0.856432 0.327178 0.163322
Si Si5 0.987271 0.828705 0.443308
Si Si6 0.849856 0.332742 0.724885
Si Si7 0.854698 0.337826 0.606942
Si Si8 0.358156 0.327216 0.632290
O O1 0.430676 0.777542 0.063820
O O2 0.570112 0.749257 0.126802
O O3 0.544005 0.000000 0.083491
O O4 0.607570 0.774065 0.032144
O O5 0.250000 0.760912 0.031965
O O6 0.150257 0.000000 0.021472
O O7 0.453220 0.500000 0.731393
O O8 0.380785 0.277219 0.780358
O O9 0.553575 0.261160 0.745808
O O10 0.407619 0.265649 0.682687
O O11 0.750000 0.276878 0.151700
O O12 0.867429 0.500000 0.157228
O O13 0.901189 0.746048 0.416969
O O14 0.000000 0.775287 0.500000
O O15 0.083473 0.790497 0.415641
O O16 0.967375 0.000000 0.440124
O O17 0.750000 0.257914 0.742614
O O18 0.845785 0.500000 0.742515
O O19 0.855981 0.322454 0.665829
O O20 0.750000 0.318345 0.585761
O O21 0.893413 0.500000 0.592474
O O22 0.250000 0.282951 0.635292
O O23 0.372090 0.500000 0.627886
#
# Coordination Sequence:
#
# PCOD8210441 Si02
#       8
#     8   8   8   8   8   8   8   8
#     4   9  17  30  50  74  98 129 172 217 255 296
#     4   8  14  27  49  74  98 129 171 215 258 302
#     4   9  16  30  52  75 101 132 166 204 248 301
#     4  10  20  32  47  71 104 139 170 204 254 308
#     4  11  24  38  51  72 106 142 167 195 248 315
#     4   8  13  24  48  78  98 115 149 200 248 283
#     4   9  17  32  56  81  99 120 160 210 249 285
#     4  10  20  36  59  81  99 127 172 220 257 292
#
# _framework density 18.388833999999999
#
# number of rings (size 3 to 8) (size 9 to 14) (size 15 to 20)
#    0.000    2.750    1.250    2.625    0.000    4.250 
#    0.000    5.000    0.000    3.375    0.000    0.000 
#    0.000    0.000    0.000    0.000    0.000    0.000 
#
# Total GULP energy -793054.921332 kJ/mol
# GULP energy per Si atom -12391.483146 kJ/mol
# Density = 1.834698 g / cm^3
# Si number density = 18.388834 Si / 1000 Ang^3
#
#
#
# Elastic Constant Matrix: (Units=GPa)
#
#
# Indices 1 2 3 4 5 6 
#
# 1 160.0602 25.1055 54.0984 0.0000 0.0000 0.0000
# 2 25.1055 22.8225 25.0499 0.0000 0.0000 0.0000
# 3 54.0984 25.0499 89.6735 0.0000 0.0000 0.0000
# 4 0.0000 0.0000 0.0000 -26.9559 0.0000 0.0000
# 5 0.0000 0.0000 0.0000 0.0000 -8.2010 0.0000
# 6 0.0000 0.0000 0.0000 0.0000 0.0000 17.3878
#
#
#
# Elastic Compliance Matrix: (Units=1/GPa)
#
#
# Indices 1 2 3 4 5 6 
#
# 1 0.008257 -0.005214 -0.003525 0.000000 0.000000 0.000000
# 2 -0.005214 0.066484 -0.015426 0.000000 0.000000 0.000000
# 3 -0.003525 -0.015426 0.017587 0.000000 0.000000 0.000000
# 4 0.000000 0.000000 0.000000 -0.037098 0.000000 0.000000
# 5 0.000000 0.000000 0.000000 0.000000 -0.121936 0.000000
# 6 0.000000 0.000000 0.000000 0.000000 0.000000 0.057512
#
#
# Mechanical properties :
#
#
# Convention : Reuss Voigt Hill
#
# Bulk Modulus (GPa) = 22.72848 53.45154 38.09001
# Shear Modulus (GPa) = 92.93391 7.66635 50.30013
#
# Velocity S-wave (km/s) = 7.11674 2.04403 5.23574
# Velocity P-wave (km/s) = 8.93965 5.89078 7.57029
#
# Compressibility (1/GPa) = 0.04399765
#
# Stress axis : x y z
#
# Youngs Moduli (GPa) = 121.11285 15.04121 56.85948
#
# Poissons Ratio (x) = 0.07843 0.20041
# Poissons Ratio (y) = 0.63150 0.87714
# Poissons Ratio (z) = 0.42688 0.23203
#
# Static dielectric constant tensor:
#      x y z
#    x 3.922310 0.000000 0.000000 
#    y 0.000000 2.898760 0.000000 
#    z 0.000000 0.000000 3.277510 
# 
# 
# High freq. dielectric constant tensor:
#      x y z
#    x 1.736640 0.000000 0.000000 
#    y 0.000000 1.660880 0.000000 
#    z 0.000000 0.000000 1.696730 
# 
# From -- ./inp_files/35740.got.cif
#   From: 2010.03.12/outbox.cif.g09.slc.cpg/sg51_18_cif.got.tgz:35740.got - 2010.04.16 13:43:02.
