data_PCOD8210319
_publ_section_title
;
Structure prediction by ZEFSAII (Michael W. Deem and Ramdas Pophale) SiO2 
 PCOD8210319
Probable space group: P M M A
;
_chemical_formula_sum "Si O2"
_cell_formula_units_Z 52
_cell_length_a 9.184068
_cell_length_b 13.595196
_cell_length_c 23.099269
_cell_angle_alpha 90.000000
_cell_angle_beta 90.000000
_cell_angle_gamma 90.000000
_cell_volume 2884.156353
_symmetry_space_group_name_H-M "P M M A"
_symmetry_group_IT_number 51
_symmetry_cell_setting 'orthorhombic'
loop_
_space_group_symop_operation_xyz
x,y,z
1/2-x,-y,z
1/2+x,-y,-z
-x,y,-z
-x,-y,-z
1/2+x,y,-z
1/2-x,y,z
x,-y,z
loop_
_atom_site_type_symbol
_atom_site_label
_atom_site_fract_x
_atom_site_fract_y
_atom_site_fract_z
Si Si1 0.420707 0.110692 0.439621
Si Si2 0.077005 0.106549 0.173604
Si Si3 0.923226 0.607114 0.869854
Si Si4 0.923480 0.711570 0.756968
Si Si5 0.577192 0.696073 0.628533
Si Si6 0.078581 0.789197 0.058749
Si Si7 0.576656 0.500000 0.561320
O O1 0.500000 0.124785 0.500000
O O2 0.250000 0.122406 0.450771
O O3 0.476764 0.199504 0.398342
O O4 0.453856 0.000000 0.414300
O O5 0.250000 0.106544 0.175849
O O6 0.018762 0.181843 0.221919
O O7 0.030561 0.134788 0.108472
O O8 0.011364 0.000000 0.188408
O O9 0.750000 0.610041 0.867873
O O10 0.984440 0.500000 0.886140
O O11 0.979133 0.634174 0.805187
O O12 0.976189 0.682144 0.919237
O O13 0.750000 0.710764 0.753735
O O14 0.987899 0.688044 0.693612
O O15 0.750000 0.695915 0.630422
O O16 0.523435 0.599211 0.594143
O O17 0.250000 0.790799 0.047589
O O18 0.000000 0.819151 0.000000
O O19 0.750000 0.500000 0.553551
O O20 0.500000 0.500000 0.500000
#
# Coordination Sequence:
#
# PCOD8210319 Si02
#       7
#     8   8   8   8   8   8   4
#     4   9  17  29  44  62  86 114 143 176 212 252
#     4   8  14  25  40  59  86 115 138 168 214 260
#     4   8  14  24  39  58  83 111 135 167 212 255
#     4   8  14  23  37  60  86 109 135 170 214 256
#     4   9  17  27  41  64  90 114 143 180 220 258
#     4   9  17  28  41  61  86 110 141 175 206 248
#     4  10  20  32  46  66  94 122 147 180 218 260
#
# _framework density 18.029537000000001
#
# number of rings (size 3 to 8) (size 9 to 14) (size 15 to 20)
#    0.000    3.385    0.000    2.308    1.077    1.231 
#    0.000    3.077    0.000    0.000    0.000    8.615 
#    0.000    0.000    0.000    0.000    0.000    0.000 
#
# Total GULP energy -644217.544097 kJ/mol
# GULP energy per Si atom -12388.798925 kJ/mol
# Density = 1.798850 g / cm^3
# Si number density = 18.029537 Si / 1000 Ang^3
#
#
#
# Elastic Constant Matrix: (Units=GPa)
#
#
# Indices 1 2 3 4 5 6 
#
# 1 10.9436 6.2086 13.4795 0.0000 0.0000 0.0000
# 2 6.2086 115.2854 31.3795 0.0000 0.0000 0.0000
# 3 13.4795 31.3795 110.2532 0.0000 0.0000 0.0000
# 4 0.0000 0.0000 0.0000 15.6294 0.0000 0.0000
# 5 0.0000 0.0000 0.0000 0.0000 19.3557 0.0000
# 6 0.0000 0.0000 0.0000 0.0000 0.0000 9.3889
#
#
#
# Elastic Compliance Matrix: (Units=1/GPa)
#
#
# Indices 1 2 3 4 5 6 
#
# 1 0.108194 -0.002413 -0.012541 0.000000 0.000000 0.000000
# 2 -0.002413 0.009456 -0.002396 0.000000 0.000000 0.000000
# 3 -0.012541 -0.002396 0.011285 0.000000 0.000000 0.000000
# 4 0.000000 0.000000 0.000000 0.063982 0.000000 0.000000
# 5 0.000000 0.000000 0.000000 0.000000 0.051664 0.000000
# 6 0.000000 0.000000 0.000000 0.000000 0.000000 0.106509
#
#
# Mechanical properties :
#
#
# Convention : Reuss Voigt Hill
#
# Bulk Modulus (GPa) = 10.61183 37.62413 24.11798
# Shear Modulus (GPa) = 11.98459 21.23579 16.61019
#
# Velocity S-wave (km/s) = 2.58101 3.43568 3.03855
# Velocity P-wave (km/s) = 3.84457 6.05408 5.07113
#
# Compressibility (1/GPa) = 0.09423447
#
# Stress axis : x y z
#
# Youngs Moduli (GPa) = 9.24269 105.74905 88.61077
#
# Poissons Ratio (x) = 0.25519 1.11126
# Poissons Ratio (y) = 0.02230 0.21234
# Poissons Ratio (z) = 0.11591 0.25341
#
# Static dielectric constant tensor:
#      x y z
#    x 2.636250 0.000000 0.000000 
#    y 0.000000 3.919940 0.000000 
#    z 0.000000 0.000000 3.444310 
# 
# 
# High freq. dielectric constant tensor:
#      x y z
#    x 1.620900 0.000000 0.000000 
#    y 0.000000 1.715110 0.000000 
#    z 0.000000 0.000000 1.700110 
# 
# From -- ./inp_files/31718.got.cif
#   From: 2010.03.12/outbox.cif.g09.slc.cpg/sg51_16_cif.got.tgz:31718.got - 2010.04.16 13:43:02.
