data_PCOD8210622
_publ_section_title
;
Structure prediction by ZEFSAII (Michael W. Deem and Ramdas Pophale) SiO2 
 PCOD8210622
Probable space group: P M M A
;
_chemical_formula_sum "Si O2"
_cell_formula_units_Z 36
_cell_length_a 9.263753
_cell_length_b 15.081822
_cell_length_c 14.729686
_cell_angle_alpha 90.000000
_cell_angle_beta 90.000000
_cell_angle_gamma 90.000000
_cell_volume 2057.947383
_symmetry_space_group_name_H-M "P M M A"
_symmetry_group_IT_number 51
_symmetry_cell_setting 'orthorhombic'
loop_
_space_group_symop_operation_xyz
x,y,z
1/2-x,-y,z
1/2+x,-y,-z
-x,y,-z
-x,-y,-z
1/2+x,y,-z
1/2-x,y,z
x,-y,z
loop_
_atom_site_type_symbol
_atom_site_label
_atom_site_fract_x
_atom_site_fract_y
_atom_site_fract_z
Si Si1 0.417692 0.599795 0.089275
Si Si2 0.915983 0.807830 0.592805
Si Si3 0.586797 0.000000 0.589605
Si Si4 0.919301 0.102737 0.093074
Si Si5 0.580770 0.240673 0.785045
O O1 0.250000 0.604312 0.066024
O O2 0.464376 0.500000 0.116977
O O3 0.458960 0.665255 0.170685
O O4 0.500000 0.632391 0.000000
O O5 0.750000 0.796936 0.565523
O O6 0.957456 0.745653 0.677943
O O7 0.000000 0.785720 0.500000
O O8 0.948327 0.906158 0.637387
O O9 0.500000 0.000000 0.500000
O O10 0.750000 0.000000 0.558271
O O11 0.750000 0.123480 0.081278
O O12 0.985581 0.162526 0.172347
O O13 0.945020 0.000000 0.118911
O O14 0.000000 0.127082 0.000000
O O15 0.750000 0.216483 0.797029
#
# Coordination Sequence:
#
# PCOD8210622 Si02
#       5
#     8   8   4   8   8
#     4   9  18  33  52  75 101 127 158 199 247 298
#     4   9  18  31  47  68  94 126 164 204 247 288
#     4   8  14  26  42  60  83 114 151 194 235 274
#     4  10  21  35  49  69  99 134 167 200 240 290
#     4  10  20  32  51  75  98 129 166 205 249 296
#
# _framework density 17.493158999999999
#
# number of rings (size 3 to 8) (size 9 to 14) (size 15 to 20)
#    0.000    2.667    0.000    1.333    1.556    4.889 
#    0.000    0.000    0.000    0.667    0.000    0.000 
#    0.000    0.000    0.000    0.000    0.000    0.000 
#
# Total GULP energy -446039.644929 kJ/mol
# GULP energy per Si atom -12389.990137 kJ/mol
# Density = 1.745334 g / cm^3
# Si number density = 17.493159 Si / 1000 Ang^3
#
#
#
# Elastic Constant Matrix: (Units=GPa)
#
#
# Indices 1 2 3 4 5 6 
#
# 1 63.5307 41.1418 55.0015 0.0000 0.0000 0.0000
# 2 41.1418 81.9573 70.5617 0.0000 0.0000 0.0000
# 3 55.0015 70.5617 144.5977 0.0000 0.0000 0.0000
# 4 0.0000 0.0000 0.0000 20.7909 0.0000 0.0000
# 5 0.0000 0.0000 0.0000 0.0000 27.5970 0.0000
# 6 0.0000 0.0000 0.0000 0.0000 0.0000 18.1956
#
#
#
# Elastic Compliance Matrix: (Units=1/GPa)
#
#
# Indices 1 2 3 4 5 6 
#
# 1 0.026106 -0.007856 -0.006096 0.000000 0.000000 0.000000
# 2 -0.007856 0.023406 -0.008434 0.000000 0.000000 0.000000
# 3 -0.006096 -0.008434 0.013350 0.000000 0.000000 0.000000
# 4 0.000000 0.000000 0.000000 0.048098 0.000000 0.000000
# 5 0.000000 0.000000 0.000000 0.000000 0.036236 0.000000
# 6 0.000000 0.000000 0.000000 0.000000 0.000000 0.054958
#
#
# Mechanical properties :
#
#
# Convention : Reuss Voigt Hill
#
# Bulk Modulus (GPa) = 55.27940 69.27730 62.27835
# Shear Modulus (GPa) = 19.76623 21.54208 20.65415
#
# Velocity S-wave (km/s) = 3.36511 3.51302 3.43986
# Velocity P-wave (km/s) = 6.83870 7.49290 7.17326
#
# Compressibility (1/GPa) = 0.01808992
#
# Stress axis : x y z
#
# Youngs Moduli (GPa) = 38.30545 42.72374 74.90576
#
# Poissons Ratio (x) = 0.33565 0.45665
# Poissons Ratio (y) = 0.30094 0.63172
# Poissons Ratio (z) = 0.23352 0.36031
#
# Static dielectric constant tensor:
#      x y z
#    x 3.264580 0.000000 0.000000 
#    y 0.000000 3.254230 0.000000 
#    z 0.000000 0.000000 3.119470 
# 
# 
# High freq. dielectric constant tensor:
#      x y z
#    x 1.676390 0.000000 0.000000 
#    y 0.000000 1.662600 0.000000 
#    z 0.000000 0.000000 1.666130 
# 
# From -- ./inp_files/20312.got.cif
#   From: 2010.03.12/outbox.cif.g09.slc.cpg/sg51_11_cif.got.tgz:20312.got - 2010.04.16 13:43:02.
