data_PCOD8210448
_publ_section_title
;
Structure prediction by ZEFSAII (Michael W. Deem and Ramdas Pophale) SiO2 
 PCOD8210448
Probable space group: P M M A
;
_chemical_formula_sum "Si O2"
_cell_formula_units_Z 52
_cell_length_a 9.431128
_cell_length_b 12.905278
_cell_length_c 27.365857
_cell_angle_alpha 90.000000
_cell_angle_beta 90.000000
_cell_angle_gamma 90.000000
_cell_volume 3330.734816
_symmetry_space_group_name_H-M "P M M A"
_symmetry_group_IT_number 51
_symmetry_cell_setting 'orthorhombic'
loop_
_space_group_symop_operation_xyz
x,y,z
1/2-x,-y,z
1/2+x,-y,-z
-x,y,-z
-x,-y,-z
1/2+x,y,-z
1/2-x,y,z
x,-y,z
loop_
_atom_site_type_symbol
_atom_site_label
_atom_site_fract_x
_atom_site_fract_y
_atom_site_fract_z
Si Si1 0.414742 0.824893 0.741631
Si Si2 0.092148 0.120395 0.635261
Si Si3 0.083292 0.500000 0.049945
Si Si4 0.090664 0.612023 0.781835
Si Si5 0.084527 0.330624 0.126716
Si Si6 0.410145 0.123542 0.453798
Si Si7 0.585996 0.885702 0.835369
O O1 0.250000 0.854949 0.747580
O O2 0.472289 0.862615 0.689341
O O3 0.442023 0.701350 0.742777
O O4 0.498007 0.879384 0.785434
O O5 0.250000 0.171046 0.631323
O O6 0.986162 0.168270 0.594995
O O7 0.106329 0.000000 0.624317
O O8 0.250000 0.500000 0.039064
O O9 0.038002 0.394201 0.078499
O O10 0.000000 0.500000 0.000000
O O11 0.250000 0.626259 0.802208
O O12 0.071920 0.500000 0.755992
O O13 0.987755 0.616107 0.827544
O O14 0.250000 0.346015 0.134223
O O15 0.044249 0.206771 0.126330
O O16 0.500000 0.163721 0.500000
O O17 0.250000 0.167731 0.456547
O O18 0.405187 0.000000 0.453131
O O19 0.750000 0.873532 0.820963
O O20 0.557644 0.000000 0.858956
#
# Coordination Sequence:
#
# PCOD8210448 Si02
#       7
#     8   8   4   8   8   8   8
#     4   9  17  27  39  58  84 114 143 170 203 243
#     4   9  16  25  36  50  73 105 136 165 196 233
#     4  10  20  32  48  68  88 110 138 176 217 256
#     4   9  16  26  42  63  86 111 139 171 205 242
#     4   9  17  30  46  64  86 112 140 170 208 251
#     4   9  16  25  37  52  70  95 129 167 205 244
#     4   9  17  28  43  63  86 112 142 173 203 242
#
# _framework density 15.612171
#
# number of rings (size 3 to 8) (size 9 to 14) (size 15 to 20)
#    0.000    2.923    0.769    0.923    0.000    4.000 
#    0.000    1.538    0.000    0.462    0.000    0.000 
#    0.000    0.615    0.000    1.077    0.000    1.538 
#
# Total GULP energy -644309.589862 kJ/mol
# GULP energy per Si atom -12390.569036 kJ/mol
# Density = 1.557664 g / cm^3
# Si number density = 15.612171 Si / 1000 Ang^3
#
#
#
# Elastic Constant Matrix: (Units=GPa)
#
#
# Indices 1 2 3 4 5 6 
#
# 1 56.6202 23.1393 43.0518 0.0000 0.0000 0.0000
# 2 23.1393 88.1794 33.3051 0.0000 0.0000 0.0000
# 3 43.0518 33.3051 96.3949 0.0000 0.0000 0.0000
# 4 0.0000 0.0000 0.0000 15.7530 0.0000 0.0000
# 5 0.0000 0.0000 0.0000 0.0000 26.8638 0.0000
# 6 0.0000 0.0000 0.0000 0.0000 0.0000 13.2628
#
#
#
# Elastic Compliance Matrix: (Units=1/GPa)
#
#
# Indices 1 2 3 4 5 6 
#
# 1 0.027396 -0.002953 -0.011215 0.000000 0.000000 0.000000
# 2 -0.002953 0.013361 -0.003297 0.000000 0.000000 0.000000
# 3 -0.011215 -0.003297 0.016522 0.000000 0.000000 0.000000
# 4 0.000000 0.000000 0.000000 0.063480 0.000000 0.000000
# 5 0.000000 0.000000 0.000000 0.000000 0.037225 0.000000
# 6 0.000000 0.000000 0.000000 0.000000 0.000000 0.075399
#
#
# Mechanical properties :
#
#
# Convention : Reuss Voigt Hill
#
# Bulk Modulus (GPa) = 44.74740 48.90967 46.82854
# Shear Modulus (GPa) = 18.13148 20.62248 19.37698
#
# Velocity S-wave (km/s) = 3.41158 3.63839 3.52681
# Velocity P-wave (km/s) = 6.65151 7.00332 6.82968
#
# Compressibility (1/GPa) = 0.02234767
#
# Stress axis : x y z
#
# Youngs Moduli (GPa) = 36.50159 74.84563 60.52450
#
# Poissons Ratio (x) = 0.22102 0.67880
# Poissons Ratio (y) = 0.10779 0.19957
# Poissons Ratio (z) = 0.40938 0.24679
#
# Static dielectric constant tensor:
#      x y z
#    x 3.040060 0.000000 0.000000 
#    y 0.000000 3.106580 0.000000 
#    z 0.000000 0.000000 2.822280 
# 
# 
# High freq. dielectric constant tensor:
#      x y z
#    x 1.604440 0.000000 0.000000 
#    y 0.000000 1.578250 0.000000 
#    z 0.000000 0.000000 1.571460 
# 
# From -- ./inp_files/36340.got.cif
#   From: 2010.03.12/outbox.cif.g09.slc.cpg/sg51_19_cif.got.tgz:36340.got - 2010.04.16 13:43:02.
