data_PCOD8210875
_publ_section_title
;
Structure prediction by ZEFSAII (Michael W. Deem and Ramdas Pophale) SiO2 
 PCOD8210875
Probable space group: P M M A
;
_chemical_formula_sum "Si O2"
_cell_formula_units_Z 48
_cell_length_a 8.833741
_cell_length_b 23.612958
_cell_length_c 13.761952
_cell_angle_alpha 90.000000
_cell_angle_beta 90.000000
_cell_angle_gamma 90.000000
_cell_volume 2870.615961
_symmetry_space_group_name_H-M "P M M A"
_symmetry_group_IT_number 51
_symmetry_cell_setting 'orthorhombic'
loop_
_space_group_symop_operation_xyz
x,y,z
1/2-x,-y,z
1/2+x,-y,-z
-x,y,-z
-x,-y,-z
1/2+x,y,-z
1/2-x,y,z
x,-y,z
loop_
_atom_site_type_symbol
_atom_site_label
_atom_site_fract_x
_atom_site_fract_y
_atom_site_fract_z
Si Si1 0.427378 0.062757 0.398982
Si Si2 0.070672 0.340084 0.221557
Si Si3 0.427687 0.173354 0.293340
Si Si4 0.425463 0.767790 0.101188
Si Si5 0.429879 0.277000 0.603615
Si Si6 0.425716 0.434205 0.898105
O O1 0.500000 0.081767 0.500000
O O2 0.250000 0.062143 0.416010
O O3 0.471643 0.108418 0.316728
O O4 0.484601 0.000000 0.367112
O O5 0.250000 0.342172 0.237336
O O6 0.024590 0.293798 0.140159
O O7 0.991893 0.324175 0.322469
O O8 0.008236 0.400575 0.187841
O O9 0.250000 0.185897 0.310142
O O10 0.471707 0.185217 0.181457
O O11 0.519753 0.214286 0.364490
O O12 0.250000 0.768689 0.081009
O O13 0.500000 0.783612 0.000000
O O14 0.500000 0.291796 0.500000
O O15 0.250000 0.279927 0.598740
O O16 0.250000 0.417833 0.902592
O O17 0.450375 0.500000 0.875267
O O18 0.500000 0.417117 0.000000
#
# Coordination Sequence:
#
# PCOD8210875 Si02
#       6
#     8   8   8   8   8   8
#     4   9  17  29  46  67  91 120 153 191 236 284
#     4  10  20  34  51  72  98 127 161 200 242 287
#     4   9  18  32  47  67  95 124 157 195 236 283
#     4   9  18  30  45  66  92 121 153 192 233 277
#     4  11  21  33  50  72  98 127 159 194 237 287
#     4  10  20  33  50  74 103 134 167 202 241 285
#
# _framework density 16.721150999999999
#
# number of rings (size 3 to 8) (size 9 to 14) (size 15 to 20)
#    0.000    2.333    0.000    4.500    0.000    7.667 
#    0.000    0.000    0.000    1.000    0.000    0.000 
#    0.000    0.000    0.000    0.000    0.000    0.333 
#
# Total GULP energy -595207.592544 kJ/mol
# GULP energy per Si atom -12400.158178 kJ/mol
# Density = 1.668309 g / cm^3
# Si number density = 16.721151 Si / 1000 Ang^3
#
#
#
# Elastic Constant Matrix: (Units=GPa)
#
#
# Indices 1 2 3 4 5 6 
#
# 1 84.5770 44.4595 55.5318 0.0000 0.0000 0.0000
# 2 44.4595 98.9464 67.2098 0.0000 0.0000 0.0000
# 3 55.5318 67.2098 134.7305 0.0000 0.0000 0.0000
# 4 0.0000 0.0000 0.0000 20.0472 0.0000 0.0000
# 5 0.0000 0.0000 0.0000 0.0000 31.8320 0.0000
# 6 0.0000 0.0000 0.0000 0.0000 0.0000 23.5200
#
#
#
# Elastic Compliance Matrix: (Units=1/GPa)
#
#
# Indices 1 2 3 4 5 6 
#
# 1 0.017423 -0.004463 -0.004955 0.000000 0.000000 0.000000
# 2 -0.004463 0.016429 -0.006356 0.000000 0.000000 0.000000
# 3 -0.004955 -0.006356 0.012635 0.000000 0.000000 0.000000
# 4 0.000000 0.000000 0.000000 0.049882 0.000000 0.000000
# 5 0.000000 0.000000 0.000000 0.000000 0.031415 0.000000
# 6 0.000000 0.000000 0.000000 0.000000 0.000000 0.042517
#
#
# Mechanical properties :
#
#
# Convention : Reuss Voigt Hill
#
# Bulk Modulus (GPa) = 66.93730 72.51733 69.72732
# Shear Modulus (GPa) = 24.17452 25.15004 24.66228
#
# Velocity S-wave (km/s) = 3.80642 3.88246 3.84463
# Velocity P-wave (km/s) = 7.70953 7.97250 7.84212
#
# Compressibility (1/GPa) = 0.01493935
#
# Stress axis : x y z
#
# Youngs Moduli (GPa) = 57.39586 60.86682 79.14399
#
# Poissons Ratio (x) = 0.27165 0.39214
# Poissons Ratio (y) = 0.25616 0.50305
# Poissons Ratio (z) = 0.28439 0.38688
#
# Static dielectric constant tensor:
#      x y z
#    x 3.158010 0.000000 0.000000 
#    y 0.000000 3.231020 0.000000 
#    z 0.000000 0.000000 3.524800 
# 
# 
# High freq. dielectric constant tensor:
#      x y z
#    x 1.651990 0.000000 0.000000 
#    y 0.000000 1.635460 0.000000 
#    z 0.000000 0.000000 1.635400 
# 
# From -- ./inp_files/14458.got.cif
#   From: 2010.03.12/outbox.cif.g09.slc.cpg/sg51_8_cif.got.tgz:14458.got - 2010.04.16 13:43:02.
