data_PCOD8210909
_publ_section_title
;
Structure prediction by ZEFSAII (Michael W. Deem and Ramdas Pophale) SiO2 
 PCOD8210909
Probable space group: P M M A
;
_chemical_formula_sum "Si O2"
_cell_formula_units_Z 64
_cell_length_a 8.846251
_cell_length_b 28.338675
_cell_length_c 13.787109
_cell_angle_alpha 90.000000
_cell_angle_beta 90.000000
_cell_angle_gamma 90.000000
_cell_volume 3456.304584
_symmetry_space_group_name_H-M "P M M A"
_symmetry_group_IT_number 51
_symmetry_cell_setting 'orthorhombic'
loop_
_space_group_symop_operation_xyz
x,y,z
1/2-x,-y,z
1/2+x,-y,-z
-x,y,-z
-x,-y,-z
1/2+x,y,-z
1/2-x,y,z
x,-y,z
loop_
_atom_site_type_symbol
_atom_site_label
_atom_site_fract_x
_atom_site_fract_y
_atom_site_fract_z
Si Si1 0.925335 0.554906 0.601736
Si Si2 0.417957 0.056151 0.594105
Si Si3 0.424854 0.277572 0.601072
Si Si4 0.570415 0.367040 0.278137
Si Si5 0.928492 0.226903 0.205823
Si Si6 0.569429 0.685056 0.896462
Si Si7 0.425760 0.947529 0.211131
Si Si8 0.572617 0.143865 0.898014
O O1 0.750000 0.569230 0.597987
O O2 0.947313 0.500000 0.624419
O O3 0.000000 0.568846 0.500000
O O4 0.010721 0.582381 0.687212
O O5 0.500000 0.077729 0.500000
O O6 0.250000 0.076855 0.595639
O O7 0.498872 0.072647 0.691832
O O8 0.418310 0.000000 0.588161
O O9 0.500000 0.264122 0.500000
O O10 0.250000 0.278762 0.579314
O O11 0.477472 0.328509 0.640959
O O12 0.465093 0.238362 0.681988
O O13 0.750000 0.367432 0.261627
O O14 0.489102 0.354771 0.177492
O O15 0.750000 0.229681 0.185508
O O16 0.010760 0.263619 0.135114
O O17 0.993801 0.175226 0.184536
O O18 0.750000 0.685067 0.900815
O O19 0.500000 0.672019 0.000000
O O20 0.250000 0.950217 0.233773
O O21 0.461246 0.911167 0.124712
O O22 0.486943 0.000000 0.182850
O O23 0.750000 0.154502 0.900674
O O24 0.500000 0.157055 0.000000
#
# Coordination Sequence:
#
# PCOD8210909 Si02
#       8
#     8   8   8   8   8   8   8   8
#     4  10  20  33  50  75 108 147 190 234 280 329
#     4   9  16  27  47  74 101 129 161 198 241 287
#     4   9  19  33  52  78 108 140 172 210 255 308
#     4  10  20  34  52  78 110 144 184 227 274 325
#     4  10  21  38  56  78 108 140 175 214 257 307
#     4  11  21  35  56  81 108 138 175 221 271 321
#     4   9  19  36  55  76 104 135 169 210 254 303
#     4  11  23  38  57  79 102 133 170 210 259 311
#
# _framework density 18.516887000000001
#
# number of rings (size 3 to 8) (size 9 to 14) (size 15 to 20)
#    0.000    2.125    0.000    4.500    0.000    7.500 
#    0.000    0.625    0.000    1.875    0.000    0.000 
#    0.000    0.000    0.000    0.000    0.000    0.000 
#
# Total GULP energy -793679.169772 kJ/mol
# GULP energy per Si atom -12401.237028 kJ/mol
# Density = 1.847474 g / cm^3
# Si number density = 18.516887 Si / 1000 Ang^3
#
#
#
# Elastic Constant Matrix: (Units=GPa)
#
#
# Indices 1 2 3 4 5 6 
#
# 1 111.7722 46.8941 59.7631 0.0000 0.0000 0.0000
# 2 46.8941 82.1799 51.3389 0.0000 0.0000 0.0000
# 3 59.7631 51.3389 128.9330 0.0000 0.0000 0.0000
# 4 0.0000 0.0000 0.0000 24.7160 0.0000 0.0000
# 5 0.0000 0.0000 0.0000 0.0000 35.8038 0.0000
# 6 0.0000 0.0000 0.0000 0.0000 0.0000 26.2353
#
#
#
# Elastic Compliance Matrix: (Units=1/GPa)
#
#
# Indices 1 2 3 4 5 6 
#
# 1 0.013257 -0.004960 -0.004170 0.000000 0.000000 0.000000
# 2 -0.004960 0.018053 -0.004889 0.000000 0.000000 0.000000
# 3 -0.004170 -0.004889 0.011636 0.000000 0.000000 0.000000
# 4 0.000000 0.000000 0.000000 0.040460 0.000000 0.000000
# 5 0.000000 0.000000 0.000000 0.000000 0.027930 0.000000
# 6 0.000000 0.000000 0.000000 0.000000 0.000000 0.038117
#
#
# Mechanical properties :
#
#
# Convention : Reuss Voigt Hill
#
# Bulk Modulus (GPa) = 67.08066 70.98637 69.03352
# Shear Modulus (GPa) = 27.40316 28.34362 27.87339
#
# Velocity S-wave (km/s) = 3.85112 3.91665 3.88402
# Velocity P-wave (km/s) = 7.48867 7.67286 7.58133
#
# Compressibility (1/GPa) = 0.01490743
#
# Stress axis : x y z
#
# Youngs Moduli (GPa) = 75.42958 55.39192 85.94164
#
# Poissons Ratio (x) = 0.27474 0.35839
# Poissons Ratio (y) = 0.37412 0.42021
# Poissons Ratio (z) = 0.31455 0.27084
#
# Static dielectric constant tensor:
#      x y z
#    x 3.499280 0.000000 0.000000 
#    y 0.000000 3.285010 0.000000 
#    z 0.000000 0.000000 3.447570 
# 
# 
# High freq. dielectric constant tensor:
#      x y z
#    x 1.731510 0.000000 0.000000 
#    y 0.000000 1.698460 0.000000 
#    z 0.000000 0.000000 1.716830 
# 
# From -- ./inp_files/14850.got.cif
#   From: 2010.03.12/outbox.cif.g09.slc.cpg/sg51_8_cif.got.tgz:14850.got - 2010.04.16 13:43:02.
