data_PCOD8210602
_publ_section_title
;
Structure prediction by ZEFSAII (Michael W. Deem and Ramdas Pophale) SiO2 
 PCOD8210602
Probable space group: P M M A
;
_chemical_formula_sum "Si O2"
_cell_formula_units_Z 64
_cell_length_a 18.840354
_cell_length_b 14.102239
_cell_length_c 12.926681
_cell_angle_alpha 90.000000
_cell_angle_beta 90.000000
_cell_angle_gamma 90.000000
_cell_volume 3434.505063
_symmetry_space_group_name_H-M "P M M A"
_symmetry_group_IT_number 51
_symmetry_cell_setting 'orthorhombic'
loop_
_space_group_symop_operation_xyz
x,y,z
1/2-x,-y,z
1/2+x,-y,-z
-x,y,-z
-x,-y,-z
1/2+x,y,-z
1/2-x,y,z
x,-y,z
loop_
_atom_site_type_symbol
_atom_site_label
_atom_site_fract_x
_atom_site_fract_y
_atom_site_fract_z
Si Si1 0.665553 0.395468 0.017911
Si Si2 0.417065 0.777393 0.499786
Si Si3 0.082412 0.890520 0.295833
Si Si4 0.583198 0.109467 0.295927
Si Si5 0.166789 0.206149 0.887540
Si Si6 0.673110 0.611600 0.796297
Si Si7 0.667719 0.109780 0.899871
Si Si8 0.834625 0.608287 0.571955
O O1 0.750000 0.399366 0.002940
O O2 0.637013 0.500000 0.051195
O O3 0.646162 0.318046 0.104874
O O4 0.633355 0.362899 0.904855
O O5 0.500000 0.753151 0.500000
O O6 0.394430 0.834704 0.397881
O O7 0.395674 0.841834 0.596668
O O8 0.373337 0.679084 0.507412
O O9 0.124748 0.847354 0.197708
O O10 0.999548 0.879536 0.272760
O O11 0.103047 0.000000 0.313539
O O12 0.624917 0.160317 0.205194
O O13 0.605999 0.000000 0.301871
O O14 0.250000 0.190826 0.867737
O O15 0.142933 0.159185 0.994972
O O16 0.750000 0.662730 0.795564
O O17 0.685359 0.500000 0.796421
O O18 0.634776 0.635996 0.687239
O O19 0.750000 0.127639 0.878126
O O20 0.649104 0.000000 0.912720
O O21 0.750000 0.621689 0.567218
O O22 0.854493 0.500000 0.542783
#
# Coordination Sequence:
#
# PCOD8210602 Si02
#       8
#     8   8   8   8   8   8   8   8
#     4   8  14  26  45  71 103 136 170 206 250 308
#     4  10  21  36  55  78 104 136 181 224 270 312
#     4   9  19  36  57  79 103 132 171 222 275 322
#     4  10  21  38  56  72  98 141 187 223 258 314
#     4  10  20  32  50  77 108 141 177 215 258 306
#     4   7  11  22  42  69  99 128 159 199 248 302
#     4   9  18  32  51  79 110 132 157 206 270 323
#     4   9  18  32  52  80 110 138 172 215 262 315
#
# _framework density 18.634416999999999
#
# number of rings (size 3 to 8) (size 9 to 14) (size 15 to 20)
#    0.000    3.000    0.000    2.250    1.750    4.000 
#    0.000    2.500    0.000    4.500    0.000    0.875 
#    0.000    0.000    0.000    0.000    0.000    0.000 
#
# Total GULP energy -793099.365735 kJ/mol
# GULP energy per Si atom -12392.177590 kJ/mol
# Density = 1.859200 g / cm^3
# Si number density = 18.634417 Si / 1000 Ang^3
#
#
#
# Elastic Constant Matrix: (Units=GPa)
#
#
# Indices 1 2 3 4 5 6 
#
# 1 37.2184 40.3323 49.4399 0.0000 0.0000 0.0000
# 2 40.3323 112.1744 77.0219 0.0000 0.0000 0.0000
# 3 49.4399 77.0219 133.1992 0.0000 0.0000 0.0000
# 4 0.0000 0.0000 0.0000 34.6162 0.0000 0.0000
# 5 0.0000 0.0000 0.0000 0.0000 51.7304 0.0000
# 6 0.0000 0.0000 0.0000 0.0000 0.0000 22.5429
#
#
#
# Elastic Compliance Matrix: (Units=1/GPa)
#
#
# Indices 1 2 3 4 5 6 
#
# 1 0.059423 -0.010318 -0.016090 0.000000 0.000000 0.000000
# 2 -0.010318 0.016576 -0.005756 0.000000 0.000000 0.000000
# 3 -0.016090 -0.005756 0.016808 0.000000 0.000000 0.000000
# 4 0.000000 0.000000 0.000000 0.028888 0.000000 0.000000
# 5 0.000000 0.000000 0.000000 0.000000 0.019331 0.000000
# 6 0.000000 0.000000 0.000000 0.000000 0.000000 0.044360
#
#
# Mechanical properties :
#
#
# Convention : Reuss Voigt Hill
#
# Bulk Modulus (GPa) = 35.11170 68.46448 51.78809
# Shear Modulus (GPa) = 19.28971 29.49776 24.39373
#
# Velocity S-wave (km/s) = 3.22089 3.98297 3.62203
# Velocity P-wave (km/s) = 5.71974 7.61398 6.73380
#
# Compressibility (1/GPa) = 0.02848053
#
# Stress axis : x y z
#
# Youngs Moduli (GPa) = 16.82861 60.32704 59.49601
#
# Poissons Ratio (x) = 0.62243 0.95729
# Poissons Ratio (y) = 0.17363 0.34243
# Poissons Ratio (z) = 0.27077 0.34722
#
# Static dielectric constant tensor:
#      x y z
#    x 3.061770 0.000000 0.000000 
#    y 0.000000 3.588180 0.000000 
#    z 0.000000 0.000000 3.617220 
# 
# 
# High freq. dielectric constant tensor:
#      x y z
#    x 1.678430 0.000000 0.000000 
#    y 0.000000 1.735980 0.000000 
#    z 0.000000 0.000000 1.720250 
# 
# From -- ./inp_files/17616.got.cif
#   From: 2010.03.12/outbox.cif.g09.slc.cpg/sg51_9_cif.got.tgz:17616.got - 2010.04.16 13:43:02.
