data_PCOD8210325
_publ_section_title
;
Structure prediction by ZEFSAII (Michael W. Deem and Ramdas Pophale) SiO2 
 PCOD8210325
Probable space group: P M M A
;
_chemical_formula_sum "Si O2"
_cell_formula_units_Z 64
_cell_length_a 9.800149
_cell_length_b 20.572127
_cell_length_c 18.372399
_cell_angle_alpha 90.000000
_cell_angle_beta 90.000000
_cell_angle_gamma 90.000000
_cell_volume 3704.057706
_symmetry_space_group_name_H-M "P M M A"
_symmetry_group_IT_number 51
_symmetry_cell_setting 'orthorhombic'
loop_
_space_group_symop_operation_xyz
x,y,z
1/2-x,-y,z
1/2+x,-y,-z
-x,y,-z
-x,-y,-z
1/2+x,y,-z
1/2-x,y,z
x,-y,z
loop_
_atom_site_type_symbol
_atom_site_label
_atom_site_fract_x
_atom_site_fract_y
_atom_site_fract_z
Si Si1 0.409890 0.189192 0.429266
Si Si2 0.411779 0.927673 0.168651
Si Si3 0.411767 0.927665 0.330808
Si Si4 0.094022 0.314904 0.334202
Si Si5 0.405965 0.314904 0.166149
Si Si6 0.909863 0.189466 0.929341
Si Si7 0.596681 0.428148 0.163672
Si Si8 0.903315 0.571852 0.336659
O O1 0.500000 0.199184 0.500000
O O2 0.250000 0.183514 0.449679
O O3 0.465932 0.124901 0.388360
O O4 0.437967 0.249431 0.376781
O O5 0.250000 0.922853 0.172291
O O6 0.469891 0.913214 0.249730
O O7 0.465867 0.875068 0.111113
O O8 0.457412 0.000000 0.143509
O O9 0.250000 0.922786 0.327171
O O10 0.457318 0.000000 0.355939
O O11 0.250000 0.336423 0.343144
O O12 0.057452 0.301620 0.250174
O O13 0.004298 0.373397 0.368087
O O14 0.250000 0.336456 0.157208
O O15 0.437848 0.249388 0.123618
O O16 0.495719 0.373384 0.132250
O O17 0.750000 0.183897 0.949840
O O18 0.000000 0.199938 0.000000
O O19 0.750000 0.411584 0.137932
O O20 0.554352 0.500000 0.134843
O O21 0.588254 0.428344 0.250165
O O22 0.750000 0.588428 0.362394
O O23 0.945624 0.500000 0.365490
#
# Coordination Sequence:
#
# PCOD8210325 Si02
#       8
#     8   8   8   8   8   8   8   8
#     4  10  20  32  46  67  95 124 154 189 228 270
#     4   8  14  27  49  73  93 117 153 193 228 265
#     4   8  14  27  49  73  93 117 153 193 228 265
#     4   9  17  29  46  67  90 118 153 192 229 265
#     4   9  17  29  46  67  90 118 153 192 229 265
#     4  10  20  32  46  67  95 124 154 189 228 270
#     4   8  14  25  42  66  94 119 144 180 228 278
#     4   8  14  25  42  66  94 119 144 180 228 278
#
# _framework density 17.278348000000001
#
# number of rings (size 3 to 8) (size 9 to 14) (size 15 to 20)
#    0.000    3.250    0.000    2.250    0.000    5.000 
#    0.000    2.500    0.000    3.000    0.000    1.750 
#    0.000    0.000    0.000    0.000    0.000    0.000 
#
# Total GULP energy -793246.016410 kJ/mol
# GULP energy per Si atom -12394.469006 kJ/mol
# Density = 1.723902 g / cm^3
# Si number density = 17.278348 Si / 1000 Ang^3
#
#
#
# Elastic Constant Matrix: (Units=GPa)
#
#
# Indices 1 2 3 4 5 6 
#
# 1 64.0185 69.8045 41.7165 0.0000 0.0000 0.0000
# 2 69.8045 151.3567 53.4886 0.0000 0.0000 0.0000
# 3 41.7165 53.4886 65.5258 0.0000 0.0000 0.0000
# 4 0.0000 0.0000 0.0000 1.9170 0.0000 0.0000
# 5 0.0000 0.0000 0.0000 0.0000 20.7912 0.0000
# 6 0.0000 0.0000 0.0000 0.0000 0.0000 18.7436
#
#
#
# Elastic Compliance Matrix: (Units=1/GPa)
#
#
# Indices 1 2 3 4 5 6 
#
# 1 0.039075 -0.012972 -0.014288 0.000000 0.000000 0.000000
# 2 -0.012972 0.013592 -0.002837 0.000000 0.000000 0.000000
# 3 -0.014288 -0.002837 0.026673 0.000000 0.000000 0.000000
# 4 0.000000 0.000000 0.000000 0.521651 0.000000 0.000000
# 5 0.000000 0.000000 0.000000 0.000000 0.048097 0.000000
# 6 0.000000 0.000000 0.000000 0.000000 0.000000 0.053352
#
#
# Mechanical properties :
#
#
# Convention : Reuss Voigt Hill
#
# Bulk Modulus (GPa) = 52.22705 67.88004 60.05355
# Shear Modulus (GPa) = 6.50182 16.01644 11.25913
#
# Velocity S-wave (km/s) = 1.94195 3.04791 2.55548
# Velocity P-wave (km/s) = 5.94312 7.19429 6.59843
#
# Compressibility (1/GPa) = 0.01914716
#
# Stress axis : x y z
#
# Youngs Moduli (GPa) = 25.59156 73.57340 37.49099
#
# Poissons Ratio (x) = 0.95439 0.53568
# Poissons Ratio (y) = 0.33197 0.10634
# Poissons Ratio (z) = 0.36566 0.20869
#
# Static dielectric constant tensor:
#      x y z
#    x 3.051400 0.000000 0.000000 
#    y 0.000000 3.633610 0.000000 
#    z 0.000000 0.000000 2.982530 
# 
# 
# High freq. dielectric constant tensor:
#      x y z
#    x 1.637290 0.000000 0.000000 
#    y 0.000000 1.684570 0.000000 
#    z 0.000000 0.000000 1.635360 
# 
# From -- ./inp_files/23438.got.cif
#   From: 2010.03.12/outbox.cif.g09.slc.cpg/sg51_12_cif.got.tgz:23438.got - 2010.04.16 13:43:02.
