data_PCOD8210242
_publ_section_title
;
Structure prediction by ZEFSAII (Michael W. Deem and Ramdas Pophale) SiO2 
 PCOD8210242
Probable space group: P M M A
;
_chemical_formula_sum "Si O2"
_cell_formula_units_Z 40
_cell_length_a 8.965632
_cell_length_b 20.365989
_cell_length_c 15.299053
_cell_angle_alpha 90.000000
_cell_angle_beta 90.000000
_cell_angle_gamma 90.000000
_cell_volume 2793.514713
_symmetry_space_group_name_H-M "P M M A"
_symmetry_group_IT_number 51
_symmetry_cell_setting 'orthorhombic'
loop_
_space_group_symop_operation_xyz
x,y,z
1/2-x,-y,z
1/2+x,-y,-z
-x,y,-z
-x,-y,-z
1/2+x,y,-z
1/2-x,y,z
x,-y,z
loop_
_atom_site_type_symbol
_atom_site_label
_atom_site_fract_x
_atom_site_fract_y
_atom_site_fract_z
Si Si1 0.921098 0.577698 0.739381
Si Si2 0.577131 0.194020 0.406642
Si Si3 0.576139 0.339104 0.406276
Si Si4 0.918237 0.578181 0.085931
Si Si5 0.075749 0.928701 0.405604
O O1 0.750000 0.600156 0.739249
O O2 0.936775 0.500000 0.731313
O O3 0.005140 0.608322 0.657723
O O4 0.995157 0.603555 0.828749
O O5 0.500000 0.197417 0.500000
O O6 0.750000 0.177619 0.417049
O O7 0.553074 0.266037 0.364315
O O8 0.499143 0.133209 0.353386
O O9 0.500000 0.346004 0.500000
O O10 0.750000 0.354656 0.418178
O O11 0.750000 0.605537 0.088323
O O12 0.918154 0.500000 0.083202
O O13 0.000000 0.606295 0.000000
O O14 0.250000 0.915125 0.415902
O O15 0.000000 0.931114 0.500000
O O16 0.048330 0.000000 0.359260
#
# Coordination Sequence:
#
# PCOD8210242 Si02
#       5
#     8   8   8   8   8
#     4  10  20  32  45  61  79 100 129 164 201 240
#     4   9  16  25  37  51  67  90 121 155 190 228
#     4  10  20  32  44  57  74 100 134 169 204 239
#     4   9  16  27  44  64  84 103 122 149 188 234
#     4   9  15  21  31  48  68  89 114 146 184 223
#
# _framework density 14.318879000000001
#
# number of rings (size 3 to 8) (size 9 to 14) (size 15 to 20)
#    0.000    2.600    0.000    4.200    0.000    7.600 
#    0.000    0.000    0.000    0.000    0.000    0.000 
#    0.000    0.000    0.000    0.000    0.000    1.000 
#
# Total GULP energy -495583.314425 kJ/mol
# GULP energy per Si atom -12389.582861 kJ/mol
# Density = 1.428629 g / cm^3
# Si number density = 14.318879 Si / 1000 Ang^3
#
#
#
# Elastic Constant Matrix: (Units=GPa)
#
#
# Indices 1 2 3 4 5 6 
#
# 1 129.1641 38.2124 43.8194 0.0000 0.0000 0.0000
# 2 38.2124 41.6154 27.8773 0.0000 0.0000 0.0000
# 3 43.8194 27.8773 69.2353 0.0000 0.0000 0.0000
# 4 0.0000 0.0000 0.0000 -0.0802 0.0000 0.0000
# 5 0.0000 0.0000 0.0000 0.0000 21.0456 0.0000
# 6 0.0000 0.0000 0.0000 0.0000 0.0000 22.0375
#
#
#
# Elastic Compliance Matrix: (Units=1/GPa)
#
#
# Indices 1 2 3 4 5 6 
#
# 1 0.011427 -0.007734 -0.004118 0.000000 0.000000 0.000000
# 2 -0.007734 0.038139 -0.010462 0.000000 0.000000 0.000000
# 3 -0.004118 -0.010462 0.021262 0.000000 0.000000 0.000000
# 4 0.000000 0.000000 0.000000-12.465729 0.000000 0.000000
# 5 0.000000 0.000000 0.000000 0.000000 0.047516 0.000000
# 6 0.000000 0.000000 0.000000 0.000000 0.000000 0.045377
#
#
# Mechanical properties :
#
#
# Convention : Reuss Voigt Hill
#
# Bulk Modulus (GPa) = 38.16676 51.09254 44.62965
# Shear Modulus (GPa) = -0.40821 17.27430 8.43305
#
# Velocity S-wave (km/s) = -0.53451 3.47710 2.42945
# Velocity P-wave (km/s) = 5.13145 7.20275 6.25346
#
# Compressibility (1/GPa) = 0.02620081
#
# Stress axis : x y z
#
# Youngs Moduli (GPa) = 87.50947 26.21965 47.03152
#
# Poissons Ratio (x) = 0.20279 0.19369
# Poissons Ratio (y) = 0.67681 0.49203
# Poissons Ratio (z) = 0.36039 0.27430
#
# Static dielectric constant tensor:
#      x y z
#    x 3.045650 0.000000 0.000000 
#    y 0.000000 3.515620 0.000000 
#    z 0.000000 0.000000 2.434840 
# 
# 
# High freq. dielectric constant tensor:
#      x y z
#    x 1.573940 0.000000 0.000000 
#    y 0.000000 1.538170 0.000000 
#    z 0.000000 0.000000 1.486610 
# 
# From -- ./inp_files/20780.got.cif
#   From: 2010.03.12/outbox.cif.g09.slc.cpg/sg51_11_cif.got.tgz:20780.got - 2010.04.16 13:43:02.
