data_PCOD8210894
_publ_section_title
;
Structure prediction by ZEFSAII (Michael W. Deem and Ramdas Pophale) SiO2 
 PCOD8210894
Probable space group: P M M A
;
_chemical_formula_sum "Si O2"
_cell_formula_units_Z 64
_cell_length_a 8.795659
_cell_length_b 28.021389
_cell_length_c 13.800317
_cell_angle_alpha 90.000000
_cell_angle_beta 90.000000
_cell_angle_gamma 90.000000
_cell_volume 3401.316966
_symmetry_space_group_name_H-M "P M M A"
_symmetry_group_IT_number 51
_symmetry_cell_setting 'orthorhombic'
loop_
_space_group_symop_operation_xyz
x,y,z
1/2-x,-y,z
1/2+x,-y,-z
-x,y,-z
-x,-y,-z
1/2+x,y,-z
1/2-x,y,z
x,-y,z
loop_
_atom_site_type_symbol
_atom_site_label
_atom_site_fract_x
_atom_site_fract_y
_atom_site_fract_z
Si Si1 0.420497 0.056620 0.404250
Si Si2 0.426906 0.444712 0.601262
Si Si3 0.928712 0.220115 0.222592
Si Si4 0.428875 0.272515 0.394923
Si Si5 0.572150 0.944728 0.205648
Si Si6 0.429723 0.861276 0.101433
Si Si7 0.428102 0.686130 0.895435
Si Si8 0.571952 0.634115 0.724075
O O1 0.500000 0.078227 0.500000
O O2 0.250000 0.077414 0.395081
O O3 0.517985 0.072232 0.311543
O O4 0.414410 0.000000 0.412674
O O5 0.500000 0.428937 0.500000
O O6 0.250000 0.432762 0.595589
O O7 0.458539 0.500000 0.622940
O O8 0.502834 0.415426 0.687623
O O9 0.750000 0.211214 0.231145
O O10 0.968357 0.262126 0.147473
O O11 0.995318 0.232295 0.327811
O O12 0.009905 0.172445 0.186504
O O13 0.500000 0.268094 0.500000
O O14 0.250000 0.263529 0.399396
O O15 0.468228 0.324598 0.352833
O O16 0.750000 0.934540 0.196274
O O17 0.482346 0.915185 0.124322
O O18 0.532812 0.000000 0.188191
O O19 0.250000 0.858396 0.094187
O O20 0.500000 0.844312 0.000000
O O21 0.250000 0.677834 0.902506
O O22 0.498026 0.645356 0.827521
O O23 0.500000 0.681458 0.000000
O O24 0.750000 0.628359 0.738784
#
# Coordination Sequence:
#
# PCOD8210894 Si02
#       8
#     8   8   8   8   8   8   8   8
#     4   9  16  28  49  77 107 138 171 207 249 297
#     4  10  20  33  50  74 106 144 186 231 278 329
#     4  10  21  38  59  83 111 143 179 219 264 316
#     4  10  20  34  54  82 115 150 185 222 268 322
#     4  10  21  38  59  83 111 142 178 220 264 312
#     4  12  25  41  61  83 109 141 177 218 265 317
#     4  10  20  34  55  81 109 140 177 223 272 322
#     4  10  20  33  52  78 109 145 186 230 275 326
#
# _framework density 18.816241000000002
#
# number of rings (size 3 to 8) (size 9 to 14) (size 15 to 20)
#    0.000    1.875    0.000    4.500    0.000    8.250 
#    0.000    0.625    0.000    0.375    0.000    0.000 
#    0.000    0.000    0.000    0.000    0.000    0.000 
#
# Total GULP energy -793938.106618 kJ/mol
# GULP energy per Si atom -12405.282916 kJ/mol
# Density = 1.877341 g / cm^3
# Si number density = 18.816241 Si / 1000 Ang^3
#
#
#
# Elastic Constant Matrix: (Units=GPa)
#
#
# Indices 1 2 3 4 5 6 
#
# 1 124.5221 47.9486 63.1729 0.0000 0.0000 0.0000
# 2 47.9486 71.4495 48.0146 0.0000 0.0000 0.0000
# 3 63.1729 48.0146 136.4113 0.0000 0.0000 0.0000
# 4 0.0000 0.0000 0.0000 28.8618 0.0000 0.0000
# 5 0.0000 0.0000 0.0000 0.0000 40.2226 0.0000
# 6 0.0000 0.0000 0.0000 0.0000 0.0000 29.5513
#
#
#
# Elastic Compliance Matrix: (Units=1/GPa)
#
#
# Indices 1 2 3 4 5 6 
#
# 1 0.012027 -0.005669 -0.003574 0.000000 0.000000 0.000000
# 2 -0.005669 0.021004 -0.004768 0.000000 0.000000 0.000000
# 3 -0.003574 -0.004768 0.010664 0.000000 0.000000 0.000000
# 4 0.000000 0.000000 0.000000 0.034648 0.000000 0.000000
# 5 0.000000 0.000000 0.000000 0.000000 0.024862 0.000000
# 6 0.000000 0.000000 0.000000 0.000000 0.000000 0.033839
#
#
# Mechanical properties :
#
#
# Convention : Reuss Voigt Hill
#
# Bulk Modulus (GPa) = 63.80362 72.29501 68.04931
# Shear Modulus (GPa) = 29.36141 31.27692 30.31917
#
# Velocity S-wave (km/s) = 3.95451 4.08147 4.01849
# Velocity P-wave (km/s) = 7.40495 7.79206 7.60097
#
# Compressibility (1/GPa) = 0.01567309
#
# Stress axis : x y z
#
# Youngs Moduli (GPa) = 83.14613 47.60914 93.77127
#
# Poissons Ratio (x) = 0.26990 0.33517
# Poissons Ratio (y) = 0.47137 0.44708
# Poissons Ratio (z) = 0.29719 0.22699
#
# Static dielectric constant tensor:
#      x y z
#    x 3.656070 0.000000 0.000000 
#    y 0.000000 3.300980 0.000000 
#    z 0.000000 0.000000 3.459850 
# 
# 
# High freq. dielectric constant tensor:
#      x y z
#    x 1.750810 0.000000 0.000000 
#    y 0.000000 1.710430 0.000000 
#    z 0.000000 0.000000 1.732440 
# 
# From -- ./inp_files/14803.got.cif
#   From: 2010.03.12/outbox.cif.g09.slc.cpg/sg51_8_cif.got.tgz:14803.got - 2010.04.16 13:43:02.
