data_PCOD8210554
_publ_section_title
;
Structure prediction by ZEFSAII (Michael W. Deem and Ramdas Pophale) SiO2 
 PCOD8210554
Probable space group: P M M A
;
_chemical_formula_sum "Si O2"
_cell_formula_units_Z 44
_cell_length_a 9.597908
_cell_length_b 8.171061
_cell_length_c 29.867613
_cell_angle_alpha 90.000000
_cell_angle_beta 90.000000
_cell_angle_gamma 90.000000
_cell_volume 2342.370290
_symmetry_space_group_name_H-M "P M M A"
_symmetry_group_IT_number 51
_symmetry_cell_setting 'orthorhombic'
loop_
_space_group_symop_operation_xyz
x,y,z
1/2-x,-y,z
1/2+x,-y,-z
-x,y,-z
-x,-y,-z
1/2+x,y,-z
1/2-x,y,z
x,-y,z
loop_
_atom_site_type_symbol
_atom_site_label
_atom_site_fract_x
_atom_site_fract_y
_atom_site_fract_z
Si Si1 0.590287 0.308075 0.541292
Si Si2 0.405083 0.311586 0.714545
Si Si3 0.586423 0.185407 0.193338
Si Si4 0.584598 0.318029 0.101604
Si Si5 0.083356 0.000000 0.954334
Si Si6 0.408738 0.188901 0.363265
O O1 0.500000 0.240527 0.500000
O O2 0.750000 0.264169 0.531027
O O3 0.567414 0.500000 0.547977
O O4 0.537897 0.219674 0.586334
O O5 0.250000 0.238537 0.705385
O O6 0.393006 0.500000 0.725998
O O7 0.478258 0.229409 0.758165
O O8 0.498137 0.289006 0.670970
O O9 0.750000 0.216990 0.197963
O O10 0.526710 0.293506 0.152284
O O11 0.551420 0.000000 0.180844
O O12 0.750000 0.310723 0.102867
O O13 0.535251 0.500000 0.084630
O O14 0.533792 0.166611 0.070907
O O15 0.250000 0.000000 0.961974
O O16 0.000000 0.000000 0.000000
O O17 0.250000 0.251662 0.359205
O O18 0.421631 0.000000 0.351055
#
# Coordination Sequence:
#
# PCOD8210554 Si02
#       6
#     8   8   8   8   4   8
#     4   9  18  33  52  72  94 123 160 202 247 295
#     4  10  20  32  49  76 105 132 165 207 254 300
#     4   9  15  26  46  73 104 133 164 207 255 299
#     4   9  16  28  48  74 103 135 173 214 257 309
#     4  10  20  34  52  76 104 136 174 216 263 308
#     4  10  21  36  52  71  99 135 171 204 245 301
#
# _framework density 18.784390999999999
#
# number of rings (size 3 to 8) (size 9 to 14) (size 15 to 20)
#    0.000    2.545    0.909    1.636    0.000    5.818 
#    0.000    1.818    0.000    1.091    0.000    0.000 
#    0.000    0.000    0.000    0.000    0.000    0.000 
#
# Total GULP energy -545371.147687 kJ/mol
# GULP energy per Si atom -12394.798811 kJ/mol
# Density = 1.874164 g / cm^3
# Si number density = 18.784391 Si / 1000 Ang^3
#
#
#
# Elastic Constant Matrix: (Units=GPa)
#
#
# Indices 1 2 3 4 5 6 
#
# 1 37.3047 18.7609 44.6197 0.0000 0.0000 0.0000
# 2 18.7609 84.7873 50.8572 0.0000 0.0000 0.0000
# 3 44.6197 50.8572 142.8501 0.0000 0.0000 0.0000
# 4 0.0000 0.0000 0.0000 32.8450 0.0000 0.0000
# 5 0.0000 0.0000 0.0000 0.0000 25.7151 0.0000
# 6 0.0000 0.0000 0.0000 0.0000 0.0000 13.2090
#
#
#
# Elastic Compliance Matrix: (Units=1/GPa)
#
#
# Indices 1 2 3 4 5 6 
#
# 1 0.043023 -0.001855 -0.012778 0.000000 0.000000 0.000000
# 2 -0.001855 0.015077 -0.004788 0.000000 0.000000 0.000000
# 3 -0.012778 -0.004788 0.012696 0.000000 0.000000 0.000000
# 4 0.000000 0.000000 0.000000 0.030446 0.000000 0.000000
# 5 0.000000 0.000000 0.000000 0.000000 0.038888 0.000000
# 6 0.000000 0.000000 0.000000 0.000000 0.000000 0.075706
#
#
# Mechanical properties :
#
#
# Convention : Reuss Voigt Hill
#
# Bulk Modulus (GPa) = 31.29565 54.82420 43.05992
# Shear Modulus (GPa) = 18.84456 24.40077 21.62266
#
# Velocity S-wave (km/s) = 3.17077 3.60806 3.39646
# Velocity P-wave (km/s) = 5.48650 6.82692 6.19308
#
# Compressibility (1/GPa) = 0.03195332
#
# Stress axis : x y z
#
# Youngs Moduli (GPa) = 23.24356 66.32737 78.76389
#
# Poissons Ratio (x) = 0.12306 1.00643
# Poissons Ratio (y) = 0.04312 0.37713
# Poissons Ratio (z) = 0.29700 0.31758
#
# Static dielectric constant tensor:
#      x y z
#    x 3.004460 0.000000 0.000000 
#    y 0.000000 3.580210 0.000000 
#    z 0.000000 0.000000 3.536150 
# 
# 
# High freq. dielectric constant tensor:
#      x y z
#    x 1.671820 0.000000 0.000000 
#    y 0.000000 1.739560 0.000000 
#    z 0.000000 0.000000 1.738510 
# 
# From -- ./inp_files/36785.got.cif
#   From: 2010.03.12/outbox.cif.g09.slc.cpg/sg51_19_cif.got.tgz:36785.got - 2010.04.16 13:43:02.
