data_PCOD8210648
_publ_section_title
;
Structure prediction by ZEFSAII (Michael W. Deem and Ramdas Pophale) SiO2 
 PCOD8210648
Probable space group: P M M A
;
_chemical_formula_sum "Si O2"
_cell_formula_units_Z 40
_cell_length_a 16.191782
_cell_length_b 8.450985
_cell_length_c 14.822336
_cell_angle_alpha 90.000000
_cell_angle_beta 90.000000
_cell_angle_gamma 90.000000
_cell_volume 2028.236681
_symmetry_space_group_name_H-M "P M M A"
_symmetry_group_IT_number 51
_symmetry_cell_setting 'orthorhombic'
loop_
_space_group_symop_operation_xyz
x,y,z
1/2-x,-y,z
1/2+x,-y,-z
-x,y,-z
-x,-y,-z
1/2+x,y,-z
1/2-x,y,z
x,-y,z
loop_
_atom_site_type_symbol
_atom_site_label
_atom_site_fract_x
_atom_site_fract_y
_atom_site_fract_z
Si Si1 0.250000 0.310899 0.713819
Si Si2 0.921603 0.688534 0.609861
Si Si3 0.250000 0.814048 0.915800
Si Si4 0.105346 0.687819 0.586548
Si Si5 0.841321 0.688073 0.789160
Si Si6 0.091612 0.687468 0.022909
O O1 0.250000 0.500000 0.722509
O O2 0.250000 0.236686 0.812063
O O3 0.328626 0.245966 0.657697
O O4 0.922190 0.500000 0.614492
O O5 0.876506 0.742638 0.516980
O O6 0.875836 0.761961 0.696397
O O7 0.015304 0.751631 0.613608
O O8 0.165553 0.752269 0.961027
O O9 0.250000 0.000000 0.923830
O O10 0.107779 0.500000 0.589835
O O11 0.750000 0.755486 0.804455
O O12 0.840049 0.500000 0.782129
O O13 0.895649 0.742004 0.873995
O O14 0.094471 0.500000 0.011597
O O15 0.000000 0.753009 0.000000
#
# Coordination Sequence:
#
# PCOD8210648 Si02
#       6
#     4   8   4   8   8   8
#     4  10  20  32  53  78 104 138 185 230 271 322
#     4   8  14  24  40  69 109 141 165 205 272 332
#     4  12  26  42  57  78 114 154 191 236 283 340
#     4   8  15  26  41  69 107 139 169 213 266 323
#     4   9  16  26  45  74 106 136 169 215 272 328
#     4  10  21  38  62  87 112 144 187 238 287 336
#
# _framework density 19.721564999999998
#
# number of rings (size 3 to 8) (size 9 to 14) (size 15 to 20)
#    0.000    2.800    1.000    2.100    4.200    0.400 
#    0.000    0.000    0.000    0.000    0.000    5.600 
#    0.000    0.000    0.000    0.000    0.000    0.000 
#
# Total GULP energy -495658.588023 kJ/mol
# GULP energy per Si atom -12391.464701 kJ/mol
# Density = 1.967668 g / cm^3
# Si number density = 19.721565 Si / 1000 Ang^3
#
#
#
# Elastic Constant Matrix: (Units=GPa)
#
#
# Indices 1 2 3 4 5 6 
#
# 1 156.9763 18.4593 99.1759 0.0000 0.0000 0.0000
# 2 18.4593 21.5539 17.2199 0.0000 0.0000 0.0000
# 3 99.1759 17.2199 193.2991 0.0000 0.0000 0.0000
# 4 0.0000 0.0000 0.0000 0.4579 0.0000 0.0000
# 5 0.0000 0.0000 0.0000 0.0000 44.0075 0.0000
# 6 0.0000 0.0000 0.0000 0.0000 0.0000 5.2713
#
#
#
# Elastic Compliance Matrix: (Units=1/GPa)
#
#
# Indices 1 2 3 4 5 6 
#
# 1 0.009856 -0.004738 -0.004635 0.000000 0.000000 0.000000
# 2 -0.004738 0.052228 -0.002222 0.000000 0.000000 0.000000
# 3 -0.004635 -0.002222 0.007749 0.000000 0.000000 0.000000
# 4 0.000000 0.000000 0.000000 2.183718 0.000000 0.000000
# 5 0.000000 0.000000 0.000000 0.000000 0.022723 0.000000
# 6 0.000000 0.000000 0.000000 0.000000 0.000000 0.189706
#
#
# Mechanical properties :
#
#
# Convention : Reuss Voigt Hill
#
# Bulk Modulus (GPa) = 21.43889 71.28218 46.36053
# Shear Modulus (GPa) = 1.99623 25.74562 13.87093
#
# Velocity S-wave (km/s) = 1.00718 3.61703 2.65493
# Velocity P-wave (km/s) = 3.49956 7.32575 5.74080
#
# Compressibility (1/GPa) = 0.04664420
#
# Stress axis : x y z
#
# Youngs Moduli (GPa) = 101.46534 19.14679 129.04739
#
# Poissons Ratio (x) = 0.09072 0.59807
# Poissons Ratio (y) = 0.48074 0.28672
# Poissons Ratio (z) = 0.47024 0.04254
#
# Static dielectric constant tensor:
#      x y z
#    x 3.934740 0.000000 0.000000 
#    y 0.000000 2.867150 0.000000 
#    z 0.000000 0.000000 3.989960 
# 
# 
# High freq. dielectric constant tensor:
#      x y z
#    x 1.778500 0.000000 0.000000 
#    y 0.000000 1.693410 0.000000 
#    z 0.000000 0.000000 1.788820 
# 
# From -- ./inp_files/23788.got.cif
#   From: 2010.03.12/outbox.cif.g09.slc.cpg/sg51_12_cif.got.tgz:23788.got - 2010.04.16 13:43:02.
