data_PCOD8210117
_publ_section_title
;
Structure prediction by ZEFSAII (Michael W. Deem and Ramdas Pophale) SiO2 
 PCOD8210117
Probable space group: P M M A
;
_chemical_formula_sum "Si O2"
_cell_formula_units_Z 48
_cell_length_a 8.856073
_cell_length_b 14.986695
_cell_length_c 18.922952
_cell_angle_alpha 90.000000
_cell_angle_beta 90.000000
_cell_angle_gamma 90.000000
_cell_volume 2511.515972
_symmetry_space_group_name_H-M "P M M A"
_symmetry_group_IT_number 51
_symmetry_cell_setting 'orthorhombic'
loop_
_space_group_symop_operation_xyz
x,y,z
1/2-x,-y,z
1/2+x,-y,-z
-x,y,-z
-x,-y,-z
1/2+x,y,-z
1/2-x,y,z
x,-y,z
loop_
_atom_site_type_symbol
_atom_site_label
_atom_site_fract_x
_atom_site_fract_y
_atom_site_fract_z
Si Si1 0.427467 0.247661 0.424560
Si Si2 0.073710 0.854884 0.829158
Si Si3 0.925886 0.603021 0.334443
Si Si4 0.571631 0.347435 0.180042
Si Si5 0.076986 0.898120 0.669112
Si Si6 0.427441 0.000000 0.076018
Si Si7 0.929539 0.500000 0.076782
O O1 0.500000 0.230669 0.500000
O O2 0.250000 0.253728 0.433493
O O3 0.486135 0.339996 0.392258
O O4 0.467551 0.164175 0.375308
O O5 0.250000 0.868191 0.845841
O O6 0.022478 0.752634 0.838661
O O7 0.035337 0.888242 0.750980
O O8 0.977322 0.911199 0.883740
O O9 0.750000 0.628714 0.338121
O O10 0.952751 0.500000 0.352552
O O11 0.992722 0.624755 0.256724
O O12 0.750000 0.357096 0.184702
O O13 0.510782 0.413218 0.119222
O O14 0.250000 0.868069 0.656697
O O15 0.051876 0.000000 0.645376
O O16 0.250000 0.000000 0.067815
O O17 0.500000 0.000000 0.000000
O O18 0.750000 0.500000 0.069821
O O19 0.000000 0.500000 0.000000
#
# Coordination Sequence:
#
# PCOD8210117 Si02
#       7
#     8   8   8   8   8   4   4
#     4  12  26  42  61  88 126 163 200 250 304 359
#     4  10  19  37  64  91 119 156 199 245 298 361
#     4  10  19  37  66  93 117 155 205 252 301 362
#     4   9  17  33  62  90 116 153 199 240 288 355
#     4  10  20  38  66  94 121 156 199 245 300 365
#     4  12  26  42  60  86 123 160 203 254 306 360
#     4  10  20  36  56  86 121 158 195 238 291 344
#
# _framework density 19.111962999999999
#
# number of rings (size 3 to 8) (size 9 to 14) (size 15 to 20)
#    0.000    1.667    3.333    2.250    0.000    2.667 
#    0.000    3.333    0.000    0.000    0.000    0.000 
#    0.000    0.000    0.000    0.000    0.000    0.000 
#
# Total GULP energy -595362.986347 kJ/mol
# GULP energy per Si atom -12403.395549 kJ/mol
# Density = 1.906846 g / cm^3
# Si number density = 19.111963 Si / 1000 Ang^3
#
#
#
# Elastic Constant Matrix: (Units=GPa)
#
#
# Indices 1 2 3 4 5 6 
#
# 1 96.9236 51.0521 57.3616 0.0000 0.0000 0.0000
# 2 51.0521 134.9342 50.1916 0.0000 0.0000 0.0000
# 3 57.3616 50.1916 100.2802 0.0000 0.0000 0.0000
# 4 0.0000 0.0000 0.0000 40.8990 0.0000 0.0000
# 5 0.0000 0.0000 0.0000 0.0000 33.3670 0.0000
# 6 0.0000 0.0000 0.0000 0.0000 0.0000 25.8029
#
#
#
# Elastic Compliance Matrix: (Units=1/GPa)
#
#
# Indices 1 2 3 4 5 6 
#
# 1 0.016788 -0.003416 -0.007893 0.000000 0.000000 0.000000
# 2 -0.003416 0.009801 -0.002952 0.000000 0.000000 0.000000
# 3 -0.007893 -0.002952 0.015965 0.000000 0.000000 0.000000
# 4 0.000000 0.000000 0.000000 0.024450 0.000000 0.000000
# 5 0.000000 0.000000 0.000000 0.000000 0.029970 0.000000
# 6 0.000000 0.000000 0.000000 0.000000 0.000000 0.038755
#
#
# Mechanical properties :
#
#
# Convention : Reuss Voigt Hill
#
# Bulk Modulus (GPa) = 71.26498 72.14984 71.70741
# Shear Modulus (GPa) = 29.59829 31.58263 30.59046
#
# Velocity S-wave (km/s) = 3.93959 4.06951 4.00508
# Velocity P-wave (km/s) = 7.61991 7.74044 7.68041
#
# Compressibility (1/GPa) = 0.01403214
#
# Stress axis : x y z
#
# Youngs Moduli (GPa) = 59.56649 102.02694 62.63828
#
# Poissons Ratio (x) = 0.34848 0.49443
# Poissons Ratio (y) = 0.20345 0.18490
# Poissons Ratio (z) = 0.47018 0.30118
#
# Static dielectric constant tensor:
#      x y z
#    x 3.222970 0.000000 0.000000 
#    y 0.000000 3.767750 0.000000 
#    z 0.000000 0.000000 3.323680 
# 
# 
# High freq. dielectric constant tensor:
#      x y z
#    x 1.716000 0.000000 0.000000 
#    y 0.000000 1.762370 0.000000 
#    z 0.000000 0.000000 1.745820 
# 
# From -- ./inp_files/27694.got.cif
#   From: 2010.03.12/outbox.cif.g09.slc.cpg/sg51_14_cif.got.tgz:27694.got - 2010.04.16 13:43:02.
