data_PCOD8210784
_publ_section_title
;
Structure prediction by ZEFSAII (Michael W. Deem and Ramdas Pophale) SiO2 
 PCOD8210784
Probable space group: P M M A
;
_chemical_formula_sum "Si O2"
_cell_formula_units_Z 64
_cell_length_a 19.833315
_cell_length_b 9.281872
_cell_length_c 19.909606
_cell_angle_alpha 90.000000
_cell_angle_beta 90.000000
_cell_angle_gamma 90.000000
_cell_volume 3665.165166
_symmetry_space_group_name_H-M "P M M A"
_symmetry_group_IT_number 51
_symmetry_cell_setting 'orthorhombic'
loop_
_space_group_symop_operation_xyz
x,y,z
1/2-x,-y,z
1/2+x,-y,-z
-x,y,-z
-x,-y,-z
1/2+x,y,-z
1/2-x,y,z
x,-y,z
loop_
_atom_site_type_symbol
_atom_site_label
_atom_site_fract_x
_atom_site_fract_y
_atom_site_fract_z
Si Si1 0.572966 0.330488 0.224546
Si Si2 0.425026 0.670304 0.274826
Si Si3 0.413047 0.168643 0.052242
Si Si4 0.944688 0.167159 0.593547
Si Si5 0.940771 0.829420 0.092629
Si Si6 0.673095 0.331730 0.340589
Si Si7 0.328037 0.831800 0.175433
Si Si8 0.905350 0.166370 0.446431
O O1 0.578438 0.500000 0.212731
O O2 0.498483 0.284328 0.248124
O O3 0.592286 0.251106 0.155586
O O4 0.626308 0.276271 0.279888
O O5 0.416157 0.500000 0.277614
O O6 0.413371 0.734166 0.348729
O O7 0.368006 0.736029 0.227837
O O8 0.482253 0.227077 0.084958
O O9 0.350613 0.211198 0.099721
O O10 0.423710 0.000000 0.046842
O O11 0.401662 0.221403 0.975484
O O12 0.901908 0.195951 0.526079
O O13 0.021871 0.212888 0.581629
O O14 0.940048 0.000000 0.614355
O O15 0.935747 0.000000 0.105242
O O16 0.750000 0.292844 0.323158
O O17 0.662586 0.500000 0.351649
O O18 0.652518 0.256771 0.410124
O O19 0.250000 0.794849 0.182632
O O20 0.343060 0.000000 0.188971
O O21 0.892374 0.000000 0.431169
#
# Coordination Sequence:
#
# PCOD8210784 Si02
#       8
#     8   8   8   8   8   8   8   8
#     4  10  20  33  49  76 107 136 174 216 259 304
#     4  11  21  33  52  79 108 138 175 221 260 302
#     4   8  15  29  49  75 101 127 166 210 256 309
#     4   9  18  33  54  80 107 134 167 211 264 312
#     4   9  16  29  52  76 100 130 166 212 259 302
#     4  10  21  37  54  73 105 146 180 211 256 316
#     4  10  20  35  55  76 102 139 177 214 264 322
#     4   9  18  33  54  80 106 131 167 217 262 306
#
# _framework density 17.461696
#
# number of rings (size 3 to 8) (size 9 to 14) (size 15 to 20)
#    0.000    2.500    2.500    1.875    0.000    2.000 
#    0.000    4.375    0.000    1.500    0.000    0.000 
#    0.000    0.000    0.000    0.000    0.000    0.000 
#
# Total GULP energy -793517.443671 kJ/mol
# GULP energy per Si atom -12398.710057 kJ/mol
# Density = 1.742195 g / cm^3
# Si number density = 17.461696 Si / 1000 Ang^3
#
#
#
# Elastic Constant Matrix: (Units=GPa)
#
#
# Indices 1 2 3 4 5 6 
#
# 1 98.8899 41.9955 63.0286 0.0000 0.0000 0.0000
# 2 41.9955 51.1137 56.6134 0.0000 0.0000 0.0000
# 3 63.0286 56.6134 143.2907 0.0000 0.0000 0.0000
# 4 0.0000 0.0000 0.0000 17.9209 0.0000 0.0000
# 5 0.0000 0.0000 0.0000 0.0000 27.3832 0.0000
# 6 0.0000 0.0000 0.0000 0.0000 0.0000 22.0968
#
#
#
# Elastic Compliance Matrix: (Units=1/GPa)
#
#
# Indices 1 2 3 4 5 6 
#
# 1 0.016393 -0.009748 -0.003359 0.000000 0.000000 0.000000
# 2 -0.009748 0.040584 -0.011747 0.000000 0.000000 0.000000
# 3 -0.003359 -0.011747 0.013098 0.000000 0.000000 0.000000
# 4 0.000000 0.000000 0.000000 0.055801 0.000000 0.000000
# 5 0.000000 0.000000 0.000000 0.000000 0.036519 0.000000
# 6 0.000000 0.000000 0.000000 0.000000 0.000000 0.045255
#
#
# Mechanical properties :
#
#
# Convention : Reuss Voigt Hill
#
# Bulk Modulus (GPa) = 49.10026 68.50771 58.80398
# Shear Modulus (GPa) = 18.92896 22.25730 20.59313
#
# Velocity S-wave (km/s) = 3.29603 3.57408 3.43787
# Velocity P-wave (km/s) = 6.53184 7.50669 7.03617
#
# Compressibility (1/GPa) = 0.02036649
#
# Stress axis : x y z
#
# Youngs Moduli (GPa) = 61.00170 24.64050 76.35006
#
# Poissons Ratio (x) = 0.24019 0.25649
# Poissons Ratio (y) = 0.59463 0.89686
# Poissons Ratio (z) = 0.20493 0.28944
#
# Static dielectric constant tensor:
#      x y z
#    x 3.072800 0.000000 0.000000 
#    y 0.000000 3.021220 0.000000 
#    z 0.000000 0.000000 3.441270 
# 
# 
# High freq. dielectric constant tensor:
#      x y z
#    x 1.649260 0.000000 0.000000 
#    y 0.000000 1.657730 0.000000 
#    z 0.000000 0.000000 1.688010 
# 
# From -- ./inp_files/30642.got.cif
#   From: 2010.03.12/outbox.cif.g09.slc.cpg/sg51_16_cif.got.tgz:30642.got - 2010.04.16 13:43:02.
