data_PCOD8210721
_publ_section_title
;
Structure prediction by ZEFSAII (Michael W. Deem and Ramdas Pophale) SiO2 
 PCOD8210721
Probable space group: P M M A
;
_chemical_formula_sum "Si O2"
_cell_formula_units_Z 48
_cell_length_a 9.178906
_cell_length_b 8.749012
_cell_length_c 31.398424
_cell_angle_alpha 90.000000
_cell_angle_beta 90.000000
_cell_angle_gamma 90.000000
_cell_volume 2521.493102
_symmetry_space_group_name_H-M "P M M A"
_symmetry_group_IT_number 51
_symmetry_cell_setting 'orthorhombic'
loop_
_space_group_symop_operation_xyz
x,y,z
1/2-x,-y,z
1/2+x,-y,-z
-x,y,-z
-x,-y,-z
1/2+x,y,-z
1/2-x,y,z
x,-y,z
loop_
_atom_site_type_symbol
_atom_site_label
_atom_site_fract_x
_atom_site_fract_y
_atom_site_fract_z
Si Si1 0.413833 0.817776 0.213425
Si Si2 0.084920 0.317997 0.541163
Si Si3 0.582341 0.319192 0.624788
Si Si4 0.415578 0.181396 0.703941
Si Si5 0.413087 0.818297 0.960484
Si Si6 0.585806 0.818243 0.132811
O O1 0.250000 0.754017 0.218152
O O2 0.510569 0.758034 0.252708
O O3 0.482059 0.751454 0.169669
O O4 0.412863 0.000000 0.212524
O O5 0.250000 0.254122 0.541480
O O6 0.086838 0.500000 0.539939
O O7 0.000000 0.253631 0.500000
O O8 0.000585 0.259162 0.582860
O O9 0.750000 0.266915 0.622102
O O10 0.569349 0.500000 0.628843
O O11 0.507728 0.244025 0.665076
O O12 0.250000 0.242971 0.701862
O O13 0.418129 0.000000 0.702392
O O14 0.250000 0.756978 0.964562
O O15 0.474791 0.768261 0.913945
O O16 0.417178 0.000000 0.963791
O O17 0.500000 0.744134 0.000000
O O18 0.750000 0.756090 0.139487
O O19 0.589094 0.000000 0.135665
#
# Coordination Sequence:
#
# PCOD8210721 Si02
#       6
#     8   8   8   8   8   8
#     4   9  16  25  38  56  76 100 134 176 218 259
#     4   9  16  27  45  69  96 124 154 188 224 263
#     4  10  20  33  50  73  99 125 154 189 228 269
#     4  10  20  33  49  68  91 121 155 190 229 273
#     4   8  13  19  26  37  55  81 114 154 200 248
#     4   8  13  21  31  43  62  89 122 162 207 253
#
# _framework density 19.036341
#
# number of rings (size 3 to 8) (size 9 to 14) (size 15 to 20)
#    0.000    3.000    0.000    3.000    0.000    6.667 
#    0.000    3.333    0.000    0.500    0.000    0.000 
#    0.000    0.000    0.000    0.000    0.000    0.833 
#
# Total GULP energy -594947.179375 kJ/mol
# GULP energy per Si atom -12394.732904 kJ/mol
# Density = 1.899301 g / cm^3
# Si number density = 19.036341 Si / 1000 Ang^3
#
#
#
# Elastic Constant Matrix: (Units=GPa)
#
#
# Indices 1 2 3 4 5 6 
#
# 1 154.1615 10.2524 94.5242 0.0000 0.0000 0.0000
# 2 10.2524 3.2502 10.3999 0.0000 0.0000 0.0000
# 3 94.5242 10.3999 196.6668 0.0000 0.0000 0.0000
# 4 0.0000 0.0000 0.0000 -101.4252 0.0000 0.0000
# 5 0.0000 0.0000 0.0000 0.0000 46.7209 0.0000
# 6 0.0000 0.0000 0.0000 0.0000 0.0000 12.4690
#
#
#
# Elastic Compliance Matrix: (Units=1/GPa)
#
#
# Indices 1 2 3 4 5 6 
#
# 1 0.010151 -0.019752 -0.003835 0.000000 0.000000 0.000000
# 2 -0.019752 0.408767 -0.012123 0.000000 0.000000 0.000000
# 3 -0.003835 -0.012123 0.007569 0.000000 0.000000 0.000000
# 4 0.000000 0.000000 0.000000 -0.009859 0.000000 0.000000
# 5 0.000000 0.000000 0.000000 0.000000 0.021404 0.000000
# 6 0.000000 0.000000 0.000000 0.000000 0.000000 0.080199
#
#
# Mechanical properties :
#
#
# Convention : Reuss Voigt Hill
#
# Bulk Modulus (GPa) = 2.81635 64.93684 33.87660
# Shear Modulus (GPa) = 7.06210 7.47974 7.27092
#
# Velocity S-wave (km/s) = 1.92817 1.98437 1.95647
# Velocity P-wave (km/s) = 2.53768 6.27984 4.78937
#
# Compressibility (1/GPa) = 0.35506908
#
# Stress axis : x y z
#
# Youngs Moduli (GPa) = 98.50783 2.44638 132.12056
#
# Poissons Ratio (x) = 0.04832 0.50663
# Poissons Ratio (y) = 1.94569 1.60166
# Poissons Ratio (z) = 0.37774 0.02966
#
# Static dielectric constant tensor:
#      x y z
#    x 3.800790 0.000000 0.000000 
#    y 0.000000 2.709810 0.000000 
#    z 0.000000 0.000000 3.893260 
# 
# 
# High freq. dielectric constant tensor:
#      x y z
#    x 1.749870 0.000000 0.000000 
#    y 0.000000 1.654740 0.000000 
#    z 0.000000 0.000000 1.763550 
# 
# From -- ./inp_files/36129.got.cif
#   From: 2010.03.12/outbox.cif.g09.slc.cpg/sg51_19_cif.got.tgz:36129.got - 2010.04.16 13:43:02.
