data_PCOD8210766
_publ_section_title
;
Structure prediction by ZEFSAII (Michael W. Deem and Ramdas Pophale) SiO2 
 PCOD8210766
Probable space group: P M M A
;
_chemical_formula_sum "Si O2"
_cell_formula_units_Z 48
_cell_length_a 29.124866
_cell_length_b 9.229804
_cell_length_c 10.193746
_cell_angle_alpha 90.000000
_cell_angle_beta 90.000000
_cell_angle_gamma 90.000000
_cell_volume 2740.250228
_symmetry_space_group_name_H-M "P M M A"
_symmetry_group_IT_number 51
_symmetry_cell_setting 'orthorhombic'
loop_
_space_group_symop_operation_xyz
x,y,z
1/2-x,-y,z
1/2+x,-y,-z
-x,y,-z
-x,-y,-z
1/2+x,y,-z
1/2-x,y,z
x,-y,z
loop_
_atom_site_type_symbol
_atom_site_label
_atom_site_fract_x
_atom_site_fract_y
_atom_site_fract_z
Si Si1 0.635659 0.830657 0.381817
Si Si2 0.196123 0.833241 0.091768
Si Si3 0.362974 0.329864 0.880926
Si Si4 0.531303 0.330794 0.119047
Si Si5 0.300736 0.171922 0.385937
Si Si6 0.529805 0.168373 0.378928
O O1 0.652569 0.745355 0.253951
O O2 0.663669 0.769004 0.506358
O O3 0.582640 0.799532 0.411815
O O4 0.645139 0.000000 0.357797
O O5 0.250000 0.814469 0.063945
O O6 0.184188 0.781542 0.239663
O O7 0.181486 0.000000 0.069362
O O8 0.167837 0.729952 0.997352
O O9 0.354913 0.500000 0.866990
O O10 0.415914 0.292250 0.912076
O O11 0.524447 0.500000 0.142834
O O12 0.513866 0.251103 0.249089
O O13 0.500000 0.274511 0.000000
O O14 0.250000 0.233858 0.418062
O O15 0.299033 0.000000 0.389889
O O16 0.500000 0.227262 0.500000
O O17 0.520456 0.000000 0.354489
#
# Coordination Sequence:
#
# PCOD8210766 Si02
#       6
#     8   8   8   8   8   8
#     4   9  17  31  50  70  95 126 157 193 239 288
#     4   9  18  33  52  73  97 126 160 196 236 285
#     4  10  20  33  49  71  99 128 160 200 241 282
#     4   9  19  35  51  68  94 129 166 200 237 286
#     4   8  15  29  49  71  92 117 154 195 230 272
#     4   9  18  31  47  71  99 123 153 196 243 287
#
# _framework density 17.516648
#
# number of rings (size 3 to 8) (size 9 to 14) (size 15 to 20)
#    0.000    3.000    0.000    1.500    0.000    3.667 
#    0.000    4.167    0.000    1.000    0.000    0.000 
#    0.000    0.000    0.000    0.000    0.000    0.000 
#
# Total GULP energy -595195.000610 kJ/mol
# GULP energy per Si atom -12399.895846 kJ/mol
# Density = 1.747678 g / cm^3
# Si number density = 17.516648 Si / 1000 Ang^3
#
#
#
# Elastic Constant Matrix: (Units=GPa)
#
#
# Indices 1 2 3 4 5 6 
#
# 1 77.7514 36.7679 88.9812 0.0000 0.0000 0.0000
# 2 36.7679 49.5461 57.2234 0.0000 0.0000 0.0000
# 3 88.9812 57.2234 177.3802 0.0000 0.0000 0.0000
# 4 0.0000 0.0000 0.0000 11.3413 0.0000 0.0000
# 5 0.0000 0.0000 0.0000 0.0000 39.5587 0.0000
# 6 0.0000 0.0000 0.0000 0.0000 0.0000 20.9853
#
#
#
# Elastic Compliance Matrix: (Units=1/GPa)
#
#
# Indices 1 2 3 4 5 6 
#
# 1 0.032233 -0.008360 -0.013473 0.000000 0.000000 0.000000
# 2 -0.008360 0.034337 -0.006884 0.000000 0.000000 0.000000
# 3 -0.013473 -0.006884 0.014617 0.000000 0.000000 0.000000
# 4 0.000000 0.000000 0.000000 0.088173 0.000000 0.000000
# 5 0.000000 0.000000 0.000000 0.000000 0.025279 0.000000
# 6 0.000000 0.000000 0.000000 0.000000 0.000000 0.047652
#
#
# Mechanical properties :
#
#
# Convention : Reuss Voigt Hill
#
# Bulk Modulus (GPa) = 42.09641 74.51361 58.30501
# Shear Modulus (GPa) = 16.25262 22.49075 19.37168
#
# Velocity S-wave (km/s) = 3.04935 3.58713 3.32912
# Velocity P-wave (km/s) = 6.04007 7.73226 6.93795
#
# Compressibility (1/GPa) = 0.02375499
#
# Stress axis : x y z
#
# Youngs Moduli (GPa) = 31.02373 29.12280 68.41480
#
# Poissons Ratio (x) = 0.24347 0.92173
# Poissons Ratio (y) = 0.25936 0.47094
# Poissons Ratio (z) = 0.41797 0.20047
#
# Static dielectric constant tensor:
#      x y z
#    x 3.446230 0.000000 0.000000 
#    y 0.000000 3.034060 0.000000 
#    z 0.000000 0.000000 3.450480 
# 
# 
# High freq. dielectric constant tensor:
#      x y z
#    x 1.674600 0.000000 0.000000 
#    y 0.000000 1.655630 0.000000 
#    z 0.000000 0.000000 1.685570 
# 
# From -- ./inp_files/12754.got.cif
#   From: 2010.03.12/outbox.cif.g09.slc.cpg/sg51_7_cif.got.tgz:12754.got - 2010.04.16 13:43:02.
