data_PCOD8210452
_publ_section_title
;
Structure prediction by ZEFSAII (Michael W. Deem and Ramdas Pophale) SiO2 
 PCOD8210452
Probable space group: P M M A
;
_chemical_formula_sum "Si O2"
_cell_formula_units_Z 48
_cell_length_a 9.672637
_cell_length_b 13.757659
_cell_length_c 20.512978
_cell_angle_alpha 90.000000
_cell_angle_beta 90.000000
_cell_angle_gamma 90.000000
_cell_volume 2729.720270
_symmetry_space_group_name_H-M "P M M A"
_symmetry_group_IT_number 51
_symmetry_cell_setting 'orthorhombic'
loop_
_space_group_symop_operation_xyz
x,y,z
1/2-x,-y,z
1/2+x,-y,-z
-x,y,-z
-x,-y,-z
1/2+x,y,-z
1/2-x,y,z
x,-y,z
loop_
_atom_site_type_symbol
_atom_site_label
_atom_site_fract_x
_atom_site_fract_y
_atom_site_fract_z
Si Si1 0.411811 0.607909 0.197476
Si Si2 0.588524 0.887090 0.063025
Si Si3 0.897621 0.389350 0.950302
Si Si4 0.097592 0.886281 0.673831
Si Si5 0.909661 0.215640 0.196390
Si Si6 0.906775 0.884181 0.560006
O O1 0.250000 0.630161 0.207479
O O2 0.446151 0.500000 0.225703
O O3 0.455640 0.611112 0.122083
O O4 0.505958 0.692681 0.226679
O O5 0.750000 0.869316 0.048620
O O6 0.538579 0.824245 0.126062
O O7 0.561172 0.000000 0.079462
O O8 0.500000 0.854925 0.000000
O O9 0.750000 0.335262 0.954118
O O10 0.878105 0.500000 0.973945
O O11 0.000000 0.333888 0.000000
O O12 0.250000 0.843166 0.656073
O O13 0.064354 0.866792 0.749552
O O14 0.980068 0.843420 0.625778
O O15 0.101516 0.000000 0.662875
O O16 0.750000 0.245611 0.191038
O O17 0.750000 0.842375 0.555651
O O18 0.000000 0.846534 0.500000
O O19 0.900044 0.000000 0.559727
#
# Coordination Sequence:
#
# PCOD8210452 Si02
#       6
#     8   8   8   8   8   8
#     4   9  19  34  47  60  83 114 145 182 231 282
#     4   9  18  33  50  67  89 118 153 193 237 284
#     4   8  14  25  40  56  73  95 125 162 208 263
#     4   9  17  30  47  67  94 126 156 188 227 269
#     4  10  20  32  48  69  90 116 153 195 237 280
#     4   9  16  26  42  66  96 129 161 188 216 256
#
# _framework density 17.584219000000001
#
# number of rings (size 3 to 8) (size 9 to 14) (size 15 to 20)
#    0.000    3.000    0.000    2.000    0.000    7.000 
#    0.000    5.000    0.000    5.000    0.000    0.000 
#    0.000    0.667    0.000    2.167    0.000    3.167 
#
# Total GULP energy -594708.609305 kJ/mol
# GULP energy per Si atom -12389.762694 kJ/mol
# Density = 1.754420 g / cm^3
# Si number density = 17.584219 Si / 1000 Ang^3
#
#
#
# Elastic Constant Matrix: (Units=GPa)
#
#
# Indices 1 2 3 4 5 6 
#
# 1 91.2965 25.5842 48.9160 0.0000 0.0000 0.0000
# 2 25.5842 46.6397 10.5563 0.0000 0.0000 0.0000
# 3 48.9160 10.5563 88.0414 0.0000 0.0000 0.0000
# 4 0.0000 0.0000 0.0000 4.8164 0.0000 0.0000
# 5 0.0000 0.0000 0.0000 0.0000 28.6792 0.0000
# 6 0.0000 0.0000 0.0000 0.0000 0.0000 19.7808
#
#
#
# Elastic Compliance Matrix: (Units=1/GPa)
#
#
# Indices 1 2 3 4 5 6 
#
# 1 0.018002 -0.007824 -0.009064 0.000000 0.000000 0.000000
# 2 -0.007824 0.025439 0.001297 0.000000 0.000000 0.000000
# 3 -0.009064 0.001297 0.016239 0.000000 0.000000 0.000000
# 4 0.000000 0.000000 0.000000 0.207624 0.000000 0.000000
# 5 0.000000 0.000000 0.000000 0.000000 0.034868 0.000000
# 6 0.000000 0.000000 0.000000 0.000000 0.000000 0.050554
#
#
# Mechanical properties :
#
#
# Convention : Reuss Voigt Hill
#
# Bulk Modulus (GPa) = 35.08999 44.01009 39.55004
# Shear Modulus (GPa) = 12.70944 20.05001 16.37973
#
# Velocity S-wave (km/s) = 2.69137 3.38039 3.05536
# Velocity P-wave (km/s) = 5.44579 6.34969 5.91503
#
# Compressibility (1/GPa) = 0.02849816
#
# Stress axis : x y z
#
# Youngs Moduli (GPa) = 55.54900 39.30957 61.58096
#
# Poissons Ratio (x) = 0.30754 0.55817
# Poissons Ratio (y) = 0.43459 -0.07984
# Poissons Ratio (z) = 0.50349 -0.05097
#
# Static dielectric constant tensor:
#      x y z
#    x 3.503900 0.000000 0.000000 
#    y 0.000000 3.026360 0.000000 
#    z 0.000000 0.000000 3.122260 
# 
# 
# High freq. dielectric constant tensor:
#      x y z
#    x 1.686890 0.000000 0.000000 
#    y 0.000000 1.640950 0.000000 
#    z 0.000000 0.000000 1.654900 
# 
# From -- ./inp_files/31599.got.cif
#   From: 2010.03.12/outbox.cif.g09.slc.cpg/sg51_16_cif.got.tgz:31599.got - 2010.04.16 13:43:02.
