data_PCOD8210751
_publ_section_title
;
Structure prediction by ZEFSAII (Michael W. Deem and Ramdas Pophale) SiO2 
 PCOD8210751
Probable space group: P M M A
;
_chemical_formula_sum "Si O2"
_cell_formula_units_Z 48
_cell_length_a 23.550068
_cell_length_b 9.309207
_cell_length_c 11.639717
_cell_angle_alpha 90.000000
_cell_angle_beta 90.000000
_cell_angle_gamma 90.000000
_cell_volume 2551.803767
_symmetry_space_group_name_H-M "P M M A"
_symmetry_group_IT_number 51
_symmetry_cell_setting 'orthorhombic'
loop_
_space_group_symop_operation_xyz
x,y,z
1/2-x,-y,z
1/2+x,-y,-z
-x,y,-z
-x,-y,-z
1/2+x,y,-z
1/2-x,y,z
x,-y,z
loop_
_atom_site_type_symbol
_atom_site_label
_atom_site_fract_x
_atom_site_fract_y
_atom_site_fract_z
Si Si1 0.312903 0.339330 0.190809
Si Si2 0.915613 0.667230 0.963991
Si Si3 0.469971 0.164137 0.235893
Si Si4 0.633971 0.830938 0.615632
Si Si5 0.905865 0.835144 0.197130
Si Si6 0.314944 0.170906 0.620728
O O1 0.250000 0.322260 0.141448
O O2 0.324669 0.500000 0.237650
O O3 0.353091 0.304360 0.084529
O O4 0.320918 0.229950 0.294636
O O5 0.931316 0.500000 0.974533
O O6 0.960718 0.739999 0.877970
O O7 0.915758 0.737463 0.087736
O O8 0.429755 0.214665 0.342558
O O9 0.536029 0.176304 0.272914
O O10 0.454401 0.000000 0.203550
O O11 0.651536 0.768944 0.491082
O O12 0.640563 0.000000 0.613363
O O13 0.852004 0.777768 0.269900
O O14 0.895891 0.000000 0.159338
O O15 0.250000 0.230641 0.627593
O O16 0.313546 0.000000 0.616911
#
# Coordination Sequence:
#
# PCOD8210751 Si02
#       6
#     8   8   8   8   8   8
#     4   9  18  32  49  70  97 127 159 200 248 290
#     4  10  20  33  50  72  98 129 164 201 242 287
#     4   9  18  32  51  75  99 124 158 200 244 288
#     4   9  17  31  52  75  97 123 159 201 242 286
#     4  10  20  33  49  70  99 132 162 195 237 286
#     4   9  18  32  50  73 100 129 161 198 239 282
#
# _framework density 18.810224000000002
#
# number of rings (size 3 to 8) (size 9 to 14) (size 15 to 20)
#    0.000    2.667    0.000    1.500    0.000    5.667 
#    0.000    4.167    0.000    1.000    0.000    5.833 
#    0.000    0.000    0.000    0.000    0.000    0.000 
#
# Total GULP energy -594934.701953 kJ/mol
# GULP energy per Si atom -12394.472957 kJ/mol
# Density = 1.876741 g / cm^3
# Si number density = 18.810224 Si / 1000 Ang^3
#
#
#
# Elastic Constant Matrix: (Units=GPa)
#
#
# Indices 1 2 3 4 5 6 
#
# 1 130.5911 26.9329 62.5072 0.0000 0.0000 0.0000
# 2 26.9329 40.7236 26.5364 0.0000 0.0000 0.0000
# 3 62.5072 26.5364 88.6258 0.0000 0.0000 0.0000
# 4 0.0000 0.0000 0.0000 8.5921 0.0000 0.0000
# 5 0.0000 0.0000 0.0000 0.0000 16.1131 0.0000
# 6 0.0000 0.0000 0.0000 0.0000 0.0000 16.4750
#
#
#
# Elastic Compliance Matrix: (Units=1/GPa)
#
#
# Indices 1 2 3 4 5 6 
#
# 1 0.011842 -0.002969 -0.007463 0.000000 0.000000 0.000000
# 2 -0.002969 0.031252 -0.007264 0.000000 0.000000 0.000000
# 3 -0.007463 -0.007264 0.018722 0.000000 0.000000 0.000000
# 4 0.000000 0.000000 0.000000 0.116386 0.000000 0.000000
# 5 0.000000 0.000000 0.000000 0.000000 0.062061 0.000000
# 6 0.000000 0.000000 0.000000 0.000000 0.000000 0.060698
#
#
# Mechanical properties :
#
#
# Convention : Reuss Voigt Hill
#
# Bulk Modulus (GPa) = 37.84278 54.65483 46.24880
# Shear Modulus (GPa) = 14.48597 17.83363 16.15980
#
# Velocity S-wave (km/s) = 2.77810 3.08243 2.93421
# Velocity P-wave (km/s) = 5.51836 6.46433 6.00999
#
# Compressibility (1/GPa) = 0.02642512
#
# Stress axis : x y z
#
# Youngs Moduli (GPa) = 84.44521 31.99752 53.41277
#
# Poissons Ratio (x) = 0.09499 0.39863
# Poissons Ratio (y) = 0.25068 0.38798
# Poissons Ratio (z) = 0.63023 0.23243
#
# Static dielectric constant tensor:
#      x y z
#    x 3.801350 0.000000 0.000000 
#    y 0.000000 3.290590 0.000000 
#    z 0.000000 0.000000 3.346240 
# 
# 
# High freq. dielectric constant tensor:
#      x y z
#    x 1.746170 0.000000 0.000000 
#    y 0.000000 1.706280 0.000000 
#    z 0.000000 0.000000 1.713510 
# 
# From -- ./inp_files/18597.got.cif
#   From: 2010.03.12/outbox.cif.g09.slc.cpg/sg51_10_cif.got.tgz:18597.got - 2010.04.16 13:43:02.
