data_PCOD8210682
_publ_section_title
;
Structure prediction by ZEFSAII (Michael W. Deem and Ramdas Pophale) SiO2 
 PCOD8210682
Probable space group: P M M A
;
_chemical_formula_sum "Si O2"
_cell_formula_units_Z 64
_cell_length_a 9.374890
_cell_length_b 17.637603
_cell_length_c 20.874304
_cell_angle_alpha 90.000000
_cell_angle_beta 90.000000
_cell_angle_gamma 90.000000
_cell_volume 3451.578440
_symmetry_space_group_name_H-M "P M M A"
_symmetry_group_IT_number 51
_symmetry_cell_setting 'orthorhombic'
loop_
_space_group_symop_operation_xyz
x,y,z
1/2-x,-y,z
1/2+x,-y,-z
-x,y,-z
-x,-y,-z
1/2+x,y,-z
1/2-x,y,z
x,-y,z
loop_
_atom_site_type_symbol
_atom_site_label
_atom_site_fract_x
_atom_site_fract_y
_atom_site_fract_z
Si Si1 0.419083 0.633459 0.220288
Si Si2 0.910942 0.417331 0.331995
Si Si3 0.410730 0.747704 0.941151
Si Si4 0.580655 0.216624 0.202462
Si Si5 0.915474 0.868779 0.437022
Si Si6 0.418231 0.915509 0.702520
Si Si7 0.910256 0.416028 0.102889
Si Si8 0.587337 0.691943 0.440778
O O1 0.250000 0.643377 0.220698
O O2 0.474744 0.578448 0.275344
O O3 0.495846 0.713754 0.232873
O O4 0.467380 0.593546 0.155185
O O5 0.750000 0.398125 0.307646
O O6 0.911371 0.500000 0.365334
O O7 0.967061 0.353024 0.379430
O O8 0.250000 0.772329 0.954185
O O9 0.460274 0.784997 0.873379
O O10 0.426876 0.655765 0.944223
O O11 0.500000 0.782427 0.000000
O O12 0.750000 0.229576 0.209956
O O13 0.527830 0.142447 0.242139
O O14 0.750000 0.890464 0.447063
O O15 0.977397 0.902251 0.369994
O O16 0.939311 0.779913 0.429186
O O17 0.000000 0.899410 0.500000
O O18 0.250000 0.906153 0.697477
O O19 0.463115 0.000000 0.724524
O O20 0.750000 0.411400 0.133124
O O21 0.930200 0.500000 0.070213
O O22 0.500000 0.660437 0.500000
O O23 0.750000 0.672946 0.455098
#
# Coordination Sequence:
#
# PCOD8210682 Si02
#       8
#     8   8   8   8   8   8   8   8
#     4  11  21  31  47  72  98 125 163 208 249 292
#     4  10  20  33  48  65  89 125 165 205 255 309
#     4   9  18  31  49  73  99 131 170 210 252 298
#     4   9  18  35  56  75  99 132 168 206 249 299
#     4   9  17  30  49  73 102 133 164 199 239 287
#     4   9  17  31  55  83 104 127 166 210 243 280
#     4   9  18  33  50  68  96 134 170 204 248 300
#     4   9  18  32  48  65  87 120 161 202 244 292
#
# _framework density 18.542241000000001
#
# number of rings (size 3 to 8) (size 9 to 14) (size 15 to 20)
#    0.000    2.625    0.000    3.000    0.000    7.250 
#    0.000    3.125    0.000    1.500    0.000    0.000 
#    0.000    0.000    0.000    0.000    0.000    0.250 
#
# Total GULP energy -792991.567310 kJ/mol
# GULP energy per Si atom -12390.493239 kJ/mol
# Density = 1.850004 g / cm^3
# Si number density = 18.542241 Si / 1000 Ang^3
#
#
#
# Elastic Constant Matrix: (Units=GPa)
#
#
# Indices 1 2 3 4 5 6 
#
# 1 60.5069 20.0375 34.9586 0.0000 0.0000 0.0000
# 2 20.0375 74.3965 42.5684 0.0000 0.0000 0.0000
# 3 34.9586 42.5684 102.8430 0.0000 0.0000 0.0000
# 4 0.0000 0.0000 0.0000 10.9799 0.0000 0.0000
# 5 0.0000 0.0000 0.0000 0.0000 30.7196 0.0000
# 6 0.0000 0.0000 0.0000 0.0000 0.0000 12.0122
#
#
#
# Elastic Compliance Matrix: (Units=1/GPa)
#
#
# Indices 1 2 3 4 5 6 
#
# 1 0.020800 -0.002040 -0.006226 0.000000 0.000000 0.000000
# 2 -0.002040 0.017813 -0.006680 0.000000 0.000000 0.000000
# 3 -0.006226 -0.006680 0.014605 0.000000 0.000000 0.000000
# 4 0.000000 0.000000 0.000000 0.091076 0.000000 0.000000
# 5 0.000000 0.000000 0.000000 0.000000 0.032553 0.000000
# 6 0.000000 0.000000 0.000000 0.000000 0.000000 0.083248
#
#
# Mechanical properties :
#
#
# Convention : Reuss Voigt Hill
#
# Bulk Modulus (GPa) = 42.86964 48.09728 45.48346
# Shear Modulus (GPa) = 16.79202 20.08779 18.43990
#
# Velocity S-wave (km/s) = 3.01260 3.29500 3.15696
# Velocity P-wave (km/s) = 5.93895 6.36174 6.15398
#
# Compressibility (1/GPa) = 0.02332653
#
# Stress axis : x y z
#
# Youngs Moduli (GPa) = 48.07770 56.13918 68.47080
#
# Poissons Ratio (x) = 0.11450 0.42630
# Poissons Ratio (y) = 0.09806 0.45737
# Poissons Ratio (z) = 0.29933 0.37499
#
# Static dielectric constant tensor:
#      x y z
#    x 3.201820 0.000000 0.000000 
#    y 0.000000 3.396070 0.000000 
#    z 0.000000 0.000000 3.396240 
# 
# 
# High freq. dielectric constant tensor:
#      x y z
#    x 1.694680 0.000000 0.000000 
#    y 0.000000 1.706900 0.000000 
#    z 0.000000 0.000000 1.711500 
# 
# From -- ./inp_files/32328.got.cif
#   From: 2010.03.12/outbox.cif.g09.slc.cpg/sg51_17_cif.got.tgz:32328.got - 2010.04.16 13:43:02.
