data_PCOD8210800
_publ_section_title
;
Structure prediction by ZEFSAII (Michael W. Deem and Ramdas Pophale) SiO2 
 PCOD8210800
Probable space group: P M M A
;
_chemical_formula_sum "Si O2"
_cell_formula_units_Z 40
_cell_length_a 8.892551
_cell_length_b 13.660321
_cell_length_c 18.825188
_cell_angle_alpha 90.000000
_cell_angle_beta 90.000000
_cell_angle_gamma 90.000000
_cell_volume 2286.791617
_symmetry_space_group_name_H-M "P M M A"
_symmetry_group_IT_number 51
_symmetry_cell_setting 'orthorhombic'
loop_
_space_group_symop_operation_xyz
x,y,z
1/2-x,-y,z
1/2+x,-y,-z
-x,y,-z
-x,-y,-z
1/2+x,y,-z
1/2-x,y,z
x,-y,z
loop_
_atom_site_type_symbol
_atom_site_label
_atom_site_fract_x
_atom_site_fract_y
_atom_site_fract_z
Si Si1 0.427501 0.111372 0.072263
Si Si2 0.572066 0.778635 0.787934
Si Si3 0.076617 0.387745 0.708015
Si Si4 0.927508 0.892855 0.650111
Si Si5 0.071659 0.298012 0.426058
O O1 0.250000 0.116092 0.064764
O O2 0.482949 0.179549 0.136692
O O3 0.480729 0.000000 0.086631
O O4 0.500000 0.152231 0.000000
O O5 0.750000 0.760729 0.785992
O O6 0.489996 0.676073 0.772697
O O7 0.522901 0.856678 0.728004
O O8 0.250000 0.360239 0.695415
O O9 0.056872 0.500000 0.730427
O O10 0.986596 0.369389 0.635309
O O11 0.750000 0.902069 0.648117
O O12 0.979969 0.813625 0.591575
O O13 0.000109 0.000000 0.634761
O O14 0.250000 0.307683 0.430263
O O15 0.000000 0.331075 0.500000
#
# Coordination Sequence:
#
# PCOD8210800 Si02
#       5
#     8   8   8   8   8
#     4   9  17  29  47  74 107 139 167 194 229 275
#     4   9  17  30  50  73  97 127 161 198 237 279
#     4  10  21  36  53  72  93 119 154 199 249 295
#     4   8  14  26  45  68  93 123 158 192 228 273
#     4  10  20  33  50  71  96 126 158 195 238 284
#
# _framework density 17.491755999999999
#
# number of rings (size 3 to 8) (size 9 to 14) (size 15 to 20)
#    0.000    2.800    0.000    3.000    0.000    5.600 
#    0.000    0.000    0.000   19.800    0.000    0.000 
#    0.000    0.000    0.000    0.000    0.000    0.000 
#
# Total GULP energy -495913.558222 kJ/mol
# GULP energy per Si atom -12397.838956 kJ/mol
# Density = 1.745194 g / cm^3
# Si number density = 17.491756 Si / 1000 Ang^3
#
#
#
# Elastic Constant Matrix: (Units=GPa)
#
#
# Indices 1 2 3 4 5 6 
#
# 1 57.9999 32.3549 37.8138 0.0000 0.0000 0.0000
# 2 32.3549 92.6949 41.1203 0.0000 0.0000 0.0000
# 3 37.8138 41.1203 126.4172 0.0000 0.0000 0.0000
# 4 0.0000 0.0000 0.0000 15.4544 0.0000 0.0000
# 5 0.0000 0.0000 0.0000 0.0000 29.0746 0.0000
# 6 0.0000 0.0000 0.0000 0.0000 0.0000 22.1558
#
#
#
# Elastic Compliance Matrix: (Units=1/GPa)
#
#
# Indices 1 2 3 4 5 6 
#
# 1 0.024028 -0.006075 -0.005211 0.000000 0.000000 0.000000
# 2 -0.006075 0.014143 -0.002783 0.000000 0.000000 0.000000
# 3 -0.005211 -0.002783 0.010374 0.000000 0.000000 0.000000
# 4 0.000000 0.000000 0.000000 0.064707 0.000000 0.000000
# 5 0.000000 0.000000 0.000000 0.000000 0.034394 0.000000
# 6 0.000000 0.000000 0.000000 0.000000 0.000000 0.045135
#
#
# Mechanical properties :
#
#
# Convention : Reuss Voigt Hill
#
# Bulk Modulus (GPa) = 49.00403 55.52111 52.26257
# Shear Modulus (GPa) = 21.95654 24.39181 23.17418
#
# Velocity S-wave (km/s) = 3.54680 3.73832 3.64382
# Velocity P-wave (km/s) = 6.69696 7.10236 6.90264
#
# Compressibility (1/GPa) = 0.02040648
#
# Stress axis : x y z
#
# Youngs Moduli (GPa) = 41.61834 70.70492 96.39139
#
# Poissons Ratio (x) = 0.42955 0.50230
# Poissons Ratio (y) = 0.25284 0.26828
# Poissons Ratio (z) = 0.21688 0.19679
#
# Static dielectric constant tensor:
#      x y z
#    x 3.085550 0.000000 0.000000 
#    y 0.000000 3.366490 0.000000 
#    z 0.000000 0.000000 3.240160 
# 
# 
# High freq. dielectric constant tensor:
#      x y z
#    x 1.661600 0.000000 0.000000 
#    y 0.000000 1.669290 0.000000 
#    z 0.000000 0.000000 1.667140 
# 
# From -- ./inp_files/27216.got.cif
#   From: 2010.03.12/outbox.cif.g09.slc.cpg/sg51_14_cif.got.tgz:27216.got - 2010.04.16 13:43:02.
