data_PCOD8210307
_publ_section_title
;
Structure prediction by ZEFSAII (Michael W. Deem and Ramdas Pophale) SiO2 
 PCOD8210307
Probable space group: P M M A
;
_chemical_formula_sum "Si O2"
_cell_formula_units_Z 64
_cell_length_a 9.358608
_cell_length_b 19.251494
_cell_length_c 20.753831
_cell_angle_alpha 90.000000
_cell_angle_beta 90.000000
_cell_angle_gamma 90.000000
_cell_volume 3739.159325
_symmetry_space_group_name_H-M "P M M A"
_symmetry_group_IT_number 51
_symmetry_cell_setting 'orthorhombic'
loop_
_space_group_symop_operation_xyz
x,y,z
1/2-x,-y,z
1/2+x,-y,-z
-x,y,-z
-x,-y,-z
1/2+x,y,-z
1/2-x,y,z
x,-y,z
loop_
_atom_site_type_symbol
_atom_site_label
_atom_site_fract_x
_atom_site_fract_y
_atom_site_fract_z
Si Si1 0.586652 0.582709 0.562065
Si Si2 0.592676 0.082337 0.557495
Si Si3 0.407829 0.181519 0.057700
Si Si4 0.080198 0.656286 0.202481
Si Si5 0.406915 0.346288 0.057946
Si Si6 0.079150 0.077515 0.301124
Si Si7 0.413546 0.582422 0.686268
Si Si8 0.079859 0.813758 0.198341
O O1 0.500000 0.610598 0.500000
O O2 0.750000 0.611237 0.561602
O O3 0.589587 0.500000 0.561453
O O4 0.503373 0.610489 0.625090
O O5 0.500000 0.115582 0.500000
O O6 0.750000 0.115363 0.551868
O O7 0.524844 0.099495 0.627546
O O8 0.602710 0.000000 0.549711
O O9 0.250000 0.148941 0.052237
O O10 0.398759 0.263915 0.050722
O O11 0.477600 0.164340 0.127451
O O12 0.500000 0.148441 0.000000
O O13 0.250000 0.645880 0.212771
O O14 0.035207 0.635478 0.129422
O O15 0.034104 0.735778 0.216714
O O16 0.990216 0.607824 0.249207
O O17 0.250000 0.378653 0.049971
O O18 0.500000 0.378914 0.000000
O O19 0.250000 0.078199 0.301623
O O20 0.015840 0.132370 0.250161
O O21 0.024841 0.000000 0.283313
O O22 0.250000 0.609693 0.682481
O O23 0.414860 0.500000 0.686917
O O24 0.250000 0.817011 0.195540
#
# Coordination Sequence:
#
# PCOD8210307 Si02
#       8
#     8   8   8   8   8   8   8   8
#     4   9  16  27  45  68  92 117 146 181 219 257
#     4   8  13  21  35  56  79 102 131 168 206 241
#     4   8  13  22  37  57  80 105 135 172 210 247
#     4   9  17  29  45  65  88 114 144 178 218 263
#     4   8  14  24  39  60  83 106 136 175 215 254
#     4   8  13  22  39  63  86 108 139 177 211 246
#     4  10  20  32  46  66  91 117 146 181 219 260
#     4   8  14  25  41  61  85 112 142 176 213 253
#
# _framework density 17.116147999999999
#
# number of rings (size 3 to 8) (size 9 to 14) (size 15 to 20)
#    0.000    3.500    0.000    3.000    0.000    2.750 
#    0.000    1.875    0.000    3.000    0.000    1.750 
#    0.000    0.000    0.000    0.000    0.000    0.000 
#
# Total GULP energy -793015.794082 kJ/mol
# GULP energy per Si atom -12390.871783 kJ/mol
# Density = 1.707719 g / cm^3
# Si number density = 17.116148 Si / 1000 Ang^3
#
#
#
# Elastic Constant Matrix: (Units=GPa)
#
#
# Indices 1 2 3 4 5 6 
#
# 1 81.5834 14.3184 62.6561 0.0000 0.0000 0.0000
# 2 14.3184 15.0568 22.8159 0.0000 0.0000 0.0000
# 3 62.6561 22.8159 149.8937 0.0000 0.0000 0.0000
# 4 0.0000 0.0000 0.0000 23.4513 0.0000 0.0000
# 5 0.0000 0.0000 0.0000 0.0000 32.0192 0.0000
# 6 0.0000 0.0000 0.0000 0.0000 0.0000 7.8915
#
#
#
# Elastic Compliance Matrix: (Units=1/GPa)
#
#
# Indices 1 2 3 4 5 6 
#
# 1 0.018720 -0.007727 -0.006649 0.000000 0.000000 0.000000
# 2 -0.007727 0.089516 -0.010396 0.000000 0.000000 0.000000
# 3 -0.006649 -0.010396 0.011033 0.000000 0.000000 0.000000
# 4 0.000000 0.000000 0.000000 0.042642 0.000000 0.000000
# 5 0.000000 0.000000 0.000000 0.000000 0.031231 0.000000
# 6 0.000000 0.000000 0.000000 0.000000 0.000000 0.126719
#
#
# Mechanical properties :
#
#
# Convention : Reuss Voigt Hill
#
# Bulk Modulus (GPa) = 14.34184 49.56830 31.95507
# Shear Modulus (GPa) = 12.73416 22.45531 17.59473
#
# Velocity S-wave (km/s) = 2.73057 3.62600 3.20966
# Velocity P-wave (km/s) = 4.28237 6.82300 5.69614
#
# Compressibility (1/GPa) = 0.06972605
#
# Stress axis : x y z
#
# Youngs Moduli (GPa) = 53.41945 11.17122 90.63714
#
# Poissons Ratio (x) = 0.08632 0.60263
# Poissons Ratio (y) = 0.41275 0.94224
# Poissons Ratio (z) = 0.35518 0.11613
#
# Static dielectric constant tensor:
#      x y z
#    x 3.242540 0.000000 0.000000 
#    y 0.000000 2.752880 0.000000 
#    z 0.000000 0.000000 3.581200 
# 
# 
# High freq. dielectric constant tensor:
#      x y z
#    x 1.636000 0.000000 0.000000 
#    y 0.000000 1.598360 0.000000 
#    z 0.000000 0.000000 1.679830 
# 
# From -- ./inp_files/32562.got.cif
#   From: 2010.03.12/outbox.cif.g09.slc.cpg/sg51_17_cif.got.tgz:32562.got - 2010.04.16 13:43:02.
