data_PCOD8210055
_publ_section_title
;
Structure prediction by ZEFSAII (Michael W. Deem and Ramdas Pophale) SiO2 
 PCOD8210055
Probable space group: P M M A
;
_chemical_formula_sum "Si O2"
_cell_formula_units_Z 64
_cell_length_a 24.854222
_cell_length_b 8.891097
_cell_length_c 14.659075
_cell_angle_alpha 90.000000
_cell_angle_beta 90.000000
_cell_angle_gamma 90.000000
_cell_volume 3239.381431
_symmetry_space_group_name_H-M "P M M A"
_symmetry_group_IT_number 51
_symmetry_cell_setting 'orthorhombic'
loop_
_space_group_symop_operation_xyz
x,y,z
1/2-x,-y,z
1/2+x,-y,-z
-x,y,-z
-x,-y,-z
1/2+x,y,-z
1/2-x,y,z
x,-y,z
loop_
_atom_site_type_symbol
_atom_site_label
_atom_site_fract_x
_atom_site_fract_y
_atom_site_fract_z
Si Si1 0.189419 0.827546 0.822069
Si Si2 0.096293 0.322494 0.708358
Si Si3 0.056339 0.169892 0.047242
Si Si4 0.840646 0.322989 0.995638
Si Si5 0.015493 0.667698 0.213072
Si Si6 0.395246 0.670311 0.352095
Si Si7 0.439117 0.177451 0.521076
Si Si8 0.689630 0.322787 0.795114
O O1 0.250000 0.816005 0.782836
O O2 0.150370 0.739900 0.753591
O O3 0.170293 0.000000 0.828330
O O4 0.190874 0.757225 0.923143
O O5 0.101923 0.500000 0.695328
O O6 0.085321 0.249311 0.611341
O O7 0.046252 0.282667 0.774476
O O8 0.096651 0.281147 0.995046
O O9 0.048464 0.216469 0.151675
O O10 0.078198 0.000000 0.042667
O O11 0.000000 0.189770 0.000000
O O12 0.831465 0.500000 0.005435
O O13 0.821053 0.259395 0.897158
O O14 0.018906 0.500000 0.170258
O O15 0.044962 0.669972 0.310212
O O16 0.378491 0.500000 0.379265
O O17 0.398171 0.774069 0.441006
O O18 0.351778 0.740266 0.280575
O O19 0.500000 0.233633 0.500000
O O20 0.438180 0.000000 0.532554
O O21 0.750000 0.279703 0.764891
O O22 0.680668 0.500000 0.801610
#
# Coordination Sequence:
#
# PCOD8210055 Si02
#       8
#     8   8   8   8   8   8   8   8
#     4  11  25  44  63  87 123 161 199 249 304 358
#     4  11  23  40  65  92 119 155 201 252 301 362
#     4  11  23  35  50  78 118 162 201 243 300 363
#     4  11  21  37  61  88 118 156 206 254 294 349
#     4  10  20  35  56  85 117 151 193 245 302 354
#     4  10  19  36  59  85 119 154 194 245 298 351
#     4  11  23  38  60  91 123 157 196 242 302 369
#     4   9  18  34  58  87 117 152 196 244 290 339
#
# _framework density 19.756858000000001
#
# number of rings (size 3 to 8) (size 9 to 14) (size 15 to 20)
#    0.000    1.500    2.500    3.000    0.000    6.500 
#    0.000    0.625    0.000    4.125    0.000    0.000 
#    0.000    0.000    0.000    0.000    0.000    0.000 
#
# Total GULP energy -793617.861765 kJ/mol
# GULP energy per Si atom -12400.279090 kJ/mol
# Density = 1.971189 g / cm^3
# Si number density = 19.756858 Si / 1000 Ang^3
#
#
#
# Elastic Constant Matrix: (Units=GPa)
#
#
# Indices 1 2 3 4 5 6 
#
# 1 109.3625 34.2725 46.7802 0.0000 0.0000 0.0000
# 2 34.2725 56.8500 30.8298 0.0000 0.0000 0.0000
# 3 46.7802 30.8298 106.0471 0.0000 0.0000 0.0000
# 4 0.0000 0.0000 0.0000 18.6925 0.0000 0.0000
# 5 0.0000 0.0000 0.0000 0.0000 21.9548 0.0000
# 6 0.0000 0.0000 0.0000 0.0000 0.0000 24.4403
#
#
#
# Elastic Compliance Matrix: (Units=1/GPa)
#
#
# Indices 1 2 3 4 5 6 
#
# 1 0.012531 -0.005410 -0.003955 0.000000 0.000000 0.000000
# 2 -0.005410 0.023218 -0.004363 0.000000 0.000000 0.000000
# 3 -0.003955 -0.004363 0.012443 0.000000 0.000000 0.000000
# 4 0.000000 0.000000 0.000000 0.053497 0.000000 0.000000
# 5 0.000000 0.000000 0.000000 0.000000 0.045548 0.000000
# 6 0.000000 0.000000 0.000000 0.000000 0.000000 0.040916
#
#
# Mechanical properties :
#
#
# Convention : Reuss Voigt Hill
#
# Bulk Modulus (GPa) = 48.22673 55.11382 51.67028
# Shear Modulus (GPa) = 22.46977 23.70934 23.08955
#
# Velocity S-wave (km/s) = 3.37607 3.46794 3.42231
# Velocity P-wave (km/s) = 6.29764 6.63265 6.46731
#
# Compressibility (1/GPa) = 0.02073539
#
# Stress axis : x y z
#
# Youngs Moduli (GPa) = 79.80220 43.07062 80.36636
#
# Poissons Ratio (x) = 0.23299 0.31786
# Poissons Ratio (y) = 0.43169 0.35068
# Poissons Ratio (z) = 0.31563 0.18794
#
# Static dielectric constant tensor:
#      x y z
#    x 3.645470 0.000000 0.000000 
#    y 0.000000 3.532770 0.000000 
#    z 0.000000 0.000000 3.719090 
# 
# 
# High freq. dielectric constant tensor:
#      x y z
#    x 1.770930 0.000000 0.000000 
#    y 0.000000 1.760010 0.000000 
#    z 0.000000 0.000000 1.765340 
# 
# From -- ./inp_files/26356.got.cif
#   From: 2010.03.12/outbox.cif.g09.slc.cpg/sg51_14_cif.got.tgz:26356.got - 2010.04.16 13:43:02.
