data_PCOD8210481
_publ_section_title
;
Structure prediction by ZEFSAII (Michael W. Deem and Ramdas Pophale) SiO2 
 PCOD8210481
Probable space group: P M M A
;
_chemical_formula_sum "Si O2"
_cell_formula_units_Z 52
_cell_length_a 9.524326
_cell_length_b 10.059090
_cell_length_c 29.450264
_cell_angle_alpha 90.000000
_cell_angle_beta 90.000000
_cell_angle_gamma 90.000000
_cell_volume 2821.513537
_symmetry_space_group_name_H-M "P M M A"
_symmetry_group_IT_number 51
_symmetry_cell_setting 'orthorhombic'
loop_
_space_group_symop_operation_xyz
x,y,z
1/2-x,-y,z
1/2+x,-y,-z
-x,y,-z
-x,-y,-z
1/2+x,y,-z
1/2-x,y,z
x,-y,z
loop_
_atom_site_type_symbol
_atom_site_label
_atom_site_fract_x
_atom_site_fract_y
_atom_site_fract_z
Si Si1 0.409629 0.847264 0.203628
Si Si2 0.090785 0.657418 0.458254
Si Si3 0.597913 0.148635 0.037310
Si Si4 0.589186 0.754668 0.893209
Si Si5 0.087271 0.653738 0.629056
Si Si6 0.586662 0.151991 0.289807
Si Si7 0.087986 0.500000 0.046521
O O1 0.250000 0.831493 0.220083
O O2 0.439710 0.750664 0.160756
O O3 0.507097 0.800678 0.244750
O O4 0.440618 0.000000 0.189587
O O5 0.250000 0.715635 0.458492
O O6 0.098278 0.500000 0.462966
O O7 0.000000 0.716810 0.500000
O O8 0.011035 0.697985 0.412385
O O9 0.750000 0.221278 0.040632
O O10 0.518454 0.139653 0.085392
O O11 0.624421 0.000000 0.019879
O O12 0.500000 0.224942 0.000000
O O13 0.750000 0.798704 0.901754
O O14 0.551284 0.620455 0.919647
O O15 0.250000 0.675327 0.615329
O O16 0.061168 0.500000 0.642660
O O17 0.042346 0.748620 0.670228
O O18 0.750000 0.164234 0.279181
O O19 0.546177 0.000000 0.302916
O O20 0.250000 0.500000 0.032271
O O21 0.000000 0.500000 0.000000
#
# Coordination Sequence:
#
# PCOD8210481 Si02
#       7
#     8   8   8   8   8   8   4
#     4   9  18  33  53  75  98 125 158 198 245 294
#     4   9  16  26  43  69 101 135 172 214 260 308
#     4  10  20  32  48  72  98 121 148 186 232 279
#     4  10  20  35  53  72  96 126 160 197 237 283
#     4   9  17  30  48  71 100 133 169 211 258 304
#     4   9  18  33  52  73  99 133 170 208 253 304
#     4  10  22  38  54  72  98 132 166 198 235 286
#
# _framework density 18.429825000000001
#
# number of rings (size 3 to 8) (size 9 to 14) (size 15 to 20)
#    0.000    2.615    0.000    1.846    0.000    6.462 
#    1.385    1.538    0.000    0.462    0.000    0.000 
#    0.000    0.000    0.000    0.000    0.000    0.000 
#
# Total GULP energy -644485.228421 kJ/mol
# GULP energy per Si atom -12393.946700 kJ/mol
# Density = 1.838788 g / cm^3
# Si number density = 18.429825 Si / 1000 Ang^3
#
#
#
# Elastic Constant Matrix: (Units=GPa)
#
#
# Indices 1 2 3 4 5 6 
#
# 1 126.0893 33.1801 94.1418 0.0000 0.0000 0.0000
# 2 33.1801 55.3186 56.6230 0.0000 0.0000 0.0000
# 3 94.1418 56.6230 169.3098 0.0000 0.0000 0.0000
# 4 0.0000 0.0000 0.0000 26.8468 0.0000 0.0000
# 5 0.0000 0.0000 0.0000 0.0000 39.7300 0.0000
# 6 0.0000 0.0000 0.0000 0.0000 0.0000 14.8788
#
#
#
# Elastic Compliance Matrix: (Units=1/GPa)
#
#
# Indices 1 2 3 4 5 6 
#
# 1 0.013575 -0.000633 -0.007337 0.000000 0.000000 0.000000
# 2 -0.000633 0.027516 -0.008850 0.000000 0.000000 0.000000
# 3 -0.007337 -0.008850 0.012946 0.000000 0.000000 0.000000
# 4 0.000000 0.000000 0.000000 0.037248 0.000000 0.000000
# 5 0.000000 0.000000 0.000000 0.000000 0.025170 0.000000
# 6 0.000000 0.000000 0.000000 0.000000 0.000000 0.067210
#
#
# Mechanical properties :
#
#
# Convention : Reuss Voigt Hill
#
# Bulk Modulus (GPa) = 49.02690 79.84527 64.43608
# Shear Modulus (GPa) = 22.31120 27.40932 24.86026
#
# Velocity S-wave (km/s) = 3.48315 3.86064 3.67674
# Velocity P-wave (km/s) = 6.54493 7.95555 7.28446
#
# Compressibility (1/GPa) = 0.02039697
#
# Stress axis : x y z
#
# Youngs Moduli (GPa) = 73.66435 36.34288 77.24648
#
# Poissons Ratio (x) = 0.02300 0.56672
# Poissons Ratio (y) = 0.04661 0.68366
# Poissons Ratio (z) = 0.54044 0.32165
#
# Static dielectric constant tensor:
#      x y z
#    x 3.638730 0.000000 0.000000 
#    y 0.000000 3.198730 0.000000 
#    z 0.000000 0.000000 3.387540 
# 
# 
# High freq. dielectric constant tensor:
#      x y z
#    x 1.723870 0.000000 0.000000 
#    y 0.000000 1.682110 0.000000 
#    z 0.000000 0.000000 1.711660 
# 
# From -- ./inp_files/36181.got.cif
#   From: 2010.03.12/outbox.cif.g09.slc.cpg/sg51_19_cif.got.tgz:36181.got - 2010.04.16 13:43:02.
