data_PCOD8210367
_publ_section_title
;
Structure prediction by ZEFSAII (Michael W. Deem and Ramdas Pophale) SiO2 
 PCOD8210367
Probable space group: P M M A
;
_chemical_formula_sum "Si O2"
_cell_formula_units_Z 36
_cell_length_a 9.535440
_cell_length_b 10.441155
_cell_length_c 19.309154
_cell_angle_alpha 90.000000
_cell_angle_beta 90.000000
_cell_angle_gamma 90.000000
_cell_volume 1922.438817
_symmetry_space_group_name_H-M "P M M A"
_symmetry_group_IT_number 51
_symmetry_cell_setting 'orthorhombic'
loop_
_space_group_symop_operation_xyz
x,y,z
1/2-x,-y,z
1/2+x,-y,-z
-x,y,-z
-x,-y,-z
1/2+x,y,-z
1/2-x,y,z
x,-y,z
loop_
_atom_site_type_symbol
_atom_site_label
_atom_site_fract_x
_atom_site_fract_y
_atom_site_fract_z
Si Si1 0.912885 0.000000 0.428163
Si Si2 0.590588 0.749804 0.340035
Si Si3 0.908814 0.652128 0.936414
Si Si4 0.597859 0.645057 0.557079
Si Si5 0.091019 0.647783 0.806747
O O1 0.950120 0.882507 0.377011
O O2 0.000000 0.000000 0.500000
O O3 0.750000 0.000000 0.448836
O O4 0.750000 0.710242 0.358270
O O5 0.481780 0.646161 0.369874
O O6 0.569761 0.745579 0.257347
O O7 0.750000 0.707095 0.938492
O O8 0.905056 0.500000 0.941626
O O9 0.983716 0.694380 0.865434
O O10 0.000000 0.708448 0.000000
O O11 0.500000 0.716980 0.500000
O O12 0.750000 0.714121 0.560631
O O13 0.621914 0.500000 0.533695
O O14 0.250000 0.658954 0.835320
O O15 0.062004 0.500000 0.784554
#
# Coordination Sequence:
#
# PCOD8210367 Si02
#       5
#     4   8   8   8   8
#     4  10  22  38  54  72  93 122 163 208 251 294
#     4  10  20  34  51  70  94 124 159 200 245 292
#     4   9  16  26  42  66  98 133 164 192 224 270
#     4  10  20  32  47  68  93 120 151 189 235 289
#     4   9  17  29  46  69  97 128 159 192 235 286
#
# _framework density 18.726213999999999
#
# number of rings (size 3 to 8) (size 9 to 14) (size 15 to 20)
#    0.000    2.444    0.000    2.667    0.000    8.444 
#    0.000    2.222    0.000    0.000    0.000    0.778 
#    0.000    0.000    0.000    0.000    0.000    0.000 
#
# Total GULP energy -446112.708727 kJ/mol
# GULP energy per Si atom -12392.019687 kJ/mol
# Density = 1.868359 g / cm^3
# Si number density = 18.726214 Si / 1000 Ang^3
#
#
#
# Elastic Constant Matrix: (Units=GPa)
#
#
# Indices 1 2 3 4 5 6 
#
# 1 166.7576 23.9001 95.2720 0.0000 0.0000 0.0000
# 2 23.9001 37.9645 35.1429 0.0000 0.0000 0.0000
# 3 95.2720 35.1429 143.8414 0.0000 0.0000 0.0000
# 4 0.0000 0.0000 0.0000 19.3624 0.0000 0.0000
# 5 0.0000 0.0000 0.0000 0.0000 38.5151 0.0000
# 6 0.0000 0.0000 0.0000 0.0000 0.0000 11.6883
#
#
#
# Elastic Compliance Matrix: (Units=1/GPa)
#
#
# Indices 1 2 3 4 5 6 
#
# 1 0.009649 -0.000205 -0.006341 0.000000 0.000000 0.000000
# 2 -0.000205 0.034043 -0.008182 0.000000 0.000000 0.000000
# 3 -0.006341 -0.008182 0.013151 0.000000 0.000000 0.000000
# 4 0.000000 0.000000 0.000000 0.051646 0.000000 0.000000
# 5 0.000000 0.000000 0.000000 0.000000 0.025964 0.000000
# 6 0.000000 0.000000 0.000000 0.000000 0.000000 0.085556
#
#
# Mechanical properties :
#
#
# Convention : Reuss Voigt Hill
#
# Bulk Modulus (GPa) = 36.51226 73.02153 54.76690
# Shear Modulus (GPa) = 19.33550 26.86305 23.09928
#
# Velocity S-wave (km/s) = 3.21680 3.79161 3.51597
# Velocity P-wave (km/s) = 5.77385 7.63199 6.76700
#
# Compressibility (1/GPa) = 0.02738806
#
# Stress axis : x y z
#
# Youngs Moduli (GPa) = 103.64178 29.37474 76.04172
#
# Poissons Ratio (x) = 0.00602 0.48215
# Poissons Ratio (y) = 0.02122 0.62214
# Poissons Ratio (z) = 0.65716 0.24033
#
# Static dielectric constant tensor:
#      x y z
#    x 3.822510 0.000000 0.000000 
#    y 0.000000 2.999830 0.000000 
#    z 0.000000 0.000000 3.426530 
# 
# 
# High freq. dielectric constant tensor:
#      x y z
#    x 1.742300 0.000000 0.000000 
#    y 0.000000 1.669270 0.000000 
#    z 0.000000 0.000000 1.726250 
# 
# From -- ./inp_files/27043.got.cif
#   From: 2010.03.12/outbox.cif.g09.slc.cpg/sg51_14_cif.got.tgz:27043.got - 2010.04.16 13:43:02.
