data_PCOD8210795
_publ_section_title
;
Structure prediction by ZEFSAII (Michael W. Deem and Ramdas Pophale) SiO2 
 PCOD8210795
Probable space group: P M M A
;
_chemical_formula_sum "Si O2"
_cell_formula_units_Z 48
_cell_length_a 9.214925
_cell_length_b 14.741750
_cell_length_c 18.539190
_cell_angle_alpha 90.000000
_cell_angle_beta 90.000000
_cell_angle_gamma 90.000000
_cell_volume 2518.439963
_symmetry_space_group_name_H-M "P M M A"
_symmetry_group_IT_number 51
_symmetry_cell_setting 'orthorhombic'
loop_
_space_group_symop_operation_xyz
x,y,z
1/2-x,-y,z
1/2+x,-y,-z
-x,y,-z
-x,-y,-z
1/2+x,y,-z
1/2-x,y,z
x,-y,z
loop_
_atom_site_type_symbol
_atom_site_label
_atom_site_fract_x
_atom_site_fract_y
_atom_site_fract_z
Si Si1 0.911042 0.141592 0.434179
Si Si2 0.917361 0.397178 0.719860
Si Si3 0.915852 0.235555 0.818709
Si Si4 0.420837 0.102964 0.924328
Si Si5 0.582568 0.644321 0.428098
Si Si6 0.593259 0.903086 0.694338
O O1 0.750000 0.109029 0.446821
O O2 0.927187 0.248561 0.428109
O O3 0.000000 0.101399 0.500000
O O4 0.965293 0.095509 0.362158
O O5 0.750000 0.372555 0.701469
O O6 0.932767 0.500000 0.747791
O O7 0.968726 0.334054 0.788063
O O8 0.009043 0.388242 0.646219
O O9 0.750000 0.239561 0.848224
O O10 0.931203 0.176115 0.748710
O O11 0.018751 0.186971 0.876930
O O12 0.250000 0.118786 0.934282
O O13 0.449017 0.000000 0.893090
O O14 0.500000 0.111091 0.000000
O O15 0.500000 0.606305 0.500000
O O16 0.750000 0.610800 0.430150
O O17 0.750000 0.889173 0.655728
O O18 0.589965 0.000000 0.735354
#
# Coordination Sequence:
#
# PCOD8210795 Si02
#       6
#     8   8   8   8   8   8
#     4  10  20  33  50  70  96 133 177 224 275 327
#     4  10  21  37  58  83 110 144 187 233 283 338
#     4  10  20  36  58  82 114 149 181 222 273 326
#     4  10  21  37  60  91 124 155 187 222 262 314
#     4  10  20  34  54  77 103 138 182 235 292 345
#     4  10  20  33  51  75 102 137 179 219 266 325
#
# _framework density 19.059418000000001
#
# number of rings (size 3 to 8) (size 9 to 14) (size 15 to 20)
#    0.000    2.000    1.667    2.000    0.000    5.667 
#    0.000    0.000    0.000    0.500    0.000    0.000 
#    0.000    0.000    0.000    0.000    0.000    0.000 
#
# Total GULP energy -594673.088582 kJ/mol
# GULP energy per Si atom -12389.022679 kJ/mol
# Density = 1.901604 g / cm^3
# Si number density = 19.059418 Si / 1000 Ang^3
#
#
#
# Elastic Constant Matrix: (Units=GPa)
#
#
# Indices 1 2 3 4 5 6 
#
# 1 108.8444 53.8252 68.4889 0.0000 0.0000 0.0000
# 2 53.8252 102.0782 47.4954 0.0000 0.0000 0.0000
# 3 68.4889 47.4954 69.1436 0.0000 0.0000 0.0000
# 4 0.0000 0.0000 0.0000 12.5220 0.0000 0.0000
# 5 0.0000 0.0000 0.0000 0.0000 36.6015 0.0000
# 6 0.0000 0.0000 0.0000 0.0000 0.0000 20.3526
#
#
#
# Elastic Compliance Matrix: (Units=1/GPa)
#
#
# Indices 1 2 3 4 5 6 
#
# 1 0.024788 -0.002420 -0.022891 0.000000 0.000000 0.000000
# 2 -0.002420 0.014634 -0.007656 0.000000 0.000000 0.000000
# 3 -0.022891 -0.007656 0.042396 0.000000 0.000000 0.000000
# 4 0.000000 0.000000 0.000000 0.079860 0.000000 0.000000
# 5 0.000000 0.000000 0.000000 0.000000 0.027321 0.000000
# 6 0.000000 0.000000 0.000000 0.000000 0.000000 0.049134
#
#
# Mechanical properties :
#
#
# Convention : Reuss Voigt Hill
#
# Bulk Modulus (GPa) = 62.95220 68.85391 65.90305
# Shear Modulus (GPa) = 16.16235 21.24566 18.70400
#
# Velocity S-wave (km/s) = 2.91520 3.34234 3.13605
# Velocity P-wave (km/s) = 6.66576 7.14838 6.91128
#
# Compressibility (1/GPa) = 0.01588507
#
# Stress axis : x y z
#
# Youngs Moduli (GPa) = 40.34233 68.33228 23.58725
#
# Poissons Ratio (x) = 0.16534 0.53994
# Poissons Ratio (y) = 0.09761 0.18058
# Poissons Ratio (z) = 0.92348 0.52314
#
# Static dielectric constant tensor:
#      x y z
#    x 3.574030 0.000000 0.000000 
#    y 0.000000 3.550200 0.000000 
#    z 0.000000 0.000000 3.297810 
# 
# 
# High freq. dielectric constant tensor:
#      x y z
#    x 1.746340 0.000000 0.000000 
#    y 0.000000 1.747300 0.000000 
#    z 0.000000 0.000000 1.712280 
# 
# From -- ./inp_files/27522.got.cif
#   From: 2010.03.12/outbox.cif.g09.slc.cpg/sg51_14_cif.got.tgz:27522.got - 2010.04.16 13:43:02.
