data_PCOD8210474
_publ_section_title
;
Structure prediction by ZEFSAII (Michael W. Deem and Ramdas Pophale) SiO2 
 PCOD8210474
Probable space group: P M M A
;
_chemical_formula_sum "Si O2"
_cell_formula_units_Z 64
_cell_length_a 29.918890
_cell_length_b 9.033626
_cell_length_c 14.489908
_cell_angle_alpha 90.000000
_cell_angle_beta 90.000000
_cell_angle_gamma 90.000000
_cell_volume 3916.275282
_symmetry_space_group_name_H-M "P M M A"
_symmetry_group_IT_number 51
_symmetry_cell_setting 'orthorhombic'
loop_
_space_group_symop_operation_xyz
x,y,z
1/2-x,-y,z
1/2+x,-y,-z
-x,y,-z
-x,-y,-z
1/2+x,y,-z
1/2-x,y,z
x,-y,z
loop_
_atom_site_type_symbol
_atom_site_label
_atom_site_fract_x
_atom_site_fract_y
_atom_site_fract_z
Si Si1 0.800628 0.671866 0.850222
Si Si2 0.456207 0.175092 0.946756
Si Si3 0.608334 0.826342 0.572481
Si Si4 0.300037 0.170445 0.341177
Si Si5 0.423609 0.331817 0.250205
Si Si6 0.879719 0.825407 0.917338
Si Si7 0.044188 0.675422 0.556816
Si Si8 0.527135 0.666061 0.235679
O O1 0.750000 0.704959 0.878563
O O2 0.811954 0.500000 0.850531
O O3 0.810842 0.731083 0.747676
O O4 0.830693 0.753144 0.927936
O O5 0.450772 0.233969 0.843174
O O6 0.459342 0.000000 0.942200
O O7 0.500000 0.237841 0.000000
O O8 0.412320 0.228986 0.001600
O O9 0.661960 0.796438 0.581608
O O10 0.580931 0.738279 0.649532
O O11 0.588721 0.760522 0.477584
O O12 0.597937 0.000000 0.579247
O O13 0.250000 0.206347 0.380168
O O14 0.302781 0.000000 0.309622
O O15 0.405143 0.500000 0.249852
O O16 0.396747 0.229164 0.181115
O O17 0.474566 0.329968 0.220143
O O18 0.875793 0.000000 0.916046
O O19 0.051096 0.500000 0.547349
O O20 0.039043 0.725849 0.662845
O O21 0.000000 0.724242 0.500000
O O22 0.545486 0.500000 0.224002
#
# Coordination Sequence:
#
# PCOD8210474 Si02
#       8
#     8   8   8   8   8   8   8   8
#     4  10  20  32  48  72 100 130 165 204 247 295
#     4  10  21  35  50  71 101 132 164 205 247 290
#     4  11  21  31  48  75  99 130 171 204 243 295
#     4   9  18  32  48  68  99 133 162 198 244 295
#     4  11  20  31  48  70 100 135 168 206 243 285
#     4  11  21  33  49  72 100 135 170 202 247 296
#     4  10  20  36  51  68  98 133 168 204 246 293
#     4  10  21  35  51  70  95 133 173 207 246 289
#
# _framework density 16.34206
#
# number of rings (size 3 to 8) (size 9 to 14) (size 15 to 20)
#    0.000    1.750    3.750    1.500    0.000    3.750 
#    0.000    0.000    0.000    0.000    0.000    0.875 
#    0.000    3.000    0.000    0.000    0.000    0.000 
#
# Total GULP energy -793498.290717 kJ/mol
# GULP energy per Si atom -12398.410792 kJ/mol
# Density = 1.630486 g / cm^3
# Si number density = 16.342060 Si / 1000 Ang^3
#
#
#
# Elastic Constant Matrix: (Units=GPa)
#
#
# Indices 1 2 3 4 5 6 
#
# 1 111.3201 50.9477 50.9055 0.0000 0.0000 0.0000
# 2 50.9477 48.4365 33.1435 0.0000 0.0000 0.0000
# 3 50.9055 33.1435 89.1689 0.0000 0.0000 0.0000
# 4 0.0000 0.0000 0.0000 26.7047 0.0000 0.0000
# 5 0.0000 0.0000 0.0000 0.0000 25.6327 0.0000
# 6 0.0000 0.0000 0.0000 0.0000 0.0000 25.4462
#
#
#
# Elastic Compliance Matrix: (Units=1/GPa)
#
#
# Indices 1 2 3 4 5 6 
#
# 1 0.018567 -0.016464 -0.004480 0.000000 0.000000 0.000000
# 2 -0.016464 0.042287 -0.006319 0.000000 0.000000 0.000000
# 3 -0.004480 -0.006319 0.016121 0.000000 0.000000 0.000000
# 4 0.000000 0.000000 0.000000 0.037447 0.000000 0.000000
# 5 0.000000 0.000000 0.000000 0.000000 0.039013 0.000000
# 6 0.000000 0.000000 0.000000 0.000000 0.000000 0.039299
#
#
# Mechanical properties :
#
#
# Convention : Reuss Voigt Hill
#
# Bulk Modulus (GPa) = 44.54501 57.65765 51.10133
# Shear Modulus (GPa) = 19.62785 23.15197 21.38991
#
# Velocity S-wave (km/s) = 3.46940 3.76801 3.62178
# Velocity P-wave (km/s) = 6.58529 7.36810 6.98766
#
# Compressibility (1/GPa) = 0.02244920
#
# Stress axis : x y z
#
# Youngs Moduli (GPa) = 53.85975 23.64818 62.03124
#
# Poissons Ratio (x) = 0.38934 0.27790
# Poissons Ratio (y) = 0.88673 0.39196
# Poissons Ratio (z) = 0.24130 0.14943
#
# Static dielectric constant tensor:
#      x y z
#    x 3.367630 0.000000 0.000000 
#    y 0.000000 3.126940 0.000000 
#    z 0.000000 0.000000 2.903760 
# 
# 
# High freq. dielectric constant tensor:
#      x y z
#    x 1.626960 0.000000 0.000000 
#    y 0.000000 1.636670 0.000000 
#    z 0.000000 0.000000 1.597680 
# 
# From -- ./inp_files/26698.got.cif
#   From: 2010.03.12/outbox.cif.g09.slc.cpg/sg51_14_cif.got.tgz:26698.got - 2010.04.16 13:43:02.
