data_PCOD8210842
_publ_section_title
;
Structure prediction by ZEFSAII (Michael W. Deem and Ramdas Pophale) SiO2 
 PCOD8210842
Probable space group: P M M A
;
_chemical_formula_sum "Si O2"
_cell_formula_units_Z 44
_cell_length_a 8.799349
_cell_length_b 21.045756
_cell_length_c 13.412076
_cell_angle_alpha 90.000000
_cell_angle_beta 90.000000
_cell_angle_gamma 90.000000
_cell_volume 2483.768299
_symmetry_space_group_name_H-M "P M M A"
_symmetry_group_IT_number 51
_symmetry_cell_setting 'orthorhombic'
loop_
_space_group_symop_operation_xyz
x,y,z
1/2-x,-y,z
1/2+x,-y,-z
-x,y,-z
-x,-y,-z
1/2+x,y,-z
1/2-x,y,z
x,-y,z
loop_
_atom_site_type_symbol
_atom_site_label
_atom_site_fract_x
_atom_site_fract_y
_atom_site_fract_z
Si Si1 0.573438 0.257668 0.900470
Si Si2 0.071838 0.376303 0.802588
Si Si3 0.571977 0.305882 0.397902
Si Si4 0.428366 0.072158 0.605338
Si Si5 0.925854 0.186930 0.700288
Si Si6 0.570401 0.500000 0.890282
O O1 0.750000 0.273736 0.914932
O O2 0.483779 0.322166 0.877549
O O3 0.547943 0.206176 0.814492
O O4 0.500000 0.228115 0.000000
O O5 0.250000 0.387550 0.818839
O O6 0.033950 0.356172 0.689127
O O7 0.981408 0.439748 0.826590
O O8 0.500000 0.332435 0.500000
O O9 0.750000 0.297042 0.411453
O O10 0.502290 0.237346 0.373526
O O11 0.500000 0.090886 0.500000
O O12 0.250000 0.082297 0.598174
O O13 0.497841 0.118145 0.688745
O O14 0.470315 0.000000 0.634832
O O15 0.750000 0.183371 0.672132
O O16 0.750000 0.500000 0.901865
O O17 0.500000 0.500000 0.000000
#
# Coordination Sequence:
#
# PCOD8210842 Si02
#       6
#     8   8   8   8   8   4
#     4  10  20  34  53  77 103 132 166 207 254 300
#     4  10  21  37  55  77 104 134 169 208 250 298
#     4  10  20  34  54  77 104 136 169 208 250 295
#     4  10  20  33  50  73 102 135 169 206 249 297
#     4  10  20  33  51  75 103 134 169 208 250 298
#     4  12  24  38  57  78 103 134 167 208 254 302
#
# _framework density 17.715018000000001
#
# number of rings (size 3 to 8) (size 9 to 14) (size 15 to 20)
#    0.000    1.818    0.000    4.636    0.000    5.455 
#    0.000    0.455    0.000    0.545    0.000    0.000 
#    0.000    0.000    0.000    0.000    0.000    0.000 
#
# Total GULP energy -545804.302548 kJ/mol
# GULP energy per Si atom -12404.643240 kJ/mol
# Density = 1.767470 g / cm^3
# Si number density = 17.715018 Si / 1000 Ang^3
#
#
#
# Elastic Constant Matrix: (Units=GPa)
#
#
# Indices 1 2 3 4 5 6 
#
# 1 121.5527 62.1169 61.9224 0.0000 0.0000 0.0000
# 2 62.1169 118.9087 55.6542 0.0000 0.0000 0.0000
# 3 61.9224 55.6542 116.3311 0.0000 0.0000 0.0000
# 4 0.0000 0.0000 0.0000 43.6526 0.0000 0.0000
# 5 0.0000 0.0000 0.0000 0.0000 34.2515 0.0000
# 6 0.0000 0.0000 0.0000 0.0000 0.0000 33.2149
#
#
#
# Elastic Compliance Matrix: (Units=1/GPa)
#
#
# Indices 1 2 3 4 5 6 
#
# 1 0.012962 -0.004564 -0.004716 0.000000 0.000000 0.000000
# 2 -0.004564 0.012443 -0.003524 0.000000 0.000000 0.000000
# 3 -0.004716 -0.003524 0.012792 0.000000 0.000000 0.000000
# 4 0.000000 0.000000 0.000000 0.022908 0.000000 0.000000
# 5 0.000000 0.000000 0.000000 0.000000 0.029196 0.000000
# 6 0.000000 0.000000 0.000000 0.000000 0.000000 0.030107
#
#
# Mechanical properties :
#
#
# Convention : Reuss Voigt Hill
#
# Bulk Modulus (GPa) = 79.42792 79.57552 79.50172
# Shear Modulus (GPa) = 33.28643 34.03039 33.65841
#
# Velocity S-wave (km/s) = 4.33944 4.38767 4.36362
# Velocity P-wave (km/s) = 8.36908 8.40751 8.38831
#
# Compressibility (1/GPa) = 0.01259003
#
# Stress axis : x y z
#
# Youngs Moduli (GPa) = 77.15122 80.36595 78.17239
#
# Poissons Ratio (x) = 0.36677 0.36866
# Poissons Ratio (y) = 0.35210 0.27545
# Poissons Ratio (z) = 0.36385 0.28318
#
# Static dielectric constant tensor:
#      x y z
#    x 3.456460 0.000000 0.000000 
#    y 0.000000 3.228430 0.000000 
#    z 0.000000 0.000000 3.320600 
# 
# 
# High freq. dielectric constant tensor:
#      x y z
#    x 1.707610 0.000000 0.000000 
#    y 0.000000 1.672730 0.000000 
#    z 0.000000 0.000000 1.683650 
# 
# From -- ./inp_files/20939.got.cif
#   From: 2010.03.12/outbox.cif.g09.slc.cpg/sg51_11_cif.got.tgz:20939.got - 2010.04.16 13:43:02.
