data_PCOD8210577
_publ_section_title
;
Structure prediction by ZEFSAII (Michael W. Deem and Ramdas Pophale) SiO2 
 PCOD8210577
Probable space group: P M M A
;
_chemical_formula_sum "Si O2"
_cell_formula_units_Z 40
_cell_length_a 14.375658
_cell_length_b 15.358426
_cell_length_c 9.407819
_cell_angle_alpha 90.000000
_cell_angle_beta 90.000000
_cell_angle_gamma 90.000000
_cell_volume 2077.128645
_symmetry_space_group_name_H-M "P M M A"
_symmetry_group_IT_number 51
_symmetry_cell_setting 'orthorhombic'
loop_
_space_group_symop_operation_xyz
x,y,z
1/2-x,-y,z
1/2+x,-y,-z
-x,y,-z
-x,-y,-z
1/2+x,y,-z
1/2-x,y,z
x,-y,z
loop_
_atom_site_type_symbol
_atom_site_label
_atom_site_fract_x
_atom_site_fract_y
_atom_site_fract_z
Si Si1 0.509266 0.283152 0.662193
Si Si2 0.640554 0.597323 0.834237
Si Si3 0.484668 0.906039 0.232764
Si Si4 0.855311 0.872421 0.024662
Si Si5 0.354090 0.319771 0.883344
O O1 0.500000 0.312220 0.500000
O O2 0.596859 0.331699 0.729524
O O3 0.521508 0.178112 0.665820
O O4 0.418632 0.316687 0.745699
O O5 0.750000 0.610976 0.821215
O O6 0.610314 0.500000 0.788858
O O7 0.611388 0.609981 0.000255
O O8 0.584485 0.908197 0.155282
O O9 0.475999 0.000000 0.314285
O O10 0.399961 0.902910 0.122099
O O11 0.750000 0.908165 0.037012
O O12 0.857958 0.768690 0.027037
O O13 0.250000 0.339623 0.827928
#
# Coordination Sequence:
#
# PCOD8210577 Si02
#       5
#     8   8   8   8   8
#     4  11  23  37  55  81 118 156 186 223 276 333
#     4  10  21  39  64  88 109 139 182 233 284 334
#     4  10  20  32  49  78 111 146 191 231 270 325
#     4   9  16  30  53  79 107 138 179 238 288 318
#     4   9  18  35  58  83 109 142 186 230 276 330
#
# _framework density 19.257352999999998
#
# number of rings (size 3 to 8) (size 9 to 14) (size 15 to 20)
#    0.000    2.200    2.000    1.800    0.000    4.800 
#    0.000    0.000    0.000    2.400    0.000    5.600 
#    0.000    0.000    0.000    0.000    0.000    0.000 
#
# Total GULP energy -495774.362185 kJ/mol
# GULP energy per Si atom -12394.359055 kJ/mol
# Density = 1.921352 g / cm^3
# Si number density = 19.257353 Si / 1000 Ang^3
#
#
#
# Elastic Constant Matrix: (Units=GPa)
#
#
# Indices 1 2 3 4 5 6 
#
# 1 106.5589 45.3103 43.5004 0.0000 0.0000 0.0000
# 2 45.3103 97.0465 46.2487 0.0000 0.0000 0.0000
# 3 43.5004 46.2487 107.0576 0.0000 0.0000 0.0000
# 4 0.0000 0.0000 0.0000 4.9399 0.0000 0.0000
# 5 0.0000 0.0000 0.0000 0.0000 4.2622 0.0000
# 6 0.0000 0.0000 0.0000 0.0000 0.0000 11.1910
#
#
#
# Elastic Compliance Matrix: (Units=1/GPa)
#
#
# Indices 1 2 3 4 5 6 
#
# 1 0.012538 -0.004314 -0.003231 0.000000 0.000000 0.000000
# 2 -0.004314 0.014460 -0.004494 0.000000 0.000000 0.000000
# 3 -0.003231 -0.004494 0.012595 0.000000 0.000000 0.000000
# 4 0.000000 0.000000 0.000000 0.202433 0.000000 0.000000
# 5 0.000000 0.000000 0.000000 0.000000 0.234618 0.000000
# 6 0.000000 0.000000 0.000000 0.000000 0.000000 0.089358
#
#
# Mechanical properties :
#
#
# Convention : Reuss Voigt Hill
#
# Bulk Modulus (GPa) = 64.45217 64.53129 64.49173
# Shear Modulus (GPa) = 8.39981 15.78553 12.09267
#
# Velocity S-wave (km/s) = 2.09078 2.86617 2.50861
# Velocity P-wave (km/s) = 6.27455 6.67353 6.47711
#
# Compressibility (1/GPa) = 0.01551538
#
# Stress axis : x y z
#
# Youngs Moduli (GPa) = 79.75878 69.15552 79.39768
#
# Poissons Ratio (x) = 0.29835 0.25651
# Poissons Ratio (y) = 0.34409 0.35680
# Poissons Ratio (z) = 0.25768 0.31077
#
# Static dielectric constant tensor:
#      x y z
#    x 3.674890 0.000000 0.000000 
#    y 0.000000 3.776300 0.000000 
#    z 0.000000 0.000000 3.039640 
# 
# 
# High freq. dielectric constant tensor:
#      x y z
#    x 1.756160 0.000000 0.000000 
#    y 0.000000 1.762900 0.000000 
#    z 0.000000 0.000000 1.702260 
# 
# From -- ./inp_files/7924.got.cif
#   From: 2010.03.12/outbox.cif.g09.slc.cpg/sg51_4_cif.got.tgz:7924.got - 2010.04.16 13:43:02.
