data_PCOD8210541
_publ_section_title
;
Structure prediction by ZEFSAII (Michael W. Deem and Ramdas Pophale) SiO2 
 PCOD8210541
Probable space group: P M M A
;
_chemical_formula_sum "Si O2"
_cell_formula_units_Z 64
_cell_length_a 8.964351
_cell_length_b 15.824118
_cell_length_c 23.260374
_cell_angle_alpha 90.000000
_cell_angle_beta 90.000000
_cell_angle_gamma 90.000000
_cell_volume 3299.552624
_symmetry_space_group_name_H-M "P M M A"
_symmetry_group_IT_number 51
_symmetry_cell_setting 'orthorhombic'
loop_
_space_group_symop_operation_xyz
x,y,z
1/2-x,-y,z
1/2+x,-y,-z
-x,y,-z
-x,-y,-z
1/2+x,y,-z
1/2-x,y,z
x,-y,z
loop_
_atom_site_type_symbol
_atom_site_label
_atom_site_fract_x
_atom_site_fract_y
_atom_site_fract_z
Si Si1 0.578185 0.329985 0.144935
Si Si2 0.072862 0.243374 0.634062
Si Si3 0.918943 0.905871 0.840050
Si Si4 0.425428 0.096935 0.438977
Si Si5 0.421035 0.172658 0.939021
Si Si6 0.088184 0.595126 0.052145
Si Si7 0.574990 0.404848 0.439630
Si Si8 0.073568 0.241081 0.243086
O O1 0.750000 0.345198 0.160930
O O2 0.553694 0.256586 0.098162
O O3 0.505780 0.408517 0.111463
O O4 0.483902 0.316990 0.202805
O O5 0.250000 0.231549 0.631876
O O6 0.023578 0.332105 0.604702
O O7 0.996591 0.161863 0.605707
O O8 0.016736 0.247528 0.698621
O O9 0.750000 0.880959 0.855731
O O10 0.975056 0.845356 0.788749
O O11 0.012650 0.901153 0.898858
O O12 0.931877 0.000000 0.815158
O O13 0.500000 0.114440 0.500000
O O14 0.250000 0.114565 0.443982
O O15 0.455678 0.000000 0.419057
O O16 0.250000 0.152667 0.950624
O O17 0.500000 0.177594 0.000000
O O18 0.250000 0.640563 0.060068
O O19 0.117784 0.500000 0.032727
O O20 0.000000 0.641832 0.000000
O O21 0.500000 0.383992 0.500000
O O22 0.750000 0.400116 0.449498
O O23 0.529683 0.500000 0.418070
O O24 0.250000 0.247714 0.254448
#
# Coordination Sequence:
#
# PCOD8210541 Si02
#       8
#     8   8   8   8   8   8   8   8
#     4  10  20  35  54  74  99 133 173 216 263 316
#     4  11  22  36  57  84 114 149 190 234 278 328
#     4   9  19  36  55  73  96 129 169 214 264 315
#     4  10  21  37  57  83 117 154 190 230 279 334
#     4  10  20  32  49  74 100 128 164 206 256 314
#     4  10  20  33  51  77 106 134 167 209 260 320
#     4   9  19  36  58  85 116 148 182 222 270 323
#     4  10  21  37  56  77 104 139 180 224 267 315
#
# _framework density 19.396569
#
# number of rings (size 3 to 8) (size 9 to 14) (size 15 to 20)
#    0.000    2.125    0.000    3.000    0.000    7.500 
#    0.000    1.875    0.000    2.250    0.000    0.000 
#    0.000    0.000    0.000    0.000    0.000    0.000 
#
# Total GULP energy -793364.533804 kJ/mol
# GULP energy per Si atom -12396.320841 kJ/mol
# Density = 1.935242 g / cm^3
# Si number density = 19.396569 Si / 1000 Ang^3
#
#
#
# Elastic Constant Matrix: (Units=GPa)
#
#
# Indices 1 2 3 4 5 6 
#
# 1 97.3893 38.8570 53.3183 0.0000 0.0000 0.0000
# 2 38.8570 77.1252 54.6035 0.0000 0.0000 0.0000
# 3 53.3183 54.6035 137.5692 0.0000 0.0000 0.0000
# 4 0.0000 0.0000 0.0000 22.0088 0.0000 0.0000
# 5 0.0000 0.0000 0.0000 0.0000 40.1906 0.0000
# 6 0.0000 0.0000 0.0000 0.0000 0.0000 21.4172
#
#
#
# Elastic Compliance Matrix: (Units=1/GPa)
#
#
# Indices 1 2 3 4 5 6 
#
# 1 0.014069 -0.004489 -0.003671 0.000000 0.000000 0.000000
# 2 -0.004489 0.019466 -0.005986 0.000000 0.000000 0.000000
# 3 -0.003671 -0.005986 0.011068 0.000000 0.000000 0.000000
# 4 0.000000 0.000000 0.000000 0.045436 0.000000 0.000000
# 5 0.000000 0.000000 0.000000 0.000000 0.024881 0.000000
# 6 0.000000 0.000000 0.000000 0.000000 0.000000 0.046692
#
#
# Mechanical properties :
#
#
# Convention : Reuss Voigt Hill
#
# Bulk Modulus (GPa) = 61.31328 67.29349 64.30339
# Shear Modulus (GPa) = 25.59611 27.74363 26.66987
#
# Velocity S-wave (km/s) = 3.63660 3.78608 3.71209
# Velocity P-wave (km/s) = 7.02226 7.34039 7.18309
#
# Compressibility (1/GPa) = 0.01630968
#
# Stress axis : x y z
#
# Youngs Moduli (GPa) = 71.07846 51.37155 90.35088
#
# Poissons Ratio (x) = 0.23062 0.33167
# Poissons Ratio (y) = 0.31909 0.54088
# Poissons Ratio (z) = 0.26092 0.30753
#
# Static dielectric constant tensor:
#      x y z
#    x 3.760320 0.000000 0.000000 
#    y 0.000000 3.608760 0.000000 
#    z 0.000000 0.000000 3.484030 
# 
# 
# High freq. dielectric constant tensor:
#      x y z
#    x 1.768130 0.000000 0.000000 
#    y 0.000000 1.748310 0.000000 
#    z 0.000000 0.000000 1.746590 
# 
# From -- ./inp_files/32416.got.cif
#   From: 2010.03.12/outbox.cif.g09.slc.cpg/sg51_17_cif.got.tgz:32416.got - 2010.04.16 13:43:02.
