data_PCOD8210346
_publ_section_title
;
Structure prediction by ZEFSAII (Michael W. Deem and Ramdas Pophale) SiO2 
 PCOD8210346
Probable space group: P M M A
;
_chemical_formula_sum "Si O2"
_cell_formula_units_Z 64
_cell_length_a 22.873221
_cell_length_b 9.069265
_cell_length_c 18.202914
_cell_angle_alpha 90.000000
_cell_angle_beta 90.000000
_cell_angle_gamma 90.000000
_cell_volume 3776.072598
_symmetry_space_group_name_H-M "P M M A"
_symmetry_group_IT_number 51
_symmetry_cell_setting 'orthorhombic'
loop_
_space_group_symop_operation_xyz
x,y,z
1/2-x,-y,z
1/2+x,-y,-z
-x,y,-z
-x,-y,-z
1/2+x,y,-z
1/2-x,y,z
x,-y,z
loop_
_atom_site_type_symbol
_atom_site_label
_atom_site_fract_x
_atom_site_fract_y
_atom_site_fract_z
Si Si1 0.680742 0.663348 0.078759
Si Si2 0.000998 0.671308 0.415674
Si Si3 0.181860 0.172651 0.222914
Si Si4 0.889691 0.174486 0.364343
Si Si5 0.682764 0.675973 0.237630
Si Si6 0.869574 0.671635 0.638789
Si Si7 0.319392 0.667396 0.078911
Si Si8 0.316835 0.831565 0.495124
O O1 0.750000 0.652382 0.080543
O O2 0.653993 0.500000 0.076864
O O3 0.662235 0.737071 0.156502
O O4 0.660679 0.737182 0.000882
O O5 0.983766 0.500000 0.410221
O O6 0.063860 0.704534 0.381855
O O7 0.000000 0.724243 0.500000
O O8 0.955548 0.766639 0.368727
O O9 0.250000 0.212123 0.234059
O O10 0.144007 0.248679 0.285429
O O11 0.157209 0.231363 0.144935
O O12 0.171117 0.000000 0.226219
O O13 0.858729 0.245947 0.295019
O O14 0.856129 0.225236 0.437767
O O15 0.889156 0.000000 0.355003
O O16 0.750000 0.719869 0.253623
O O17 0.675446 0.500000 0.241544
O O18 0.856874 0.500000 0.648115
O O19 0.827438 0.731665 0.575518
O O20 0.250000 0.665664 0.081682
O O21 0.342874 0.500000 0.088371
O O22 0.250000 0.815841 0.520053
O O23 0.332142 0.000000 0.474595
#
# Coordination Sequence:
#
# PCOD8210346 Si02
#       8
#     8   8   8   8   8   8   8   8
#     4   7  11  22  42  68  96 128 165 201 236 277
#     4  10  21  39  57  72  92 118 159 214 257 291
#     4  10  20  32  46  69 104 137 161 192 238 292
#     4  11  22  34  51  73  99 130 165 202 244 294
#     4   9  17  30  49  73 103 137 169 202 243 288
#     4  11  22  35  53  73  92 120 161 207 248 287
#     4   8  13  24  44  68  95 128 166 202 233 275
#     4  10  21  35  49  68  98 131 158 189 235 290
#
# _framework density 16.948826
#
# number of rings (size 3 to 8) (size 9 to 14) (size 15 to 20)
#    0.000    2.500    1.250    3.375    0.000    5.000 
#    0.000    0.625    0.000    2.250    0.000    0.875 
#    0.000    7.000    0.000    0.000    0.000    0.000 
#
# Total GULP energy -793205.491443 kJ/mol
# GULP energy per Si atom -12393.835804 kJ/mol
# Density = 1.691025 g / cm^3
# Si number density = 16.948826 Si / 1000 Ang^3
#
#
#
# Elastic Constant Matrix: (Units=GPa)
#
#
# Indices 1 2 3 4 5 6 
#
# 1 55.7459 31.2816 41.7467 0.0000 0.0000 0.0000
# 2 31.2816 60.5557 53.0040 0.0000 0.0000 0.0000
# 3 41.7467 53.0040 156.9828 0.0000 0.0000 0.0000
# 4 0.0000 0.0000 0.0000 16.8189 0.0000 0.0000
# 5 0.0000 0.0000 0.0000 0.0000 6.4355 0.0000
# 6 0.0000 0.0000 0.0000 0.0000 0.0000 20.1191
#
#
#
# Elastic Compliance Matrix: (Units=1/GPa)
#
#
# Indices 1 2 3 4 5 6 
#
# 1 0.026511 -0.010680 -0.003444 0.000000 0.000000 0.000000
# 2 -0.010680 0.027744 -0.006527 0.000000 0.000000 0.000000
# 3 -0.003444 -0.006527 0.009490 0.000000 0.000000 0.000000
# 4 0.000000 0.000000 0.000000 0.059457 0.000000 0.000000
# 5 0.000000 0.000000 0.000000 0.000000 0.155387 0.000000
# 6 0.000000 0.000000 0.000000 0.000000 0.000000 0.049704
#
#
# Mechanical properties :
#
#
# Convention : Reuss Voigt Hill
#
# Bulk Modulus (GPa) = 44.56001 58.37210 51.46606
# Shear Modulus (GPa) = 13.25989 18.49151 15.87570
#
# Velocity S-wave (km/s) = 2.80008 3.30664 3.06385
# Velocity P-wave (km/s) = 6.06646 7.00667 6.55345
#
# Compressibility (1/GPa) = 0.02244164
#
# Stress axis : x y z
#
# Youngs Moduli (GPa) = 37.72040 36.04341 105.37516
#
# Poissons Ratio (x) = 0.38496 0.36290
# Poissons Ratio (y) = 0.40287 0.68783
# Poissons Ratio (z) = 0.12991 0.23527
#
# Static dielectric constant tensor:
#      x y z
#    x 2.865890 0.000000 0.000000 
#    y 0.000000 3.084170 0.000000 
#    z 0.000000 0.000000 3.616490 
# 
# 
# High freq. dielectric constant tensor:
#      x y z
#    x 1.614040 0.000000 0.000000 
#    y 0.000000 1.642240 0.000000 
#    z 0.000000 0.000000 1.670450 
# 
# From -- ./inp_files/30942.got.cif
#   From: 2010.03.12/outbox.cif.g09.slc.cpg/sg51_16_cif.got.tgz:30942.got - 2010.04.16 13:43:02.
