data_PCOD8210505
_publ_section_title
;
Structure prediction by ZEFSAII (Michael W. Deem and Ramdas Pophale) SiO2 
 PCOD8210505
Probable space group: P M M A
;
_chemical_formula_sum "Si O2"
_cell_formula_units_Z 64
_cell_length_a 9.384115
_cell_length_b 16.179451
_cell_length_c 22.868437
_cell_angle_alpha 90.000000
_cell_angle_beta 90.000000
_cell_angle_gamma 90.000000
_cell_volume 3472.110875
_symmetry_space_group_name_H-M "P M M A"
_symmetry_group_IT_number 51
_symmetry_cell_setting 'orthorhombic'
loop_
_space_group_symop_operation_xyz
x,y,z
1/2-x,-y,z
1/2+x,-y,-z
-x,y,-z
-x,-y,-z
1/2+x,y,-z
1/2-x,y,z
x,-y,z
loop_
_atom_site_type_symbol
_atom_site_label
_atom_site_fract_x
_atom_site_fract_y
_atom_site_fract_z
Si Si1 0.910287 0.092369 0.897170
Si Si2 0.079811 0.762448 0.440835
Si Si3 0.083964 0.237507 0.944989
Si Si4 0.414702 0.149740 0.228818
Si Si5 0.581337 0.908470 0.645734
Si Si6 0.404847 0.404866 0.253828
Si Si7 0.080846 0.407564 0.383448
Si Si8 0.084688 0.700810 0.819140
O O1 0.750000 0.125742 0.909432
O O2 0.939388 0.091753 0.827513
O O3 0.023790 0.146285 0.932431
O O4 0.928073 0.000000 0.920596
O O5 0.250000 0.765097 0.449055
O O6 0.027609 0.832742 0.394815
O O7 0.028551 0.669288 0.423180
O O8 0.000000 0.785731 0.500000
O O9 0.250000 0.230803 0.959961
O O10 0.054498 0.293387 0.888289
O O11 0.000000 0.276902 0.000000
O O12 0.250000 0.174401 0.235845
O O13 0.470279 0.105249 0.287445
O O14 0.505350 0.231776 0.219879
O O15 0.750000 0.909639 0.643775
O O16 0.524607 0.000000 0.625622
O O17 0.250000 0.360180 0.244957
O O18 0.375525 0.500000 0.248961
O O19 0.469629 0.384945 0.317871
O O20 0.518653 0.384275 0.203390
O O21 0.250000 0.411878 0.383881
O O22 0.022790 0.500000 0.402874
O O23 0.250000 0.707172 0.805555
#
# Coordination Sequence:
#
# PCOD8210505 Si02
#       8
#     8   8   8   8   8   8   8   8
#     4   9  17  29  47  72  98 121 149 193 248 299
#     4  10  20  33  49  69  95 129 167 206 246 288
#     4  10  21  35  49  66  90 126 169 205 237 277
#     4   9  16  29  51  74  94 120 159 202 242 291
#     4   9  17  30  50  73  94 122 165 213 255 295
#     4   9  17  31  54  81 103 125 157 193 231 285
#     4   8  15  30  52  76 100 126 158 196 238 288
#     4  10  20  32  48  73 104 132 156 191 244 296
#
# _framework density 18.432590999999999
#
# number of rings (size 3 to 8) (size 9 to 14) (size 15 to 20)
#    0.000    2.750    0.000    2.625    0.000    6.250 
#    0.000    2.500    0.000    3.000    0.000    0.000 
#    0.000    0.000    0.000    0.000    0.000    0.000 
#
# Total GULP energy -793066.590514 kJ/mol
# GULP energy per Si atom -12391.665477 kJ/mol
# Density = 1.839064 g / cm^3
# Si number density = 18.432591 Si / 1000 Ang^3
#
#
#
# Elastic Constant Matrix: (Units=GPa)
#
#
# Indices 1 2 3 4 5 6 
#
# 1 56.3746 19.3461 37.8006 0.0000 0.0000 0.0000
# 2 19.3461 63.4574 44.4377 0.0000 0.0000 0.0000
# 3 37.8006 44.4377 96.5536 0.0000 0.0000 0.0000
# 4 0.0000 0.0000 0.0000 16.9429 0.0000 0.0000
# 5 0.0000 0.0000 0.0000 0.0000 18.7688 0.0000
# 6 0.0000 0.0000 0.0000 0.0000 0.0000 13.5982
#
#
#
# Elastic Compliance Matrix: (Units=1/GPa)
#
#
# Indices 1 2 3 4 5 6 
#
# 1 0.024104 -0.001092 -0.008934 0.000000 0.000000 0.000000
# 2 -0.001092 0.023302 -0.010297 0.000000 0.000000 0.000000
# 3 -0.008934 -0.010297 0.018594 0.000000 0.000000 0.000000
# 4 0.000000 0.000000 0.000000 0.059022 0.000000 0.000000
# 5 0.000000 0.000000 0.000000 0.000000 0.053280 0.000000
# 6 0.000000 0.000000 0.000000 0.000000 0.000000 0.073539
#
#
# Mechanical properties :
#
#
# Convention : Reuss Voigt Hill
#
# Bulk Modulus (GPa) = 39.44246 46.61717 43.02981
# Shear Modulus (GPa) = 16.61472 17.51540 17.06506
#
# Velocity S-wave (km/s) = 3.00555 3.08594 3.04601
# Velocity P-wave (km/s) = 5.78698 6.16789 5.98047
#
# Compressibility (1/GPa) = 0.02535339
#
# Stress axis : x y z
#
# Youngs Moduli (GPa) = 41.48737 42.91413 53.78181
#
# Poissons Ratio (x) = 0.04687 0.48048
# Poissons Ratio (y) = 0.04531 0.55379
# Poissons Ratio (z) = 0.37064 0.44189
#
# Static dielectric constant tensor:
#      x y z
#    x 3.698390 0.000000 0.000000 
#    y 0.000000 3.530500 0.000000 
#    z 0.000000 0.000000 3.496850 
# 
# 
# High freq. dielectric constant tensor:
#      x y z
#    x 1.683530 0.000000 0.000000 
#    y 0.000000 1.708150 0.000000 
#    z 0.000000 0.000000 1.713450 
# 
# From -- ./inp_files/32424.got.cif
#   From: 2010.03.12/outbox.cif.g09.slc.cpg/sg51_17_cif.got.tgz:32424.got - 2010.04.16 13:43:02.
