data_PCOD8210337
_publ_section_title
;
Structure prediction by ZEFSAII (Michael W. Deem and Ramdas Pophale) SiO2 
 PCOD8210337
Probable space group: P M M A
;
_chemical_formula_sum "Si O2"
_cell_formula_units_Z 52
_cell_length_a 9.209658
_cell_length_b 14.964863
_cell_length_c 20.022996
_cell_angle_alpha 90.000000
_cell_angle_beta 90.000000
_cell_angle_gamma 90.000000
_cell_volume 2759.594743
_symmetry_space_group_name_H-M "P M M A"
_symmetry_group_IT_number 51
_symmetry_cell_setting 'orthorhombic'
loop_
_space_group_symop_operation_xyz
x,y,z
1/2-x,-y,z
1/2+x,-y,-z
-x,y,-z
-x,-y,-z
1/2+x,y,-z
1/2-x,y,z
x,-y,z
loop_
_atom_site_type_symbol
_atom_site_label
_atom_site_fract_x
_atom_site_fract_y
_atom_site_fract_z
Si Si1 0.082182 0.331391 0.647529
Si Si2 0.417722 0.213083 0.178517
Si Si3 0.415588 0.500000 0.565758
Si Si4 0.916389 0.398267 0.771870
Si Si5 0.080150 0.897509 0.931567
Si Si6 0.414365 0.901545 0.304624
Si Si7 0.422386 0.154550 0.571017
O O1 0.250000 0.325585 0.667039
O O2 0.036183 0.416768 0.607427
O O3 0.035646 0.251730 0.599052
O O4 0.995059 0.342446 0.714923
O O5 0.250000 0.185033 0.166920
O O6 0.432974 0.322202 0.170406
O O7 0.519988 0.168917 0.124007
O O8 0.467437 0.173033 0.251106
O O9 0.250000 0.500000 0.546294
O O10 0.500000 0.500000 0.500000
O O11 0.750000 0.410185 0.751855
O O12 0.978421 0.500000 0.787966
O O13 0.250000 0.879361 0.941243
O O14 0.050395 0.000000 0.910336
O O15 0.000000 0.874462 0.000000
O O16 0.250000 0.879192 0.327385
O O17 0.515388 0.908353 0.370657
O O18 0.422319 0.000000 0.270943
O O19 0.500000 0.136961 0.500000
O O20 0.250000 0.140089 0.562007
#
# Coordination Sequence:
#
# PCOD8210337 Si02
#       7
#     8   8   4   8   8   8   8
#     4  10  20  34  51  72 100 134 174 225 282 339
#     4  10  20  36  59  86 119 154 187 228 278 330
#     4  10  20  32  46  68  96 128 167 216 277 338
#     4  10  20  34  56  84 111 144 186 230 276 328
#     4  10  21  37  60  92 127 160 193 228 270 323
#     4  10  21  37  57  80 106 141 185 230 280 338
#     4  11  23  37  54  74 100 137 182 232 288 344
#
# _framework density 18.843346
#
# number of rings (size 3 to 8) (size 9 to 14) (size 15 to 20)
#    0.000    1.846    2.308    1.846    0.000    4.615 
#    0.000    0.000    0.000    0.462    0.000    0.000 
#    0.000    0.000    0.000    0.000    0.000    0.000 
#
# Total GULP energy -644217.906754 kJ/mol
# GULP energy per Si atom -12388.805899 kJ/mol
# Density = 1.880046 g / cm^3
# Si number density = 18.843346 Si / 1000 Ang^3
#
#
#
# Elastic Constant Matrix: (Units=GPa)
#
#
# Indices 1 2 3 4 5 6 
#
# 1 62.8574 35.0878 49.7757 0.0000 0.0000 0.0000
# 2 35.0878 122.3923 39.7319 0.0000 0.0000 0.0000
# 3 49.7757 39.7319 94.0468 0.0000 0.0000 0.0000
# 4 0.0000 0.0000 0.0000 21.8685 0.0000 0.0000
# 5 0.0000 0.0000 0.0000 0.0000 37.3522 0.0000
# 6 0.0000 0.0000 0.0000 0.0000 0.0000 28.4580
#
#
#
# Elastic Compliance Matrix: (Units=1/GPa)
#
#
# Indices 1 2 3 4 5 6 
#
# 1 0.028867 -0.003843 -0.013655 0.000000 0.000000 0.000000
# 2 -0.003843 0.009981 -0.002183 0.000000 0.000000 0.000000
# 3 -0.013655 -0.002183 0.018782 0.000000 0.000000 0.000000
# 4 0.000000 0.000000 0.000000 0.045728 0.000000 0.000000
# 5 0.000000 0.000000 0.000000 0.000000 0.026772 0.000000
# 6 0.000000 0.000000 0.000000 0.000000 0.000000 0.035139
#
#
# Mechanical properties :
#
#
# Convention : Reuss Voigt Hill
#
# Bulk Modulus (GPa) = 54.73702 58.72083 56.72893
# Shear Modulus (GPa) = 23.72812 27.84915 25.78863
#
# Velocity S-wave (km/s) = 3.55241 3.84856 3.70345
# Velocity P-wave (km/s) = 6.77774 7.13994 6.96120
#
# Compressibility (1/GPa) = 0.01826917
#
# Stress axis : x y z
#
# Youngs Moduli (GPa) = 34.64122 100.19345 53.24198
#
# Poissons Ratio (x) = 0.38504 0.72702
# Poissons Ratio (y) = 0.13313 0.11620
# Poissons Ratio (z) = 0.47302 0.21868
#
# Static dielectric constant tensor:
#      x y z
#    x 3.424570 0.000000 0.000000 
#    y 0.000000 3.836990 0.000000 
#    z 0.000000 0.000000 3.250400 
# 
# 
# High freq. dielectric constant tensor:
#      x y z
#    x 1.731410 0.000000 0.000000 
#    y 0.000000 1.749240 0.000000 
#    z 0.000000 0.000000 1.704980 
# 
# From -- ./inp_files/31744.got.cif
#   From: 2010.03.12/outbox.cif.g09.slc.cpg/sg51_16_cif.got.tgz:31744.got - 2010.04.16 13:43:02.
