data_PCOD8210473
_publ_section_title
;
Structure prediction by ZEFSAII (Michael W. Deem and Ramdas Pophale) SiO2 
 PCOD8210473
Probable space group: P M M A
;
_chemical_formula_sum "Si O2"
_cell_formula_units_Z 48
_cell_length_a 9.719771
_cell_length_b 18.186987
_cell_length_c 14.242452
_cell_angle_alpha 90.000000
_cell_angle_beta 90.000000
_cell_angle_gamma 90.000000
_cell_volume 2517.685935
_symmetry_space_group_name_H-M "P M M A"
_symmetry_group_IT_number 51
_symmetry_cell_setting 'orthorhombic'
loop_
_space_group_symop_operation_xyz
x,y,z
1/2-x,-y,z
1/2+x,-y,-z
-x,y,-z
-x,-y,-z
1/2+x,y,-z
1/2-x,y,z
x,-y,z
loop_
_atom_site_type_symbol
_atom_site_label
_atom_site_fract_x
_atom_site_fract_y
_atom_site_fract_z
Si Si1 0.909747 0.216172 0.090842
Si Si2 0.586296 0.081464 0.212021
Si Si3 0.598404 0.415793 0.922322
Si Si4 0.594090 0.415973 0.415144
Si Si5 0.905720 0.354988 0.217708
Si Si6 0.902804 0.087174 0.419197
O O1 0.750000 0.212755 0.061078
O O2 0.963175 0.138629 0.132890
O O3 0.932309 0.274481 0.174984
O O4 0.000000 0.235891 0.000000
O O5 0.750000 0.079774 0.217070
O O6 0.535020 0.105822 0.315994
O O7 0.529705 0.000000 0.185916
O O8 0.750000 0.377669 0.920630
O O9 0.619869 0.500000 0.949247
O O10 0.519698 0.409976 0.824037
O O11 0.500000 0.376614 0.000000
O O12 0.500000 0.388394 0.500000
O O13 0.750000 0.412328 0.450908
O O14 0.557134 0.500000 0.384977
O O15 0.571926 0.359131 0.329323
O O16 0.750000 0.381639 0.192948
O O17 0.750000 0.121263 0.431351
O O18 0.000000 0.121417 0.500000
O O19 0.893686 0.000000 0.430009
#
# Coordination Sequence:
#
# PCOD8210473 Si02
#       6
#     8   8   8   8   8   8
#     4  10  21  36  53  73  98 130 169 212 259 310
#     4   8  15  30  51  72  96 130 170 209 254 311
#     4  10  20  32  48  72 100 130 165 204 244 288
#     4   9  18  33  53  76 102 133 168 205 245 290
#     4  10  20  34  52  73 100 134 168 204 249 301
#     4   8  13  23  42  67  93 121 152 188 234 288
#
# _framework density 19.065124999999998
#
# number of rings (size 3 to 8) (size 9 to 14) (size 15 to 20)
#    0.000    2.833    0.000    2.500    0.000    4.667 
#    0.000    3.333    0.000    1.000    0.000    0.000 
#    0.000    0.000    0.000    0.000    0.000    0.000 
#
# Total GULP energy -594870.077125 kJ/mol
# GULP energy per Si atom -12393.126607 kJ/mol
# Density = 1.902173 g / cm^3
# Si number density = 19.065125 Si / 1000 Ang^3
#
#
#
# Elastic Constant Matrix: (Units=GPa)
#
#
# Indices 1 2 3 4 5 6 
#
# 1 109.3592 30.4763 69.9216 0.0000 0.0000 0.0000
# 2 30.4763 64.9487 49.7261 0.0000 0.0000 0.0000
# 3 69.9216 49.7261 130.9542 0.0000 0.0000 0.0000
# 4 0.0000 0.0000 0.0000 27.4479 0.0000 0.0000
# 5 0.0000 0.0000 0.0000 0.0000 34.9908 0.0000
# 6 0.0000 0.0000 0.0000 0.0000 0.0000 12.4026
#
#
#
# Elastic Compliance Matrix: (Units=1/GPa)
#
#
# Indices 1 2 3 4 5 6 
#
# 1 0.013949 -0.001189 -0.006996 0.000000 0.000000 0.000000
# 2 -0.001189 0.021809 -0.007647 0.000000 0.000000 0.000000
# 3 -0.006996 -0.007647 0.014276 0.000000 0.000000 0.000000
# 4 0.000000 0.000000 0.000000 0.036433 0.000000 0.000000
# 5 0.000000 0.000000 0.000000 0.000000 0.028579 0.000000
# 6 0.000000 0.000000 0.000000 0.000000 0.000000 0.080628
#
#
# Mechanical properties :
#
#
# Convention : Reuss Voigt Hill
#
# Bulk Modulus (GPa) = 54.43727 67.27890 60.85808
# Shear Modulus (GPa) = 21.41694 25.31079 23.36386
#
# Velocity S-wave (km/s) = 3.35529 3.64757 3.50448
# Velocity P-wave (km/s) = 6.60499 7.28734 6.95454
#
# Compressibility (1/GPa) = 0.01836977
#
# Stress axis : x y z
#
# Youngs Moduli (GPa) = 71.69079 45.85266 70.04988
#
# Poissons Ratio (x) = 0.05450 0.49010
# Poissons Ratio (y) = 0.08522 0.53565
# Poissons Ratio (z) = 0.50158 0.35062
#
# Static dielectric constant tensor:
#      x y z
#    x 3.597700 0.000000 0.000000 
#    y 0.000000 3.357880 0.000000 
#    z 0.000000 0.000000 3.515600 
# 
# 
# High freq. dielectric constant tensor:
#      x y z
#    x 1.724870 0.000000 0.000000 
#    y 0.000000 1.713660 0.000000 
#    z 0.000000 0.000000 1.738030 
# 
# From -- ./inp_files/21400.got.cif
#   From: 2010.03.12/outbox.cif.g09.slc.cpg/sg51_11_cif.got.tgz:21400.got - 2010.04.16 13:43:02.
