data_PCOD8210154
_publ_section_title
;
Structure prediction by ZEFSAII (Michael W. Deem and Ramdas Pophale) SiO2 
 PCOD8210154
Probable space group: P M M A
;
_chemical_formula_sum "Si O2"
_cell_formula_units_Z 64
_cell_length_a 9.213922
_cell_length_b 17.365450
_cell_length_c 28.064228
_cell_angle_alpha 90.000000
_cell_angle_beta 90.000000
_cell_angle_gamma 90.000000
_cell_volume 4490.385981
_symmetry_space_group_name_H-M "P M M A"
_symmetry_group_IT_number 51
_symmetry_cell_setting 'orthorhombic'
loop_
_space_group_symop_operation_xyz
x,y,z
1/2-x,-y,z
1/2+x,-y,-z
-x,y,-z
-x,-y,-z
1/2+x,y,-z
1/2-x,y,z
x,-y,z
loop_
_atom_site_type_symbol
_atom_site_label
_atom_site_fract_x
_atom_site_fract_y
_atom_site_fract_z
Si Si1 0.913279 0.408940 0.362567
Si Si2 0.087909 0.415365 0.096367
Si Si3 0.085120 0.299831 0.183003
Si Si4 0.414577 0.408175 0.453722
Si Si5 0.593198 0.690396 0.040565
Si Si6 0.421458 0.411376 0.267178
Si Si7 0.587664 0.811067 0.122728
Si Si8 0.417013 0.090966 0.048359
O O1 0.750000 0.374602 0.362154
O O2 0.905628 0.500000 0.367386
O O3 0.002450 0.375245 0.407372
O O4 0.996268 0.385483 0.314689
O O5 0.250000 0.415180 0.075856
O O6 0.041640 0.500000 0.113963
O O7 0.075969 0.358841 0.140229
O O8 0.983982 0.389786 0.053505
O O9 0.250000 0.271851 0.191515
O O10 0.027041 0.348629 0.228150
O O11 0.989666 0.223351 0.170508
O O12 0.500000 0.377740 0.500000
O O13 0.250000 0.376264 0.454446
O O14 0.412160 0.500000 0.452973
O O15 0.750000 0.672050 0.019220
O O16 0.604519 0.741479 0.086791
O O17 0.500000 0.734007 0.000000
O O18 0.250000 0.406108 0.275855
O O19 0.461858 0.500000 0.252630
O O20 0.750000 0.842490 0.135578
O O21 0.491875 0.875895 0.096259
O O22 0.250000 0.120086 0.044902
O O23 0.422935 0.000000 0.053978
O O24 0.500000 0.116485 0.000000
#
# Coordination Sequence:
#
# PCOD8210154 Si02
#       8
#     8   8   8   8   8   8   8   8
#     4   9  16  24  33  47  67  90 117 151 192 235
#     4   9  17  29  43  56  69  87 113 145 179 214
#     4   9  17  29  44  59  75  96 122 152 186 222
#     4   9  15  22  32  45  62  85 113 146 186 234
#     4  10  20  31  42  56  72  92 116 140 169 204
#     4   9  16  26  40  56  73  95 125 161 200 238
#     4  10  20  32  46  63  82 102 123 146 172 207
#     4  10  20  33  50  71  91 108 124 142 168 205
#
# _framework density 14.252672
#
# number of rings (size 3 to 8) (size 9 to 14) (size 15 to 20)
#    0.000    2.625    0.000    2.625    0.000    8.750 
#    0.000    0.000    0.000    2.250    0.000    0.000 
#    0.000    0.000    0.000    0.000    0.000    0.000 
#
# Total GULP energy -793113.697395 kJ/mol
# GULP energy per Si atom -12392.401522 kJ/mol
# Density = 1.422023 g / cm^3
# Si number density = 14.252672 Si / 1000 Ang^3
#
#
#
# Elastic Constant Matrix: (Units=GPa)
#
#
# Indices 1 2 3 4 5 6 
#
# 1 108.3472 22.1426 48.2648 0.0000 0.0000 0.0000
# 2 22.1426 29.6464 15.9288 0.0000 0.0000 0.0000
# 3 48.2648 15.9288 84.2785 0.0000 0.0000 0.0000
# 4 0.0000 0.0000 0.0000 -18.0264 0.0000 0.0000
# 5 0.0000 0.0000 0.0000 0.0000 24.8072 0.0000
# 6 0.0000 0.0000 0.0000 0.0000 0.0000 -5.8466
#
#
#
# Elastic Compliance Matrix: (Units=1/GPa)
#
#
# Indices 1 2 3 4 5 6 
#
# 1 0.013451 -0.006575 -0.006461 0.000000 0.000000 0.000000
# 2 -0.006575 0.040758 -0.003938 0.000000 0.000000 0.000000
# 3 -0.006461 -0.003938 0.016309 0.000000 0.000000 0.000000
# 4 0.000000 0.000000 0.000000 -0.055474 0.000000 0.000000
# 5 0.000000 0.000000 0.000000 0.000000 0.040311 0.000000
# 6 0.000000 0.000000 0.000000 0.000000 0.000000 -0.171040
#
#
# Mechanical properties :
#
#
# Convention : Reuss Voigt Hill
#
# Bulk Modulus (GPa) = 27.34394 43.88274 35.61334
# Shear Modulus (GPa) = -71.89377 9.24923 -31.32227
#
# Velocity S-wave (km/s) = -7.10998 2.55021 -4.69299
# Velocity P-wave (km/s) = 6.94087 6.28708 2.07945
#
# Compressibility (1/GPa) = 0.03657117
#
# Stress axis : x y z
#
# Youngs Moduli (GPa) = 74.34205 24.53526 61.31399
#
# Poissons Ratio (x) = 0.16133 0.39612
# Poissons Ratio (y) = 0.48883 0.24143
# Poissons Ratio (z) = 0.48029 0.09661
#
# Static dielectric constant tensor:
#      x y z
#    x 3.227770 0.000000 0.000000 
#    y 0.000000 2.460750 0.000000 
#    z 0.000000 0.000000 2.767650 
# 
# 
# High freq. dielectric constant tensor:
#      x y z
#    x 1.562230 0.000000 0.000000 
#    y 0.000000 1.488070 0.000000 
#    z 0.000000 0.000000 1.525360 
# 
# From -- ./inp_files/36469.got.cif
#   From: 2010.03.12/outbox.cif.g09.slc.cpg/sg51_19_cif.got.tgz:36469.got - 2010.04.16 13:43:02.
