data_PCOD8210820
_publ_section_title
;
Structure prediction by ZEFSAII (Michael W. Deem and Ramdas Pophale) SiO2 
 PCOD8210820
Probable space group: P M M A
;
_chemical_formula_sum "Si O2"
_cell_formula_units_Z 48
_cell_length_a 14.253815
_cell_length_b 8.856180
_cell_length_c 21.341882
_cell_angle_alpha 90.000000
_cell_angle_beta 90.000000
_cell_angle_gamma 90.000000
_cell_volume 2694.078630
_symmetry_space_group_name_H-M "P M M A"
_symmetry_group_IT_number 51
_symmetry_cell_setting 'orthorhombic'
loop_
_space_group_symop_operation_xyz
x,y,z
1/2-x,-y,z
1/2+x,-y,-z
-x,y,-z
-x,-y,-z
1/2+x,y,-z
1/2-x,y,z
x,-y,z
loop_
_atom_site_type_symbol
_atom_site_label
_atom_site_fract_x
_atom_site_fract_y
_atom_site_fract_z
Si Si1 0.858548 0.822434 0.833397
Si Si2 0.853767 0.678082 0.168437
Si Si3 0.008706 0.678441 0.263513
Si Si4 0.646193 0.178774 0.498228
Si Si5 0.493950 0.678483 0.071181
Si Si6 0.497400 0.178404 0.398010
O O1 0.750000 0.777904 0.835171
O O2 0.902391 0.751985 0.770627
O O3 0.905850 0.757081 0.895947
O O4 0.874228 0.000000 0.831304
O O5 0.750000 0.753702 0.168995
O O6 0.842425 0.500000 0.169838
O O7 0.912967 0.731649 0.228982
O O8 0.909629 0.726614 0.105783
O O9 0.020484 0.500000 0.259306
O O10 0.004315 0.729962 0.334488
O O11 0.750000 0.251877 0.497210
O O12 0.589928 0.229093 0.436286
O O13 0.592893 0.228669 0.561377
O O14 0.652055 0.000000 0.498115
O O15 0.477889 0.500000 0.075490
O O16 0.500000 0.735166 0.000000
O O17 0.496970 0.000000 0.384468
#
# Coordination Sequence:
#
# PCOD8210820 Si02
#       6
#     8   8   8   8   8   8
#     4  10  21  36  53  73  99 133 171 209 248 291
#     4   8  15  29  47  67  94 128 163 196 234 287
#     4  10  20  33  50  72  99 130 164 206 253 297
#     4   8  15  29  48  69  94 125 160 197 238 288
#     4   9  18  32  52  78 104 131 163 201 248 298
#     4   9  17  30  49  71  94 123 161 201 240 288
#
# _framework density 17.816852000000001
#
# number of rings (size 3 to 8) (size 9 to 14) (size 15 to 20)
#    0.000    3.000    0.000    3.000    0.000    3.667 
#    0.000    5.000    0.000   13.000    0.000    0.000 
#    0.000    0.000    0.000    0.000    0.000    0.000 
#
# Total GULP energy -595049.278061 kJ/mol
# GULP energy per Si atom -12396.859960 kJ/mol
# Density = 1.777630 g / cm^3
# Si number density = 17.816852 Si / 1000 Ang^3
#
#
#
# Elastic Constant Matrix: (Units=GPa)
#
#
# Indices 1 2 3 4 5 6 
#
# 1 179.8430 41.4489 88.9424 0.0000 0.0000 0.0000
# 2 41.4489 38.8259 33.8154 0.0000 0.0000 0.0000
# 3 88.9424 33.8154 169.6065 0.0000 0.0000 0.0000
# 4 0.0000 0.0000 0.0000 31.1619 0.0000 0.0000
# 5 0.0000 0.0000 0.0000 0.0000 13.0752 0.0000
# 6 0.0000 0.0000 0.0000 0.0000 0.0000 17.8596
#
#
#
# Elastic Compliance Matrix: (Units=1/GPa)
#
#
# Indices 1 2 3 4 5 6 
#
# 1 0.008645 -0.006390 -0.003259 0.000000 0.000000 0.000000
# 2 -0.006390 0.035892 -0.003805 0.000000 0.000000 0.000000
# 3 -0.003259 -0.003805 0.008364 0.000000 0.000000 0.000000
# 4 0.000000 0.000000 0.000000 0.032091 0.000000 0.000000
# 5 0.000000 0.000000 0.000000 0.000000 0.076481 0.000000
# 6 0.000000 0.000000 0.000000 0.000000 0.000000 0.055992
#
#
# Mechanical properties :
#
#
# Convention : Reuss Voigt Hill
#
# Bulk Modulus (GPa) = 38.47398 79.63208 59.05303
# Shear Modulus (GPa) = 19.75987 27.35724 23.55856
#
# Velocity S-wave (km/s) = 3.33386 3.92276 3.64024
# Velocity P-wave (km/s) = 6.03826 8.08141 7.13336
#
# Compressibility (1/GPa) = 0.02599159
#
# Stress axis : x y z
#
# Youngs Moduli (GPa) = 115.67078 27.86139 119.56166
#
# Poissons Ratio (x) = 0.17805 0.38971
# Poissons Ratio (y) = 0.73918 0.45491
# Poissons Ratio (z) = 0.37703 0.10601
#
# Static dielectric constant tensor:
#      x y z
#    x 3.827140 0.000000 0.000000 
#    y 0.000000 2.972180 0.000000 
#    z 0.000000 0.000000 3.342800 
# 
# 
# High freq. dielectric constant tensor:
#      x y z
#    x 1.696410 0.000000 0.000000 
#    y 0.000000 1.658830 0.000000 
#    z 0.000000 0.000000 1.694110 
# 
# From -- ./inp_files/33185.got.cif
#   From: 2010.03.12/outbox.cif.g09.slc.cpg/sg51_17_cif.got.tgz:33185.got - 2010.04.16 13:43:02.
