data_PCOD8210605
_publ_section_title
;
Structure prediction by ZEFSAII (Michael W. Deem and Ramdas Pophale) SiO2 
 PCOD8210605
Probable space group: P M M A
;
_chemical_formula_sum "Si O2"
_cell_formula_units_Z 64
_cell_length_a 9.076707
_cell_length_b 14.387218
_cell_length_c 26.122359
_cell_angle_alpha 90.000000
_cell_angle_beta 90.000000
_cell_angle_gamma 90.000000
_cell_volume 3411.281307
_symmetry_space_group_name_H-M "P M M A"
_symmetry_group_IT_number 51
_symmetry_cell_setting 'orthorhombic'
loop_
_space_group_symop_operation_xyz
x,y,z
1/2-x,-y,z
1/2+x,-y,-z
-x,y,-z
-x,-y,-z
1/2+x,y,-z
1/2-x,y,z
x,-y,z
loop_
_atom_site_type_symbol
_atom_site_label
_atom_site_fract_x
_atom_site_fract_y
_atom_site_fract_z
Si Si1 0.924513 0.103287 0.643659
Si Si2 0.586039 0.609870 0.702259
Si Si3 0.422127 0.608469 0.601337
Si Si4 0.574301 0.231532 0.550986
Si Si5 0.420447 0.108647 0.242393
Si Si6 0.579784 0.209122 0.150907
Si Si7 0.422671 0.892813 0.948527
Si Si8 0.919417 0.395848 0.197066
O O1 0.750000 0.096534 0.641317
O O2 0.982242 0.170456 0.598972
O O3 0.969543 0.140682 0.700251
O O4 0.990770 0.000000 0.634868
O O5 0.750000 0.653932 0.696683
O O6 0.596757 0.500000 0.701501
O O7 0.484191 0.643491 0.655878
O O8 0.515774 0.641248 0.755652
O O9 0.250000 0.631652 0.598574
O O10 0.453009 0.500000 0.592297
O O11 0.510888 0.664316 0.557963
O O12 0.500000 0.189056 0.500000
O O13 0.750000 0.233506 0.545616
O O14 0.250000 0.130391 0.233360
O O15 0.510500 0.165123 0.201022
O O16 0.453307 0.000000 0.235788
O O17 0.750000 0.181929 0.152431
O O18 0.512282 0.167530 0.098621
O O19 0.556410 0.321354 0.151468
O O20 0.250000 0.877501 0.955738
O O21 0.461956 0.000000 0.937577
O O22 0.500000 0.857164 0.000000
O O23 0.750000 0.396938 0.215079
O O24 0.966521 0.500000 0.179019
#
# Coordination Sequence:
#
# PCOD8210605 Si02
#       8
#     8   8   8   8   8   8   8   8
#     4   8  17  36  58  78 103 135 169 209 259 312
#     4   9  17  30  49  73 100 132 171 212 254 303
#     4  10  21  37  56  77 104 137 171 212 261 313
#     4  11  23  38  57  80 104 134 173 218 263 313
#     4   9  18  33  53  78 107 137 169 207 257 319
#     4  10  20  32  50  78 108 141 177 220 266 306
#     4   9  18  33  52  74 103 137 175 220 268 316
#     4   9  18  32  48  70 104 144 181 215 256 307
#
# _framework density 18.761278000000001
#
# number of rings (size 3 to 8) (size 9 to 14) (size 15 to 20)
#    0.000    2.625    0.000    2.250    1.750    4.500 
#    0.000    1.875    0.000    3.000    0.000    0.000 
#    0.000    0.000    0.000    0.000    0.000    0.000 
#
# Total GULP energy -793426.210978 kJ/mol
# GULP energy per Si atom -12397.284547 kJ/mol
# Density = 1.871858 g / cm^3
# Si number density = 18.761278 Si / 1000 Ang^3
#
#
#
# Elastic Constant Matrix: (Units=GPa)
#
#
# Indices 1 2 3 4 5 6 
#
# 1 62.2930 32.8961 42.5113 0.0000 0.0000 0.0000
# 2 32.8961 68.4171 75.1647 0.0000 0.0000 0.0000
# 3 42.5113 75.1647 146.7109 0.0000 0.0000 0.0000
# 4 0.0000 0.0000 0.0000 30.8451 0.0000 0.0000
# 5 0.0000 0.0000 0.0000 0.0000 30.2658 0.0000
# 6 0.0000 0.0000 0.0000 0.0000 0.0000 18.2050
#
#
#
# Elastic Compliance Matrix: (Units=1/GPa)
#
#
# Indices 1 2 3 4 5 6 
#
# 1 0.021814 -0.008108 -0.002167 0.000000 0.000000 0.000000
# 2 -0.008108 0.036450 -0.016325 0.000000 0.000000 0.000000
# 3 -0.002167 -0.016325 0.015808 0.000000 0.000000 0.000000
# 4 0.000000 0.000000 0.000000 0.032420 0.000000 0.000000
# 5 0.000000 0.000000 0.000000 0.000000 0.033041 0.000000
# 6 0.000000 0.000000 0.000000 0.000000 0.000000 0.054930
#
#
# Mechanical properties :
#
#
# Convention : Reuss Voigt Hill
#
# Bulk Modulus (GPa) = 47.91163 64.28502 56.09833
# Shear Modulus (GPa) = 19.63728 24.31980 21.97854
#
# Velocity S-wave (km/s) = 3.23877 3.60429 3.42641
# Velocity P-wave (km/s) = 6.29120 7.18751 6.75424
#
# Compressibility (1/GPa) = 0.02087176
#
# Stress axis : x y z
#
# Youngs Moduli (GPa) = 45.84316 27.43515 63.25983
#
# Poissons Ratio (x) = 0.22244 0.13708
# Poissons Ratio (y) = 0.37168 1.03272
# Poissons Ratio (z) = 0.09934 0.44788
#
# Static dielectric constant tensor:
#      x y z
#    x 3.355160 0.000000 0.000000 
#    y 0.000000 3.593250 0.000000 
#    z 0.000000 0.000000 3.495200 
# 
# 
# High freq. dielectric constant tensor:
#      x y z
#    x 1.715030 0.000000 0.000000 
#    y 0.000000 1.728760 0.000000 
#    z 0.000000 0.000000 1.715540 
# 
# From -- ./inp_files/34831.got.cif
#   From: 2010.03.12/outbox.cif.g09.slc.cpg/sg51_18_cif.got.tgz:34831.got - 2010.04.16 13:43:02.
