data_PCOD8210978
_publ_section_title
;
Structure prediction by ZEFSAII (Michael W. Deem and Ramdas Pophale) SiO2 
 PCOD8210978
Probable space group: P M M A
;
_chemical_formula_sum "Si O2"
_cell_formula_units_Z 48
_cell_length_a 9.475946
_cell_length_b 9.075518
_cell_length_c 30.912730
_cell_angle_alpha 90.000000
_cell_angle_beta 90.000000
_cell_angle_gamma 90.000000
_cell_volume 2658.467530
_symmetry_space_group_name_H-M "P M M A"
_symmetry_group_IT_number 51
_symmetry_cell_setting 'orthorhombic'
loop_
_space_group_symop_operation_xyz
x,y,z
1/2-x,-y,z
1/2+x,-y,-z
-x,y,-z
-x,-y,-z
1/2+x,y,-z
1/2-x,y,z
x,-y,z
loop_
_atom_site_type_symbol
_atom_site_label
_atom_site_fract_x
_atom_site_fract_y
_atom_site_fract_z
Si Si1 0.086748 0.171755 0.541414
Si Si2 0.585280 0.672129 0.203134
Si Si3 0.918123 0.666149 0.373069
Si Si4 0.913453 0.669286 0.958553
Si Si5 0.417930 0.166058 0.710724
Si Si6 0.085128 0.829077 0.128585
O O1 0.250000 0.207733 0.532816
O O2 0.027861 0.257514 0.583098
O O3 0.000000 0.226978 0.500000
O O4 0.062359 0.000000 0.550223
O O5 0.750000 0.704217 0.195907
O O6 0.553732 0.500000 0.206795
O O7 0.529540 0.747705 0.246969
O O8 0.501384 0.738629 0.163413
O O9 0.750000 0.669100 0.371803
O O10 0.975900 0.500000 0.371470
O O11 0.979325 0.753695 0.331799
O O12 0.750000 0.689335 0.969746
O O13 0.949410 0.500000 0.947155
O O14 0.958968 0.770110 0.918439
O O15 0.000000 0.724066 0.000000
O O16 0.250000 0.165935 0.708866
O O17 0.477219 0.000000 0.712260
O O18 0.250000 0.801755 0.136970
O O19 0.044963 0.000000 0.131731
#
# Coordination Sequence:
#
# PCOD8210978 Si02
#       6
#     8   8   8   8   8   8
#     4   9  17  29  45  65  89 118 152 189 231 279
#     4  10  20  33  51  76 103 130 163 204 248 292
#     4   9  16  26  42  65  92 121 154 192 234 281
#     4   9  18  33  52  73  98 129 165 204 245 289
#     4   9  16  27  45  69  97 126 156 195 242 287
#     4  10  21  36  53  74 102 136 171 204 242 292
#
# _framework density 18.055513999999999
#
# number of rings (size 3 to 8) (size 9 to 14) (size 15 to 20)
#    0.000    2.667    0.000    2.000    0.000    7.333 
#    0.000    1.667    0.000    1.000    0.000    2.333 
#    0.000    0.000    0.000    0.000    0.000    0.000 
#
# Total GULP energy -595277.594865 kJ/mol
# GULP energy per Si atom -12401.616560 kJ/mol
# Density = 1.801442 g / cm^3
# Si number density = 18.055514 Si / 1000 Ang^3
#
#
#
# Elastic Constant Matrix: (Units=GPa)
#
#
# Indices 1 2 3 4 5 6 
#
# 1 32.9339 35.4081 51.3848 0.0000 0.0000 0.0000
# 2 35.4081 125.8005 87.4837 0.0000 0.0000 0.0000
# 3 51.3848 87.4837 175.2517 0.0000 0.0000 0.0000
# 4 0.0000 0.0000 0.0000 41.4150 0.0000 0.0000
# 5 0.0000 0.0000 0.0000 0.0000 27.1808 0.0000
# 6 0.0000 0.0000 0.0000 0.0000 0.0000 17.6980
#
#
#
# Elastic Compliance Matrix: (Units=1/GPa)
#
#
# Indices 1 2 3 4 5 6 
#
# 1 0.059850 -0.007110 -0.013999 0.000000 0.000000 0.000000
# 2 -0.007110 0.013021 -0.004415 0.000000 0.000000 0.000000
# 3 -0.013999 -0.004415 0.012015 0.000000 0.000000 0.000000
# 4 0.000000 0.000000 0.000000 0.024146 0.000000 0.000000
# 5 0.000000 0.000000 0.000000 0.000000 0.036791 0.000000
# 6 0.000000 0.000000 0.000000 0.000000 0.000000 0.056504
#
#
# Mechanical properties :
#
#
# Convention : Reuss Voigt Hill
#
# Bulk Modulus (GPa) = 29.55375 75.83771 52.69573
# Shear Modulus (GPa) = 18.89266 27.90606 23.39936
#
# Velocity S-wave (km/s) = 3.23827 3.93564 3.60386
# Velocity P-wave (km/s) = 5.51232 7.92124 6.82392
#
# Compressibility (1/GPa) = 0.03383665
#
# Stress axis : x y z
#
# Youngs Moduli (GPa) = 16.70839 76.80122 83.23263
#
# Poissons Ratio (x) = 0.54609 1.16517
# Poissons Ratio (y) = 0.11880 0.36747
# Poissons Ratio (z) = 0.23390 0.33907
#
# Static dielectric constant tensor:
#      x y z
#    x 2.929020 0.000000 0.000000 
#    y 0.000000 3.479380 0.000000 
#    z 0.000000 0.000000 3.517240 
# 
# 
# High freq. dielectric constant tensor:
#      x y z
#    x 1.652390 0.000000 0.000000 
#    y 0.000000 1.709850 0.000000 
#    z 0.000000 0.000000 1.714560 
# 
# From -- ./inp_files/35295.got.cif
#   From: 2010.03.12/outbox.cif.g09.slc.cpg/sg51_18_cif.got.tgz:35295.got - 2010.04.16 13:43:02.
