data_PCOD8210948
_publ_section_title
;
Structure prediction by ZEFSAII (Michael W. Deem and Ramdas Pophale) SiO2 
 PCOD8210948
Probable space group: P M M A
;
_chemical_formula_sum "Si O2"
_cell_formula_units_Z 40
_cell_length_a 9.151411
_cell_length_b 8.747434
_cell_length_c 25.968529
_cell_angle_alpha 90.000000
_cell_angle_beta 90.000000
_cell_angle_gamma 90.000000
_cell_volume 2078.816160
_symmetry_space_group_name_H-M "P M M A"
_symmetry_group_IT_number 51
_symmetry_cell_setting 'orthorhombic'
loop_
_space_group_symop_operation_xyz
x,y,z
1/2-x,-y,z
1/2+x,-y,-z
-x,y,-z
-x,-y,-z
1/2+x,y,-z
1/2-x,y,z
x,-y,z
loop_
_atom_site_type_symbol
_atom_site_label
_atom_site_fract_x
_atom_site_fract_y
_atom_site_fract_z
Si Si1 0.917960 0.178691 0.353028
Si Si2 0.579773 0.322895 0.552811
Si Si3 0.585676 0.681591 0.741383
Si Si4 0.913774 0.318295 0.047951
Si Si5 0.585370 0.681773 0.160707
O O1 0.750000 0.229427 0.360511
O O2 0.009113 0.219948 0.403423
O O3 0.983601 0.266267 0.304719
O O4 0.931155 0.000000 0.342640
O O5 0.500000 0.281050 0.500000
O O6 0.750000 0.282426 0.547399
O O7 0.556967 0.500000 0.567225
O O8 0.750000 0.745904 0.734446
O O9 0.587975 0.500000 0.742091
O O10 0.520347 0.747125 0.794953
O O11 0.750000 0.258153 0.042947
O O12 0.919679 0.500000 0.044167
O O13 0.974863 0.267049 0.104213
O O14 0.000000 0.243812 0.000000
O O15 0.750000 0.744501 0.169312
O O16 0.589372 0.500000 0.163377
#
# Coordination Sequence:
#
# PCOD8210948 Si02
#       5
#     8   8   8   8   8
#     4  11  24  39  55  77 105 138 174 210 252 301
#     4  10  21  38  61  87 112 139 172 208 247 293
#     4  10  20  33  51  75 100 129 168 212 257 304
#     4   8  13  20  31  50  79 116 155 194 240 293
#     4   8  14  25  40  59  86 122 162 202 246 297
#
# _framework density 19.241720999999998
#
# number of rings (size 3 to 8) (size 9 to 14) (size 15 to 20)
#    0.000    2.600    0.000    3.600    0.000    7.600 
#    0.000    4.000    0.000    0.000    0.000    0.000 
#    0.000    0.800    0.000    2.600    0.000    5.200 
#
# Total GULP energy -495847.532363 kJ/mol
# GULP energy per Si atom -12396.188309 kJ/mol
# Density = 1.919793 g / cm^3
# Si number density = 19.241721 Si / 1000 Ang^3
#
#
#
# Elastic Constant Matrix: (Units=GPa)
#
#
# Indices 1 2 3 4 5 6 
#
# 1 124.6259 16.5860 71.5609 0.0000 0.0000 0.0000
# 2 16.5860 12.5765 12.5983 0.0000 0.0000 0.0000
# 3 71.5609 12.5983 151.7555 0.0000 0.0000 0.0000
# 4 0.0000 0.0000 0.0000 -5.6387 0.0000 0.0000
# 5 0.0000 0.0000 0.0000 0.0000 44.5747 0.0000
# 6 0.0000 0.0000 0.0000 0.0000 0.0000 17.1432
#
#
#
# Elastic Compliance Matrix: (Units=1/GPa)
#
#
# Indices 1 2 3 4 5 6 
#
# 1 0.012338 -0.011390 -0.004872 0.000000 0.000000 0.000000
# 2 -0.011390 0.097241 -0.002702 0.000000 0.000000 0.000000
# 3 -0.004872 -0.002702 0.009111 0.000000 0.000000 0.000000
# 4 0.000000 0.000000 0.000000 -0.177345 0.000000 0.000000
# 5 0.000000 0.000000 0.000000 0.000000 0.022434 0.000000
# 6 0.000000 0.000000 0.000000 0.000000 0.000000 0.058332
#
#
# Mechanical properties :
#
#
# Convention : Reuss Voigt Hill
#
# Bulk Modulus (GPa) = 12.38202 54.49423 33.43813
# Shear Modulus (GPa) = 57.49764 23.76337 40.63050
#
# Velocity S-wave (km/s) = 5.47235 3.51806 4.60018
# Velocity P-wave (km/s) = 6.81012 6.69960 6.75509
#
# Compressibility (1/GPa) = 0.08076226
#
# Stress axis : x y z
#
# Youngs Moduli (GPa) = 81.05328 10.28368 109.75324
#
# Poissons Ratio (x) = 0.11713 0.53474
# Poissons Ratio (y) = 0.92321 0.29651
# Poissons Ratio (z) = 0.39491 0.02778
#
# Static dielectric constant tensor:
#      x y z
#    x 3.893390 0.000000 0.000000 
#    y 0.000000 2.978520 0.000000 
#    z 0.000000 0.000000 3.972840 
# 
# 
# High freq. dielectric constant tensor:
#      x y z
#    x 1.754940 0.000000 0.000000 
#    y 0.000000 1.692420 0.000000 
#    z 0.000000 0.000000 1.770290 
# 
# From -- ./inp_files/34313.got.cif
#   From: 2010.03.12/outbox.cif.g09.slc.cpg/sg51_18_cif.got.tgz:34313.got - 2010.04.16 13:43:02.
