data_PCOD8210679
_publ_section_title
;
Structure prediction by ZEFSAII (Michael W. Deem and Ramdas Pophale) SiO2 
 PCOD8210679
Probable space group: P M M A
;
_chemical_formula_sum "Si O2"
_cell_formula_units_Z 48
_cell_length_a 9.352333
_cell_length_b 13.663944
_cell_length_c 24.215873
_cell_angle_alpha 90.000000
_cell_angle_beta 90.000000
_cell_angle_gamma 90.000000
_cell_volume 3094.540463
_symmetry_space_group_name_H-M "P M M A"
_symmetry_group_IT_number 51
_symmetry_cell_setting 'orthorhombic'
loop_
_space_group_symop_operation_xyz
x,y,z
1/2-x,-y,z
1/2+x,-y,-z
-x,y,-z
-x,-y,-z
1/2+x,y,-z
1/2-x,y,z
x,-y,z
loop_
_atom_site_type_symbol
_atom_site_label
_atom_site_fract_x
_atom_site_fract_y
_atom_site_fract_z
Si Si1 0.416712 0.204440 0.780539
Si Si2 0.420177 0.109357 0.670371
Si Si3 0.913647 0.890254 0.875807
Si Si4 0.418089 0.704319 0.056202
Si Si5 0.085980 0.610383 0.847511
Si Si6 0.408757 0.883339 0.550260
O O1 0.250000 0.180629 0.784256
O O2 0.473115 0.183047 0.718501
O O3 0.491531 0.130488 0.822487
O O4 0.450323 0.316935 0.796667
O O5 0.250000 0.106133 0.666701
O O6 0.475950 0.146021 0.610197
O O7 0.477875 0.000000 0.683523
O O8 0.750000 0.876646 0.857504
O O9 0.950173 0.815877 0.925415
O O10 0.944498 0.000000 0.897256
O O11 0.250000 0.684078 0.048549
O O12 0.480317 0.630591 0.101774
O O13 0.500000 0.682828 0.000000
O O14 0.250000 0.626469 0.867056
O O15 0.061466 0.500000 0.826380
O O16 0.500000 0.838396 0.500000
O O17 0.250000 0.839874 0.543905
O O18 0.404358 0.000000 0.546858
#
# Coordination Sequence:
#
# PCOD8210679 Si02
#       6
#     8   8   8   8   8   8
#     4   9  16  27  44  63  81 104 136 168 197 238
#     4   8  13  21  35  56  80 105 133 164 195 227
#     4   9  18  31  44  60  85 112 133 159 197 234
#     4  10  20  33  48  65  84 106 133 163 195 235
#     4   9  18  32  48  65  84 104 127 161 205 246
#     4   8  13  21  32  47  71 103 135 164 192 222
#
# _framework density 15.511188000000001
#
# number of rings (size 3 to 8) (size 9 to 14) (size 15 to 20)
#    0.000    3.167    0.000    2.000    0.000    2.667 
#    0.000    0.833    0.000    3.000    0.000    0.000 
#    0.000    0.667    0.000    0.500    0.000    1.000 
#
# Total GULP energy -594906.639445 kJ/mol
# GULP energy per Si atom -12393.888322 kJ/mol
# Density = 1.547588 g / cm^3
# Si number density = 15.511188 Si / 1000 Ang^3
#
#
#
# Elastic Constant Matrix: (Units=GPa)
#
#
# Indices 1 2 3 4 5 6 
#
# 1 48.0620 21.1152 40.8628 0.0000 0.0000 0.0000
# 2 21.1152 75.3280 40.0392 0.0000 0.0000 0.0000
# 3 40.8628 40.0392 130.4803 0.0000 0.0000 0.0000
# 4 0.0000 0.0000 0.0000 13.3288 0.0000 0.0000
# 5 0.0000 0.0000 0.0000 0.0000 22.2669 0.0000
# 6 0.0000 0.0000 0.0000 0.0000 0.0000 15.1600
#
#
#
# Elastic Compliance Matrix: (Units=1/GPa)
#
#
# Indices 1 2 3 4 5 6 
#
# 1 0.029327 -0.003990 -0.007960 0.000000 0.000000 0.000000
# 2 -0.003990 0.016405 -0.003785 0.000000 0.000000 0.000000
# 3 -0.007960 -0.003785 0.011318 0.000000 0.000000 0.000000
# 4 0.000000 0.000000 0.000000 0.075025 0.000000 0.000000
# 5 0.000000 0.000000 0.000000 0.000000 0.044910 0.000000
# 6 0.000000 0.000000 0.000000 0.000000 0.000000 0.065963
#
#
# Mechanical properties :
#
#
# Convention : Reuss Voigt Hill
#
# Bulk Modulus (GPa) = 39.09045 50.87829 44.98437
# Shear Modulus (GPa) = 17.67129 20.27469 18.97299
#
# Velocity S-wave (km/s) = 3.37896 3.61931 3.50119
# Velocity P-wave (km/s) = 6.36233 7.09493 6.73860
#
# Compressibility (1/GPa) = 0.02558170
#
# Stress axis : x y z
#
# Youngs Moduli (GPa) = 34.09825 60.95596 88.35269
#
# Poissons Ratio (x) = 0.24319 0.70330
# Poissons Ratio (y) = 0.13604 0.33439
# Poissons Ratio (z) = 0.27143 0.23070
#
# Static dielectric constant tensor:
#      x y z
#    x 2.940210 0.000000 0.000000 
#    y 0.000000 2.823910 0.000000 
#    z 0.000000 0.000000 3.165130 
# 
# 
# High freq. dielectric constant tensor:
#      x y z
#    x 1.583940 0.000000 0.000000 
#    y 0.000000 1.563240 0.000000 
#    z 0.000000 0.000000 1.590990 
# 
# From -- ./inp_files/32937.got.cif
#   From: 2010.03.12/outbox.cif.g09.slc.cpg/sg51_17_cif.got.tgz:32937.got - 2010.04.16 13:43:02.
