data_PCOD8210918
_publ_section_title
;
Structure prediction by ZEFSAII (Michael W. Deem and Ramdas Pophale) SiO2 
 PCOD8210918
Probable space group: P M M A
;
_chemical_formula_sum "Si O2"
_cell_formula_units_Z 56
_cell_length_a 19.972784
_cell_length_b 9.681630
_cell_length_c 14.952802
_cell_angle_alpha 90.000000
_cell_angle_beta 90.000000
_cell_angle_gamma 90.000000
_cell_volume 2891.409936
_symmetry_space_group_name_H-M "P M M A"
_symmetry_group_IT_number 51
_symmetry_cell_setting 'orthorhombic'
loop_
_space_group_symop_operation_xyz
x,y,z
1/2-x,-y,z
1/2+x,-y,-z
-x,y,-z
-x,-y,-z
1/2+x,y,-z
1/2-x,y,z
x,-y,z
loop_
_atom_site_type_symbol
_atom_site_label
_atom_site_fract_x
_atom_site_fract_y
_atom_site_fract_z
Si Si1 0.420862 0.336350 0.006029
Si Si2 0.324390 0.336960 0.846870
Si Si3 0.000418 0.846158 0.601860
Si Si4 0.649110 0.847604 0.664355
Si Si5 0.176594 0.350063 0.490608
Si Si6 0.826679 0.837932 0.866907
Si Si7 0.392712 0.336275 0.667294
O O1 0.414005 0.500000 0.024362
O O2 0.382576 0.253094 0.083261
O O3 0.500000 0.295942 0.000000
O O4 0.382048 0.290301 0.915822
O O5 0.250000 0.275473 0.869291
O O6 0.319115 0.500000 0.848261
O O7 0.345916 0.286294 0.748415
O O8 0.037577 0.744386 0.670831
O O9 0.000000 0.787484 0.500000
O O10 0.928651 0.851088 0.645527
O O11 0.032561 0.000000 0.600681
O O12 0.682879 0.744864 0.595356
O O13 0.665729 0.796557 0.763571
O O14 0.680083 0.000000 0.650788
O O15 0.250000 0.372582 0.530077
O O16 0.145732 0.500000 0.463986
O O17 0.136205 0.284048 0.572498
O O18 0.750000 0.803681 0.897661
O O19 0.842226 0.000000 0.882322
O O20 0.404409 0.500000 0.671222
#
# Coordination Sequence:
#
# PCOD8210918 Si02
#       7
#     8   8   8   8   8   8   8
#     4  10  22  39  61  90 119 147 186 234 284 342
#     4   9  18  35  58  82 111 149 187 226 281 341
#     4  10  20  35  53  76 109 148 188 229 275 328
#     4  10  21  37  56  78 109 150 190 227 275 336
#     4  10  20  33  50  77 110 141 180 231 277 322
#     4  10  22  40  61  85 113 149 193 236 284 343
#     4  10  20  33  54  80 107 142 185 229 275 329
#
# _framework density 19.367712999999998
#
# number of rings (size 3 to 8) (size 9 to 14) (size 15 to 20)
#    0.000    2.143    1.429    1.286    2.000    5.143 
#    0.000    0.714    0.000    2.143    0.000    0.000 
#    0.000    0.000    0.000    0.000    0.000    0.000 
#
# Total GULP energy -693986.313682 kJ/mol
# GULP energy per Si atom -12392.612744 kJ/mol
# Density = 1.932363 g / cm^3
# Si number density = 19.367713 Si / 1000 Ang^3
#
#
#
# Elastic Constant Matrix: (Units=GPa)
#
#
# Indices 1 2 3 4 5 6 
#
# 1 131.9369 36.8963 55.1955 0.0000 0.0000 0.0000
# 2 36.8963 51.2303 44.8599 0.0000 0.0000 0.0000
# 3 55.1955 44.8599 115.4745 0.0000 0.0000 0.0000
# 4 0.0000 0.0000 0.0000 29.1832 0.0000 0.0000
# 5 0.0000 0.0000 0.0000 0.0000 32.2610 0.0000
# 6 0.0000 0.0000 0.0000 0.0000 0.0000 135.8940
#
#
#
# Elastic Compliance Matrix: (Units=1/GPa)
#
#
# Indices 1 2 3 4 5 6 
#
# 1 0.010153 -0.004642 -0.003050 0.000000 0.000000 0.000000
# 2 -0.004642 0.031705 -0.010098 0.000000 0.000000 0.000000
# 3 -0.003050 -0.010098 0.014041 0.000000 0.000000 0.000000
# 4 0.000000 0.000000 0.000000 0.034266 0.000000 0.000000
# 5 0.000000 0.000000 0.000000 0.000000 0.030997 0.000000
# 6 0.000000 0.000000 0.000000 0.000000 0.000000 0.007359
#
#
# Mechanical properties :
#
#
# Convention : Reuss Voigt Hill
#
# Bulk Modulus (GPa) = 49.21396 63.61610 56.41503
# Shear Modulus (GPa) = 29.26122 50.24698 39.75410
#
# Velocity S-wave (km/s) = 3.89115 5.09902 4.53547
# Velocity P-wave (km/s) = 6.75674 8.22098 7.52456
#
# Compressibility (1/GPa) = 0.02031944
#
# Stress axis : x y z
#
# Youngs Moduli (GPa) = 98.48911 31.54052 71.22137
#
# Poissons Ratio (x) = 0.14641 0.21722
# Poissons Ratio (y) = 0.45717 0.71921
# Poissons Ratio (z) = 0.30039 0.31850
#
# Static dielectric constant tensor:
#      x y z
#    x 3.656190 0.000000 0.000000 
#    y 0.000000 3.501780 0.000000 
#    z 0.000000 0.000000 3.515830 
# 
# 
# High freq. dielectric constant tensor:
#      x y z
#    x 1.766970 0.000000 0.000000 
#    y 0.000000 1.732480 0.000000 
#    z 0.000000 0.000000 1.751830 
# 
# From -- ./inp_files/25743.got.cif
#   From: 2010.03.12/outbox.cif.g09.slc.cpg/sg51_13_cif.got.tgz:25743.got - 2010.04.16 13:43:02.
