data_PCOD8210582
_publ_section_title
;
Structure prediction by ZEFSAII (Michael W. Deem and Ramdas Pophale) SiO2 
 PCOD8210582
Probable space group: P M M A
;
_chemical_formula_sum "Si O2"
_cell_formula_units_Z 64
_cell_length_a 13.727833
_cell_length_b 9.199484
_cell_length_c 26.049127
_cell_angle_alpha 90.000000
_cell_angle_beta 90.000000
_cell_angle_gamma 90.000000
_cell_volume 3289.717680
_symmetry_space_group_name_H-M "P M M A"
_symmetry_group_IT_number 51
_symmetry_cell_setting 'orthorhombic'
loop_
_space_group_symop_operation_xyz
x,y,z
1/2-x,-y,z
1/2+x,-y,-z
-x,y,-z
-x,-y,-z
1/2+x,y,-z
1/2-x,y,z
x,-y,z
loop_
_atom_site_type_symbol
_atom_site_label
_atom_site_fract_x
_atom_site_fract_y
_atom_site_fract_z
Si Si1 0.365113 0.837381 0.530656
Si Si2 0.634314 0.161563 0.967211
Si Si3 0.140682 0.666995 0.431999
Si Si4 0.970606 0.827372 0.178227
Si Si5 0.047914 0.667059 0.623771
Si Si6 0.135827 0.331294 0.731257
Si Si7 0.863146 0.669308 0.866905
Si Si8 0.142803 0.171629 0.921156
O O1 0.250000 0.837197 0.527016
O O2 0.404500 0.756868 0.479628
O O3 0.393545 0.758572 0.582595
O O4 0.407637 0.000000 0.531164
O O5 0.750000 0.154477 0.974034
O O6 0.604095 0.273102 0.922963
O O7 0.595124 0.000000 0.952052
O O8 0.593130 0.210427 0.023454
O O9 0.250000 0.717799 0.416341
O O10 0.142038 0.500000 0.449583
O O11 0.068635 0.690074 0.383604
O O12 0.904800 0.769536 0.224084
O O13 0.922670 0.771362 0.125264
O O14 0.077734 0.754052 0.177710
O O15 0.979942 0.000000 0.182787
O O16 0.077809 0.500000 0.615718
O O17 0.078626 0.718108 0.680224
O O18 0.250000 0.300858 0.723800
O O19 0.116078 0.500000 0.744097
O O20 0.750000 0.701849 0.856924
O O21 0.887070 0.500000 0.864055
O O22 0.250000 0.243696 0.916012
O O23 0.153830 0.000000 0.917034
#
# Coordination Sequence:
#
# PCOD8210582 Si02
#       8
#     8   8   8   8   8   8   8   8
#     4  10  20  32  49  78 114 147 179 220 271 322
#     4   8  14  28  51  76 103 136 173 213 258 312
#     4   9  18  33  53  78 109 144 181 219 260 312
#     4  11  22  36  57  81 105 137 180 227 270 318
#     4  10  20  35  56  79 105 143 188 227 264 311
#     4  10  22  40  59  80 109 141 174 219 273 323
#     4  10  21  37  55  76 106 141 176 217 266 321
#     4   8  15  29  50  77 107 138 173 213 260 317
#
# _framework density 19.454557000000001
#
# number of rings (size 3 to 8) (size 9 to 14) (size 15 to 20)
#    0.000    2.500    0.000    3.000    0.000    5.750 
#    0.000    4.375    0.000    5.250    0.000    0.000 
#    0.000    0.000    0.000    0.000    0.000    0.000 
#
# Total GULP energy -793498.460694 kJ/mol
# GULP energy per Si atom -12398.413448 kJ/mol
# Density = 1.941028 g / cm^3
# Si number density = 19.454557 Si / 1000 Ang^3
#
#
#
# Elastic Constant Matrix: (Units=GPa)
#
#
# Indices 1 2 3 4 5 6 
#
# 1 73.6875 44.8702 61.0864 0.0000 0.0000 0.0000
# 2 44.8702 85.4351 52.1677 0.0000 0.0000 0.0000
# 3 61.0864 52.1677 107.4002 0.0000 0.0000 0.0000
# 4 0.0000 0.0000 0.0000 18.6772 0.0000 0.0000
# 5 0.0000 0.0000 0.0000 0.0000 32.2591 0.0000
# 6 0.0000 0.0000 0.0000 0.0000 0.0000 22.6090
#
#
#
# Elastic Compliance Matrix: (Units=1/GPa)
#
#
# Indices 1 2 3 4 5 6 
#
# 1 0.028491 -0.007205 -0.012705 0.000000 0.000000 0.000000
# 2 -0.007205 0.018462 -0.004870 0.000000 0.000000 0.000000
# 3 -0.012705 -0.004870 0.018902 0.000000 0.000000 0.000000
# 4 0.000000 0.000000 0.000000 0.053541 0.000000 0.000000
# 5 0.000000 0.000000 0.000000 0.000000 0.030999 0.000000
# 6 0.000000 0.000000 0.000000 0.000000 0.000000 0.044230
#
#
# Mechanical properties :
#
#
# Convention : Reuss Voigt Hill
#
# Bulk Modulus (GPa) = 61.36509 64.75239 63.05874
# Shear Modulus (GPa) = 20.03067 21.93562 20.98315
#
# Velocity S-wave (km/s) = 3.21224 3.36152 3.28773
# Velocity P-wave (km/s) = 6.73567 6.95863 6.84806
#
# Compressibility (1/GPa) = 0.01629591
#
# Stress axis : x y z
#
# Youngs Moduli (GPa) = 35.09936 54.16392 52.90333
#
# Poissons Ratio (x) = 0.39028 0.67212
# Poissons Ratio (y) = 0.25291 0.25762
# Poissons Ratio (z) = 0.44593 0.26375
#
# Static dielectric constant tensor:
#      x y z
#    x 3.770880 0.000000 0.000000 
#    y 0.000000 3.449540 0.000000 
#    z 0.000000 0.000000 3.494650 
# 
# 
# High freq. dielectric constant tensor:
#      x y z
#    x 1.772500 0.000000 0.000000 
#    y 0.000000 1.739830 0.000000 
#    z 0.000000 0.000000 1.740800 
# 
# From -- ./inp_files/35871.got.cif
#   From: 2010.03.12/outbox.cif.g09.slc.cpg/sg51_18_cif.got.tgz:35871.got - 2010.04.16 13:43:02.
