data_PCOD8210199
_publ_section_title
;
Structure prediction by ZEFSAII (Michael W. Deem and Ramdas Pophale) SiO2 
 PCOD8210199
Probable space group: P M M A
;
_chemical_formula_sum "Si O2"
_cell_formula_units_Z 64
_cell_length_a 17.409457
_cell_length_b 19.240136
_cell_length_c 12.636800
_cell_angle_alpha 90.000000
_cell_angle_beta 90.000000
_cell_angle_gamma 90.000000
_cell_volume 4232.826576
_symmetry_space_group_name_H-M "P M M A"
_symmetry_group_IT_number 51
_symmetry_cell_setting 'orthorhombic'
loop_
_space_group_symop_operation_xyz
x,y,z
1/2-x,-y,z
1/2+x,-y,-z
-x,y,-z
-x,-y,-z
1/2+x,y,-z
1/2-x,y,z
x,-y,z
loop_
_atom_site_type_symbol
_atom_site_label
_atom_site_fract_x
_atom_site_fract_y
_atom_site_fract_z
Si Si1 0.836436 0.917556 0.012874
Si Si2 0.163166 0.178115 0.624902
Si Si3 0.395886 0.920078 0.208906
Si Si4 0.162173 0.335929 0.604258
Si Si5 0.479408 0.576560 0.624665
Si Si6 0.423714 0.919555 0.780448
Si Si7 0.931611 0.696347 0.584450
Si Si8 0.837230 0.818989 0.621244
O O1 0.750000 0.891153 0.031836
O O2 0.888553 0.891243 0.109684
O O3 0.841184 0.000000 0.007543
O O4 0.867589 0.886938 0.902110
O O5 0.250000 0.159482 0.657244
O O6 0.146753 0.259213 0.653786
O O7 0.106298 0.127655 0.685774
O O8 0.149756 0.162661 0.501384
O O9 0.486089 0.909899 0.215793
O O10 0.352507 0.885311 0.306702
O O11 0.371878 0.000000 0.214964
O O12 0.250000 0.359422 0.620886
O O13 0.106526 0.395921 0.651428
O O14 0.143363 0.330168 0.479559
O O15 0.500000 0.572661 0.500000
O O16 0.490084 0.500000 0.676164
O O17 0.538847 0.635880 0.665790
O O18 0.400634 0.000000 0.760475
O O19 0.901379 0.761138 0.653296
O O20 0.000000 0.716184 0.500000
O O21 0.750000 0.792544 0.638908
#
# Coordination Sequence:
#
# PCOD8210199 Si02
#       8
#     8   8   8   8   8   8   8   8
#     4   9  17  32  50  63  80 107 139 176 223 269
#     4   9  18  30  43  61  86 115 151 184 216 257
#     4  10  21  32  45  64  86 110 143 184 223 263
#     4   8  14  24  37  54  79 110 139 173 210 249
#     4   8  14  23  36  56  78 105 140 174 206 244
#     4  10  20  31  46  65  84 109 145 186 223 260
#     4   8  15  25  41  56  78 110 142 176 206 252
#     4  10  20  31  45  62  84 117 150 178 215 261
#
# _framework density 15.119921
#
# number of rings (size 3 to 8) (size 9 to 14) (size 15 to 20)
#    0.000    3.250    0.000    2.250    5.250    3.750 
#    0.000    2.500    0.000    1.125    0.000    0.000 
#    0.000    0.000    0.000    2.250    0.000    9.250 
#
# Total GULP energy -792877.516657 kJ/mol
# GULP energy per Si atom -12388.711198 kJ/mol
# Density = 1.508551 g / cm^3
# Si number density = 15.119921 Si / 1000 Ang^3
#
#
#
# Elastic Constant Matrix: (Units=GPa)
#
#
# Indices 1 2 3 4 5 6 
#
# 1 84.0481 49.8051 28.7761 0.0000 0.0000 0.0000
# 2 49.8051 75.6360 32.1563 0.0000 0.0000 0.0000
# 3 28.7761 32.1563 52.6486 0.0000 0.0000 0.0000
# 4 0.0000 0.0000 0.0000 0.5790 0.0000 0.0000
# 5 0.0000 0.0000 0.0000 0.0000 21.7902 0.0000
# 6 0.0000 0.0000 0.0000 0.0000 0.0000 20.6573
#
#
#
# Elastic Compliance Matrix: (Units=1/GPa)
#
#
# Indices 1 2 3 4 5 6 
#
# 1 0.020093 -0.011565 -0.003919 0.000000 0.000000 0.000000
# 2 -0.011565 0.024515 -0.008652 0.000000 0.000000 0.000000
# 3 -0.003919 -0.008652 0.026420 0.000000 0.000000 0.000000
# 4 0.000000 0.000000 0.000000 1.727170 0.000000 0.000000
# 5 0.000000 0.000000 0.000000 0.000000 0.045892 0.000000
# 6 0.000000 0.000000 0.000000 0.000000 0.000000 0.048409
#
#
# Mechanical properties :
#
#
# Convention : Reuss Voigt Hill
#
# Bulk Modulus (GPa) = 43.94297 48.20086 46.07192
# Shear Modulus (GPa) = 2.56627 15.37831 8.97229
#
# Velocity S-wave (km/s) = 1.30421 3.19264 2.43864
# Velocity P-wave (km/s) = 5.60304 6.74825 6.20213
#
# Compressibility (1/GPa) = 0.02275677
#
# Stress axis : x y z
#
# Youngs Moduli (GPa) = 49.76968 40.79187 37.85006
#
# Poissons Ratio (x) = 0.47174 0.14832
# Poissons Ratio (y) = 0.57557 0.32748
# Poissons Ratio (z) = 0.19503 0.35293
#
# Static dielectric constant tensor:
#      x y z
#    x 3.107210 0.000000 0.000000 
#    y 0.000000 3.023620 0.000000 
#    z 0.000000 0.000000 2.611970 
# 
# 
# High freq. dielectric constant tensor:
#      x y z
#    x 1.598600 0.000000 0.000000 
#    y 0.000000 1.559370 0.000000 
#    z 0.000000 0.000000 1.528340 
# 
# From -- ./inp_files/17739.got.cif
#   From: 2010.03.12/outbox.cif.g09.slc.cpg/sg51_9_cif.got.tgz:17739.got - 2010.04.16 13:43:02.
