data_PCOD8210458
_publ_section_title
;
Structure prediction by ZEFSAII (Michael W. Deem and Ramdas Pophale) SiO2 
 PCOD8210458
Probable space group: P M M A
;
_chemical_formula_sum "Si O2"
_cell_formula_units_Z 56
_cell_length_a 8.988592
_cell_length_b 15.539353
_cell_length_c 20.399689
_cell_angle_alpha 90.000000
_cell_angle_beta 90.000000
_cell_angle_gamma 90.000000
_cell_volume 2849.365403
_symmetry_space_group_name_H-M "P M M A"
_symmetry_group_IT_number 51
_symmetry_cell_setting 'orthorhombic'
loop_
_space_group_symop_operation_xyz
x,y,z
1/2-x,-y,z
1/2+x,-y,-z
-x,y,-z
-x,-y,-z
1/2+x,y,-z
1/2-x,y,z
x,-y,z
loop_
_atom_site_type_symbol
_atom_site_label
_atom_site_fract_x
_atom_site_fract_y
_atom_site_fract_z
Si Si1 0.416459 0.352363 0.258876
Si Si2 0.073300 0.764320 0.932460
Si Si3 0.080535 0.594901 0.401328
Si Si4 0.079099 0.595484 0.116059
Si Si5 0.424479 0.187757 0.704549
Si Si6 0.927040 0.905159 0.171235
Si Si7 0.425604 0.234717 0.564454
O O1 0.250000 0.312652 0.258074
O O2 0.438407 0.410850 0.322809
O O3 0.444992 0.408192 0.194262
O O4 0.534209 0.275644 0.259350
O O5 0.250000 0.767126 0.938544
O O6 0.012545 0.831768 0.877914
O O7 0.024944 0.666943 0.916562
O O8 0.000000 0.794689 0.000000
O O9 0.250000 0.620572 0.419685
O O10 0.040912 0.500000 0.428903
O O11 0.969665 0.664561 0.432354
O O12 0.250000 0.617585 0.098632
O O13 0.037151 0.500000 0.089473
O O14 0.250000 0.184427 0.697050
O O15 0.480514 0.112372 0.753372
O O16 0.488643 0.185586 0.629807
O O17 0.750000 0.902930 0.168987
O O18 0.986366 0.000000 0.150946
O O19 0.500000 0.192270 0.500000
O O20 0.250000 0.226623 0.558148
#
# Coordination Sequence:
#
# PCOD8210458 Si02
#       7
#     8   8   8   8   8   8   8
#     4   9  16  28  49  75 104 137 174 219 271 320
#     4  11  23  39  59  82 113 149 184 225 273 323
#     4   9  17  29  45  67  97 133 174 220 269 319
#     4  10  20  34  54  80 111 148 189 229 271 321
#     4   9  17  32  54  79 105 135 175 220 264 316
#     4   9  18  35  61  89 113 139 175 220 273 332
#     4  10  20  32  48  70  99 136 177 218 264 318
#
# _framework density 19.653497999999999
#
# number of rings (size 3 to 8) (size 9 to 14) (size 15 to 20)
#    0.000    2.429    1.429    1.286    0.000    3.714 
#    0.000    0.000    0.000    6.429    0.000    0.000 
#    0.000    0.000    0.000    0.000    0.000    0.429 
#
# Total GULP energy -693976.865997 kJ/mol
# GULP energy per Si atom -12392.444036 kJ/mol
# Density = 1.960877 g / cm^3
# Si number density = 19.653498 Si / 1000 Ang^3
#
#
#
# Elastic Constant Matrix: (Units=GPa)
#
#
# Indices 1 2 3 4 5 6 
#
# 1 39.3128 19.4256 37.2074 0.0000 0.0000 0.0000
# 2 19.4256 102.3960 51.0598 0.0000 0.0000 0.0000
# 3 37.2074 51.0598 126.2444 0.0000 0.0000 0.0000
# 4 0.0000 0.0000 0.0000 11.3917 0.0000 0.0000
# 5 0.0000 0.0000 0.0000 0.0000 26.5924 0.0000
# 6 0.0000 0.0000 0.0000 0.0000 0.0000 13.8368
#
#
#
# Elastic Compliance Matrix: (Units=1/GPa)
#
#
# Indices 1 2 3 4 5 6 
#
# 1 0.035571 -0.001905 -0.009713 0.000000 0.000000 0.000000
# 2 -0.001905 0.012335 -0.004428 0.000000 0.000000 0.000000
# 3 -0.009713 -0.004428 0.012575 0.000000 0.000000 0.000000
# 4 0.000000 0.000000 0.000000 0.087783 0.000000 0.000000
# 5 0.000000 0.000000 0.000000 0.000000 0.037605 0.000000
# 6 0.000000 0.000000 0.000000 0.000000 0.000000 0.072271
#
#
# Mechanical properties :
#
#
# Convention : Reuss Voigt Hill
#
# Bulk Modulus (GPa) = 35.22393 53.70429 44.46411
# Shear Modulus (GPa) = 16.68365 21.04822 18.86593
#
# Velocity S-wave (km/s) = 2.91673 3.27611 3.10163
# Velocity P-wave (km/s) = 5.41336 6.45720 5.95818
#
# Compressibility (1/GPa) = 0.02838979
#
# Stress axis : x y z
#
# Youngs Moduli (GPa) = 28.11253 81.06897 79.52478
#
# Poissons Ratio (x) = 0.15441 0.77246
# Poissons Ratio (y) = 0.05354 0.35211
# Poissons Ratio (z) = 0.27307 0.35894
#
# Static dielectric constant tensor:
#      x y z
#    x 3.361070 0.000000 0.000000 
#    y 0.000000 3.452160 0.000000 
#    z 0.000000 0.000000 3.923370 
# 
# 
# High freq. dielectric constant tensor:
#      x y z
#    x 1.741710 0.000000 0.000000 
#    y 0.000000 1.736080 0.000000 
#    z 0.000000 0.000000 1.779770 
# 
# From -- ./inp_files/31926.got.cif
#   From: 2010.03.12/outbox.cif.g09.slc.cpg/sg51_16_cif.got.tgz:31926.got - 2010.04.16 13:43:02.
