data_PCOD8210886
_publ_section_title
;
Structure prediction by ZEFSAII (Michael W. Deem and Ramdas Pophale) SiO2 
 PCOD8210886
Probable space group: P M M A
;
_chemical_formula_sum "Si O2"
_cell_formula_units_Z 64
_cell_length_a 8.875569
_cell_length_b 14.278294
_cell_length_c 27.995573
_cell_angle_alpha 90.000000
_cell_angle_beta 90.000000
_cell_angle_gamma 90.000000
_cell_volume 3547.822516
_symmetry_space_group_name_H-M "P M M A"
_symmetry_group_IT_number 51
_symmetry_cell_setting 'orthorhombic'
loop_
_space_group_symop_operation_xyz
x,y,z
1/2-x,-y,z
1/2+x,-y,-z
-x,y,-z
-x,-y,-z
1/2+x,y,-z
1/2-x,y,z
x,-y,z
loop_
_atom_site_type_symbol
_atom_site_label
_atom_site_fract_x
_atom_site_fract_y
_atom_site_fract_z
Si Si1 0.922220 0.390800 0.718561
Si Si2 0.073249 0.718494 0.635120
Si Si3 0.573243 0.893664 0.950948
Si Si4 0.577587 0.395137 0.183588
Si Si5 0.920432 0.109519 0.783106
Si Si6 0.077509 0.788533 0.866216
Si Si7 0.427302 0.607274 0.450258
Si Si8 0.925495 0.106635 0.673421
O O1 0.750000 0.357937 0.711331
O O2 0.940632 0.500000 0.707304
O O3 0.029118 0.335270 0.683099
O O4 0.969838 0.368147 0.772563
O O5 0.250000 0.711953 0.626713
O O6 0.989609 0.673572 0.590564
O O7 0.023325 0.826713 0.639420
O O8 0.750000 0.888118 0.957302
O O9 0.525900 0.825464 0.908549
O O10 0.521131 0.000000 0.939250
O O11 0.500000 0.858156 0.000000
O O12 0.750000 0.388170 0.201537
O O13 0.541209 0.500000 0.164940
O O14 0.549526 0.322903 0.140179
O O15 0.750000 0.140092 0.795981
O O16 0.956808 0.134309 0.728379
O O17 0.038165 0.162870 0.816188
O O18 0.939261 0.000000 0.792327
O O19 0.250000 0.810791 0.878873
O O20 0.500000 0.638662 0.500000
O O21 0.250000 0.620454 0.454061
O O22 0.470321 0.500000 0.438147
O O23 0.750000 0.119366 0.661674
O O24 0.975843 0.000000 0.663761
#
# Coordination Sequence:
#
# PCOD8210886 Si02
#       8
#     8   8   8   8   8   8   8   8
#     4  10  20  33  50  74 104 138 177 219 260 304
#     4  12  23  33  51  78 107 140 176 213 256 309
#     4  10  21  37  56  77 102 130 159 197 247 300
#     4   9  19  35  51  70 101 138 173 211 255 300
#     4   9  18  32  49  71 101 136 171 207 250 299
#     4  11  21  31  49  76 102 132 169 206 247 297
#     4  10  21  38  59  82 108 136 168 209 257 309
#     4   9  19  36  55  74 101 139 180 221 262 302
#
# _framework density 18.039235000000001
#
# number of rings (size 3 to 8) (size 9 to 14) (size 15 to 20)
#    0.000    2.000    0.000    4.875    0.000    9.250 
#    0.000    1.250    0.000    0.750    0.000    0.000 
#    0.000    0.000    0.000    0.000    0.000    0.000 
#
# Total GULP energy -793793.875482 kJ/mol
# GULP energy per Si atom -12403.029304 kJ/mol
# Density = 1.799818 g / cm^3
# Si number density = 18.039235 Si / 1000 Ang^3
#
#
#
# Elastic Constant Matrix: (Units=GPa)
#
#
# Indices 1 2 3 4 5 6 
#
# 1 67.4611 34.3201 31.7934 0.0000 0.0000 0.0000
# 2 34.3201 80.0945 62.1695 0.0000 0.0000 0.0000
# 3 31.7934 62.1695 83.8292 0.0000 0.0000 0.0000
# 4 0.0000 0.0000 0.0000 22.7884 0.0000 0.0000
# 5 0.0000 0.0000 0.0000 0.0000 33.5816 0.0000
# 6 0.0000 0.0000 0.0000 0.0000 0.0000 26.9997
#
#
#
# Elastic Compliance Matrix: (Units=1/GPa)
#
#
# Indices 1 2 3 4 5 6 
#
# 1 0.019228 -0.006077 -0.002786 0.000000 0.000000 0.000000
# 2 -0.006077 0.031342 -0.020939 0.000000 0.000000 0.000000
# 3 -0.002786 -0.020939 0.028515 0.000000 0.000000 0.000000
# 4 0.000000 0.000000 0.000000 0.043882 0.000000 0.000000
# 5 0.000000 0.000000 0.000000 0.000000 0.029778 0.000000
# 6 0.000000 0.000000 0.000000 0.000000 0.000000 0.037038
#
#
# Mechanical properties :
#
#
# Convention : Reuss Voigt Hill
#
# Bulk Modulus (GPa) = 51.33232 54.21677 52.77454
# Shear Modulus (GPa) = 19.54041 23.54738 21.54390
#
# Velocity S-wave (km/s) = 3.29480 3.61687 3.45958
# Velocity P-wave (km/s) = 6.55683 6.89656 6.72884
#
# Compressibility (1/GPa) = 0.01948090
#
# Stress axis : x y z
#
# Youngs Moduli (GPa) = 52.00840 31.90576 35.06957
#
# Poissons Ratio (x) = 0.19388 0.09770
# Poissons Ratio (y) = 0.31603 0.73434
# Poissons Ratio (z) = 0.14489 0.66809
#
# Static dielectric constant tensor:
#      x y z
#    x 3.407370 0.000000 0.000000 
#    y 0.000000 3.489630 0.000000 
#    z 0.000000 0.000000 3.237360 
# 
# 
# High freq. dielectric constant tensor:
#      x y z
#    x 1.705840 0.000000 0.000000 
#    y 0.000000 1.701500 0.000000 
#    z 0.000000 0.000000 1.677140 
# 
# From -- ./inp_files/34886.got.cif
#   From: 2010.03.12/outbox.cif.g09.slc.cpg/sg51_18_cif.got.tgz:34886.got - 2010.04.16 13:43:02.
