data_PCOD8210434
_publ_section_title
;
Structure prediction by ZEFSAII (Michael W. Deem and Ramdas Pophale) SiO2 
 PCOD8210434
Probable space group: P M M A
;
_chemical_formula_sum "Si O2"
_cell_formula_units_Z 64
_cell_length_a 9.293045
_cell_length_b 15.592695
_cell_length_c 23.259221
_cell_angle_alpha 90.000000
_cell_angle_beta 90.000000
_cell_angle_gamma 90.000000
_cell_volume 3370.345235
_symmetry_space_group_name_H-M "P M M A"
_symmetry_group_IT_number 51
_symmetry_cell_setting 'orthorhombic'
loop_
_space_group_symop_operation_xyz
x,y,z
1/2-x,-y,z
1/2+x,-y,-z
-x,y,-z
-x,-y,-z
1/2+x,y,-z
1/2-x,y,z
x,-y,z
loop_
_atom_site_type_symbol
_atom_site_label
_atom_site_fract_x
_atom_site_fract_y
_atom_site_fract_z
Si Si1 0.086364 0.904140 0.385921
Si Si2 0.906283 0.598958 0.764924
Si Si3 0.579876 0.243018 0.444028
Si Si4 0.409289 0.675068 0.674422
Si Si5 0.417217 0.402176 0.873426
Si Si6 0.419277 0.764034 0.941488
Si Si7 0.920440 0.096347 0.149988
Si Si8 0.913778 0.138552 0.277183
O O1 0.250000 0.867976 0.382820
O O2 0.989764 0.848462 0.429059
O O3 0.017934 0.906931 0.322480
O O4 0.087232 0.000000 0.410833
O O5 0.750000 0.644936 0.765829
O O6 0.884231 0.500000 0.775810
O O7 0.978594 0.610105 0.702538
O O8 0.003830 0.633643 0.816771
O O9 0.500000 0.280936 0.500000
O O10 0.750000 0.230943 0.454542
O O11 0.549222 0.308038 0.391759
O O12 0.250000 0.634886 0.677326
O O13 0.416531 0.760393 0.712385
O O14 0.250000 0.399406 0.858111
O O15 0.462436 0.500000 0.891307
O O16 0.454717 0.334344 0.923411
O O17 0.250000 0.775874 0.951138
O O18 0.478784 0.832906 0.894954
O O19 0.500000 0.784467 0.000000
O O20 0.750000 0.101744 0.150719
O O21 0.976016 0.118560 0.213985
O O22 0.971777 0.000000 0.132726
O O23 0.750000 0.103912 0.284681
#
# Coordination Sequence:
#
# PCOD8210434 Si02
#       8
#     8   8   8   8   8   8   8   8
#     4  10  20  32  47  71 103 134 163 201 252 306
#     4  10  20  32  50  80 111 134 159 195 241 293
#     4  10  21  36  53  72  95 128 172 214 251 294
#     4   9  18  32  51  75 101 132 167 202 245 299
#     4   9  18  34  55  76 101 134 166 200 248 304
#     4  10  21  36  52  72  98 129 170 212 249 298
#     4   9  17  30  50  73  97 129 167 208 254 302
#     4   9  17  31  52  75  97 125 166 210 252 302
#
# _framework density 18.989153000000002
#
# number of rings (size 3 to 8) (size 9 to 14) (size 15 to 20)
#    0.000    2.500    0.000    3.000    0.000    8.000 
#    0.000    0.625    0.000    1.125    0.000    0.000 
#    0.000    0.000    0.000    0.000    0.000    0.000 
#
# Total GULP energy -793371.167339 kJ/mol
# GULP energy per Si atom -12396.424490 kJ/mol
# Density = 1.894593 g / cm^3
# Si number density = 18.989153 Si / 1000 Ang^3
#
#
#
# Elastic Constant Matrix: (Units=GPa)
#
#
# Indices 1 2 3 4 5 6 
#
# 1 76.1800 14.5725 40.3937 0.0000 0.0000 0.0000
# 2 14.5725 51.2936 32.4850 0.0000 0.0000 0.0000
# 3 40.3937 32.4850 118.0908 0.0000 0.0000 0.0000
# 4 0.0000 0.0000 0.0000 17.9367 0.0000 0.0000
# 5 0.0000 0.0000 0.0000 0.0000 33.9591 0.0000
# 6 0.0000 0.0000 0.0000 0.0000 0.0000 18.5669
#
#
#
# Elastic Compliance Matrix: (Units=1/GPa)
#
#
# Indices 1 2 3 4 5 6 
#
# 1 0.016108 -0.001316 -0.005148 0.000000 0.000000 0.000000
# 2 -0.001316 0.023716 -0.006074 0.000000 0.000000 0.000000
# 3 -0.005148 -0.006074 0.011900 0.000000 0.000000 0.000000
# 4 0.000000 0.000000 0.000000 0.055752 0.000000 0.000000
# 5 0.000000 0.000000 0.000000 0.000000 0.029447 0.000000
# 6 0.000000 0.000000 0.000000 0.000000 0.000000 0.053859
#
#
# Mechanical properties :
#
#
# Convention : Reuss Voigt Hill
#
# Bulk Modulus (GPa) = 37.52550 46.71853 42.12202
# Shear Modulus (GPa) = 22.24789 24.63342 23.44065
#
# Velocity S-wave (km/s) = 3.42659 3.60562 3.51725
# Velocity P-wave (km/s) = 5.95482 6.47998 6.22294
#
# Compressibility (1/GPa) = 0.02664854
#
# Stress axis : x y z
#
# Youngs Moduli (GPa) = 62.08040 42.16538 84.03566
#
# Poissons Ratio (x) = 0.05549 0.43260
# Poissons Ratio (y) = 0.08170 0.51041
# Poissons Ratio (z) = 0.31958 0.25610
#
# Static dielectric constant tensor:
#      x y z
#    x 3.613720 0.000000 0.000000 
#    y 0.000000 3.410770 0.000000 
#    z 0.000000 0.000000 3.433330 
# 
# 
# High freq. dielectric constant tensor:
#      x y z
#    x 1.727550 0.000000 0.000000 
#    y 0.000000 1.723510 0.000000 
#    z 0.000000 0.000000 1.732490 
# 
# From -- ./inp_files/34929.got.cif
#   From: 2010.03.12/outbox.cif.g09.slc.cpg/sg51_18_cif.got.tgz:34929.got - 2010.04.16 13:43:02.
