data_PCOD8210997
_publ_section_title
;
Structure prediction by ZEFSAII (Michael W. Deem and Ramdas Pophale) SiO2 
 PCOD8210997
Probable space group: P M M A
;
_chemical_formula_sum "Si O2"
_cell_formula_units_Z 48
_cell_length_a 9.120143
_cell_length_b 9.087976
_cell_length_c 31.057503
_cell_angle_alpha 90.000000
_cell_angle_beta 90.000000
_cell_angle_gamma 90.000000
_cell_volume 2574.158920
_symmetry_space_group_name_H-M "P M M A"
_symmetry_group_IT_number 51
_symmetry_cell_setting 'orthorhombic'
loop_
_space_group_symop_operation_xyz
x,y,z
1/2-x,-y,z
1/2+x,-y,-z
-x,y,-z
-x,-y,-z
1/2+x,y,-z
1/2-x,y,z
x,-y,z
loop_
_atom_site_type_symbol
_atom_site_label
_atom_site_fract_x
_atom_site_fract_y
_atom_site_fract_z
Si Si1 0.582062 0.826713 0.203244
Si Si2 0.084601 0.324728 0.374706
Si Si3 0.420153 0.669938 0.709695
Si Si4 0.084334 0.675526 0.541931
Si Si5 0.421545 0.670554 0.126902
Si Si6 0.084495 0.675157 0.958437
O O1 0.750000 0.780795 0.193425
O O2 0.530970 0.761750 0.248808
O O3 0.476856 0.762884 0.167089
O O4 0.563078 0.000000 0.204947
O O5 0.250000 0.264663 0.376834
O O6 0.081377 0.500000 0.375630
O O7 0.010077 0.267922 0.330879
O O8 0.996106 0.262376 0.415636
O O9 0.250000 0.692060 0.698944
O O10 0.457060 0.500000 0.718868
O O11 0.250000 0.735780 0.541179
O O12 0.083629 0.500000 0.542174
O O13 0.000000 0.735554 0.500000
O O14 0.250000 0.696234 0.120321
O O15 0.458431 0.500000 0.135099
O O16 0.502605 0.730086 0.084355
O O17 0.250000 0.736773 0.958285
O O18 0.084435 0.500000 0.960225
O O19 0.000000 0.739027 0.000000
#
# Coordination Sequence:
#
# PCOD8210997 Si02
#       6
#     8   8   8   8   8   8
#     4  10  21  36  53  73  98 129 165 205 250 299
#     4   9  16  25  38  58  84 114 150 191 233 278
#     4   9  17  30  48  68  91 121 157 197 241 288
#     4   9  15  22  33  51  79 115 151 185 225 275
#     4  10  20  33  51  76 104 134 169 206 244 289
#     4   9  16  27  46  73 104 134 164 201 243 285
#
# _framework density 18.646865999999999
#
# number of rings (size 3 to 8) (size 9 to 14) (size 15 to 20)
#    0.000    2.667    0.000    2.500    0.000    8.667 
#    0.000    1.667    0.000    0.500    0.000    0.000 
#    0.000    0.667    0.000    1.833    0.000    3.333 
#
# Total GULP energy -595257.033324 kJ/mol
# GULP energy per Si atom -12401.188194 kJ/mol
# Density = 1.860443 g / cm^3
# Si number density = 18.646866 Si / 1000 Ang^3
#
#
#
# Elastic Constant Matrix: (Units=GPa)
#
#
# Indices 1 2 3 4 5 6 
#
# 1 143.7404 26.3568 98.0899 0.0000 0.0000 0.0000
# 2 26.3568 28.7580 34.7356 0.0000 0.0000 0.0000
# 3 98.0899 34.7356 185.0703 0.0000 0.0000 0.0000
# 4 0.0000 0.0000 0.0000 -2.4649 0.0000 0.0000
# 5 0.0000 0.0000 0.0000 0.0000 44.0015 0.0000
# 6 0.0000 0.0000 0.0000 0.0000 0.0000 12.6649
#
#
#
# Elastic Compliance Matrix: (Units=1/GPa)
#
#
# Indices 1 2 3 4 5 6 
#
# 1 0.011247 -0.004019 -0.005207 0.000000 0.000000 0.000000
# 2 -0.004019 0.046403 -0.006579 0.000000 0.000000 0.000000
# 3 -0.005207 -0.006579 0.009398 0.000000 0.000000 0.000000
# 4 0.000000 0.000000 0.000000 -0.405693 0.000000 0.000000
# 5 0.000000 0.000000 0.000000 0.000000 0.022726 0.000000
# 6 0.000000 0.000000 0.000000 0.000000 0.000000 0.078958
#
#
# Mechanical properties :
#
#
# Convention : Reuss Voigt Hill
#
# Bulk Modulus (GPa) = 28.21825 75.10370 51.66097
# Shear Modulus (GPa) = -25.83474 24.06608 -0.88433
#
# Velocity S-wave (km/s) = -3.72623 3.59642 -0.68941
# Velocity P-wave (km/s) = 1.82955 7.59012 5.20878
#
# Compressibility (1/GPa) = 0.03543806
#
# Stress axis : x y z
#
# Youngs Moduli (GPa) = 88.91189 21.55034 106.40690
#
# Poissons Ratio (x) = 0.08661 0.55404
# Poissons Ratio (y) = 0.35733 0.70008
# Poissons Ratio (z) = 0.46295 0.14178
#
# Static dielectric constant tensor:
#      x y z
#    x 3.570670 0.000000 0.000000 
#    y 0.000000 2.802270 0.000000 
#    z 0.000000 0.000000 3.626920 
# 
# 
# High freq. dielectric constant tensor:
#      x y z
#    x 1.734030 0.000000 0.000000 
#    y 0.000000 1.656170 0.000000 
#    z 0.000000 0.000000 1.742140 
# 
# From -- ./inp_files/36987.got.cif
#   From: 2010.03.12/outbox.cif.g09.slc.cpg/sg51_19_cif.got.tgz:36987.got - 2010.04.16 13:43:02.
