data_PCOD8210921
_publ_section_title
;
Structure prediction by ZEFSAII (Michael W. Deem and Ramdas Pophale) SiO2 
 PCOD8210921
Probable space group: P M M A
;
_chemical_formula_sum "Si O2"
_cell_formula_units_Z 64
_cell_length_a 8.849573
_cell_length_b 24.652375
_cell_length_c 15.374170
_cell_angle_alpha 90.000000
_cell_angle_beta 90.000000
_cell_angle_gamma 90.000000
_cell_volume 3354.074930
_symmetry_space_group_name_H-M "P M M A"
_symmetry_group_IT_number 51
_symmetry_cell_setting 'orthorhombic'
loop_
_space_group_symop_operation_xyz
x,y,z
1/2-x,-y,z
1/2+x,-y,-z
-x,y,-z
-x,-y,-z
1/2+x,y,-z
1/2-x,y,z
x,-y,z
loop_
_atom_site_type_symbol
_atom_site_label
_atom_site_fract_x
_atom_site_fract_y
_atom_site_fract_z
Si Si1 0.572600 0.061412 0.588758
Si Si2 0.429822 0.354959 0.410013
Si Si3 0.423056 0.257947 0.679968
Si Si4 0.928854 0.147293 0.731859
Si Si5 0.927852 0.164556 0.088446
Si Si6 0.426316 0.394092 0.085541
Si Si7 0.570360 0.560622 0.733881
Si Si8 0.419688 0.712708 0.874697
O O1 0.500000 0.084347 0.500000
O O2 0.750000 0.064238 0.575567
O O3 0.523077 0.097061 0.671318
O O4 0.517052 0.000000 0.606437
O O5 0.500000 0.375315 0.500000
O O6 0.250000 0.353213 0.415210
O O7 0.491593 0.294901 0.390130
O O8 0.489388 0.397880 0.338618
O O9 0.250000 0.248486 0.651120
O O10 0.505488 0.200545 0.686113
O O11 0.431143 0.289044 0.771011
O O12 0.750000 0.153532 0.741489
O O13 0.998956 0.136344 0.827139
O O14 0.750000 0.153391 0.090228
O O15 0.965811 0.228264 0.091100
O O16 0.000000 0.140200 0.000000
O O17 0.250000 0.403286 0.079935
O O18 0.494395 0.422260 0.171701
O O19 0.462667 0.329945 0.086338
O O20 0.500000 0.421108 0.000000
O O21 0.750000 0.563072 0.737074
O O22 0.513515 0.500000 0.711527
O O23 0.250000 0.697377 0.904565
#
# Coordination Sequence:
#
# PCOD8210921 Si02
#       8
#     8   8   8   8   8   8   8   8
#     4   9  19  36  58  84 113 147 188 234 282 330
#     4  11  22  38  60  84 108 140 178 220 273 332
#     4  10  20  35  55  80 113 146 180 224 270 323
#     4  10  20  34  55  83 116 153 190 230 277 332
#     4  10  20  33  50  77 112 152 191 233 278 327
#     4  11  21  33  53  79 105 138 175 215 263 319
#     4   9  20  39  59  78 104 138 176 221 272 327
#     4   9  18  32  51  75 105 139 175 217 263 313
#
# _framework density 19.081267
#
# number of rings (size 3 to 8) (size 9 to 14) (size 15 to 20)
#    0.000    2.125    1.250    3.000    0.000    5.500 
#    0.000    1.250    0.000    5.625    0.000    0.000 
#    0.000    0.000    0.000    0.000    0.000    0.000 
#
# Total GULP energy -793670.677425 kJ/mol
# GULP energy per Si atom -12401.104335 kJ/mol
# Density = 1.903784 g / cm^3
# Si number density = 19.081267 Si / 1000 Ang^3
#
#
#
# Elastic Constant Matrix: (Units=GPa)
#
#
# Indices 1 2 3 4 5 6 
#
# 1 80.9092 34.8110 54.8764 0.0000 0.0000 0.0000
# 2 34.8110 85.3082 66.3167 0.0000 0.0000 0.0000
# 3 54.8764 66.3167 161.5437 0.0000 0.0000 0.0000
# 4 0.0000 0.0000 0.0000 18.9466 0.0000 0.0000
# 5 0.0000 0.0000 0.0000 0.0000 35.4801 0.0000
# 6 0.0000 0.0000 0.0000 0.0000 0.0000 15.8461
#
#
#
# Elastic Compliance Matrix: (Units=1/GPa)
#
#
# Indices 1 2 3 4 5 6 
#
# 1 0.016759 -0.003544 -0.004238 0.000000 0.000000 0.000000
# 2 -0.003544 0.017966 -0.006171 0.000000 0.000000 0.000000
# 3 -0.004238 -0.006171 0.010163 0.000000 0.000000 0.000000
# 4 0.000000 0.000000 0.000000 0.052780 0.000000 0.000000
# 5 0.000000 0.000000 0.000000 0.000000 0.028185 0.000000
# 6 0.000000 0.000000 0.000000 0.000000 0.000000 0.063107
#
#
# Mechanical properties :
#
#
# Convention : Reuss Voigt Hill
#
# Bulk Modulus (GPa) = 58.88913 71.08548 64.98730
# Shear Modulus (GPa) = 22.46914 25.50503 23.98708
#
# Velocity S-wave (km/s) = 3.43527 3.65999 3.54941
# Velocity P-wave (km/s) = 6.83111 7.42938 7.13651
#
# Compressibility (1/GPa) = 0.01698106
#
# Stress axis : x y z
#
# Youngs Moduli (GPa) = 59.67015 55.66096 98.39204
#
# Poissons Ratio (x) = 0.19727 0.41699
# Poissons Ratio (y) = 0.21147 0.60722
# Poissons Ratio (z) = 0.25289 0.34351
#
# Static dielectric constant tensor:
#      x y z
#    x 3.372660 0.000000 0.000000 
#    y 0.000000 3.356850 0.000000 
#    z 0.000000 0.000000 3.679380 
# 
# 
# High freq. dielectric constant tensor:
#      x y z
#    x 1.737190 0.000000 0.000000 
#    y 0.000000 1.716380 0.000000 
#    z 0.000000 0.000000 1.753240 
# 
# From -- ./inp_files/22291.got.cif
#   From: 2010.03.12/outbox.cif.g09.slc.cpg/sg51_12_cif.got.tgz:22291.got - 2010.04.16 13:43:02.
