data_PCOD8210848
_publ_section_title
;
Structure prediction by ZEFSAII (Michael W. Deem and Ramdas Pophale) SiO2 
 PCOD8210848
Probable space group: P M M A
;
_chemical_formula_sum "Si O2"
_cell_formula_units_Z 64
_cell_length_a 28.045349
_cell_length_b 8.680520
_cell_length_c 15.365966
_cell_angle_alpha 90.000000
_cell_angle_beta 90.000000
_cell_angle_gamma 90.000000
_cell_volume 3740.816962
_symmetry_space_group_name_H-M "P M M A"
_symmetry_group_IT_number 51
_symmetry_cell_setting 'orthorhombic'
loop_
_space_group_symop_operation_xyz
x,y,z
1/2-x,-y,z
1/2+x,-y,-z
-x,y,-z
-x,-y,-z
1/2+x,y,-z
1/2-x,y,z
x,-y,z
loop_
_atom_site_type_symbol
_atom_site_label
_atom_site_fract_x
_atom_site_fract_y
_atom_site_fract_z
Si Si1 0.152406 0.321916 0.659150
Si Si2 0.044926 0.819487 0.397186
Si Si3 0.305745 0.179356 0.827200
Si Si4 0.637698 0.679368 0.659979
Si Si5 0.306621 0.326532 0.006007
Si Si6 0.306365 0.822861 0.183569
Si Si7 0.805289 0.822693 0.506275
Si Si8 0.051883 0.321388 0.583236
O O1 0.165049 0.500000 0.644415
O O2 0.164875 0.273576 0.756418
O O3 0.183827 0.221842 0.592915
O O4 0.096319 0.290172 0.646204
O O5 0.087459 0.768348 0.333458
O O6 0.059239 0.775466 0.495432
O O7 0.996199 0.734161 0.368570
O O8 0.036569 0.000000 0.389944
O O9 0.250000 0.215662 0.815443
O O10 0.316605 0.000000 0.817161
O O11 0.324319 0.235112 0.921168
O O12 0.626791 0.500000 0.661868
O O13 0.670240 0.724473 0.740630
O O14 0.664178 0.717292 0.570122
O O15 0.250000 0.328545 0.008074
O O16 0.327022 0.500000 0.004482
O O17 0.325767 0.238813 0.091307
O O18 0.250000 0.800954 0.191146
O O19 0.321092 0.000000 0.193883
O O20 0.750000 0.795050 0.525911
O O21 0.819219 0.000000 0.522270
O O22 0.047628 0.500000 0.557642
#
# Coordination Sequence:
#
# PCOD8210848 Si02
#       8
#     8   8   8   8   8   8   8   8
#     4  11  22  34  51  74 101 135 171 209 253 302
#     4  11  21  34  54  75  97 129 168 212 259 305
#     4  10  20  33  50  73 103 138 174 213 254 297
#     4  12  23  35  51  73 101 135 172 211 253 301
#     4   9  17  31  51  74 100 131 169 212 256 301
#     4  10  20  34  52  75 104 136 171 211 254 302
#     4  11  23  36  49  68  99 137 174 210 248 296
#     4  10  20  35  53  74 100 129 166 213 260 304
#
# _framework density 17.108561999999999
#
# number of rings (size 3 to 8) (size 9 to 14) (size 15 to 20)
#    0.000    1.500    1.250    6.000    0.000    8.500 
#    0.000    0.000    0.000    0.000    0.000    0.875 
#    0.000    7.000    0.000    0.000    0.000    0.000 
#
# Total GULP energy -793881.739915 kJ/mol
# GULP energy per Si atom -12404.402186 kJ/mol
# Density = 1.706962 g / cm^3
# Si number density = 17.108562 Si / 1000 Ang^3
#
#
#
# Elastic Constant Matrix: (Units=GPa)
#
#
# Indices 1 2 3 4 5 6 
#
# 1 59.7104 33.6582 22.0271 0.0000 0.0000 0.0000
# 2 33.6582 86.9490 17.7338 0.0000 0.0000 0.0000
# 3 22.0271 17.7338 81.3638 0.0000 0.0000 0.0000
# 4 0.0000 0.0000 0.0000 32.7089 0.0000 0.0000
# 5 0.0000 0.0000 0.0000 0.0000 7.9289 0.0000
# 6 0.0000 0.0000 0.0000 0.0000 0.0000 24.6096
#
#
#
# Elastic Compliance Matrix: (Units=1/GPa)
#
#
# Indices 1 2 3 4 5 6 
#
# 1 0.022871 -0.007944 -0.004460 0.000000 0.000000 0.000000
# 2 -0.007944 0.014795 -0.001074 0.000000 0.000000 0.000000
# 3 -0.004460 -0.001074 0.013732 0.000000 0.000000 0.000000
# 4 0.000000 0.000000 0.000000 0.030573 0.000000 0.000000
# 5 0.000000 0.000000 0.000000 0.000000 0.126121 0.000000
# 6 0.000000 0.000000 0.000000 0.000000 0.000000 0.040634
#
#
# Mechanical properties :
#
#
# Convention : Reuss Voigt Hill
#
# Bulk Modulus (GPa) = 40.91359 41.65127 41.28243
# Shear Modulus (GPa) = 17.61624 23.35642 20.48633
#
# Velocity S-wave (km/s) = 3.21233 3.69885 3.46415
# Velocity P-wave (km/s) = 6.14205 6.52994 6.33897
#
# Compressibility (1/GPa) = 0.02444176
#
# Stress axis : x y z
#
# Youngs Moduli (GPa) = 43.72425 67.59007 72.82213
#
# Poissons Ratio (x) = 0.53691 0.32480
# Poissons Ratio (y) = 0.34733 0.07822
# Poissons Ratio (z) = 0.19502 0.07260
#
# Static dielectric constant tensor:
#      x y z
#    x 3.195300 0.000000 0.000000 
#    y 0.000000 3.371050 0.000000 
#    z 0.000000 0.000000 3.126030 
# 
# 
# High freq. dielectric constant tensor:
#      x y z
#    x 1.640310 0.000000 0.000000 
#    y 0.000000 1.682020 0.000000 
#    z 0.000000 0.000000 1.644890 
# 
# From -- ./inp_files/26621.got.cif
#   From: 2010.03.12/outbox.cif.g09.slc.cpg/sg51_14_cif.got.tgz:26621.got - 2010.04.16 13:43:02.
