data_PCOD8210715
_publ_section_title
;
Structure prediction by ZEFSAII (Michael W. Deem and Ramdas Pophale) SiO2 
 PCOD8210715
Probable space group: P M M A
;
_chemical_formula_sum "Si O2"
_cell_formula_units_Z 48
_cell_length_a 18.281628
_cell_length_b 8.948812
_cell_length_c 16.678023
_cell_angle_alpha 90.000000
_cell_angle_beta 90.000000
_cell_angle_gamma 90.000000
_cell_volume 2728.505417
_symmetry_space_group_name_H-M "P M M A"
_symmetry_group_IT_number 51
_symmetry_cell_setting 'orthorhombic'
loop_
_space_group_symop_operation_xyz
x,y,z
1/2-x,-y,z
1/2+x,-y,-z
-x,y,-z
-x,-y,-z
1/2+x,y,-z
1/2-x,y,z
x,-y,z
loop_
_atom_site_type_symbol
_atom_site_label
_atom_site_fract_x
_atom_site_fract_y
_atom_site_fract_z
Si Si1 0.666502 0.676041 0.861464
Si Si2 0.916382 0.176620 0.007155
Si Si3 0.597101 0.324311 0.169257
Si Si4 0.046184 0.324070 0.256640
Si Si5 0.025035 0.321371 0.585247
Si Si6 0.330152 0.676917 0.667807
O O1 0.750000 0.725228 0.850207
O O2 0.658542 0.500000 0.876710
O O3 0.624556 0.723751 0.779353
O O4 0.632135 0.760477 0.935819
O O5 0.880878 0.236066 0.089408
O O6 0.912152 0.000000 0.005116
O O7 0.000000 0.233718 0.000000
O O8 0.599380 0.500000 0.150733
O O9 0.516429 0.268951 0.195602
O O10 0.652864 0.280010 0.240147
O O11 0.038348 0.500000 0.263268
O O12 0.031849 0.261845 0.346594
O O13 0.025070 0.500000 0.581559
O O14 0.106676 0.262328 0.607927
O O15 0.000000 0.253419 0.500000
O O16 0.250000 0.742412 0.644465
O O17 0.329436 0.500000 0.660658
#
# Coordination Sequence:
#
# PCOD8210715 Si02
#       6
#     8   8   8   8   8   8
#     4  10  20  33  49  67  89 123 165 201 233 272
#     4  11  22  33  47  69  96 124 155 194 240 286
#     4   9  16  28  48  66  85 121 160 191 227 273
#     4   8  14  26  43  62  85 116 154 191 223 266
#     4   8  13  22  38  61  90 123 151 177 224 282
#     4   8  14  24  39  62  89 115 150 193 229 268
#
# _framework density 17.592047999999998
#
# number of rings (size 3 to 8) (size 9 to 14) (size 15 to 20)
#    0.000    3.000    1.667    2.500    0.000    1.667 
#    0.000    2.500    0.000    5.000    0.000    0.000 
#    0.000   16.667    0.000    1.333    0.000    0.667 
#
# Total GULP energy -594822.991522 kJ/mol
# GULP energy per Si atom -12392.145657 kJ/mol
# Density = 1.755201 g / cm^3
# Si number density = 17.592048 Si / 1000 Ang^3
#
#
#
# Elastic Constant Matrix: (Units=GPa)
#
#
# Indices 1 2 3 4 5 6 
#
# 1 142.3489 26.1846 80.9294 0.0000 0.0000 0.0000
# 2 26.1846 18.5390 24.2733 0.0000 0.0000 0.0000
# 3 80.9294 24.2733 155.6693 0.0000 0.0000 0.0000
# 4 0.0000 0.0000 0.0000 -1.8966 0.0000 0.0000
# 5 0.0000 0.0000 0.0000 0.0000 23.9281 0.0000
# 6 0.0000 0.0000 0.0000 0.0000 0.0000 11.2992
#
#
#
# Elastic Compliance Matrix: (Units=1/GPa)
#
#
# Indices 1 2 3 4 5 6 
#
# 1 0.011389 -0.010472 -0.004288 0.000000 0.000000 0.000000
# 2 -0.010472 0.077406 -0.006626 0.000000 0.000000 0.000000
# 3 -0.004288 -0.006626 0.009686 0.000000 0.000000 0.000000
# 4 0.000000 0.000000 0.000000 -0.527264 0.000000 0.000000
# 5 0.000000 0.000000 0.000000 0.000000 0.041792 0.000000
# 6 0.000000 0.000000 0.000000 0.000000 0.000000 0.088501
#
#
# Mechanical properties :
#
#
# Convention : Reuss Voigt Hill
#
# Bulk Modulus (GPa) = 17.95008 64.37020 41.16014
# Shear Modulus (GPa) = -21.08388 19.01081 -1.03653
#
# Velocity S-wave (km/s) = -3.46568 3.29089 -0.76843
# Velocity P-wave (km/s) = 2.40601 7.14912 4.76030
#
# Compressibility (1/GPa) = 0.05571005
#
# Stress axis : x y z
#
# Youngs Moduli (GPa) = 87.80286 12.91897 103.23787
#
# Poissons Ratio (x) = 0.13528 0.44270
# Poissons Ratio (y) = 0.91943 0.68403
# Poissons Ratio (z) = 0.37651 0.08560
#
# Static dielectric constant tensor:
#      x y z
#    x 3.634690 0.000000 0.000000 
#    y 0.000000 2.699480 0.000000 
#    z 0.000000 0.000000 3.481860 
# 
# 
# High freq. dielectric constant tensor:
#      x y z
#    x 1.677840 0.000000 0.000000 
#    y 0.000000 1.621990 0.000000 
#    z 0.000000 0.000000 1.680100 
# 
# From -- ./inp_files/30034.got.cif
#   From: 2010.03.12/outbox.cif.g09.slc.cpg/sg51_16_cif.got.tgz:30034.got - 2010.04.16 13:43:02.
