data_PCOD8210035
_publ_section_title
;
Structure prediction by ZEFSAII (Michael W. Deem and Ramdas Pophale) SiO2 
 PCOD8210035
Probable space group: P M M A
;
_chemical_formula_sum "Si O2"
_cell_formula_units_Z 48
_cell_length_a 15.620789
_cell_length_b 16.902458
_cell_length_c 9.251212
_cell_angle_alpha 90.000000
_cell_angle_beta 90.000000
_cell_angle_gamma 90.000000
_cell_volume 2442.595007
_symmetry_space_group_name_H-M "P M M A"
_symmetry_group_IT_number 51
_symmetry_cell_setting 'orthorhombic'
loop_
_space_group_symop_operation_xyz
x,y,z
1/2-x,-y,z
1/2+x,-y,-z
-x,y,-z
-x,-y,-z
1/2+x,y,-z
1/2-x,y,z
x,-y,z
loop_
_atom_site_type_symbol
_atom_site_label
_atom_site_fract_x
_atom_site_fract_y
_atom_site_fract_z
Si Si1 0.351399 0.500000 0.117736
Si Si2 0.915065 0.182716 0.078243
Si Si3 0.250000 0.910644 0.922702
Si Si4 0.250000 0.089847 0.578853
Si Si5 0.905780 0.500000 0.563578
Si Si6 0.584301 0.816854 0.418539
Si Si7 0.347068 0.649986 0.597108
Si Si8 0.850058 0.353245 0.077600
O O1 0.250000 0.500000 0.149708
O O2 0.406179 0.500000 0.263621
O O3 0.379419 0.576920 0.027815
O O4 0.834795 0.132710 0.018477
O O5 0.926442 0.170007 0.248414
O O6 0.901135 0.274301 0.036943
O O7 0.000000 0.151319 0.000000
O O8 0.250000 0.906885 0.750779
O O9 0.250000 0.000000 0.980806
O O10 0.165033 0.133740 0.520791
O O11 0.250000 0.000000 0.521426
O O12 0.856693 0.422024 0.512578
O O13 0.000000 0.500000 0.500000
O O14 0.500000 0.847671 0.500000
O O15 0.595713 0.723794 0.452880
O O16 0.250000 0.680846 0.596070
O O17 0.371534 0.620956 0.758144
O O18 0.750000 0.335158 0.060693
#
# Coordination Sequence:
#
# PCOD8210035 Si02
#       8
#     4   8   4   4   4   8   8   8
#     4  10  21  36  55  80 109 142 185 237 286 325
#     4  10  20  35  58  86 115 149 188 233 281 335
#     4   9  18  36  61  84 113 150 190 229 275 343
#     4   9  18  36  61  86 113 154 192 229 283 339
#     4  12  25  36  48  76 116 148 185 232 282 336
#     4  10  20  36  58  87 116 148 194 236 278 336
#     4  10  19  36  58  77 104 150 194 229 275 337
#     4   9  18  35  58  80 106 142 192 236 275 329
#
# _framework density 19.651230999999999
#
# number of rings (size 3 to 8) (size 9 to 14) (size 15 to 20)
#    0.000    2.167    1.667    1.750    0.000    6.000 
#    0.000    2.083    0.000    1.000    0.000    0.000 
#    0.000    0.000    0.000    0.000    0.000    0.000 
#
# Total GULP energy -595305.408929 kJ/mol
# GULP energy per Si atom -12402.196019 kJ/mol
# Density = 1.960650 g / cm^3
# Si number density = 19.651231 Si / 1000 Ang^3
#
#
#
# Elastic Constant Matrix: (Units=GPa)
#
#
# Indices 1 2 3 4 5 6 
#
# 1 136.3922 65.9718 44.8285 0.0000 0.0000 0.0000
# 2 65.9718 115.9950 51.7363 0.0000 0.0000 0.0000
# 3 44.8285 51.7363 72.0817 0.0000 0.0000 0.0000
# 4 0.0000 0.0000 0.0000 12.3373 0.0000 0.0000
# 5 0.0000 0.0000 0.0000 0.0000 33.8585 0.0000
# 6 0.0000 0.0000 0.0000 0.0000 0.0000 17.0896
#
#
#
# Elastic Compliance Matrix: (Units=1/GPa)
#
#
# Indices 1 2 3 4 5 6 
#
# 1 0.010635 -0.004558 -0.003343 0.000000 0.000000 0.000000
# 2 -0.004558 0.014634 -0.007669 0.000000 0.000000 0.000000
# 3 -0.003343 -0.007669 0.021456 0.000000 0.000000 0.000000
# 4 0.000000 0.000000 0.000000 0.081055 0.000000 0.000000
# 5 0.000000 0.000000 0.000000 0.000000 0.029535 0.000000
# 6 0.000000 0.000000 0.000000 0.000000 0.000000 0.058515
#
#
# Mechanical properties :
#
#
# Convention : Reuss Voigt Hill
#
# Bulk Modulus (GPa) = 64.15810 72.17135 68.16472
# Shear Modulus (GPa) = 19.82839 23.45256 21.64047
#
# Velocity S-wave (km/s) = 3.17995 3.45837 3.32207
# Velocity P-wave (km/s) = 6.79721 7.26312 7.03402
#
# Compressibility (1/GPa) = 0.01558650
#
# Stress axis : x y z
#
# Youngs Moduli (GPa) = 94.02925 68.33561 46.60634
#
# Poissons Ratio (x) = 0.31145 0.15580
# Poissons Ratio (y) = 0.42855 0.35741
# Poissons Ratio (z) = 0.31432 0.52405
#
# Static dielectric constant tensor:
#      x y z
#    x 3.566070 0.000000 0.000000 
#    y 0.000000 3.603700 0.000000 
#    z 0.000000 0.000000 3.298570 
# 
# 
# High freq. dielectric constant tensor:
#      x y z
#    x 1.771560 0.000000 0.000000 
#    y 0.000000 1.766070 0.000000 
#    z 0.000000 0.000000 1.736140 
# 
# From -- ./inp_files/8394.got.cif
#   From: 2010.03.12/outbox.cif.g09.slc.cpg/sg51_5_cif.got.tgz:8394.got - 2010.04.16 13:43:02.
