data_PCOD8210014
_publ_section_title
;
Structure prediction by ZEFSAII (Michael W. Deem and Ramdas Pophale) SiO2 
 PCOD8210014
Probable space group: P M M A
;
_chemical_formula_sum "Si O2"
_cell_formula_units_Z 48
_cell_length_a 14.441101
_cell_length_b 14.946441
_cell_length_c 11.327921
_cell_angle_alpha 90.000000
_cell_angle_beta 90.000000
_cell_angle_gamma 90.000000
_cell_volume 2445.053178
_symmetry_space_group_name_H-M "P M M A"
_symmetry_group_IT_number 51
_symmetry_cell_setting 'orthorhombic'
loop_
_space_group_symop_operation_xyz
x,y,z
1/2-x,-y,z
1/2+x,-y,-z
-x,y,-z
-x,-y,-z
1/2+x,y,-z
1/2-x,y,z
x,-y,z
loop_
_atom_site_type_symbol
_atom_site_label
_atom_site_fract_x
_atom_site_fract_y
_atom_site_fract_z
Si Si1 0.355075 0.745690 0.186110
Si Si2 0.391612 0.898500 0.011716
Si Si3 0.642744 0.603860 0.260177
Si Si4 0.480926 0.247847 0.636355
Si Si5 0.359573 0.598207 0.005940
Si Si6 0.352995 0.897347 0.750992
O O1 0.250000 0.722604 0.226328
O O2 0.419864 0.748235 0.299911
O O3 0.397365 0.670435 0.098324
O O4 0.352542 0.839542 0.117879
O O5 0.347934 0.867210 0.887727
O O6 0.363230 0.000000 0.041121
O O7 0.500000 0.886394 0.000000
O O8 0.750000 0.631651 0.277277
O O9 0.629273 0.500000 0.292484
O O10 0.578655 0.662414 0.345318
O O11 0.609450 0.623547 0.126417
O O12 0.500000 0.235510 0.500000
O O13 0.424792 0.161836 0.679631
O O14 0.250000 0.595539 0.008352
O O15 0.398839 0.500000 0.040385
O O16 0.250000 0.886266 0.697164
O O17 0.387317 0.000000 0.743156
#
# Coordination Sequence:
#
# PCOD8210014 Si02
#       6
#     8   8   8   8   8   8
#     4  11  23  37  56  85 121 157 193 236 294 353
#     4  10  19  35  61  91 122 148 179 231 300 365
#     4   9  19  38  64  91 116 145 188 243 300 355
#     4  12  26  40  57  80 116 160 208 249 283 327
#     4   8  16  33  58  88 118 144 177 229 292 355
#     4  10  21  39  64  90 114 146 189 239 297 356
#
# _framework density 19.631474999999998
#
# number of rings (size 3 to 8) (size 9 to 14) (size 15 to 20)
#    0.000    2.000    1.667    3.000    0.000    5.000 
#    0.000    1.667    0.000    2.000    0.000    0.000 
#    0.000    0.000    0.000    0.000    0.000    0.000 
#
# Total GULP energy -595227.106487 kJ/mol
# GULP energy per Si atom -12400.564718 kJ/mol
# Density = 1.958679 g / cm^3
# Si number density = 19.631475 Si / 1000 Ang^3
#
#
#
# Elastic Constant Matrix: (Units=GPa)
#
#
# Indices 1 2 3 4 5 6 
#
# 1 99.7192 34.9781 38.0518 0.0000 0.0000 0.0000
# 2 34.9781 94.4163 39.0925 0.0000 0.0000 0.0000
# 3 38.0518 39.0925 78.4468 0.0000 0.0000 0.0000
# 4 0.0000 0.0000 0.0000 11.5099 0.0000 0.0000
# 5 0.0000 0.0000 0.0000 0.0000 -5.4598 0.0000
# 6 0.0000 0.0000 0.0000 0.0000 0.0000 28.3702
#
#
#
# Elastic Compliance Matrix: (Units=1/GPa)
#
#
# Indices 1 2 3 4 5 6 
#
# 1 0.012847 -0.002746 -0.004863 0.000000 0.000000 0.000000
# 2 -0.002746 0.013932 -0.005611 0.000000 0.000000 0.000000
# 3 -0.004863 -0.005611 0.017903 0.000000 0.000000 0.000000
# 4 0.000000 0.000000 0.000000 0.086882 0.000000 0.000000
# 5 0.000000 0.000000 0.000000 0.000000 -0.183157 0.000000
# 6 0.000000 0.000000 0.000000 0.000000 0.000000 0.035248
#
#
# Mechanical properties :
#
#
# Convention : Reuss Voigt Hill
#
# Bulk Modulus (GPa) = 54.81975 55.20300 55.01137
# Shear Modulus (GPa) = 309.11460 17.58137 163.34798
#
# Velocity S-wave (km/s) = 12.56187 2.99585 9.13169
# Velocity P-wave (km/s) = 15.43974 6.33621 11.80113
#
# Compressibility (1/GPa) = 0.01824160
#
# Stress axis : x y z
#
# Youngs Moduli (GPa) = 77.83858 71.77876 55.85792
#
# Poissons Ratio (x) = 0.19709 0.27166
# Poissons Ratio (y) = 0.21373 0.31340
# Poissons Ratio (z) = 0.37856 0.40273
#
# Static dielectric constant tensor:
#      x y z
#    x 3.635020 0.000000 0.000000 
#    y 0.000000 3.900650 0.000000 
#    z 0.000000 0.000000 3.243170 
# 
# 
# High freq. dielectric constant tensor:
#      x y z
#    x 1.775800 0.000000 0.000000 
#    y 0.000000 1.777380 0.000000 
#    z 0.000000 0.000000 1.724450 
# 
# From -- ./inp_files/16386.got.cif
#   From: 2010.03.12/outbox.cif.g09.slc.cpg/sg51_9_cif.got.tgz:16386.got - 2010.04.16 13:43:02.
