data_PCOD8210278
_publ_section_title
;
Structure prediction by ZEFSAII (Michael W. Deem and Ramdas Pophale) SiO2 
 PCOD8210278
Probable space group: P M M A
;
_chemical_formula_sum "Si O2"
_cell_formula_units_Z 36
_cell_length_a 9.308124
_cell_length_b 12.777118
_cell_length_c 16.881815
_cell_angle_alpha 90.000000
_cell_angle_beta 90.000000
_cell_angle_gamma 90.000000
_cell_volume 2007.771118
_symmetry_space_group_name_H-M "P M M A"
_symmetry_group_IT_number 51
_symmetry_cell_setting 'orthorhombic'
loop_
_space_group_symop_operation_xyz
x,y,z
1/2-x,-y,z
1/2+x,-y,-z
-x,y,-z
-x,-y,-z
1/2+x,y,-z
1/2-x,y,z
x,-y,z
loop_
_atom_site_type_symbol
_atom_site_label
_atom_site_fract_x
_atom_site_fract_y
_atom_site_fract_z
Si Si1 0.088227 0.386460 0.859050
Si Si2 0.082845 0.667862 0.292887
Si Si3 0.919460 0.500000 0.582123
Si Si4 0.917655 0.169823 0.076521
Si Si5 0.414779 0.885039 0.231442
O O1 0.250000 0.371834 0.827168
O O2 0.068188 0.500000 0.900689
O O3 0.054675 0.294945 0.921489
O O4 0.986829 0.382772 0.783669
O O5 0.250000 0.647903 0.283290
O O6 0.031051 0.605400 0.370884
O O7 0.046283 0.793154 0.294881
O O8 0.750000 0.500000 0.566284
O O9 0.000000 0.500000 0.500000
O O10 0.750000 0.140362 0.070638
O O11 0.982454 0.119215 0.155453
O O12 0.000000 0.124541 0.000000
O O13 0.250000 0.869849 0.203018
O O14 0.435183 0.000000 0.271286
#
# Coordination Sequence:
#
# PCOD8210278 Si02
#       5
#     8   8   4   8   8
#     4   9  17  29  46  67  92 124 161 199 242 289
#     4   9  17  31  50  73  99 125 157 195 233 278
#     4  10  20  32  50  78 107 132 155 184 227 280
#     4  10  20  32  45  65  94 127 163 205 249 291
#     4   9  18  33  53  73  92 121 162 204 245 286
#
# _framework density 17.930330000000001
#
# number of rings (size 3 to 8) (size 9 to 14) (size 15 to 20)
#    0.000    2.667    1.111    0.667    0.000    3.111 
#    0.000    0.000    0.000    0.667    0.000    0.000 
#    0.000    0.000    0.000    0.000    0.000    0.000 
#
# Total GULP energy -446076.690088 kJ/mol
# GULP energy per Si atom -12391.019169 kJ/mol
# Density = 1.788952 g / cm^3
# Si number density = 17.930330 Si / 1000 Ang^3
#
#
#
# Elastic Constant Matrix: (Units=GPa)
#
#
# Indices 1 2 3 4 5 6 
#
# 1 56.0368 26.8458 37.5110 0.0000 0.0000 0.0000
# 2 26.8458 138.7494 38.2271 0.0000 0.0000 0.0000
# 3 37.5110 38.2271 85.5220 0.0000 0.0000 0.0000
# 4 0.0000 0.0000 0.0000 13.0126 0.0000 0.0000
# 5 0.0000 0.0000 0.0000 0.0000 26.6119 0.0000
# 6 0.0000 0.0000 0.0000 0.0000 0.0000 14.9302
#
#
#
# Elastic Compliance Matrix: (Units=1/GPa)
#
#
# Indices 1 2 3 4 5 6 
#
# 1 0.025807 -0.002138 -0.010364 0.000000 0.000000 0.000000
# 2 -0.002138 0.008397 -0.002815 0.000000 0.000000 0.000000
# 3 -0.010364 -0.002815 0.017497 0.000000 0.000000 0.000000
# 4 0.000000 0.000000 0.000000 0.076849 0.000000 0.000000
# 5 0.000000 0.000000 0.000000 0.000000 0.037577 0.000000
# 6 0.000000 0.000000 0.000000 0.000000 0.000000 0.066978
#
#
# Mechanical properties :
#
#
# Convention : Reuss Voigt Hill
#
# Bulk Modulus (GPa) = 47.46856 53.94178 50.70517
# Shear Modulus (GPa) = 18.46646 22.75922 20.61284
#
# Velocity S-wave (km/s) = 3.21269 3.56661 3.39426
# Velocity P-wave (km/s) = 6.34769 6.86370 6.61073
#
# Compressibility (1/GPa) = 0.02106658
#
# Stress axis : x y z
#
# Youngs Moduli (GPa) = 38.74902 119.09608 57.15272
#
# Poissons Ratio (x) = 0.25462 0.59231
# Poissons Ratio (y) = 0.08284 0.16091
# Poissons Ratio (z) = 0.40158 0.33531
#
# Static dielectric constant tensor:
#      x y z
#    x 3.203220 0.000000 0.000000 
#    y 0.000000 3.789810 0.000000 
#    z 0.000000 0.000000 2.876560 
# 
# 
# High freq. dielectric constant tensor:
#      x y z
#    x 1.697890 0.000000 0.000000 
#    y 0.000000 1.714720 0.000000 
#    z 0.000000 0.000000 1.638410 
# 
# From -- ./inp_files/20344.got.cif
#   From: 2010.03.12/outbox.cif.g09.slc.cpg/sg51_11_cif.got.tgz:20344.got - 2010.04.16 13:43:02.
