data_PCOD8210703
_publ_section_title
;
Structure prediction by ZEFSAII (Michael W. Deem and Ramdas Pophale) SiO2 
 PCOD8210703
Probable space group: P M M A
;
_chemical_formula_sum "Si O2"
_cell_formula_units_Z 32
_cell_length_a 8.668654
_cell_length_b 13.537809
_cell_length_c 14.407043
_cell_angle_alpha 90.000000
_cell_angle_beta 90.000000
_cell_angle_gamma 90.000000
_cell_volume 1690.732511
_symmetry_space_group_name_H-M "P M M A"
_symmetry_group_IT_number 51
_symmetry_cell_setting 'orthorhombic'
loop_
_space_group_symop_operation_xyz
x,y,z
1/2-x,-y,z
1/2+x,-y,-z
-x,y,-z
-x,-y,-z
1/2+x,y,-z
1/2-x,y,z
x,-y,z
loop_
_atom_site_type_symbol
_atom_site_label
_atom_site_fract_x
_atom_site_fract_y
_atom_site_fract_z
Si Si1 0.419810 0.114144 0.088883
Si Si2 0.069914 0.228450 0.763956
Si Si3 0.067897 0.887716 0.399051
Si Si4 0.932348 0.611750 0.900794
O O1 0.250000 0.162770 0.104399
O O2 0.531303 0.131695 0.175409
O O3 0.397343 0.000000 0.071543
O O4 0.500000 0.164412 0.000000
O O5 0.250000 0.248368 0.754980
O O6 0.002126 0.200245 0.663691
O O7 0.991711 0.321740 0.815017
O O8 0.250000 0.874311 0.401005
O O9 0.000000 0.869654 0.500000
O O10 0.026085 0.000000 0.365363
O O11 0.750000 0.619515 0.906609
O O12 0.986449 0.500000 0.879812
O O13 0.000000 0.646978 0.000000
#
# Coordination Sequence:
#
# PCOD8210703 Si02
#       4
#     8   8   8   8
#     4  10  20  33  48  69 101 139 177 217 261 313
#     4  12  23  34  53  79 108 142 180 222 268 322
#     4  10  21  38  59  83 112 145 183 227 273 323
#     4  10  21  38  59  82 110 144 183 228 276 327
#
# _framework density 18.926708000000001
#
# number of rings (size 3 to 8) (size 9 to 14) (size 15 to 20)
#    0.000    1.500    0.000    6.000    0.000    7.500 
#    0.000    0.000    0.000    0.750    0.000    0.000 
#    0.000    0.000    0.000    0.000    0.000    0.000 
#
# Total GULP energy -396576.293032 kJ/mol
# GULP energy per Si atom -12393.009157 kJ/mol
# Density = 1.888363 g / cm^3
# Si number density = 18.926708 Si / 1000 Ang^3
#
#
#
# Elastic Constant Matrix: (Units=GPa)
#
#
# Indices 1 2 3 4 5 6 
#
# 1 117.9769 39.8023 53.7579 0.0000 0.0000 0.0000
# 2 39.8023 105.3670 56.8949 0.0000 0.0000 0.0000
# 3 53.7579 56.8949 119.2074 0.0000 0.0000 0.0000
# 4 0.0000 0.0000 0.0000 34.8611 0.0000 0.0000
# 5 0.0000 0.0000 0.0000 0.0000 36.5782 0.0000
# 6 0.0000 0.0000 0.0000 0.0000 0.0000 23.0687
#
#
#
# Elastic Compliance Matrix: (Units=1/GPa)
#
#
# Indices 1 2 3 4 5 6 
#
# 1 0.010968 -0.001984 -0.003999 0.000000 0.000000 0.000000
# 2 -0.001984 0.013144 -0.005379 0.000000 0.000000 0.000000
# 3 -0.003999 -0.005379 0.012760 0.000000 0.000000 0.000000
# 4 0.000000 0.000000 0.000000 0.028685 0.000000 0.000000
# 5 0.000000 0.000000 0.000000 0.000000 0.027339 0.000000
# 6 0.000000 0.000000 0.000000 0.000000 0.000000 0.043349
#
#
# Mechanical properties :
#
#
# Convention : Reuss Voigt Hill
#
# Bulk Modulus (GPa) = 70.68162 71.49574 71.08868
# Shear Modulus (GPa) = 30.54661 31.70802 31.12732
#
# Velocity S-wave (km/s) = 4.02175 4.09749 4.05980
# Velocity P-wave (km/s) = 7.68062 7.76163 7.72123
#
# Compressibility (1/GPa) = 0.01414795
#
# Stress axis : x y z
#
# Youngs Moduli (GPa) = 91.17596 76.07779 78.37253
#
# Poissons Ratio (x) = 0.15090 0.31344
# Poissons Ratio (y) = 0.18085 0.42157
# Poissons Ratio (z) = 0.36464 0.40922
#
# Static dielectric constant tensor:
#      x y z
#    x 4.358430 0.000000 0.000000 
#    y 0.000000 3.516880 0.000000 
#    z 0.000000 0.000000 3.467580 
# 
# 
# High freq. dielectric constant tensor:
#      x y z
#    x 1.754760 0.000000 0.000000 
#    y 0.000000 1.727350 0.000000 
#    z 0.000000 0.000000 1.724040 
# 
# From -- ./inp_files/13787.got.cif
#   From: 2010.03.12/outbox.cif.g09.slc.cpg/sg51_7_cif.got.tgz:13787.got - 2010.04.16 13:43:02.
