data_PCOD8210776
_publ_section_title
;
Structure prediction by ZEFSAII (Michael W. Deem and Ramdas Pophale) SiO2 
 PCOD8210776
Probable space group: P M M A
;
_chemical_formula_sum "Si O2"
_cell_formula_units_Z 64
_cell_length_a 25.640162
_cell_length_b 14.197878
_cell_length_c 9.780453
_cell_angle_alpha 90.000000
_cell_angle_beta 90.000000
_cell_angle_gamma 90.000000
_cell_volume 3560.435932
_symmetry_space_group_name_H-M "P M M A"
_symmetry_group_IT_number 51
_symmetry_cell_setting 'orthorhombic'
loop_
_space_group_symop_operation_xyz
x,y,z
1/2-x,-y,z
1/2+x,-y,-z
-x,y,-z
-x,-y,-z
1/2+x,y,-z
1/2-x,y,z
x,-y,z
loop_
_atom_site_type_symbol
_atom_site_label
_atom_site_fract_x
_atom_site_fract_y
_atom_site_fract_z
Si Si1 0.688206 0.104096 0.583977
Si Si2 0.689880 0.253175 0.801992
Si Si3 0.810806 0.889556 0.274296
Si Si4 0.527429 0.611597 0.631453
Si Si5 0.458334 0.391649 0.881839
Si Si6 0.809549 0.393840 0.324362
Si Si7 0.356517 0.611296 0.394635
Si Si8 0.644297 0.731317 0.100785
O O1 0.750000 0.101316 0.594923
O O2 0.665906 0.172751 0.701525
O O3 0.673877 0.137573 0.430281
O O4 0.665098 0.000000 0.610897
O O5 0.750000 0.234722 0.835443
O O6 0.683364 0.350218 0.718904
O O7 0.659617 0.257265 0.943776
O O8 0.750000 0.863166 0.245712
O O9 0.850132 0.833330 0.173613
O O10 0.819419 0.000000 0.248047
O O11 0.500000 0.656057 0.500000
O O12 0.531338 0.500000 0.620331
O O13 0.490609 0.643244 0.752779
O O14 0.586201 0.650028 0.644923
O O15 0.437050 0.500000 0.867878
O O16 0.412675 0.315719 0.898993
O O17 0.500000 0.386293 0.000000
O O18 0.750000 0.387463 0.370841
O O19 0.826708 0.500000 0.291610
O O20 0.843000 0.353642 0.451704
O O21 0.817332 0.336218 0.185576
O O22 0.351455 0.500000 0.388841
#
# Coordination Sequence:
#
# PCOD8210776 Si02
#       8
#     8   8   8   8   8   8   8   8
#     4   8  16  33  54  73  97 132 171 209 249 297
#     4  11  22  32  46  72 104 137 170 205 248 302
#     4   9  18  34  56  80 106 137 172 211 259 320
#     4   9  17  31  51  72  91 117 164 221 264 295
#     4  10  21  37  54  72 100 140 183 227 273 317
#     4  10  20  33  49  72 106 146 179 209 256 320
#     4  10  20  34  51  71  99 136 175 213 254 306
#     4  12  22  33  51  77 108 139 176 219 268 318
#
# _framework density 17.975328000000001
#
# number of rings (size 3 to 8) (size 9 to 14) (size 15 to 20)
#    0.000    2.125    0.000    4.875    0.000    6.250 
#    0.000    1.250    0.000    0.375    0.000    0.875 
#    0.000   10.000    0.000    0.000    0.000    0.000 
#
# Total GULP energy -793227.855852 kJ/mol
# GULP energy per Si atom -12394.185248 kJ/mol
# Density = 1.793442 g / cm^3
# Si number density = 17.975328 Si / 1000 Ang^3
#
#
#
# Elastic Constant Matrix: (Units=GPa)
#
#
# Indices 1 2 3 4 5 6 
#
# 1 66.8608 31.0770 25.5146 0.0000 0.0000 0.0000
# 2 31.0770 75.9386 45.5095 0.0000 0.0000 0.0000
# 3 25.5146 45.5095 127.2419 0.0000 0.0000 0.0000
# 4 0.0000 0.0000 0.0000 28.1665 0.0000 0.0000
# 5 0.0000 0.0000 0.0000 0.0000 24.1524 0.0000
# 6 0.0000 0.0000 0.0000 0.0000 0.0000 20.7750
#
#
#
# Elastic Compliance Matrix: (Units=1/GPa)
#
#
# Indices 1 2 3 4 5 6 
#
# 1 0.018633 -0.006856 -0.001284 0.000000 0.000000 0.000000
# 2 -0.006856 0.019284 -0.005522 0.000000 0.000000 0.000000
# 3 -0.001284 -0.005522 0.010092 0.000000 0.000000 0.000000
# 4 0.000000 0.000000 0.000000 0.035503 0.000000 0.000000
# 5 0.000000 0.000000 0.000000 0.000000 0.041404 0.000000
# 6 0.000000 0.000000 0.000000 0.000000 0.000000 0.048135
#
#
# Mechanical properties :
#
#
# Convention : Reuss Voigt Hill
#
# Bulk Modulus (GPa) = 48.34701 52.69372 50.52036
# Shear Modulus (GPa) = 24.12320 25.81478 24.96899
#
# Velocity S-wave (km/s) = 3.66733 3.79373 3.73107
# Velocity P-wave (km/s) = 6.69978 6.96907 6.83575
#
# Compressibility (1/GPa) = 0.02068380
#
# Stress axis : x y z
#
# Youngs Moduli (GPa) = 53.66802 51.85739 99.09139
#
# Poissons Ratio (x) = 0.35552 0.12726
# Poissons Ratio (y) = 0.36793 0.54721
# Poissons Ratio (z) = 0.06893 0.28637
#
# Static dielectric constant tensor:
#      x y z
#    x 3.226810 0.000000 0.000000 
#    y 0.000000 3.377740 0.000000 
#    z 0.000000 0.000000 3.446860 
# 
# 
# High freq. dielectric constant tensor:
#      x y z
#    x 1.673020 0.000000 0.000000 
#    y 0.000000 1.677610 0.000000 
#    z 0.000000 0.000000 1.709680 
# 
# From -- ./inp_files/11848.got.cif
#   From: 2010.03.12/outbox.cif.g09.slc.cpg/sg51_6_cif.got.tgz:11848.got - 2010.04.16 13:43:02.
