data_PCOD8210297
_publ_section_title
;
Structure prediction by ZEFSAII (Michael W. Deem and Ramdas Pophale) SiO2 
 PCOD8210297
Probable space group: P M M A
;
_chemical_formula_sum "Si O2"
_cell_formula_units_Z 48
_cell_length_a 31.214123
_cell_length_b 9.378523
_cell_length_c 9.546605
_cell_angle_alpha 90.000000
_cell_angle_beta 90.000000
_cell_angle_gamma 90.000000
_cell_volume 2794.695778
_symmetry_space_group_name_H-M "P M M A"
_symmetry_group_IT_number 51
_symmetry_cell_setting 'orthorhombic'
loop_
_space_group_symop_operation_xyz
x,y,z
1/2-x,-y,z
1/2+x,-y,-z
-x,y,-z
-x,-y,-z
1/2+x,y,-z
1/2-x,y,z
x,-y,z
loop_
_atom_site_type_symbol
_atom_site_label
_atom_site_fract_x
_atom_site_fract_y
_atom_site_fract_z
Si Si1 0.039781 0.665789 0.602552
Si Si2 0.965821 0.167656 0.116594
Si Si3 0.202249 0.660505 0.565661
Si Si4 0.122954 0.160944 0.571735
Si Si5 0.627640 0.843980 0.095527
Si Si6 0.796434 0.340976 0.101403
O O1 0.051748 0.500000 0.627558
O O2 0.025290 0.737821 0.747455
O O3 0.080772 0.746457 0.535485
O O4 0.000000 0.681933 0.500000
O O5 0.919578 0.207637 0.049845
O O6 0.967017 0.000000 0.158215
O O7 0.000000 0.208141 0.000000
O O8 0.250000 0.712985 0.519950
O O9 0.194372 0.500000 0.509509
O O10 0.165368 0.764795 0.504721
O O11 0.199183 0.658994 0.732438
O O12 0.128559 0.154599 0.737290
O O13 0.118363 0.000000 0.511113
O O14 0.664736 0.745413 0.031280
O O15 0.636999 0.000000 0.034956
O O16 0.750000 0.275301 0.059391
O O17 0.799716 0.500000 0.042196
#
# Coordination Sequence:
#
# PCOD8210297 Si02
#       6
#     8   8   8   8   8   8
#     4  10  20  32  46  65  89 117 150 187 224 265
#     4   9  18  32  48  66  89 116 146 181 221 266
#     4   8  13  21  33  50  75 107 139 171 210 256
#     4   9  16  25  38  56  79 109 143 178 217 260
#     4   8  14  23  35  53  76 103 134 167 205 247
#     4   8  13  20  30  46  70 101 134 165 199 241
#
# _framework density 17.175393
#
# number of rings (size 3 to 8) (size 9 to 14) (size 15 to 20)
#    0.000    3.333    0.000    3.000    0.000    6.333 
#    0.000    3.333    0.000    0.000    0.000    0.000 
#    0.000    1.333    0.000    8.667    0.000   18.167 
#
# Total GULP energy -594752.283520 kJ/mol
# GULP energy per Si atom -12390.672573 kJ/mol
# Density = 1.713630 g / cm^3
# Si number density = 17.175393 Si / 1000 Ang^3
#
#
#
# Elastic Constant Matrix: (Units=GPa)
#
#
# Indices 1 2 3 4 5 6 
#
# 1 167.7947 87.1365 31.6087 0.0000 0.0000 0.0000
# 2 87.1365 116.8157 26.7264 0.0000 0.0000 0.0000
# 3 31.6087 26.7264 19.5297 0.0000 0.0000 0.0000
# 4 0.0000 0.0000 0.0000 10.3510 0.0000 0.0000
# 5 0.0000 0.0000 0.0000 0.0000 14.0275 0.0000
# 6 0.0000 0.0000 0.0000 0.0000 0.0000 35.8284
#
#
#
# Elastic Compliance Matrix: (Units=1/GPa)
#
#
# Indices 1 2 3 4 5 6 
#
# 1 0.010794 -0.005903 -0.009393 0.000000 0.000000 0.000000
# 2 -0.005903 0.015691 -0.011919 0.000000 0.000000 0.000000
# 3 -0.009393 -0.011919 0.082717 0.000000 0.000000 0.000000
# 4 0.000000 0.000000 0.000000 0.096609 0.000000 0.000000
# 5 0.000000 0.000000 0.000000 0.000000 0.071288 0.000000
# 6 0.000000 0.000000 0.000000 0.000000 0.000000 0.027911
#
#
# Mechanical properties :
#
#
# Convention : Reuss Voigt Hill
#
# Bulk Modulus (GPa) = 18.25705 66.12036 42.18870
# Shear Modulus (GPa) = 13.23814 22.61927 17.92871
#
# Velocity S-wave (km/s) = 2.77927 3.63293 3.23439
# Velocity P-wave (km/s) = 4.57733 7.49522 6.21008
#
# Compressibility (1/GPa) = 0.05477336
#
# Stress axis : x y z
#
# Youngs Moduli (GPa) = 92.64024 63.73243 12.08946
#
# Poissons Ratio (x) = 0.37621 0.11355
# Poissons Ratio (y) = 0.54685 0.14409
# Poissons Ratio (z) = 0.87013 0.75961
#
# Static dielectric constant tensor:
#      x y z
#    x 3.678070 0.000000 0.000000 
#    y 0.000000 3.491600 0.000000 
#    z 0.000000 0.000000 2.444560 
# 
# 
# High freq. dielectric constant tensor:
#      x y z
#    x 1.686150 0.000000 0.000000 
#    y 0.000000 1.668060 0.000000 
#    z 0.000000 0.000000 1.572820 
# 
# From -- ./inp_files/19281.got.cif
#   From: 2010.03.12/outbox.cif.g09.slc.cpg/sg51_10_cif.got.tgz:19281.got - 2010.04.16 13:43:02.
