data_PCOD8210142
_publ_section_title
;
Structure prediction by ZEFSAII (Michael W. Deem and Ramdas Pophale) SiO2 
 PCOD8210142
Probable space group: P M M A
;
_chemical_formula_sum "Si O2"
_cell_formula_units_Z 40
_cell_length_a 14.362938
_cell_length_b 9.455975
_cell_length_c 17.246946
_cell_angle_alpha 90.000000
_cell_angle_beta 90.000000
_cell_angle_gamma 90.000000
_cell_volume 2342.404020
_symmetry_space_group_name_H-M "P M M A"
_symmetry_group_IT_number 51
_symmetry_cell_setting 'orthorhombic'
loop_
_space_group_symop_operation_xyz
x,y,z
1/2-x,-y,z
1/2+x,-y,-z
-x,y,-z
-x,-y,-z
1/2+x,y,-z
1/2-x,y,z
x,-y,z
loop_
_atom_site_type_symbol
_atom_site_label
_atom_site_fract_x
_atom_site_fract_y
_atom_site_fract_z
Si Si1 0.250000 0.160850 0.481990
Si Si2 0.250000 0.664439 0.637701
Si Si3 0.017469 0.332082 0.878807
Si Si4 0.550742 0.836652 0.578600
Si Si5 0.946077 0.332984 0.292994
Si Si6 0.353696 0.668354 0.015242
O O1 0.250000 0.257591 0.556634
O O2 0.160525 0.191006 0.429146
O O3 0.250000 0.000000 0.512381
O O4 0.250000 0.500000 0.617915
O O5 0.340048 0.707473 0.687317
O O6 0.021574 0.500000 0.876896
O O7 0.032517 0.272375 0.792625
O O8 0.917285 0.281748 0.912188
O O9 0.099733 0.276819 0.935270
O O10 0.500000 0.787666 0.500000
O O11 0.516396 0.741655 0.648789
O O12 0.527488 0.000000 0.596072
O O13 0.963037 0.500000 0.298567
O O14 0.250000 0.733102 0.023562
O O15 0.348989 0.500000 0.013780
#
# Coordination Sequence:
#
# PCOD8210142 Si02
#       6
#     4   4   8   8   8   8
#     4  10  20  36  54  70  89 122 166 204 237 282
#     4  10  20  30  46  72  99 126 156 196 247 290
#     4   8  15  26  39  62  93 123 154 189 232 279
#     4  10  20  35  54  71  92 125 163 200 238 283
#     4  10  20  32  47  72 103 128 155 198 245 287
#     4   8  13  23  41  61  86 122 158 189 225 274
#
# _framework density 17.076473
#
# number of rings (size 3 to 8) (size 9 to 14) (size 15 to 20)
#    0.000    2.800    2.000    1.200    1.400    1.200 
#    1.800    0.000    0.000    0.000    0.000    2.800 
#    0.000    1.600    0.000    0.000    0.000    0.000 
#
# Total GULP energy -495891.549502 kJ/mol
# GULP energy per Si atom -12397.288738 kJ/mol
# Density = 1.703761 g / cm^3
# Si number density = 17.076473 Si / 1000 Ang^3
#
#
#
# Elastic Constant Matrix: (Units=GPa)
#
#
# Indices 1 2 3 4 5 6 
#
# 1 162.1320 26.3400 78.0307 0.0000 0.0000 0.0000
# 2 26.3400 19.5751 32.5348 0.0000 0.0000 0.0000
# 3 78.0307 32.5348 149.5819 0.0000 0.0000 0.0000
# 4 0.0000 0.0000 0.0000 -1.0710 0.0000 0.0000
# 5 0.0000 0.0000 0.0000 0.0000 7.2914 0.0000
# 6 0.0000 0.0000 0.0000 0.0000 0.0000 12.3544
#
#
#
# Elastic Compliance Matrix: (Units=1/GPa)
#
#
# Indices 1 2 3 4 5 6 
#
# 1 0.008741 -0.006551 -0.003135 0.000000 0.000000 0.000000
# 2 -0.006551 0.084919 -0.015053 0.000000 0.000000 0.000000
# 3 -0.003135 -0.015053 0.011595 0.000000 0.000000 0.000000
# 4 0.000000 0.000000 0.000000 -0.933749 0.000000 0.000000
# 5 0.000000 0.000000 0.000000 0.000000 0.137148 0.000000
# 6 0.000000 0.000000 0.000000 0.000000 0.000000 0.080943
#
#
# Mechanical properties :
#
#
# Convention : Reuss Voigt Hill
#
# Bulk Modulus (GPa) = 17.92863 67.23332 42.58097
# Shear Modulus (GPa) = -9.21942 16.67387 3.72723
#
# Velocity S-wave (km/s) = -2.32607 3.12817 1.47899
# Velocity P-wave (km/s) = 1.81870 7.24601 5.28263
#
# Compressibility (1/GPa) = 0.05577670
#
# Stress axis : x y z
#
# Youngs Moduli (GPa) = 114.40530 11.77594 86.24698
#
# Poissons Ratio (x) = 0.07715 0.27037
# Poissons Ratio (y) = 0.74952 1.29825
# Poissons Ratio (z) = 0.35864 0.17726
#
# Static dielectric constant tensor:
#      x y z
#    x 3.523540 0.000000 0.000000 
#    y 0.000000 2.755140 0.000000 
#    z 0.000000 0.000000 3.305100 
# 
# 
# High freq. dielectric constant tensor:
#      x y z
#    x 1.673890 0.000000 0.000000 
#    y 0.000000 1.608940 0.000000 
#    z 0.000000 0.000000 1.657960 
# 
# From -- ./inp_files/23815.got.cif
#   From: 2010.03.12/outbox.cif.g09.slc.cpg/sg51_12_cif.got.tgz:23815.got - 2010.04.16 13:43:02.
