data_PCOD8210877
_publ_section_title
;
Structure prediction by ZEFSAII (Michael W. Deem and Ramdas Pophale) SiO2 
 PCOD8210877
Probable space group: P M M A
;
_chemical_formula_sum "Si O2"
_cell_formula_units_Z 56
_cell_length_a 14.893912
_cell_length_b 9.157585
_cell_length_c 20.935767
_cell_angle_alpha 90.000000
_cell_angle_beta 90.000000
_cell_angle_gamma 90.000000
_cell_volume 2855.476683
_symmetry_space_group_name_H-M "P M M A"
_symmetry_group_IT_number 51
_symmetry_cell_setting 'orthorhombic'
loop_
_space_group_symop_operation_xyz
x,y,z
1/2-x,-y,z
1/2+x,-y,-z
-x,y,-z
-x,-y,-z
1/2+x,y,-z
1/2-x,y,z
x,-y,z
loop_
_atom_site_type_symbol
_atom_site_label
_atom_site_fract_x
_atom_site_fract_y
_atom_site_fract_z
Si Si1 0.149262 0.838362 0.967311
Si Si2 0.850061 0.165508 0.797194
Si Si3 0.352001 0.827737 0.486073
Si Si4 0.004657 0.672682 0.728873
Si Si5 0.016789 0.172913 0.598679
Si Si6 0.098533 0.337667 0.084425
Si Si7 0.904381 0.340068 0.144480
O O1 0.250000 0.846383 0.993470
O O2 0.153346 0.776418 0.894858
O O3 0.105812 0.000000 0.966107
O O4 0.094156 0.734018 0.014424
O O5 0.750000 0.165176 0.768474
O O6 0.845303 0.237292 0.867308
O O7 0.910291 0.255929 0.748149
O O8 0.886999 0.000000 0.803365
O O9 0.250000 0.760144 0.481104
O O10 0.402082 0.781832 0.551412
O O11 0.418570 0.778454 0.428543
O O12 0.343273 0.000000 0.484127
O O13 0.990083 0.500000 0.723204
O O14 0.037904 0.739916 0.662852
O O15 0.080426 0.709548 0.782180
O O16 0.017250 0.000000 0.611287
O O17 0.141421 0.500000 0.079532
O O18 0.999290 0.349954 0.110221
O O19 0.857941 0.500000 0.142804
#
# Coordination Sequence:
#
# PCOD8210877 Si02
#       7
#     8   8   8   8   8   8   8
#     4  11  23  35  49  73 100 125 162 213 262 306
#     4  10  20  33  50  74 103 134 172 216 258 306
#     4   8  15  30  53  81 111 141 175 215 256 300
#     4  10  21  36  53  74 104 139 172 210 256 307
#     4   9  17  31  54  81 107 139 178 216 255 302
#     4  10  20  34  53  75  99 129 165 206 257 317
#     4   9  20  37  53  70  94 129 171 208 249 305
#
# _framework density 19.611438
#
# number of rings (size 3 to 8) (size 9 to 14) (size 15 to 20)
#    0.000    2.429    0.000    4.286    0.000    9.714 
#    0.000    3.571    0.000    3.857    0.000    0.000 
#    0.000    0.000    0.000    0.000    0.000    0.000 
#
# Total GULP energy -694101.697957 kJ/mol
# GULP energy per Si atom -12394.673178 kJ/mol
# Density = 1.956680 g / cm^3
# Si number density = 19.611438 Si / 1000 Ang^3
#
#
#
# Elastic Constant Matrix: (Units=GPa)
#
#
# Indices 1 2 3 4 5 6 
#
# 1 61.1447 10.8523 15.6026 0.0000 0.0000 0.0000
# 2 10.8523 107.4450 50.0474 0.0000 0.0000 0.0000
# 3 15.6026 50.0474 128.4170 0.0000 0.0000 0.0000
# 4 0.0000 0.0000 0.0000 28.0238 0.0000 0.0000
# 5 0.0000 0.0000 0.0000 0.0000 16.0576 0.0000
# 6 0.0000 0.0000 0.0000 0.0000 0.0000 30.7567
#
#
#
# Elastic Compliance Matrix: (Units=1/GPa)
#
#
# Indices 1 2 3 4 5 6 
#
# 1 0.016952 -0.000920 -0.001701 0.000000 0.000000 0.000000
# 2 -0.000920 0.011421 -0.004339 0.000000 0.000000 0.000000
# 3 -0.001701 -0.004339 0.009685 0.000000 0.000000 0.000000
# 4 0.000000 0.000000 0.000000 0.035684 0.000000 0.000000
# 5 0.000000 0.000000 0.000000 0.000000 0.062276 0.000000
# 6 0.000000 0.000000 0.000000 0.000000 0.000000 0.032513
#
#
# Mechanical properties :
#
#
# Convention : Reuss Voigt Hill
#
# Bulk Modulus (GPa) = 41.42932 50.00122 45.71527
# Shear Modulus (GPa) = 26.24702 29.66791 27.95747
#
# Velocity S-wave (km/s) = 3.66232 3.89367 3.77977
# Velocity P-wave (km/s) = 6.24935 6.76503 6.51229
#
# Compressibility (1/GPa) = 0.02413749
#
# Stress axis : x y z
#
# Youngs Moduli (GPa) = 58.99009 87.55594 103.25243
#
# Poissons Ratio (x) = 0.08053 0.17565
# Poissons Ratio (y) = 0.05426 0.44805
# Poissons Ratio (z) = 0.10035 0.37994
#
# Static dielectric constant tensor:
#      x y z
#    x 3.568690 0.000000 0.000000 
#    y 0.000000 3.624790 0.000000 
#    z 0.000000 0.000000 3.644790 
# 
# 
# High freq. dielectric constant tensor:
#      x y z
#    x 1.750350 0.000000 0.000000 
#    y 0.000000 1.754800 0.000000 
#    z 0.000000 0.000000 1.757370 
# 
# From -- ./inp_files/33333.got.cif
#   From: 2010.03.12/outbox.cif.g09.slc.cpg/sg51_17_cif.got.tgz:33333.got - 2010.04.16 13:43:02.
