data_PCOD8210373
_publ_section_title
;
Structure prediction by ZEFSAII (Michael W. Deem and Ramdas Pophale) SiO2 
 PCOD8210373
Probable space group: P M M A
;
_chemical_formula_sum "Si O2"
_cell_formula_units_Z 48
_cell_length_a 8.926296
_cell_length_b 13.673166
_cell_length_c 23.535744
_cell_angle_alpha 90.000000
_cell_angle_beta 90.000000
_cell_angle_gamma 90.000000
_cell_volume 2872.554665
_symmetry_space_group_name_H-M "P M M A"
_symmetry_group_IT_number 51
_symmetry_cell_setting 'orthorhombic'
loop_
_space_group_symop_operation_xyz
x,y,z
1/2-x,-y,z
1/2+x,-y,-z
-x,y,-z
-x,-y,-z
1/2+x,y,-z
1/2-x,y,z
x,-y,z
loop_
_atom_site_type_symbol
_atom_site_label
_atom_site_fract_x
_atom_site_fract_y
_atom_site_fract_z
Si Si1 0.425648 0.388782 0.942245
Si Si2 0.921476 0.706159 0.838443
Si Si3 0.922356 0.889721 0.767754
Si Si4 0.573341 0.211018 0.335021
Si Si5 0.925378 0.112664 0.559348
Si Si6 0.924096 0.611588 0.720384
O O1 0.250000 0.382050 0.950152
O O2 0.478056 0.500000 0.929772
O O3 0.473239 0.319652 0.890748
O O4 0.500000 0.349759 0.000000
O O5 0.750000 0.692530 0.857450
O O6 0.955674 0.818172 0.820568
O O7 0.960233 0.635263 0.785927
O O8 0.750000 0.876702 0.748183
O O9 0.024624 0.863627 0.714240
O O10 0.956601 0.000000 0.787653
O O11 0.750000 0.206705 0.342152
O O12 0.497141 0.181268 0.393510
O O13 0.523057 0.321201 0.320567
O O14 0.750000 0.133613 0.555275
O O15 0.000000 0.141160 0.500000
O O16 0.958399 0.000000 0.574890
O O17 0.750000 0.633048 0.708196
O O18 0.967270 0.500000 0.707863
#
# Coordination Sequence:
#
# PCOD8210373 Si02
#       6
#     8   8   8   8   8   8
#     4  10  20  32  47  68  94 124 156 191 233 281
#     4   9  17  30  49  72  96 122 154 194 239 283
#     4   9  18  33  51  70  95 129 165 198 235 281
#     4  11  21  31  47  73 103 131 160 197 240 285
#     4  10  20  34  52  73  98 128 162 200 241 286
#     4   9  18  33  52  72  96 129 165 198 236 284
#
# _framework density 16.709865000000001
#
# number of rings (size 3 to 8) (size 9 to 14) (size 15 to 20)
#    0.000    2.333    0.000    4.500    0.000    8.000 
#    0.000    0.000    0.000    1.000    0.000    0.000 
#    0.000    0.000    0.000    0.000    0.000    0.000 
#
# Total GULP energy -595321.594481 kJ/mol
# GULP energy per Si atom -12402.533218 kJ/mol
# Density = 1.667183 g / cm^3
# Si number density = 16.709865 Si / 1000 Ang^3
#
#
#
# Elastic Constant Matrix: (Units=GPa)
#
#
# Indices 1 2 3 4 5 6 
#
# 1 88.0824 40.6425 59.6035 0.0000 0.0000 0.0000
# 2 40.6425 108.1124 56.9435 0.0000 0.0000 0.0000
# 3 59.6035 56.9435 116.4816 0.0000 0.0000 0.0000
# 4 0.0000 0.0000 0.0000 20.7077 0.0000 0.0000
# 5 0.0000 0.0000 0.0000 0.0000 33.5455 0.0000
# 6 0.0000 0.0000 0.0000 0.0000 0.0000 21.1224
#
#
#
# Elastic Compliance Matrix: (Units=1/GPa)
#
#
# Indices 1 2 3 4 5 6 
#
# 1 0.017878 -0.002562 -0.007896 0.000000 0.000000 0.000000
# 2 -0.002562 0.012824 -0.004958 0.000000 0.000000 0.000000
# 3 -0.007896 -0.004958 0.015049 0.000000 0.000000 0.000000
# 4 0.000000 0.000000 0.000000 0.048291 0.000000 0.000000
# 5 0.000000 0.000000 0.000000 0.000000 0.029810 0.000000
# 6 0.000000 0.000000 0.000000 0.000000 0.000000 0.047343
#
#
# Mechanical properties :
#
#
# Convention : Reuss Voigt Hill
#
# Bulk Modulus (GPa) = 67.02689 69.67281 68.34985
# Shear Modulus (GPa) = 24.15442 25.44091 24.79766
#
# Velocity S-wave (km/s) = 3.80612 3.90617 3.85647
# Velocity P-wave (km/s) = 7.71458 7.88228 7.79888
#
# Compressibility (1/GPa) = 0.01491938
#
# Stress axis : x y z
#
# Youngs Moduli (GPa) = 55.93468 77.97636 66.44895
#
# Poissons Ratio (x) = 0.19979 0.52465
# Poissons Ratio (y) = 0.14331 0.32947
# Poissons Ratio (z) = 0.44164 0.38663
#
# Static dielectric constant tensor:
#      x y z
#    x 3.264340 0.000000 0.000000 
#    y 0.000000 3.217960 0.000000 
#    z 0.000000 0.000000 3.013590 
# 
# 
# High freq. dielectric constant tensor:
#      x y z
#    x 1.648430 0.000000 0.000000 
#    y 0.000000 1.636740 0.000000 
#    z 0.000000 0.000000 1.632150 
# 
# From -- ./inp_files/31586.got.cif
#   From: 2010.03.12/outbox.cif.g09.slc.cpg/sg51_16_cif.got.tgz:31586.got - 2010.04.16 13:43:02.
