data_PCOD8210353
_publ_section_title
;
Structure prediction by ZEFSAII (Michael W. Deem and Ramdas Pophale) SiO2 
 PCOD8210353
Probable space group: P M M A
;
_chemical_formula_sum "Si O2"
_cell_formula_units_Z 48
_cell_length_a 9.804563
_cell_length_b 14.211628
_cell_length_c 20.739904
_cell_angle_alpha 90.000000
_cell_angle_beta 90.000000
_cell_angle_gamma 90.000000
_cell_volume 2889.873378
_symmetry_space_group_name_H-M "P M M A"
_symmetry_group_IT_number 51
_symmetry_cell_setting 'orthorhombic'
loop_
_space_group_symop_operation_xyz
x,y,z
1/2-x,-y,z
1/2+x,-y,-z
-x,y,-z
-x,-y,-z
1/2+x,y,-z
1/2-x,y,z
x,-y,z
loop_
_atom_site_type_symbol
_atom_site_label
_atom_site_fract_x
_atom_site_fract_y
_atom_site_fract_z
Si Si1 0.901801 0.888874 0.197433
Si Si2 0.592323 0.109361 0.560675
Si Si3 0.598847 0.602395 0.667139
Si Si4 0.096112 0.805204 0.303039
Si Si5 0.599644 0.607460 0.448742
Si Si6 0.902855 0.888078 0.054771
O O1 0.750000 0.849395 0.211599
O O2 0.950259 0.854959 0.126237
O O3 0.003134 0.855792 0.251905
O O4 0.897678 0.000000 0.198455
O O5 0.500000 0.140910 0.500000
O O6 0.750000 0.127128 0.542391
O O7 0.549657 0.170876 0.623519
O O8 0.566170 0.000000 0.577428
O O9 0.750000 0.606951 0.633207
O O10 0.586385 0.500000 0.702973
O O11 0.586809 0.693279 0.712906
O O12 0.473572 0.611857 0.619265
O O13 0.250000 0.842495 0.293749
O O14 0.500000 0.659609 0.500000
O O15 0.750000 0.655757 0.445510
O O16 0.619885 0.500000 0.470989
O O17 0.750000 0.852033 0.041307
O O18 0.907220 0.000000 0.051037
O O19 0.000000 0.843317 0.000000
#
# Coordination Sequence:
#
# PCOD8210353 Si02
#       6
#     8   8   8   8   8   8
#     4   9  18  31  46  67  96 126 153 182 217 257
#     4   9  18  32  47  62  81 106 140 183 226 267
#     4   9  18  32  46  60  82 110 140 180 229 276
#     4  10  20  32  47  67  88 113 149 190 230 272
#     4   9  16  26  41  59  77  99 129 166 212 267
#     4   8  14  25  41  63  92 124 154 179 205 244
#
# _framework density 16.609722999999999
#
# number of rings (size 3 to 8) (size 9 to 14) (size 15 to 20)
#    0.000    3.000    0.000    2.000    0.000    5.667 
#    0.000    5.000    0.000    0.000    0.000    0.000 
#    0.000    0.667    0.000    1.500    0.000    2.333 
#
# Total GULP energy -594631.450041 kJ/mol
# GULP energy per Si atom -12388.155209 kJ/mol
# Density = 1.657192 g / cm^3
# Si number density = 16.609723 Si / 1000 Ang^3
#
#
#
# Elastic Constant Matrix: (Units=GPa)
#
#
# Indices 1 2 3 4 5 6 
#
# 1 105.2096 11.4090 61.1999 0.0000 0.0000 0.0000
# 2 11.4090 36.7601 17.9382 0.0000 0.0000 0.0000
# 3 61.1999 17.9382 106.6717 0.0000 0.0000 0.0000
# 4 0.0000 0.0000 0.0000 2.6548 0.0000 0.0000
# 5 0.0000 0.0000 0.0000 0.0000 26.7014 0.0000
# 6 0.0000 0.0000 0.0000 0.0000 0.0000 11.9129
#
#
#
# Elastic Compliance Matrix: (Units=1/GPa)
#
#
# Indices 1 2 3 4 5 6 
#
# 1 0.014273 -0.000473 -0.008109 0.000000 0.000000 0.000000
# 2 -0.000473 0.029651 -0.004715 0.000000 0.000000 0.000000
# 3 -0.008109 -0.004715 0.014820 0.000000 0.000000 0.000000
# 4 0.000000 0.000000 0.000000 0.376671 0.000000 0.000000
# 5 0.000000 0.000000 0.000000 0.000000 0.037451 0.000000
# 6 0.000000 0.000000 0.000000 0.000000 0.000000 0.083943
#
#
# Mechanical properties :
#
#
# Convention : Reuss Voigt Hill
#
# Bulk Modulus (GPa) = 31.10418 47.74841 39.42629
# Shear Modulus (GPa) = 8.41581 18.79344 13.60462
#
# Velocity S-wave (km/s) = 2.25340 3.36739 2.86506
# Velocity P-wave (km/s) = 5.05347 6.62787 5.89348
#
# Compressibility (1/GPa) = 0.03215002
#
# Stress axis : x y z
#
# Youngs Moduli (GPa) = 70.06089 33.72578 67.47641
#
# Poissons Ratio (x) = 0.01594 0.54719
# Poissons Ratio (y) = 0.03312 0.31815
# Poissons Ratio (z) = 0.56815 0.15902
#
# Static dielectric constant tensor:
#      x y z
#    x 3.546910 0.000000 0.000000 
#    y 0.000000 3.036840 0.000000 
#    z 0.000000 0.000000 2.990930 
# 
# 
# High freq. dielectric constant tensor:
#      x y z
#    x 1.653400 0.000000 0.000000 
#    y 0.000000 1.610900 0.000000 
#    z 0.000000 0.000000 1.603000 
# 
# From -- ./inp_files/31594.got.cif
#   From: 2010.03.12/outbox.cif.g09.slc.cpg/sg51_16_cif.got.tgz:31594.got - 2010.04.16 13:43:02.
