data_PCOD8210692
_publ_section_title
;
Structure prediction by ZEFSAII (Michael W. Deem and Ramdas Pophale) SiO2 
 PCOD8210692
Probable space group: P M M A
;
_chemical_formula_sum "Si O2"
_cell_formula_units_Z 48
_cell_length_a 13.751644
_cell_length_b 8.923158
_cell_length_c 21.155881
_cell_angle_alpha 90.000000
_cell_angle_beta 90.000000
_cell_angle_gamma 90.000000
_cell_volume 2595.997796
_symmetry_space_group_name_H-M "P M M A"
_symmetry_group_IT_number 51
_symmetry_cell_setting 'orthorhombic'
loop_
_space_group_symop_operation_xyz
x,y,z
1/2-x,-y,z
1/2+x,-y,-z
-x,y,-z
-x,-y,-z
1/2+x,y,-z
1/2-x,y,z
x,-y,z
loop_
_atom_site_type_symbol
_atom_site_label
_atom_site_fract_x
_atom_site_fract_y
_atom_site_fract_z
Si Si1 0.356867 0.178332 0.466318
Si Si2 0.950315 0.178183 0.405076
Si Si3 0.640473 0.672331 0.915174
Si Si4 0.860440 0.178074 0.275843
Si Si5 0.044039 0.672554 0.841982
Si Si6 0.134765 0.831711 0.959192
O O1 0.250000 0.241838 0.448070
O O2 0.385165 0.235949 0.536400
O O3 0.437852 0.232891 0.415653
O O4 0.355185 0.000000 0.467439
O O5 0.907384 0.244431 0.340129
O O6 0.946909 0.000000 0.402615
O O7 0.750000 0.720792 0.896153
O O8 0.637929 0.500000 0.937218
O O9 0.571115 0.697414 0.854619
O O10 0.597980 0.770118 0.973134
O O11 0.750000 0.237661 0.269157
O O12 0.925778 0.231546 0.218110
O O13 0.861081 0.000000 0.276613
O O14 0.068813 0.500000 0.828847
O O15 0.102221 0.723972 0.903355
O O16 0.250000 0.830588 0.959942
O O17 0.094490 0.000000 0.949112
#
# Coordination Sequence:
#
# PCOD8210692 Si02
#       6
#     8   8   8   8   8   8
#     4   8  12  20  38  64  92 120 152 192 235 277
#     4   8  14  24  39  62  92 124 155 188 231 282
#     4   9  19  36  54  70  91 121 157 196 238 284
#     4  10  20  33  48  67  95 129 160 192 235 285
#     4  11  22  34  50  71  94 124 162 199 234 276
#     4  10  20  33  51  76 102 125 151 189 239 288
#
# _framework density 18.489999999999998
#
# number of rings (size 3 to 8) (size 9 to 14) (size 15 to 20)
#    0.000    2.667    0.000    3.500    0.000    8.667 
#    0.000    0.833    0.000    1.000    0.000    2.333 
#    0.000    1.333    0.000    0.000    0.000    0.000 
#
# Total GULP energy -595024.042150 kJ/mol
# GULP energy per Si atom -12396.334211 kJ/mol
# Density = 1.844792 g / cm^3
# Si number density = 18.490000 Si / 1000 Ang^3
#
#
#
# Elastic Constant Matrix: (Units=GPa)
#
#
# Indices 1 2 3 4 5 6 
#
# 1 106.0637 27.0491 67.0895 0.0000 0.0000 0.0000
# 2 27.0491 20.7327 13.5219 0.0000 0.0000 0.0000
# 3 67.0895 13.5219 113.4467 0.0000 0.0000 0.0000
# 4 0.0000 0.0000 0.0000 -1.6472 0.0000 0.0000
# 5 0.0000 0.0000 0.0000 0.0000 28.5995 0.0000
# 6 0.0000 0.0000 0.0000 0.0000 0.0000 17.5989
#
#
#
# Elastic Compliance Matrix: (Units=1/GPa)
#
#
# Indices 1 2 3 4 5 6 
#
# 1 0.021095 -0.021020 -0.009970 0.000000 0.000000 0.000000
# 2 -0.021020 0.073243 0.003701 0.000000 0.000000 0.000000
# 3 -0.009970 0.003701 0.014269 0.000000 0.000000 0.000000
# 4 0.000000 0.000000 0.000000 -0.607099 0.000000 0.000000
# 5 0.000000 0.000000 0.000000 0.000000 0.034966 0.000000
# 6 0.000000 0.000000 0.000000 0.000000 0.000000 0.056822
#
#
# Mechanical properties :
#
#
# Convention : Reuss Voigt Hill
#
# Bulk Modulus (GPa) = 18.50825 50.61824 34.56325
# Shear Modulus (GPa) = -14.96489 17.74907 1.39209
#
# Velocity S-wave (km/s) = -2.84799 3.10163 0.86863
# Velocity P-wave (km/s) = 0.88497 6.34526 4.44292
#
# Compressibility (1/GPa) = 0.05402996
#
# Stress axis : x y z
#
# Youngs Moduli (GPa) = 47.40421 13.65314 70.07958
#
# Poissons Ratio (x) = 0.28699 0.69868
# Poissons Ratio (y) = 0.99643 -0.25933
# Poissons Ratio (z) = 0.47261 -0.05052
#
# Static dielectric constant tensor:
#      x y z
#    x 3.808120 0.000000 0.000000 
#    y 0.000000 3.102950 0.000000 
#    z 0.000000 0.000000 3.367420 
# 
# 
# High freq. dielectric constant tensor:
#      x y z
#    x 1.734040 0.000000 0.000000 
#    y 0.000000 1.679020 0.000000 
#    z 0.000000 0.000000 1.700860 
# 
# From -- ./inp_files/29459.got.cif
#   From: 2010.03.12/outbox.cif.g09.slc.cpg/sg51_15_cif.got.tgz:29459.got - 2010.04.16 13:43:02.
