data_PCOD8210139
_publ_section_title
;
Structure prediction by ZEFSAII (Michael W. Deem and Ramdas Pophale) SiO2 
 PCOD8210139
Probable space group: P M M A
;
_chemical_formula_sum "Si O2"
_cell_formula_units_Z 64
_cell_length_a 27.314894
_cell_length_b 9.247804
_cell_length_c 14.164853
_cell_angle_alpha 90.000000
_cell_angle_beta 90.000000
_cell_angle_gamma 90.000000
_cell_volume 3578.081331
_symmetry_space_group_name_H-M "P M M A"
_symmetry_group_IT_number 51
_symmetry_cell_setting 'orthorhombic'
loop_
_space_group_symop_operation_xyz
x,y,z
1/2-x,-y,z
1/2+x,-y,-z
-x,y,-z
-x,-y,-z
1/2+x,y,-z
1/2-x,y,z
x,-y,z
loop_
_atom_site_type_symbol
_atom_site_label
_atom_site_fract_x
_atom_site_fract_y
_atom_site_fract_z
Si Si1 0.983415 0.828653 0.606489
Si Si2 0.305637 0.665296 0.047731
Si Si3 0.361569 0.333707 0.863005
Si Si4 0.060276 0.661093 0.721535
Si Si5 0.306398 0.169386 0.238027
Si Si6 0.194710 0.154292 0.716437
Si Si7 0.882924 0.327480 0.628551
Si Si8 0.149158 0.340437 0.576378
O O1 0.935328 0.746464 0.642173
O O2 0.000000 0.782215 0.500000
O O3 0.022910 0.781738 0.685209
O O4 0.975489 0.000000 0.611345
O O5 0.250000 0.685750 0.007453
O O6 0.311767 0.500000 0.083438
O O7 0.314749 0.776612 0.131863
O O8 0.348682 0.700747 0.971863
O O9 0.350276 0.500000 0.841199
O O10 0.417462 0.300012 0.826477
O O11 0.323762 0.243685 0.803767
O O12 0.036194 0.500000 0.723143
O O13 0.104791 0.661254 0.649154
O O14 0.250000 0.197002 0.268921
O O15 0.342396 0.261687 0.302881
O O16 0.319451 0.000000 0.243861
O O17 0.250000 0.123467 0.737951
O O18 0.190398 0.234690 0.616098
O O19 0.166607 0.000000 0.710447
O O20 0.887193 0.500000 0.643444
O O21 0.867694 0.282624 0.523892
O O22 0.171599 0.500000 0.566121
#
# Coordination Sequence:
#
# PCOD8210139 Si02
#       8
#     8   8   8   8   8   8   8   8
#     4  11  22  34  53  81 111 144 181 222 269 320
#     4   9  17  32  56  82 106 137 180 225 267 318
#     4   9  18  32  52  77 104 137 176 219 266 315
#     4   9  17  32  51  75 107 139 175 217 264 314
#     4  10  22  39  57  80 112 144 176 221 274 325
#     4  10  20  30  42  66 101 138 173 211 258 315
#     4  11  22  37  58  80 104 139 184 229 269 315
#     4   9  19  33  49  69  95 132 175 217 260 310
#
# _framework density 17.886680999999999
#
# number of rings (size 3 to 8) (size 9 to 14) (size 15 to 20)
#    0.000    2.250    1.250    2.625    0.000    6.750 
#    0.000    3.750    0.000    0.750    0.000    5.250 
#    0.000    0.000    0.000    0.000    0.000    0.000 
#
# Total GULP energy -793047.821223 kJ/mol
# GULP energy per Si atom -12391.372207 kJ/mol
# Density = 1.784597 g / cm^3
# Si number density = 17.886681 Si / 1000 Ang^3
#
#
#
# Elastic Constant Matrix: (Units=GPa)
#
#
# Indices 1 2 3 4 5 6 
#
# 1 74.7116 41.6050 31.5205 0.0000 0.0000 0.0000
# 2 41.6050 81.6179 26.4294 0.0000 0.0000 0.0000
# 3 31.5205 26.4294 58.3938 0.0000 0.0000 0.0000
# 4 0.0000 0.0000 0.0000 5.7405 0.0000 0.0000
# 5 0.0000 0.0000 0.0000 0.0000 23.2914 0.0000
# 6 0.0000 0.0000 0.0000 0.0000 0.0000 30.8494
#
#
#
# Elastic Compliance Matrix: (Units=1/GPa)
#
#
# Indices 1 2 3 4 5 6 
#
# 1 0.021291 -0.008357 -0.007711 0.000000 0.000000 0.000000
# 2 -0.008357 0.017636 -0.003471 0.000000 0.000000 0.000000
# 3 -0.007711 -0.003471 0.022858 0.000000 0.000000 0.000000
# 4 0.000000 0.000000 0.000000 0.174201 0.000000 0.000000
# 5 0.000000 0.000000 0.000000 0.000000 0.042934 0.000000
# 6 0.000000 0.000000 0.000000 0.000000 0.000000 0.032416
#
#
# Mechanical properties :
#
#
# Convention : Reuss Voigt Hill
#
# Bulk Modulus (GPa) = 44.03605 45.98145 45.00875
# Shear Modulus (GPa) = 13.96710 19.65416 16.81063
#
# Velocity S-wave (km/s) = 2.79743 3.31843 3.06901
# Velocity P-wave (km/s) = 5.92512 6.35968 6.14624
#
# Compressibility (1/GPa) = 0.02270867
#
# Stress axis : x y z
#
# Youngs Moduli (GPa) = 46.96716 56.70190 43.74748
#
# Poissons Ratio (x) = 0.47383 0.33733
# Poissons Ratio (y) = 0.39248 0.15187
# Poissons Ratio (z) = 0.36215 0.19684
#
# Static dielectric constant tensor:
#      x y z
#    x 3.268810 0.000000 0.000000 
#    y 0.000000 3.603840 0.000000 
#    z 0.000000 0.000000 3.362920 
# 
# 
# High freq. dielectric constant tensor:
#      x y z
#    x 1.674680 0.000000 0.000000 
#    y 0.000000 1.704130 0.000000 
#    z 0.000000 0.000000 1.678250 
# 
# From -- ./inp_files/26345.got.cif
#   From: 2010.03.12/outbox.cif.g09.slc.cpg/sg51_14_cif.got.tgz:26345.got - 2010.04.16 13:43:02.
