data_PCOD8210027
_publ_section_title
;
Structure prediction by ZEFSAII (Michael W. Deem and Ramdas Pophale) SiO2 
 PCOD8210027
Probable space group: P M M A
;
_chemical_formula_sum "Si O2"
_cell_formula_units_Z 48
_cell_length_a 8.802013
_cell_length_b 10.366199
_cell_length_c 28.312205
_cell_angle_alpha 90.000000
_cell_angle_beta 90.000000
_cell_angle_gamma 90.000000
_cell_volume 2583.302365
_symmetry_space_group_name_H-M "P M M A"
_symmetry_group_IT_number 51
_symmetry_cell_setting 'orthorhombic'
loop_
_space_group_symop_operation_xyz
x,y,z
1/2-x,-y,z
1/2+x,-y,-z
-x,y,-z
-x,-y,-z
1/2+x,y,-z
1/2-x,y,z
x,-y,z
loop_
_atom_site_type_symbol
_atom_site_label
_atom_site_fract_x
_atom_site_fract_y
_atom_site_fract_z
Si Si1 0.928167 0.146413 0.047305
Si Si2 0.930221 0.000000 0.797709
Si Si3 0.069503 0.737705 0.357034
Si Si4 0.930056 0.237801 0.147941
Si Si5 0.569305 0.500000 0.301929
Si Si6 0.429905 0.500000 0.805788
Si Si7 0.573130 0.349371 0.450542
Si Si8 0.929732 0.000000 0.690990
O O1 0.750000 0.148532 0.040643
O O2 0.977351 0.228922 0.092928
O O3 0.987243 0.000000 0.054513
O O4 0.000000 0.207895 0.000000
O O5 0.990466 0.873404 0.822853
O O6 0.750000 0.000000 0.799247
O O7 0.993199 0.000000 0.744232
O O8 0.250000 0.722454 0.355576
O O9 0.994698 0.626495 0.326262
O O10 0.012078 0.731797 0.410632
O O11 0.011970 0.873273 0.336084
O O12 0.750000 0.221622 0.154004
O O13 0.991516 0.373806 0.167385
O O14 0.750000 0.500000 0.306640
O O15 0.512561 0.500000 0.247940
O O16 0.250000 0.500000 0.807217
O O17 0.500000 0.308588 0.500000
O O18 0.750000 0.314397 0.451090
O O19 0.546719 0.500000 0.440185
O O20 0.750000 0.000000 0.692076
#
# Coordination Sequence:
#
# PCOD8210027 Si02
#       8
#     8   4   8   8   4   4   8   4
#     4   9  17  30  50  75 102 133 172 219 267 318
#     4  11  21  35  56  81 108 143 184 227 270 313
#     4  11  21  37  59  81 110 149 185 222 271 319
#     4  10  19  36  56  79 107 140 181 222 268 322
#     4  11  21  35  54  83 112 140 184 228 266 317
#     4   9  20  35  56  79 107 144 180 222 269 319
#     4  10  20  35  57  85 115 141 179 228 270 319
#     4   9  22  39  54  79 114 147 184 225 268 323
#
# _framework density 18.580867000000001
#
# number of rings (size 3 to 8) (size 9 to 14) (size 15 to 20)
#    0.000    2.000    1.667    2.500    0.000    1.333 
#    0.000    6.250    0.000    0.000    0.000    0.000 
#    0.000    0.000    0.000    0.000    0.000    0.000 
#
# Total GULP energy -595298.603160 kJ/mol
# GULP energy per Si atom -12402.054233 kJ/mol
# Density = 1.853858 g / cm^3
# Si number density = 18.580867 Si / 1000 Ang^3
#
#
#
# Elastic Constant Matrix: (Units=GPa)
#
#
# Indices 1 2 3 4 5 6 
#
# 1 62.1966 41.1707 53.8715 0.0000 0.0000 0.0000
# 2 41.1707 147.4783 92.8842 0.0000 0.0000 0.0000
# 3 53.8715 92.8842 194.2336 0.0000 0.0000 0.0000
# 4 0.0000 0.0000 0.0000 18.9361 0.0000 0.0000
# 5 0.0000 0.0000 0.0000 0.0000 31.5249 0.0000
# 6 0.0000 0.0000 0.0000 0.0000 0.0000 -17.6530
#
#
#
# Elastic Compliance Matrix: (Units=1/GPa)
#
#
# Indices 1 2 3 4 5 6 
#
# 1 0.022246 -0.003326 -0.004580 0.000000 0.000000 0.000000
# 2 -0.003326 0.010200 -0.003955 0.000000 0.000000 0.000000
# 3 -0.004580 -0.003955 0.008310 0.000000 0.000000 0.000000
# 4 0.000000 0.000000 0.000000 0.052809 0.000000 0.000000
# 5 0.000000 0.000000 0.000000 0.000000 0.031721 0.000000
# 6 0.000000 0.000000 0.000000 0.000000 0.000000 -0.056648
#
#
# Mechanical properties :
#
#
# Convention : Reuss Voigt Hill
#
# Bulk Modulus (GPa) = 58.70370 86.64014 72.67192
# Shear Modulus (GPa) = 50.99978 20.96040 35.98009
#
# Velocity S-wave (km/s) = 5.24472 3.36231 4.40523
# Velocity P-wave (km/s) = 8.26670 7.86151 8.06665
#
# Compressibility (1/GPa) = 0.01703470
#
# Stress axis : x y z
#
# Youngs Moduli (GPa) = 44.95123 98.03579 120.33558
#
# Poissons Ratio (x) = 0.32608 0.55108
# Poissons Ratio (y) = 0.14951 0.47597
# Poissons Ratio (z) = 0.20586 0.38777
#
# Static dielectric constant tensor:
#      x y z
#    x 3.296560 0.000000 0.000000 
#    y 0.000000 3.952030 0.000000 
#    z 0.000000 0.000000 3.717950 
# 
# 
# High freq. dielectric constant tensor:
#      x y z
#    x 1.710800 0.000000 0.000000 
#    y 0.000000 1.707680 0.000000 
#    z 0.000000 0.000000 1.741190 
# 
# From -- ./inp_files/37277.got.cif
#   From: 2010.03.12/outbox.cif.g09.slc.cpg/sg51_19_cif.got.tgz:37277.got - 2010.04.16 13:43:02.
