data_PCOD8210112
_publ_section_title
;
Structure prediction by ZEFSAII (Michael W. Deem and Ramdas Pophale) SiO2 
 PCOD8210112
Probable space group: P M M A
;
_chemical_formula_sum "Si O2"
_cell_formula_units_Z 36
_cell_length_a 14.219892
_cell_length_b 13.774776
_cell_length_c 8.407237
_cell_angle_alpha 90.000000
_cell_angle_beta 90.000000
_cell_angle_gamma 90.000000
_cell_volume 1646.774501
_symmetry_space_group_name_H-M "P M M A"
_symmetry_group_IT_number 51
_symmetry_cell_setting 'orthorhombic'
loop_
_space_group_symop_operation_xyz
x,y,z
1/2-x,-y,z
1/2+x,-y,-z
-x,y,-z
-x,-y,-z
1/2+x,y,-z
1/2-x,y,z
x,-y,z
loop_
_atom_site_type_symbol
_atom_site_label
_atom_site_fract_x
_atom_site_fract_y
_atom_site_fract_z
Si Si1 0.392511 0.390524 0.956033
Si Si2 0.638503 0.892546 0.930962
Si Si3 0.641839 0.790342 0.246194
Si Si4 0.000000 0.258085 0.500000
Si Si5 0.352858 0.289470 0.264287
O O1 0.365844 0.500000 0.907663
O O2 0.337851 0.361050 0.116198
O O3 0.500000 0.377842 0.000000
O O4 0.363141 0.322175 0.809646
O O5 0.750000 0.892560 0.942494
O O6 0.609314 0.816266 0.794775
O O7 0.598852 0.000000 0.892288
O O8 0.601258 0.857725 0.103758
O O9 0.750000 0.816311 0.290493
O O10 0.573871 0.806910 0.397983
O O11 0.933520 0.325387 0.612923
O O12 0.250000 0.281455 0.347901
#
# Coordination Sequence:
#
# PCOD8210112 Si02
#       5
#     8   8   8   4   8
#     4  10  19  37  63  85 108 140 184 237 279 317
#     4   8  16  35  61  84 107 140 187 236 275 318
#     4  10  21  37  59  83 110 149 186 224 278 327
#     4  12  22  38  54  78 124 150 180 228 268 334
#     4  10  21  37  59  83 110 149 186 224 278 327
#
# _framework density 21.860916
#
# number of rings (size 3 to 8) (size 9 to 14) (size 15 to 20)
#    0.000    2.222    2.222    2.667    0.000    1.778 
#    0.000    6.667    0.000    8.000    0.000    0.000 
#    0.000    0.000    0.000    0.000    0.000    0.000 
#
# Total GULP energy -446133.488632 kJ/mol
# GULP energy per Si atom -12392.596906 kJ/mol
# Density = 2.181116 g / cm^3
# Si number density = 21.860916 Si / 1000 Ang^3
#
#
#
# Elastic Constant Matrix: (Units=GPa)
#
#
# Indices 1 2 3 4 5 6 
#
# 1 110.8178 1.9498 42.4268 0.0000 0.0000 0.0000
# 2 1.9498 103.8198 11.8843 0.0000 0.0000 0.0000
# 3 42.4268 11.8843 93.4506 0.0000 0.0000 0.0000
# 4 0.0000 0.0000 0.0000 8.2442 0.0000 0.0000
# 5 0.0000 0.0000 0.0000 0.0000 39.7813 0.0000
# 6 0.0000 0.0000 0.0000 0.0000 0.0000 29.4888
#
#
#
# Elastic Compliance Matrix: (Units=1/GPa)
#
#
# Indices 1 2 3 4 5 6 
#
# 1 0.010936 0.000368 -0.005012 0.000000 0.000000 0.000000
# 2 0.000368 0.009787 -0.001412 0.000000 0.000000 0.000000
# 3 -0.005012 -0.001412 0.013156 0.000000 0.000000 0.000000
# 4 0.000000 0.000000 0.000000 0.121297 0.000000 0.000000
# 5 0.000000 0.000000 0.000000 0.000000 0.025137 0.000000
# 6 0.000000 0.000000 0.000000 0.000000 0.000000 0.033911
#
#
# Mechanical properties :
#
#
# Convention : Reuss Voigt Hill
#
# Bulk Modulus (GPa) = 45.93910 46.73445 46.33677
# Shear Modulus (GPa) = 21.40492 32.29134 26.84813
#
# Velocity S-wave (km/s) = 3.13252 3.84751 3.50828
# Velocity P-wave (km/s) = 5.84324 6.41578 6.13619
#
# Compressibility (1/GPa) = 0.02176795
#
# Stress axis : x y z
#
# Youngs Moduli (GPa) = 91.43990 102.17881 76.01219
#
# Poissons Ratio (x) = -0.03763 0.38096
# Poissons Ratio (y) = -0.03368 0.10732
# Poissons Ratio (z) = 0.45829 0.14426
#
# Static dielectric constant tensor:
#      x y z
#    x 4.109930 0.000000 0.000000 
#    y 0.000000 3.896700 0.000000 
#    z 0.000000 0.000000 3.830160 
# 
# 
# High freq. dielectric constant tensor:
#      x y z
#    x 1.885770 0.000000 0.000000 
#    y 0.000000 1.815640 0.000000 
#    z 0.000000 0.000000 1.839490 
# 
# From -- ./inp_files/7796.got.cif
#   From: 2010.03.12/outbox.cif.g09.slc.cpg/sg51_4_cif.got.tgz:7796.got - 2010.04.16 13:43:02.
