data_PCOD8210226
_publ_section_title
;
Structure prediction by ZEFSAII (Michael W. Deem and Ramdas Pophale) SiO2 
 PCOD8210226
Probable space group: P M M A
;
_chemical_formula_sum "Si O2"
_cell_formula_units_Z 48
_cell_length_a 9.237594
_cell_length_b 7.932372
_cell_length_c 34.286759
_cell_angle_alpha 90.000000
_cell_angle_beta 90.000000
_cell_angle_gamma 90.000000
_cell_volume 2512.397649
_symmetry_space_group_name_H-M "P M M A"
_symmetry_group_IT_number 51
_symmetry_cell_setting 'orthorhombic'
loop_
_space_group_symop_operation_xyz
x,y,z
1/2-x,-y,z
1/2+x,-y,-z
-x,y,-z
-x,-y,-z
1/2+x,y,-z
1/2-x,y,z
x,-y,z
loop_
_atom_site_type_symbol
_atom_site_label
_atom_site_fract_x
_atom_site_fract_y
_atom_site_fract_z
Si Si1 0.584741 0.307535 0.327535
Si Si2 0.410552 0.806963 0.753110
Si Si3 0.919499 0.000000 0.040532
Si Si4 0.078334 0.186182 0.592063
Si Si5 0.085559 0.696782 0.173778
Si Si6 0.581112 0.692909 0.095621
Si Si7 0.922817 0.500000 0.458913
O O1 0.750000 0.248861 0.321866
O O2 0.572528 0.500000 0.340017
O O3 0.512342 0.276475 0.285101
O O4 0.514190 0.206680 0.363930
O O5 0.250000 0.728492 0.761668
O O6 0.511672 0.788581 0.790296
O O7 0.393642 0.000000 0.742803
O O8 0.964864 0.828359 0.062948
O O9 0.750000 0.000000 0.032373
O O10 0.000000 0.000000 0.000000
O O11 0.250000 0.206243 0.595069
O O12 0.020970 0.332315 0.563490
O O13 0.034166 0.000000 0.576270
O O14 0.250000 0.759702 0.170029
O O15 0.076282 0.500000 0.181846
O O16 0.004363 0.745213 0.134201
O O17 0.750000 0.708711 0.105298
O O18 0.543091 0.500000 0.082347
O O19 0.750000 0.500000 0.464157
O O20 0.000000 0.500000 0.500000
#
# Coordination Sequence:
#
# PCOD8210226 Si02
#       7
#     8   8   4   8   8   8   4
#     4   9  15  26  46  72 101 132 170 215 261 307
#     4  10  20  31  47  75 107 138 173 216 264 314
#     4  10  22  38  58  86 114 142 180 224 274 332
#     4   9  16  28  48  74 103 133 168 213 262 311
#     4  10  21  36  53  75 104 140 182 224 270 321
#     4   9  19  37  59  81 109 145 183 226 272 319
#     4  10  20  34  52  76 104 134 170 214 264 316
#
# _framework density 19.105255
#
# number of rings (size 3 to 8) (size 9 to 14) (size 15 to 20)
#    0.000    2.500    0.833    1.500    1.167    5.333 
#    0.000    0.000    0.000    1.000    0.000    0.000 
#    0.000    0.000    0.000    0.000    0.000    0.000 
#
# Total GULP energy -594945.806322 kJ/mol
# GULP energy per Si atom -12394.704298 kJ/mol
# Density = 1.906177 g / cm^3
# Si number density = 19.105255 Si / 1000 Ang^3
#
#
#
# Elastic Constant Matrix: (Units=GPa)
#
#
# Indices 1 2 3 4 5 6 
#
# 1 44.6098 26.6994 44.6170 0.0000 0.0000 0.0000
# 2 26.6994 119.6922 77.4313 0.0000 0.0000 0.0000
# 3 44.6170 77.4313 160.9728 0.0000 0.0000 0.0000
# 4 0.0000 0.0000 0.0000 30.1587 0.0000 0.0000
# 5 0.0000 0.0000 0.0000 0.0000 23.3784 0.0000
# 6 0.0000 0.0000 0.0000 0.0000 0.0000 12.5481
#
#
#
# Elastic Compliance Matrix: (Units=1/GPa)
#
#
# Indices 1 2 3 4 5 6 
#
# 1 0.031338 -0.001991 -0.007728 0.000000 0.000000 0.000000
# 2 -0.001991 0.012256 -0.005343 0.000000 0.000000 0.000000
# 3 -0.007728 -0.005343 0.010925 0.000000 0.000000 0.000000
# 4 0.000000 0.000000 0.000000 0.033158 0.000000 0.000000
# 5 0.000000 0.000000 0.000000 0.000000 0.042774 0.000000
# 6 0.000000 0.000000 0.000000 0.000000 0.000000 0.079693
#
#
# Mechanical properties :
#
#
# Convention : Reuss Voigt Hill
#
# Bulk Modulus (GPa) = 40.99563 69.19669 55.09616
# Shear Modulus (GPa) = 20.12886 24.98552 22.55719
#
# Velocity S-wave (km/s) = 3.24941 3.62025 3.43983
# Velocity P-wave (km/s) = 5.96511 7.33296 6.68412
#
# Compressibility (1/GPa) = 0.02439285
#
# Stress axis : x y z
#
# Youngs Moduli (GPa) = 31.91049 81.59527 91.53669
#
# Poissons Ratio (x) = 0.16244 0.70742
# Poissons Ratio (y) = 0.06353 0.48912
# Poissons Ratio (z) = 0.24661 0.43600
#
# Static dielectric constant tensor:
#      x y z
#    x 3.106150 0.000000 0.000000 
#    y 0.000000 3.698500 0.000000 
#    z 0.000000 0.000000 3.468950 
# 
# 
# High freq. dielectric constant tensor:
#      x y z
#    x 1.690050 0.000000 0.000000 
#    y 0.000000 1.756010 0.000000 
#    z 0.000000 0.000000 1.747370 
# 
# From -- ./inp_files/37175.got.cif
#   From: 2010.03.12/outbox.cif.g09.slc.cpg/sg51_19_cif.got.tgz:37175.got - 2010.04.16 13:43:02.
