data_PCOD8210124
_publ_section_title
;
Structure prediction by ZEFSAII (Michael W. Deem and Ramdas Pophale) SiO2 
 PCOD8210124
Probable space group: P M M A
;
_chemical_formula_sum "Si O2"
_cell_formula_units_Z 56
_cell_length_a 9.177046
_cell_length_b 20.684776
_cell_length_c 14.410674
_cell_angle_alpha 90.000000
_cell_angle_beta 90.000000
_cell_angle_gamma 90.000000
_cell_volume 2735.508222
_symmetry_space_group_name_H-M "P M M A"
_symmetry_group_IT_number 51
_symmetry_cell_setting 'orthorhombic'
loop_
_space_group_symop_operation_xyz
x,y,z
1/2-x,-y,z
1/2+x,-y,-z
-x,y,-z
-x,-y,-z
1/2+x,y,-z
1/2-x,y,z
x,-y,z
loop_
_atom_site_type_symbol
_atom_site_label
_atom_site_fract_x
_atom_site_fract_y
_atom_site_fract_z
Si Si1 0.411582 0.779739 0.767082
Si Si2 0.078962 0.140199 0.592801
Si Si3 0.910570 0.878886 0.076749
Si Si4 0.080168 0.000000 0.668192
Si Si5 0.577744 0.000000 0.860070
Si Si6 0.417499 0.573347 0.229571
Si Si7 0.415096 0.576997 0.589703
Si Si8 0.419380 0.313054 0.098026
O O1 0.250000 0.747838 0.755447
O O2 0.474552 0.807914 0.670539
O O3 0.393074 0.843777 0.826989
O O4 0.520600 0.731671 0.819035
O O5 0.250000 0.147659 0.580235
O O6 0.000000 0.162491 0.500000
O O7 0.040070 0.065097 0.612187
O O8 0.750000 0.898803 0.040764
O O9 0.017364 0.938970 0.085966
O O10 0.000000 0.835421 0.000000
O O11 0.979659 0.000000 0.756531
O O12 0.250000 0.000000 0.698131
O O13 0.750000 0.000000 0.858640
O O14 0.250000 0.576479 0.261559
O O15 0.464938 0.500000 0.206508
O O16 0.510878 0.602118 0.315339
O O17 0.442700 0.614142 0.135760
O O18 0.500000 0.604792 0.500000
O O19 0.250000 0.602752 0.586462
O O20 0.421129 0.500000 0.588237
O O21 0.250000 0.296765 0.081761
O O22 0.500000 0.304719 0.000000
#
# Coordination Sequence:
#
# PCOD8210124 Si02
#       8
#     8   8   8   4   4   8   8   8
#     4  10  22  41  63  84 113 153 195 240 289 344
#     4  10  21  38  62  90 120 156 195 241 294 346
#     4  11  22  38  57  79 111 149 191 238 291 345
#     4  10  19  38  60  83 120 159 196 241 296 351
#     4  12  23  34  53  83 114 149 193 239 290 343
#     4   9  19  37  59  85 119 157 197 242 294 353
#     4   9  16  27  48  80 116 153 190 229 276 331
#     4  11  24  41  63  89 117 151 193 242 296 355
#
# _framework density 20.471516000000001
#
# number of rings (size 3 to 8) (size 9 to 14) (size 15 to 20)
#    0.000    1.857    1.429    2.786    0.000    6.571 
#    0.000    0.714    0.000    1.714    0.000    0.000 
#    0.000    0.000    0.000    0.000    0.000    0.000 
#
# Total GULP energy -694144.647834 kJ/mol
# GULP energy per Si atom -12395.440140 kJ/mol
# Density = 2.042492 g / cm^3
# Si number density = 20.471516 Si / 1000 Ang^3
#
#
#
# Elastic Constant Matrix: (Units=GPa)
#
#
# Indices 1 2 3 4 5 6 
#
# 1 130.0750 39.1211 71.5564 0.0000 0.0000 0.0000
# 2 39.1211 68.0355 45.2372 0.0000 0.0000 0.0000
# 3 71.5564 45.2372 153.8970 0.0000 0.0000 0.0000
# 4 0.0000 0.0000 0.0000 16.2432 0.0000 0.0000
# 5 0.0000 0.0000 0.0000 0.0000 40.8588 0.0000
# 6 0.0000 0.0000 0.0000 0.0000 0.0000 21.0193
#
#
#
# Elastic Compliance Matrix: (Units=1/GPa)
#
#
# Indices 1 2 3 4 5 6 
#
# 1 0.011010 -0.003638 -0.004050 0.000000 0.000000 0.000000
# 2 -0.003638 0.019471 -0.004032 0.000000 0.000000 0.000000
# 3 -0.004050 -0.004032 0.009566 0.000000 0.000000 0.000000
# 4 0.000000 0.000000 0.000000 0.061564 0.000000 0.000000
# 5 0.000000 0.000000 0.000000 0.000000 0.024475 0.000000
# 6 0.000000 0.000000 0.000000 0.000000 0.000000 0.047575
#
#
# Mechanical properties :
#
#
# Convention : Reuss Voigt Hill
#
# Bulk Modulus (GPa) = 60.21396 73.75967 66.98681
# Shear Modulus (GPa) = 24.67478 28.69711 26.68595
#
# Velocity S-wave (km/s) = 3.47554 3.74813 3.61441
# Velocity P-wave (km/s) = 6.75154 7.40540 7.08601
#
# Compressibility (1/GPa) = 0.01660745
#
# Stress axis : x y z
#
# Youngs Moduli (GPa) = 90.82713 51.35870 104.53699
#
# Poissons Ratio (x) = 0.18685 0.42336
# Poissons Ratio (y) = 0.33044 0.42147
# Poissons Ratio (z) = 0.36783 0.20707
#
# Static dielectric constant tensor:
#      x y z
#    x 3.779000 0.000000 0.000000 
#    y 0.000000 3.638120 0.000000 
#    z 0.000000 0.000000 3.908660 
# 
# 
# High freq. dielectric constant tensor:
#      x y z
#    x 1.803620 0.000000 0.000000 
#    y 0.000000 1.779700 0.000000 
#    z 0.000000 0.000000 1.809660 
# 
# From -- ./inp_files/21935.got.cif
#   From: 2010.03.12/outbox.cif.g09.slc.cpg/sg51_11_cif.got.tgz:21935.got - 2010.04.16 13:43:02.
