data_PCOD8210173
_publ_section_title
;
Structure prediction by ZEFSAII (Michael W. Deem and Ramdas Pophale) SiO2 
 PCOD8210173
Probable space group: P M M A
;
_chemical_formula_sum "Si O2"
_cell_formula_units_Z 48
_cell_length_a 9.350419
_cell_length_b 17.221591
_cell_length_c 18.065398
_cell_angle_alpha 90.000000
_cell_angle_beta 90.000000
_cell_angle_gamma 90.000000
_cell_volume 2909.054631
_symmetry_space_group_name_H-M "P M M A"
_symmetry_group_IT_number 51
_symmetry_cell_setting 'orthorhombic'
loop_
_space_group_symop_operation_xyz
x,y,z
1/2-x,-y,z
1/2+x,-y,-z
-x,y,-z
-x,-y,-z
1/2+x,y,-z
1/2-x,y,z
x,-y,z
loop_
_atom_site_type_symbol
_atom_site_label
_atom_site_fract_x
_atom_site_fract_y
_atom_site_fract_z
Si Si1 0.590273 0.089913 0.835399
Si Si2 0.593218 0.313431 0.184214
Si Si3 0.084785 0.088103 0.573039
Si Si4 0.414199 0.591590 0.073676
Si Si5 0.907521 0.181299 0.064460
Si Si6 0.083660 0.819626 0.717009
O O1 0.750000 0.124369 0.845935
O O2 0.496141 0.106218 0.908630
O O3 0.518987 0.126793 0.764134
O O4 0.597214 0.000000 0.820820
O O5 0.750000 0.354429 0.189461
O O6 0.478672 0.373045 0.149881
O O7 0.604706 0.240281 0.131005
O O8 0.551919 0.272709 0.263599
O O9 0.250000 0.090449 0.552152
O O10 0.049471 0.155362 0.632999
O O11 0.000000 0.111533 0.500000
O O12 0.043928 0.000000 0.599952
O O13 0.250000 0.619104 0.064514
O O14 0.424136 0.500000 0.083248
O O15 0.500000 0.618142 0.000000
O O16 0.750000 0.156670 0.036512
O O17 0.000000 0.221905 0.000000
O O18 0.250000 0.837550 0.735589
#
# Coordination Sequence:
#
# PCOD8210173 Si02
#       6
#     8   8   8   8   8   8
#     4  10  20  31  43  60  80 105 141 183 224 264
#     4   9  18  31  47  66  86 112 146 181 218 262
#     4   9  17  29  46  68  94 123 153 186 224 266
#     4  10  20  32  47  68  93 121 151 183 222 268
#     4  10  20  32  45  60  79 106 141 180 222 265
#     4   9  18  32  48  65  87 117 150 182 220 266
#
# _framework density 16.500205999999999
#
# number of rings (size 3 to 8) (size 9 to 14) (size 15 to 20)
#    0.000    2.500    0.000    3.500    0.000    8.667 
#    0.000    1.667    0.000    0.000    0.000    0.000 
#    0.000    0.667    0.000    1.500    0.000    2.667 
#
# Total GULP energy -594714.438519 kJ/mol
# GULP energy per Si atom -12389.884136 kJ/mol
# Density = 1.646265 g / cm^3
# Si number density = 16.500206 Si / 1000 Ang^3
#
#
#
# Elastic Constant Matrix: (Units=GPa)
#
#
# Indices 1 2 3 4 5 6 
#
# 1 111.9028 32.8050 42.2694 0.0000 0.0000 0.0000
# 2 32.8050 45.6772 28.8473 0.0000 0.0000 0.0000
# 3 42.2694 28.8473 78.5277 0.0000 0.0000 0.0000
# 4 0.0000 0.0000 0.0000 27.0024 0.0000 0.0000
# 5 0.0000 0.0000 0.0000 0.0000 25.7168 0.0000
# 6 0.0000 0.0000 0.0000 0.0000 0.0000 23.1411
#
#
#
# Elastic Compliance Matrix: (Units=1/GPa)
#
#
# Indices 1 2 3 4 5 6 
#
# 1 0.012401 -0.006107 -0.004431 0.000000 0.000000 0.000000
# 2 -0.006107 0.031514 -0.008289 0.000000 0.000000 0.000000
# 3 -0.004431 -0.008289 0.018165 0.000000 0.000000 0.000000
# 4 0.000000 0.000000 0.000000 0.037034 0.000000 0.000000
# 5 0.000000 0.000000 0.000000 0.000000 0.038885 0.000000
# 6 0.000000 0.000000 0.000000 0.000000 0.000000 0.043213
#
#
# Mechanical properties :
#
#
# Convention : Reuss Voigt Hill
#
# Bulk Modulus (GPa) = 40.94445 49.32789 45.13617
# Shear Modulus (GPa) = 22.02556 23.98446 23.00501
#
# Velocity S-wave (km/s) = 3.65755 3.81673 3.73798
# Velocity P-wave (km/s) = 6.53492 7.02733 6.78560
#
# Compressibility (1/GPa) = 0.02442334
#
# Stress axis : x y z
#
# Youngs Moduli (GPa) = 80.64103 31.73170 55.05167
#
# Poissons Ratio (x) = 0.19380 0.24395
# Poissons Ratio (y) = 0.49251 0.45634
# Poissons Ratio (z) = 0.35735 0.26303
#
# Static dielectric constant tensor:
#      x y z
#    x 3.400600 0.000000 0.000000 
#    y 0.000000 2.983460 0.000000 
#    z 0.000000 0.000000 3.146690 
# 
# 
# High freq. dielectric constant tensor:
#      x y z
#    x 1.651170 0.000000 0.000000 
#    y 0.000000 1.606560 0.000000 
#    z 0.000000 0.000000 1.608540 
# 
# From -- ./inp_files/27838.got.cif
#   From: 2010.03.12/outbox.cif.g09.slc.cpg/sg51_14_cif.got.tgz:27838.got - 2010.04.16 13:43:02.
