data_PCOD8210532
_publ_section_title
;
Structure prediction by ZEFSAII (Michael W. Deem and Ramdas Pophale) SiO2 
 PCOD8210532
Probable space group: P M M A
;
_chemical_formula_sum "Si O2"
_cell_formula_units_Z 64
_cell_length_a 15.478365
_cell_length_b 8.973420
_cell_length_c 24.382016
_cell_angle_alpha 90.000000
_cell_angle_beta 90.000000
_cell_angle_gamma 90.000000
_cell_volume 3386.512562
_symmetry_space_group_name_H-M "P M M A"
_symmetry_group_IT_number 51
_symmetry_cell_setting 'orthorhombic'
loop_
_space_group_symop_operation_xyz
x,y,z
1/2-x,-y,z
1/2+x,-y,-z
-x,y,-z
-x,-y,-z
1/2+x,y,-z
1/2-x,y,z
x,-y,z
loop_
_atom_site_type_symbol
_atom_site_label
_atom_site_fract_x
_atom_site_fract_y
_atom_site_fract_z
Si Si1 0.653137 0.177368 0.888275
Si Si2 0.655112 0.176968 0.382535
Si Si3 0.351928 0.835720 0.990981
Si Si4 0.344819 0.176848 0.384331
Si Si5 0.149501 0.325605 0.882853
Si Si6 0.996334 0.177356 0.186013
Si Si7 0.597793 0.177104 0.499201
Si Si8 0.001180 0.177659 0.310248
O O1 0.750000 0.239568 0.874381
O O2 0.581956 0.237217 0.845372
O O3 0.657350 0.000000 0.887051
O O4 0.621806 0.228229 0.949146
O O5 0.750000 0.225344 0.361689
O O6 0.641776 0.240947 0.444044
O O7 0.584365 0.241060 0.340319
O O8 0.645932 0.000000 0.384723
O O9 0.250000 0.851941 0.990518
O O10 0.382689 0.725129 0.943170
O O11 0.393193 0.000000 0.980768
O O12 0.250000 0.223520 0.362972
O O13 0.356826 0.240342 0.445996
O O14 0.415663 0.242291 0.342500
O O15 0.355208 0.000000 0.386381
O O16 0.250000 0.282887 0.873123
O O17 0.134590 0.500000 0.877721
O O18 0.092008 0.242940 0.837921
O O19 0.003845 0.235686 0.248156
O O20 0.990461 0.000000 0.182515
O O21 0.500000 0.232395 0.500000
O O22 0.603667 0.000000 0.498861
O O23 0.001678 0.000000 0.311039
#
# Coordination Sequence:
#
# PCOD8210532 Si02
#       8
#     8   8   8   8   8   8   8   8
#     4   8  15  29  49  73  99 126 157 193 234 282
#     4   9  15  22  32  46  68 102 142 183 226 268
#     4   8  14  28  51  74  95 121 154 192 234 283
#     4   9  15  22  33  50  74 107 147 189 233 278
#     4  10  21  36  52  71  97 126 155 193 241 288
#     4  10  20  32  49  71  95 127 165 200 235 279
#     4   9  13  19  31  45  68 103 142 184 226 273
#     4   9  17  27  36  53  80 109 147 192 229 263
#
# _framework density 18.898496000000002
#
# number of rings (size 3 to 8) (size 9 to 14) (size 15 to 20)
#    0.000    3.000    1.250    1.500    0.000    3.750 
#    0.000    6.875    0.000    1.125    0.000    0.000 
#    0.000    0.000    0.000    2.250    0.000    7.250 
#
# Total GULP energy -793155.880376 kJ/mol
# GULP energy per Si atom -12393.060631 kJ/mol
# Density = 1.885548 g / cm^3
# Si number density = 18.898496 Si / 1000 Ang^3
#
#
#
# Elastic Constant Matrix: (Units=GPa)
#
#
# Indices 1 2 3 4 5 6 
#
# 1 141.8477 16.3130 88.7421 0.0000 0.0000 0.0000
# 2 16.3130 17.5787 18.8377 0.0000 0.0000 0.0000
# 3 88.7421 18.8377 173.0929 0.0000 0.0000 0.0000
# 4 0.0000 0.0000 0.0000 -1.1596 0.0000 0.0000
# 5 0.0000 0.0000 0.0000 0.0000 24.3484 0.0000
# 6 0.0000 0.0000 0.0000 0.0000 0.0000 8.8707
#
#
#
# Elastic Compliance Matrix: (Units=1/GPa)
#
#
# Indices 1 2 3 4 5 6 
#
# 1 0.010695 -0.004584 -0.004984 0.000000 0.000000 0.000000
# 2 -0.004584 0.066362 -0.004872 0.000000 0.000000 0.000000
# 3 -0.004984 -0.004872 0.008863 0.000000 0.000000 0.000000
# 4 0.000000 0.000000 0.000000 -0.862362 0.000000 0.000000
# 5 0.000000 0.000000 0.000000 0.000000 0.041070 0.000000
# 6 0.000000 0.000000 0.000000 0.000000 0.000000 0.112730
#
#
# Mechanical properties :
#
#
# Convention : Reuss Voigt Hill
#
# Bulk Modulus (GPa) = 17.53178 64.47832 41.00505
# Shear Modulus (GPa) = -8.69947 20.32034 5.81043
#
# Velocity S-wave (km/s) = -2.14785 3.28264 1.75534
# Velocity P-wave (km/s) = 1.77368 6.96849 5.08458
#
# Compressibility (1/GPa) = 0.05703927
#
# Stress axis : x y z
#
# Youngs Moduli (GPa) = 93.49869 15.06893 112.82923
#
# Poissons Ratio (x) = 0.06907 0.56240
# Poissons Ratio (y) = 0.42857 0.54972
# Poissons Ratio (z) = 0.46604 0.07342
#
# Static dielectric constant tensor:
#      x y z
#    x 3.622360 0.000000 0.000000 
#    y 0.000000 2.708740 0.000000 
#    z 0.000000 0.000000 3.752790 
# 
# 
# High freq. dielectric constant tensor:
#      x y z
#    x 1.743520 0.000000 0.000000 
#    y 0.000000 1.647670 0.000000 
#    z 0.000000 0.000000 1.740050 
# 
# From -- ./inp_files/35819.got.cif
#   From: 2010.03.12/outbox.cif.g09.slc.cpg/sg51_18_cif.got.tgz:35819.got - 2010.04.16 13:43:02.
