data_PCOD8210485
_publ_section_title
;
Structure prediction by ZEFSAII (Michael W. Deem and Ramdas Pophale) SiO2 
 PCOD8210485
Probable space group: P M M A
;
_chemical_formula_sum "Si O2"
_cell_formula_units_Z 48
_cell_length_a 15.065925
_cell_length_b 9.293487
_cell_length_c 18.668902
_cell_angle_alpha 90.000000
_cell_angle_beta 90.000000
_cell_angle_gamma 90.000000
_cell_volume 2613.925905
_symmetry_space_group_name_H-M "P M M A"
_symmetry_group_IT_number 51
_symmetry_cell_setting 'orthorhombic'
loop_
_space_group_symop_operation_xyz
x,y,z
1/2-x,-y,z
1/2+x,-y,-z
-x,y,-z
-x,-y,-z
1/2+x,y,-z
1/2-x,y,z
x,-y,z
loop_
_atom_site_type_symbol
_atom_site_label
_atom_site_fract_x
_atom_site_fract_y
_atom_site_fract_z
Si Si1 0.001654 0.667301 0.668427
Si Si2 0.147436 0.168608 0.585916
Si Si3 0.851176 0.333835 0.557555
Si Si4 0.403943 0.657766 0.034942
Si Si5 0.502974 0.332360 0.168766
Si Si6 0.849376 0.162097 0.090507
O O1 0.025899 0.500000 0.658843
O O2 0.915409 0.709774 0.622411
O O3 0.087025 0.760343 0.646776
O O4 0.977056 0.704760 0.750112
O O5 0.250000 0.200007 0.604874
O O6 0.121717 0.237846 0.509994
O O7 0.127756 0.000000 0.581815
O O8 0.750000 0.303210 0.581685
O O9 0.863836 0.500000 0.535579
O O10 0.358007 0.500000 0.033172
O O11 0.419349 0.709009 0.117430
O O12 0.500000 0.647739 0.000000
O O13 0.346778 0.770154 0.989502
O O14 0.525587 0.500000 0.158695
O O15 0.590963 0.246886 0.146872
O O16 0.750000 0.164765 0.121371
O O17 0.885523 0.000000 0.083712
#
# Coordination Sequence:
#
# PCOD8210485 Si02
#       6
#     8   8   8   8   8   8
#     4  10  20  34  53  77 104 134 168 207 253 304
#     4  10  21  35  51  74 104 136 171 211 252 297
#     4   9  18  34  55  76  99 130 169 212 256 302
#     4   8  15  30  50  69  90 119 156 194 232 279
#     4   9  19  34  50  71  99 128 160 199 244 295
#     4  10  20  32  48  72  99 127 162 202 242 288
#
# _framework density 18.363184
#
# number of rings (size 3 to 8) (size 9 to 14) (size 15 to 20)
#    0.000    2.667    0.000    2.500    0.000    9.333 
#    0.000    4.167    0.000    3.000    0.000    2.333 
#    0.000    0.000    0.000    0.000    0.000    0.000 
#
# Total GULP energy -595109.237815 kJ/mol
# GULP energy per Si atom -12398.109121 kJ/mol
# Density = 1.832139 g / cm^3
# Si number density = 18.363184 Si / 1000 Ang^3
#
#
#
# Elastic Constant Matrix: (Units=GPa)
#
#
# Indices 1 2 3 4 5 6 
#
# 1 48.3059 22.3897 25.0279 0.0000 0.0000 0.0000
# 2 22.3897 70.0365 33.5522 0.0000 0.0000 0.0000
# 3 25.0279 33.5522 112.6912 0.0000 0.0000 0.0000
# 4 0.0000 0.0000 0.0000 8.1889 0.0000 0.0000
# 5 0.0000 0.0000 0.0000 0.0000 19.7285 0.0000
# 6 0.0000 0.0000 0.0000 0.0000 0.0000 25.7341
#
#
#
# Elastic Compliance Matrix: (Units=1/GPa)
#
#
# Indices 1 2 3 4 5 6 
#
# 1 0.025621 -0.006374 -0.003792 0.000000 0.000000 0.000000
# 2 -0.006374 0.018239 -0.004015 0.000000 0.000000 0.000000
# 3 -0.003792 -0.004015 0.010911 0.000000 0.000000 0.000000
# 4 0.000000 0.000000 0.000000 0.122117 0.000000 0.000000
# 5 0.000000 0.000000 0.000000 0.000000 0.050688 0.000000
# 6 0.000000 0.000000 0.000000 0.000000 0.000000 0.038859
#
#
# Mechanical properties :
#
#
# Convention : Reuss Voigt Hill
#
# Bulk Modulus (GPa) = 37.86569 43.66367 40.76468
# Shear Modulus (GPa) = 16.46903 20.73455 18.60179
#
# Velocity S-wave (km/s) = 2.99800 3.36391 3.18621
# Velocity P-wave (km/s) = 5.71395 6.23837 5.98191
#
# Compressibility (1/GPa) = 0.02640914
#
# Stress axis : x y z
#
# Youngs Moduli (GPa) = 39.03120 54.82671 91.64662
#
# Poissons Ratio (x) = 0.34945 0.34757
# Poissons Ratio (y) = 0.24877 0.36796
# Poissons Ratio (z) = 0.14802 0.22013
#
# Static dielectric constant tensor:
#      x y z
#    x 3.288870 0.000000 0.000000 
#    y 0.000000 3.421160 0.000000 
#    z 0.000000 0.000000 3.605920 
# 
# 
# High freq. dielectric constant tensor:
#      x y z
#    x 1.697970 0.000000 0.000000 
#    y 0.000000 1.710070 0.000000 
#    z 0.000000 0.000000 1.707870 
# 
# From -- ./inp_files/29465.got.cif
#   From: 2010.03.12/outbox.cif.g09.slc.cpg/sg51_15_cif.got.tgz:29465.got - 2010.04.16 13:43:02.
