data_PCOD8210076
_publ_section_title
;
Structure prediction by ZEFSAII (Michael W. Deem and Ramdas Pophale) SiO2 
 PCOD8210076
Probable space group: P M M A
;
_chemical_formula_sum "Si O2"
_cell_formula_units_Z 48
_cell_length_a 18.172960
_cell_length_b 14.037058
_cell_length_c 9.875875
_cell_angle_alpha 90.000000
_cell_angle_beta 90.000000
_cell_angle_gamma 90.000000
_cell_volume 2519.285282
_symmetry_space_group_name_H-M "P M M A"
_symmetry_group_IT_number 51
_symmetry_cell_setting 'orthorhombic'
loop_
_space_group_symop_operation_xyz
x,y,z
1/2-x,-y,z
1/2+x,-y,-z
-x,y,-z
-x,-y,-z
1/2+x,y,-z
1/2-x,y,z
x,-y,z
loop_
_atom_site_type_symbol
_atom_site_label
_atom_site_fract_x
_atom_site_fract_y
_atom_site_fract_z
Si Si1 0.163721 0.796749 0.494916
Si Si2 0.580283 0.500000 0.153375
Si Si3 0.417418 0.820678 0.982965
Si Si4 0.575242 0.302446 0.277030
Si Si5 0.663516 0.000000 0.094219
Si Si6 0.837004 0.000000 0.400705
Si Si7 0.405535 0.701311 0.247555
Si Si8 0.405476 0.500000 0.148908
O O1 0.250000 0.788105 0.525987
O O2 0.119082 0.725357 0.589545
O O3 0.147269 0.764001 0.342224
O O4 0.136161 0.905633 0.519068
O O5 0.603617 0.407065 0.237049
O O6 0.493021 0.500000 0.136602
O O7 0.621504 0.500000 0.007506
O O8 0.400902 0.744947 0.098730
O O9 0.500000 0.859671 0.000000
O O10 0.404087 0.770392 0.840519
O O11 0.362567 0.909039 0.990597
O O12 0.488133 0.298817 0.306483
O O13 0.750000 0.000000 0.099288
O O14 0.630546 0.000000 0.247506
O O15 0.750000 0.000000 0.391912
O O16 0.377133 0.592529 0.231255
#
# Coordination Sequence:
#
# PCOD8210076 Si02
#       8
#     8   4   8   8   4   4   8   4
#     4  11  23  40  58  79 115 155 194 234 281 341
#     4   9  16  31  61  90 112 146 189 232 273 340
#     4  10  20  35  59  88 117 142 183 243 290 328
#     4  10  19  36  61  87 113 147 192 233 277 337
#     4  11  21  36  59  83 112 153 197 231 276 343
#     4   9  20  38  58  76 101 150 199 233 270 327
#     4  10  21  36  59  89 117 146 182 236 293 336
#     4   9  16  33  59  88 116 146 183 228 291 338
#
# _framework density 19.053021999999999
#
# number of rings (size 3 to 8) (size 9 to 14) (size 15 to 20)
#    0.000    2.000    3.333    0.750    0.000    2.000 
#    0.000    7.500    0.000    1.000    0.000    0.000 
#    0.000    0.000    0.000    0.000    0.000    0.000 
#
# Total GULP energy -595232.410022 kJ/mol
# GULP energy per Si atom -12400.675209 kJ/mol
# Density = 1.900966 g / cm^3
# Si number density = 19.053022 Si / 1000 Ang^3
#
#
#
# Elastic Constant Matrix: (Units=GPa)
#
#
# Indices 1 2 3 4 5 6 
#
# 1 40.2633 36.4237 18.4630 0.0000 0.0000 0.0000
# 2 36.4237 139.0337 20.8980 0.0000 0.0000 0.0000
# 3 18.4630 20.8980 57.5187 0.0000 0.0000 0.0000
# 4 0.0000 0.0000 0.0000 19.3169 0.0000 0.0000
# 5 0.0000 0.0000 0.0000 0.0000 24.7241 0.0000
# 6 0.0000 0.0000 0.0000 0.0000 0.0000 17.0336
#
#
#
# Elastic Compliance Matrix: (Units=1/GPa)
#
#
# Indices 1 2 3 4 5 6 
#
# 1 0.036207 -0.008186 -0.008648 0.000000 0.000000 0.000000
# 2 -0.008186 0.009459 -0.000809 0.000000 0.000000 0.000000
# 3 -0.008648 -0.000809 0.020456 0.000000 0.000000 0.000000
# 4 0.000000 0.000000 0.000000 0.051768 0.000000 0.000000
# 5 0.000000 0.000000 0.000000 0.000000 0.040446 0.000000
# 6 0.000000 0.000000 0.000000 0.000000 0.000000 0.058707
#
#
# Mechanical properties :
#
#
# Convention : Reuss Voigt Hill
#
# Bulk Modulus (GPa) = 32.42987 43.15389 37.79188
# Shear Modulus (GPa) = 19.03983 22.95032 20.99508
#
# Velocity S-wave (km/s) = 3.16461 3.47443 3.32313
# Velocity P-wave (km/s) = 5.51460 6.22849 5.88239
#
# Compressibility (1/GPa) = 0.03083577
#
# Stress axis : x y z
#
# Youngs Moduli (GPa) = 27.61882 105.72459 48.88637
#
# Poissons Ratio (x) = 0.86542 0.42278
# Poissons Ratio (y) = 0.22608 0.03955
# Poissons Ratio (z) = 0.23885 0.08553
#
# Static dielectric constant tensor:
#      x y z
#    x 3.182940 0.000000 0.000000 
#    y 0.000000 3.718370 0.000000 
#    z 0.000000 0.000000 3.399080 
# 
# 
# High freq. dielectric constant tensor:
#      x y z
#    x 1.705430 0.000000 0.000000 
#    y 0.000000 1.756570 0.000000 
#    z 0.000000 0.000000 1.739500 
# 
# From -- ./inp_files/9733.got.cif
#   From: 2010.03.12/outbox.cif.g09.slc.cpg/sg51_5_cif.got.tgz:9733.got - 2010.04.16 13:43:02.
