data_PCOD8210742
_publ_section_title
;
Structure prediction by ZEFSAII (Michael W. Deem and Ramdas Pophale) SiO2 
 PCOD8210742
Probable space group: P M M A
;
_chemical_formula_sum "Si O2"
_cell_formula_units_Z 64
_cell_length_a 18.467051
_cell_length_b 9.415401
_cell_length_c 20.643454
_cell_angle_alpha 90.000000
_cell_angle_beta 90.000000
_cell_angle_gamma 90.000000
_cell_volume 3589.374174
_symmetry_space_group_name_H-M "P M M A"
_symmetry_group_IT_number 51
_symmetry_cell_setting 'orthorhombic'
loop_
_space_group_symop_operation_xyz
x,y,z
1/2-x,-y,z
1/2+x,-y,-z
-x,y,-z
-x,-y,-z
1/2+x,y,-z
1/2-x,y,z
x,-y,z
loop_
_atom_site_type_symbol
_atom_site_label
_atom_site_fract_x
_atom_site_fract_y
_atom_site_fract_z
Si Si1 0.916611 0.331872 0.251709
Si Si2 0.417984 0.667184 0.246336
Si Si3 0.335987 0.156859 0.994011
Si Si4 0.165611 0.335980 0.375150
Si Si5 0.833161 0.832820 0.861690
Si Si6 0.165100 0.335095 0.621674
Si Si7 0.334232 0.334261 0.873622
Si Si8 0.836087 0.160694 0.501959
O O1 0.909130 0.500000 0.251089
O O2 0.876441 0.274592 0.315656
O O3 0.877432 0.270905 0.187709
O O4 0.999415 0.282419 0.252917
O O5 0.411614 0.500000 0.233733
O O6 0.376967 0.712004 0.311494
O O7 0.383580 0.746819 0.186208
O O8 0.250000 0.151040 0.992647
O O9 0.359314 0.208036 0.065676
O O10 0.367499 0.000000 0.980089
O O11 0.365338 0.261868 0.938715
O O12 0.250000 0.308496 0.362084
O O13 0.150902 0.500000 0.392544
O O14 0.135664 0.241103 0.434096
O O15 0.750000 0.787152 0.850530
O O16 0.842116 0.000000 0.849739
O O17 0.250000 0.312687 0.633563
O O18 0.147449 0.500000 0.608166
O O19 0.135942 0.244813 0.560932
O O20 0.250000 0.299873 0.862693
O O21 0.348176 0.500000 0.882138
O O22 0.750000 0.161750 0.502212
O O23 0.866364 0.000000 0.501192
#
# Coordination Sequence:
#
# PCOD8210742 Si02
#       8
#     8   8   8   8   8   8   8   8
#     4   9  18  32  48  69  98 128 158 194 237 281
#     4  10  20  33  49  70  97 127 159 197 236 276
#     4   8  15  29  48  70  95 121 152 193 238 281
#     4   9  17  30  48  69  91 117 152 190 228 276
#     4   9  18  33  52  72  95 124 157 194 237 284
#     4   9  16  29  51  73  93 123 160 194 231 279
#     4   9  16  28  49  74  96 121 157 198 236 278
#     4   9  17  29  47  72  97 118 147 192 239 278
#
# _framework density 17.830407999999998
#
# number of rings (size 3 to 8) (size 9 to 14) (size 15 to 20)
#    0.000    3.000    0.000    1.875    0.000    4.750 
#    0.000    5.625    0.000   10.500    0.000    0.000 
#    0.000    0.000    0.000    0.000    0.000    0.000 
#
# Total GULP energy -793509.576973 kJ/mol
# GULP energy per Si atom -12398.587140 kJ/mol
# Density = 1.778982 g / cm^3
# Si number density = 17.830408 Si / 1000 Ang^3
#
#
#
# Elastic Constant Matrix: (Units=GPa)
#
#
# Indices 1 2 3 4 5 6 
#
# 1 67.0528 35.2027 67.2871 0.0000 0.0000 0.0000
# 2 35.2027 68.3848 75.8882 0.0000 0.0000 0.0000
# 3 67.2871 75.8882 194.5375 0.0000 0.0000 0.0000
# 4 0.0000 0.0000 0.0000 10.7398 0.0000 0.0000
# 5 0.0000 0.0000 0.0000 0.0000 -1.6197 0.0000
# 6 0.0000 0.0000 0.0000 0.0000 0.0000 13.3682
#
#
#
# Elastic Compliance Matrix: (Units=1/GPa)
#
#
# Indices 1 2 3 4 5 6 
#
# 1 0.023974 -0.005535 -0.006133 0.000000 0.000000 0.000000
# 2 -0.005535 0.027064 -0.008643 0.000000 0.000000 0.000000
# 3 -0.006133 -0.008643 0.010633 0.000000 0.000000 0.000000
# 4 0.000000 0.000000 0.000000 0.093112 0.000000 0.000000
# 5 0.000000 0.000000 0.000000 0.000000 -0.617383 0.000000
# 6 0.000000 0.000000 0.000000 0.000000 0.000000 0.074804
#
#
# Mechanical properties :
#
#
# Convention : Reuss Voigt Hill
#
# Bulk Modulus (GPa) = 47.50886 76.30346 61.90616
# Shear Modulus (GPa) = -14.69905 14.60414 -0.04746
#
# Velocity S-wave (km/s) = -2.87432 2.86502 -0.16332
# Velocity P-wave (km/s) = 3.96069 7.33699 5.89570
#
# Compressibility (1/GPa) = 0.02104870
#
# Stress axis : x y z
#
# Youngs Moduli (GPa) = 41.71193 36.94970 94.04530
#
# Poissons Ratio (x) = 0.20453 0.57676
# Poissons Ratio (y) = 0.23089 0.81282
# Poissons Ratio (z) = 0.25581 0.31935
#
# Static dielectric constant tensor:
#      x y z
#    x 3.064100 0.000000 0.000000 
#    y 0.000000 3.216630 0.000000 
#    z 0.000000 0.000000 3.575540 
# 
# 
# High freq. dielectric constant tensor:
#      x y z
#    x 1.658540 0.000000 0.000000 
#    y 0.000000 1.671640 0.000000 
#    z 0.000000 0.000000 1.706330 
# 
# From -- ./inp_files/30684.got.cif
#   From: 2010.03.12/outbox.cif.g09.slc.cpg/sg51_16_cif.got.tgz:30684.got - 2010.04.16 13:43:02.
