data_PCOD8210551
_publ_section_title
;
Structure prediction by ZEFSAII (Michael W. Deem and Ramdas Pophale) SiO2 
 PCOD8210551
Probable space group: P M M A
;
_chemical_formula_sum "Si O2"
_cell_formula_units_Z 56
_cell_length_a 15.101919
_cell_length_b 9.325930
_cell_length_c 21.417409
_cell_angle_alpha 90.000000
_cell_angle_beta 90.000000
_cell_angle_gamma 90.000000
_cell_volume 3016.415878
_symmetry_space_group_name_H-M "P M M A"
_symmetry_group_IT_number 51
_symmetry_cell_setting 'orthorhombic'
loop_
_space_group_symop_operation_xyz
x,y,z
1/2-x,-y,z
1/2+x,-y,-z
-x,y,-z
-x,-y,-z
1/2+x,y,-z
1/2-x,y,z
x,-y,z
loop_
_atom_site_type_symbol
_atom_site_label
_atom_site_fract_x
_atom_site_fract_y
_atom_site_fract_z
Si Si1 0.994513 0.667468 0.147645
Si Si2 0.354559 0.658722 0.494671
Si Si3 0.015906 0.669262 0.290017
Si Si4 0.848415 0.670119 0.367458
Si Si5 0.849346 0.838534 0.077197
Si Si6 0.645441 0.166235 0.623359
Si Si7 0.095353 0.656942 0.031148
O O1 0.970815 0.500000 0.142372
O O2 0.018612 0.711301 0.217573
O O3 0.907725 0.752261 0.126369
O O4 0.078898 0.704821 0.103203
O O5 0.250000 0.645691 0.491092
O O6 0.396099 0.500000 0.483146
O O7 0.379984 0.719235 0.563250
O O8 0.389440 0.767098 0.441912
O O9 0.028874 0.500000 0.300858
O O10 0.921646 0.722818 0.317980
O O11 0.097162 0.752871 0.320502
O O12 0.750000 0.732781 0.351088
O O13 0.841467 0.500000 0.367423
O O14 0.750000 0.836500 0.103428
O O15 0.885934 0.000000 0.071604
O O16 0.847630 0.771037 0.007370
O O17 0.750000 0.189280 0.632031
O O18 0.619731 0.000000 0.623980
O O19 0.141606 0.500000 0.028934
O O20 0.000000 0.646409 0.000000
#
# Coordination Sequence:
#
# PCOD8210551 Si02
#       7
#     8   8   8   8   8   8   8
#     4   9  19  34  51  73 100 131 166 202 245 297
#     4   8  14  28  51  74  96 126 165 211 261 307
#     4  10  20  34  54  78 103 135 174 211 250 302
#     4   8  15  29  50  77 105 131 165 210 256 304
#     4  10  20  32  49  76 104 129 162 201 241 290
#     4  10  21  36  52  71  98 132 171 216 264 311
#     4   8  15  30  50  70  93 121 156 197 238 280
#
# _framework density 18.565079999999998
#
# number of rings (size 3 to 8) (size 9 to 14) (size 15 to 20)
#    0.000    3.000    0.000    2.571    0.000    6.286 
#    0.000    5.714    0.000    5.571    0.000    0.000 
#    0.000    0.000    0.000    0.000    0.000    0.000 
#
# Total GULP energy -694091.701889 kJ/mol
# GULP energy per Si atom -12394.494677 kJ/mol
# Density = 1.852283 g / cm^3
# Si number density = 18.565080 Si / 1000 Ang^3
#
#
#
# Elastic Constant Matrix: (Units=GPa)
#
#
# Indices 1 2 3 4 5 6 
#
# 1 44.8092 22.2661 25.9511 0.0000 0.0000 0.0000
# 2 22.2661 70.9924 40.6700 0.0000 0.0000 0.0000
# 3 25.9511 40.6700 136.5040 0.0000 0.0000 0.0000
# 4 0.0000 0.0000 0.0000 3.4868 0.0000 0.0000
# 5 0.0000 0.0000 0.0000 0.0000 22.7031 0.0000
# 6 0.0000 0.0000 0.0000 0.0000 0.0000 -113.9513
#
#
#
# Elastic Compliance Matrix: (Units=1/GPa)
#
#
# Indices 1 2 3 4 5 6 
#
# 1 0.027558 -0.006803 -0.003212 0.000000 0.000000 0.000000
# 2 -0.006803 0.018664 -0.004268 0.000000 0.000000 0.000000
# 3 -0.003212 -0.004268 0.009208 0.000000 0.000000 0.000000
# 4 0.000000 0.000000 0.000000 0.286800 0.000000 0.000000
# 5 0.000000 0.000000 0.000000 0.000000 0.044047 0.000000
# 6 0.000000 0.000000 0.000000 0.000000 0.000000 -0.008776
#
#
# Mechanical properties :
#
#
# Convention : Reuss Voigt Hill
#
# Bulk Modulus (GPa) = 37.22370 47.78667 42.50518
# Shear Modulus (GPa) = 12.04757 -6.65774 2.69492
#
# Velocity S-wave (km/s) = 2.55019 -1.89577 1.20613
# Velocity P-wave (km/s) = 5.36332 4.58302 4.98845
#
# Compressibility (1/GPa) = 0.02686460
#
# Stress axis : x y z
#
# Youngs Moduli (GPa) = 36.28757 53.57766 108.60199
#
# Poissons Ratio (x) = 0.36449 0.34885
# Poissons Ratio (y) = 0.24687 0.46346
# Poissons Ratio (z) = 0.11656 0.22865
#
# Static dielectric constant tensor:
#      x y z
#    x 3.291760 0.000000 0.000000 
#    y 0.000000 3.340950 0.000000 
#    z 0.000000 0.000000 3.738460 
# 
# 
# High freq. dielectric constant tensor:
#      x y z
#    x 1.703640 0.000000 0.000000 
#    y 0.000000 1.699280 0.000000 
#    z 0.000000 0.000000 1.720020 
# 
# From -- ./inp_files/33398.got.cif
#   From: 2010.03.12/outbox.cif.g09.slc.cpg/sg51_17_cif.got.tgz:33398.got - 2010.04.16 13:43:02.
