data_PCOD8210350
_publ_section_title
;
Structure prediction by ZEFSAII (Michael W. Deem and Ramdas Pophale) SiO2 
 PCOD8210350
Probable space group: P M M A
;
_chemical_formula_sum "Si O2"
_cell_formula_units_Z 56
_cell_length_a 16.959413
_cell_length_b 8.987743
_cell_length_c 19.678127
_cell_angle_alpha 90.000000
_cell_angle_beta 90.000000
_cell_angle_gamma 90.000000
_cell_volume 2999.474823
_symmetry_space_group_name_H-M "P M M A"
_symmetry_group_IT_number 51
_symmetry_cell_setting 'orthorhombic'
loop_
_space_group_symop_operation_xyz
x,y,z
1/2-x,-y,z
1/2+x,-y,-z
-x,y,-z
-x,-y,-z
1/2+x,y,-z
1/2-x,y,z
x,-y,z
loop_
_atom_site_type_symbol
_atom_site_label
_atom_site_fract_x
_atom_site_fract_y
_atom_site_fract_z
Si Si1 0.568908 0.822660 0.652932
Si Si2 0.895802 0.176739 0.377626
Si Si3 0.573441 0.323907 0.909679
Si Si4 0.099859 0.323874 0.939000
Si Si5 0.340457 0.175996 0.214641
Si Si6 0.750000 0.176675 0.287617
Si Si7 0.750000 0.677635 0.142200
Si Si8 0.339037 0.177458 0.477989
O O1 0.479174 0.763011 0.650449
O O2 0.610839 0.761941 0.720817
O O3 0.614524 0.759846 0.587148
O O4 0.571141 0.000000 0.652043
O O5 0.826822 0.232323 0.328140
O O6 0.880938 0.237681 0.453721
O O7 0.896002 0.000000 0.380045
O O8 0.582081 0.500000 0.900910
O O9 0.481936 0.273133 0.903767
O O10 0.624957 0.244312 0.853426
O O11 0.605298 0.269683 0.983042
O O12 0.102069 0.500000 0.939920
O O13 0.173196 0.259488 0.896781
O O14 0.250000 0.225635 0.223224
O O15 0.347901 0.000000 0.209819
O O16 0.750000 0.257374 0.216524
O O17 0.750000 0.000000 0.277527
O O18 0.750000 0.500000 0.145255
O O19 0.250000 0.238037 0.475358
O O20 0.339052 0.000000 0.477710
#
# Coordination Sequence:
#
# PCOD8210350 Si02
#       8
#     8   8   8   8   8   4   4   8
#     4   9  17  27  42  62  92 133 167 194 239 297
#     4   9  16  27  42  64  94 127 163 202 243 284
#     4   9  18  35  57  77  97 126 166 207 245 290
#     4   8  17  34  55  78 100 124 163 210 245 282
#     4  10  21  34  47  71 105 134 161 202 251 296
#     4  10  20  32  46  72 105 130 156 202 251 290
#     4  10  20  34  54  76 101 132 164 198 243 296
#     4   9  14  23  40  62  90 125 164 203 239 281
#
# _framework density 18.669934999999999
#
# number of rings (size 3 to 8) (size 9 to 14) (size 15 to 20)
#    0.000    2.857    0.714    1.714    3.000    3.714 
#    0.000    2.143    0.000    0.000    0.000    1.000 
#    0.000    2.286    0.000    0.000    0.000    0.000 
#
# Total GULP energy -694251.492305 kJ/mol
# GULP energy per Si atom -12397.348077 kJ/mol
# Density = 1.862744 g / cm^3
# Si number density = 18.669935 Si / 1000 Ang^3
#
#
#
# Elastic Constant Matrix: (Units=GPa)
#
#
# Indices 1 2 3 4 5 6 
#
# 1 181.0755 21.6075 102.4950 0.0000 0.0000 0.0000
# 2 21.6075 7.3042 21.0085 0.0000 0.0000 0.0000
# 3 102.4950 21.0085 163.1022 0.0000 0.0000 0.0000
# 4 0.0000 0.0000 0.0000 -17.8454 0.0000 0.0000
# 5 0.0000 0.0000 0.0000 0.0000 40.5127 0.0000
# 6 0.0000 0.0000 0.0000 0.0000 0.0000 14.2506
#
#
#
# Elastic Compliance Matrix: (Units=1/GPa)
#
#
# Indices 1 2 3 4 5 6 
#
# 1 0.009872 -0.018045 -0.003879 0.000000 0.000000 0.000000
# 2 -0.018045 0.250464 -0.020921 0.000000 0.000000 0.000000
# 3 -0.003879 -0.020921 0.011264 0.000000 0.000000 0.000000
# 4 0.000000 0.000000 0.000000 -0.056037 0.000000 0.000000
# 5 0.000000 0.000000 0.000000 0.000000 0.024684 0.000000
# 6 0.000000 0.000000 0.000000 0.000000 0.000000 0.070173
#
#
# Mechanical properties :
#
#
# Convention : Reuss Voigt Hill
#
# Bulk Modulus (GPa) = 5.37901 71.30045 38.33973
# Shear Modulus (GPa) = 10.91512 21.14163 16.02837
#
# Velocity S-wave (km/s) = 2.42055 3.36875 2.93322
# Velocity P-wave (km/s) = 3.27100 7.30782 5.66143
#
# Compressibility (1/GPa) = 0.18590787
#
# Stress axis : x y z
#
# Youngs Moduli (GPa) = 101.30113 3.99258 88.78199
#
# Poissons Ratio (x) = 0.07205 0.34439
# Poissons Ratio (y) = 1.82802 1.85745
# Poissons Ratio (z) = 0.39295 0.08353
#
# Static dielectric constant tensor:
#      x y z
#    x 3.886710 0.000000 0.000000 
#    y 0.000000 2.724960 0.000000 
#    z 0.000000 0.000000 3.590320 
# 
# 
# High freq. dielectric constant tensor:
#      x y z
#    x 1.744000 0.000000 0.000000 
#    y 0.000000 1.650740 0.000000 
#    z 0.000000 0.000000 1.738660 
# 
# From -- ./inp_files/33585.got.cif
#   From: 2010.03.12/outbox.cif.g09.slc.cpg/sg51_17_cif.got.tgz:33585.got - 2010.04.16 13:43:02.
