data_PCOD8210333
_publ_section_title
;
Structure prediction by ZEFSAII (Michael W. Deem and Ramdas Pophale) SiO2 
 PCOD8210333
Probable space group: P M M A
;
_chemical_formula_sum "Si O2"
_cell_formula_units_Z 64
_cell_length_a 28.387190
_cell_length_b 9.104424
_cell_length_c 15.378919
_cell_angle_alpha 90.000000
_cell_angle_beta 90.000000
_cell_angle_gamma 90.000000
_cell_volume 3974.666451
_symmetry_space_group_name_H-M "P M M A"
_symmetry_group_IT_number 51
_symmetry_cell_setting 'orthorhombic'
loop_
_space_group_symop_operation_xyz
x,y,z
1/2-x,-y,z
1/2+x,-y,-z
-x,y,-z
-x,-y,-z
1/2+x,y,-z
1/2-x,y,z
x,-y,z
loop_
_atom_site_type_symbol
_atom_site_label
_atom_site_fract_x
_atom_site_fract_y
_atom_site_fract_z
Si Si1 0.651571 0.674408 0.339305
Si Si2 0.446292 0.326832 0.589639
Si Si3 0.695715 0.169236 0.499880
Si Si4 0.304494 0.328408 0.184333
Si Si5 0.694151 0.662064 0.009483
Si Si6 0.805556 0.168769 0.176635
Si Si7 0.637873 0.826524 0.668448
Si Si8 0.549815 0.326131 0.606421
O O1 0.655758 0.500000 0.338247
O O2 0.597657 0.728615 0.353273
O O3 0.684316 0.733950 0.416059
O O4 0.667993 0.736023 0.247827
O O5 0.445980 0.500000 0.581315
O O6 0.496221 0.279933 0.632396
O O7 0.441152 0.267367 0.491462
O O8 0.750000 0.191858 0.525038
O O9 0.665199 0.224101 0.581551
O O10 0.684976 0.000000 0.477171
O O11 0.250000 0.285532 0.196170
O O12 0.312130 0.500000 0.204220
O O13 0.334793 0.230125 0.248107
O O14 0.322399 0.289957 0.086746
O O15 0.750000 0.653478 0.008068
O O16 0.674063 0.500000 0.032263
O O17 0.676883 0.777462 0.081894
O O18 0.750000 0.192649 0.187955
O O19 0.819683 0.000000 0.187599
O O20 0.585780 0.757021 0.669594
O O21 0.634057 0.000000 0.674136
O O22 0.557745 0.500000 0.615347
#
# Coordination Sequence:
#
# PCOD8210333 Si02
#       8
#     8   8   8   8   8   8   8   8
#     4  11  20  31  48  70  91 118 159 199 234 275
#     4   8  16  30  50  70  88 115 154 201 246 279
#     4  10  21  34  43  57  91 133 163 188 223 268
#     4   9  18  32  50  71  95 125 161 198 234 274
#     4   8  15  30  50  70  91 117 155 201 237 266
#     4  10  20  32  46  67  97 130 158 186 229 282
#     4  11  21  31  45  69  98 128 159 193 234 280
#     4   9  16  32  52  67  88 119 156 199 241 282
#
# _framework density 16.101980000000001
#
# number of rings (size 3 to 8) (size 9 to 14) (size 15 to 20)
#    0.000    2.500    1.250    3.375    0.000    4.250 
#    0.000    3.750    0.000    0.000    0.000    0.875 
#    0.000    7.000    0.000    0.000    0.000    0.000 
#
# Total GULP energy -793452.815794 kJ/mol
# GULP energy per Si atom -12397.700247 kJ/mol
# Density = 1.606533 g / cm^3
# Si number density = 16.101980 Si / 1000 Ang^3
#
#
#
# Elastic Constant Matrix: (Units=GPa)
#
#
# Indices 1 2 3 4 5 6 
#
# 1 78.6118 35.4941 35.5610 0.0000 0.0000 0.0000
# 2 35.4941 61.5626 39.2238 0.0000 0.0000 0.0000
# 3 35.5610 39.2238 90.8196 0.0000 0.0000 0.0000
# 4 0.0000 0.0000 0.0000 26.1995 0.0000 0.0000
# 5 0.0000 0.0000 0.0000 0.0000 9.8266 0.0000
# 6 0.0000 0.0000 0.0000 0.0000 0.0000 16.6959
#
#
#
# Elastic Compliance Matrix: (Units=1/GPa)
#
#
# Indices 1 2 3 4 5 6 
#
# 1 0.017985 -0.008116 -0.003537 0.000000 0.000000 0.000000
# 2 -0.008116 0.026073 -0.008083 0.000000 0.000000 0.000000
# 3 -0.003537 -0.008083 0.015887 0.000000 0.000000 0.000000
# 4 0.000000 0.000000 0.000000 0.038169 0.000000 0.000000
# 5 0.000000 0.000000 0.000000 0.000000 0.101765 0.000000
# 6 0.000000 0.000000 0.000000 0.000000 0.000000 0.059895
#
#
# Mechanical properties :
#
#
# Convention : Reuss Voigt Hill
#
# Bulk Modulus (GPa) = 48.84412 50.17244 49.50828
# Shear Modulus (GPa) = 16.33622 18.59205 17.46414
#
# Velocity S-wave (km/s) = 3.18865 3.40169 3.29689
# Velocity P-wave (km/s) = 6.62999 6.83048 6.73098
#
# Compressibility (1/GPa) = 0.02047329
#
# Stress axis : x y z
#
# Youngs Moduli (GPa) = 55.60144 38.35452 62.94615
#
# Poissons Ratio (x) = 0.31128 0.22265
# Poissons Ratio (y) = 0.45125 0.50877
# Poissons Ratio (z) = 0.19667 0.31001
#
# Static dielectric constant tensor:
#      x y z
#    x 3.133360 0.000000 0.000000 
#    y 0.000000 2.981130 0.000000 
#    z 0.000000 0.000000 3.060860 
# 
# 
# High freq. dielectric constant tensor:
#      x y z
#    x 1.602170 0.000000 0.000000 
#    y 0.000000 1.614750 0.000000 
#    z 0.000000 0.000000 1.607250 
# 
# From -- ./inp_files/26713.got.cif
#   From: 2010.03.12/outbox.cif.g09.slc.cpg/sg51_14_cif.got.tgz:26713.got - 2010.04.16 13:43:02.
