data_PCOD8210097
_publ_section_title
;
Structure prediction by ZEFSAII (Michael W. Deem and Ramdas Pophale) SiO2 
 PCOD8210097
Probable space group: P M M A
;
_chemical_formula_sum "Si O2"
_cell_formula_units_Z 48
_cell_length_a 8.615618
_cell_length_b 14.403992
_cell_length_c 20.384457
_cell_angle_alpha 90.000000
_cell_angle_beta 90.000000
_cell_angle_gamma 90.000000
_cell_volume 2529.696697
_symmetry_space_group_name_H-M "P M M A"
_symmetry_group_IT_number 51
_symmetry_cell_setting 'orthorhombic'
loop_
_space_group_symop_operation_xyz
x,y,z
1/2-x,-y,z
1/2+x,-y,-z
-x,y,-z
-x,-y,-z
1/2+x,y,-z
1/2-x,y,z
x,-y,z
loop_
_atom_site_type_symbol
_atom_site_label
_atom_site_fract_x
_atom_site_fract_y
_atom_site_fract_z
Si Si1 0.567940 0.684154 0.809660
Si Si2 0.566023 0.000000 0.871505
Si Si3 0.932607 0.193255 0.930652
Si Si4 0.566483 0.000000 0.272298
Si Si5 0.569710 0.500000 0.237659
Si Si6 0.932278 0.808437 0.684197
Si Si7 0.432898 0.309951 0.568952
Si Si8 0.067406 0.500000 0.380123
O O1 0.750000 0.661092 0.811831
O O2 0.509850 0.735272 0.875348
O O3 0.471118 0.589826 0.805176
O O4 0.527521 0.750232 0.748966
O O5 0.512388 0.089477 0.912646
O O6 0.476084 0.000000 0.803677
O O7 0.750000 0.000000 0.856376
O O8 0.750000 0.195582 0.934981
O O9 0.000000 0.224786 0.000000
O O10 0.493538 0.088160 0.307986
O O11 0.750000 0.000000 0.281036
O O12 0.750000 0.500000 0.256585
O O13 0.468859 0.500000 0.303282
O O14 0.750000 0.808802 0.670362
O O15 0.019779 0.763943 0.623309
O O16 0.500000 0.274886 0.500000
O O17 0.250000 0.317121 0.564929
O O18 0.499324 0.410516 0.585130
O O19 0.250000 0.500000 0.389431
#
# Coordination Sequence:
#
# PCOD8210097 Si02
#       8
#     8   4   8   4   4   8   8   4
#     4  10  21  39  63  86 118 161 204 246 301 368
#     4  10  19  37  59  85 123 161 200 243 305 371
#     4  10  21  37  59  87 121 160 199 248 302 364
#     4  12  24  37  60  95 127 157 204 259 301 351
#     4  12  24  37  60  93 124 153 200 261 306 353
#     4  11  22  41  66  89 121 164 205 249 304 364
#     4  12  25  42  63  93 128 163 205 252 306 363
#     4  12  23  39  62  91 128 167 202 247 308 365
#
# _framework density 18.974606999999999
#
# number of rings (size 3 to 8) (size 9 to 14) (size 15 to 20)
#    0.000    1.000    3.333    4.750    0.000    2.000 
#    0.000    0.833    0.000    0.000    0.000    0.000 
#    0.000    0.000    0.000    0.000    0.000    0.000 
#
# Total GULP energy -595495.073092 kJ/mol
# GULP energy per Si atom -12406.147356 kJ/mol
# Density = 1.893142 g / cm^3
# Si number density = 18.974607 Si / 1000 Ang^3
#
#
#
# Elastic Constant Matrix: (Units=GPa)
#
#
# Indices 1 2 3 4 5 6 
#
# 1 107.0224 52.5491 50.3283 0.0000 0.0000 0.0000
# 2 52.5491 127.6527 55.3656 0.0000 0.0000 0.0000
# 3 50.3283 55.3656 145.1040 0.0000 0.0000 0.0000
# 4 0.0000 0.0000 0.0000 45.6864 0.0000 0.0000
# 5 0.0000 0.0000 0.0000 0.0000 35.2845 0.0000
# 6 0.0000 0.0000 0.0000 0.0000 0.0000 26.0725
#
#
#
# Elastic Compliance Matrix: (Units=1/GPa)
#
#
# Indices 1 2 3 4 5 6 
#
# 1 0.012638 -0.003956 -0.002874 0.000000 0.000000 0.000000
# 2 -0.003956 0.010626 -0.002682 0.000000 0.000000 0.000000
# 3 -0.002874 -0.002682 0.008912 0.000000 0.000000 0.000000
# 4 0.000000 0.000000 0.000000 0.021888 0.000000 0.000000
# 5 0.000000 0.000000 0.000000 0.000000 0.028341 0.000000
# 6 0.000000 0.000000 0.000000 0.000000 0.000000 0.038355
#
#
# Mechanical properties :
#
#
# Convention : Reuss Voigt Hill
#
# Bulk Modulus (GPa) = 76.03938 77.36277 76.70108
# Shear Modulus (GPa) = 34.68205 36.17774 35.42990
#
# Velocity S-wave (km/s) = 4.27993 4.37125 4.32583
# Velocity P-wave (km/s) = 8.03648 8.14477 8.09081
#
# Compressibility (1/GPa) = 0.01315108
#
# Stress axis : x y z
#
# Youngs Moduli (GPa) = 79.12819 94.11275 112.21073
#
# Poissons Ratio (x) = 0.37230 0.32248
# Poissons Ratio (y) = 0.31303 0.30097
# Poissons Ratio (z) = 0.22741 0.25243
#
# Static dielectric constant tensor:
#      x y z
#    x 3.482040 0.000000 0.000000 
#    y 0.000000 3.769830 0.000000 
#    z 0.000000 0.000000 6.350010 
# 
# 
# High freq. dielectric constant tensor:
#      x y z
#    x 1.742960 0.000000 0.000000 
#    y 0.000000 1.743540 0.000000 
#    z 0.000000 0.000000 1.740140 
# 
# From -- ./inp_files/27707.got.cif
#   From: 2010.03.12/outbox.cif.g09.slc.cpg/sg51_14_cif.got.tgz:27707.got - 2010.04.16 13:43:02.
