data_PCOD8210897
_publ_section_title
;
Structure prediction by ZEFSAII (Michael W. Deem and Ramdas Pophale) SiO2 
 PCOD8210897
Probable space group: P M M A
;
_chemical_formula_sum "Si O2"
_cell_formula_units_Z 56
_cell_length_a 8.972874
_cell_length_b 22.476775
_cell_length_c 14.860304
_cell_angle_alpha 90.000000
_cell_angle_beta 90.000000
_cell_angle_gamma 90.000000
_cell_volume 2997.044983
_symmetry_space_group_name_H-M "P M M A"
_symmetry_group_IT_number 51
_symmetry_cell_setting 'orthorhombic'
loop_
_space_group_symop_operation_xyz
x,y,z
1/2-x,-y,z
1/2+x,-y,-z
-x,y,-z
-x,-y,-z
1/2+x,y,-z
1/2-x,y,z
x,-y,z
loop_
_atom_site_type_symbol
_atom_site_label
_atom_site_fract_x
_atom_site_fract_y
_atom_site_fract_z
Si Si1 0.420643 0.433551 0.761978
Si Si2 0.922795 0.392804 0.590642
Si Si3 0.573659 0.837829 0.282777
Si Si4 0.424950 0.745017 0.407705
Si Si5 0.076247 0.930645 0.406800
Si Si6 0.576446 0.206261 0.090618
Si Si7 0.074144 0.341404 0.908839
O O1 0.250000 0.418211 0.738418
O O2 0.434779 0.500000 0.803011
O O3 0.515676 0.431663 0.671645
O O4 0.485585 0.385052 0.831166
O O5 0.750000 0.404800 0.579566
O O6 0.958744 0.323839 0.609165
O O7 0.000000 0.415017 0.500000
O O8 0.750000 0.838020 0.299973
O O9 0.501984 0.779621 0.326605
O O10 0.500152 0.896938 0.323762
O O11 0.537130 0.835266 0.176045
O O12 0.500000 0.767110 0.500000
O O13 0.250000 0.759437 0.411594
O O14 0.250000 0.914110 0.412181
O O15 0.000000 0.910552 0.500000
O O16 0.050565 0.000000 0.389139
O O17 0.750000 0.205871 0.070754
O O18 0.523554 0.273738 0.112047
O O19 0.500000 0.181206 0.000000
O O20 0.250000 0.347077 0.918796
O O21 0.000000 0.364168 0.000000
#
# Coordination Sequence:
#
# PCOD8210897 Si02
#       7
#     8   8   8   8   8   8   8
#     4  10  21  36  53  73  99 132 169 210 256 308
#     4  10  21  36  54  74  98 131 169 211 258 308
#     4  11  21  33  53  80 109 141 176 215 260 307
#     4  10  20  33  50  75 105 135 168 208 257 311
#     4  10  21  37  56  79 110 148 186 222 259 300
#     4   9  19  34  53  77 104 135 169 210 259 310
#     4   9  18  34  54  76 103 133 166 205 255 312
#
# _framework density 18.68507
#
# number of rings (size 3 to 8) (size 9 to 14) (size 15 to 20)
#    0.000    2.143    0.000    3.000    0.000    6.286 
#    0.000    2.857    0.000    0.429    0.000    0.000 
#    0.000    0.000    0.000    0.000    0.000    0.000 
#
# Total GULP energy -694543.350786 kJ/mol
# GULP energy per Si atom -12402.559835 kJ/mol
# Density = 1.864254 g / cm^3
# Si number density = 18.685070 Si / 1000 Ang^3
#
#
#
# Elastic Constant Matrix: (Units=GPa)
#
#
# Indices 1 2 3 4 5 6 
#
# 1 85.4109 33.2541 56.7502 0.0000 0.0000 0.0000
# 2 33.2541 67.2397 51.0969 0.0000 0.0000 0.0000
# 3 56.7502 51.0969 142.4814 0.0000 0.0000 0.0000
# 4 0.0000 0.0000 0.0000 24.7616 0.0000 0.0000
# 5 0.0000 0.0000 0.0000 0.0000 36.2319 0.0000
# 6 0.0000 0.0000 0.0000 0.0000 0.0000 18.0744
#
#
#
# Elastic Compliance Matrix: (Units=1/GPa)
#
#
# Indices 1 2 3 4 5 6 
#
# 1 0.016834 -0.004440 -0.005113 0.000000 0.000000 0.000000
# 2 -0.004440 0.021615 -0.005983 0.000000 0.000000 0.000000
# 3 -0.005113 -0.005983 0.011200 0.000000 0.000000 0.000000
# 4 0.000000 0.000000 0.000000 0.040385 0.000000 0.000000
# 5 0.000000 0.000000 0.000000 0.000000 0.027600 0.000000
# 6 0.000000 0.000000 0.000000 0.000000 0.000000 0.055327
#
#
# Mechanical properties :
#
#
# Convention : Reuss Voigt Hill
#
# Bulk Modulus (GPa) = 53.82859 64.14827 58.98843
# Shear Modulus (GPa) = 23.78407 26.08232 24.93320
#
# Velocity S-wave (km/s) = 3.57163 3.74022 3.65690
# Velocity P-wave (km/s) = 6.77345 7.28410 7.03341
#
# Compressibility (1/GPa) = 0.01857749
#
# Stress axis : x y z
#
# Youngs Moduli (GPa) = 59.40412 46.26477 89.28259
#
# Poissons Ratio (x) = 0.20543 0.45646
# Poissons Ratio (y) = 0.26377 0.53417
# Poissons Ratio (z) = 0.30371 0.27680
#
# Static dielectric constant tensor:
#      x y z
#    x 3.337930 0.000000 0.000000 
#    y 0.000000 3.335800 0.000000 
#    z 0.000000 0.000000 3.442070 
# 
# 
# High freq. dielectric constant tensor:
#      x y z
#    x 1.730900 0.000000 0.000000 
#    y 0.000000 1.712980 0.000000 
#    z 0.000000 0.000000 1.723510 
# 
# From -- ./inp_files/21743.got.cif
#   From: 2010.03.12/outbox.cif.g09.slc.cpg/sg51_11_cif.got.tgz:21743.got - 2010.04.16 13:43:02.
