data_PCOD8210710
_publ_section_title
;
Structure prediction by ZEFSAII (Michael W. Deem and Ramdas Pophale) SiO2 
 PCOD8210710
Probable space group: P M M A
;
_chemical_formula_sum "Si O2"
_cell_formula_units_Z 40
_cell_length_a 15.771706
_cell_length_b 7.656121
_cell_length_c 17.209434
_cell_angle_alpha 90.000000
_cell_angle_beta 90.000000
_cell_angle_gamma 90.000000
_cell_volume 2078.040696
_symmetry_space_group_name_H-M "P M M A"
_symmetry_group_IT_number 51
_symmetry_cell_setting 'orthorhombic'
loop_
_space_group_symop_operation_xyz
x,y,z
1/2-x,-y,z
1/2+x,-y,-z
-x,y,-z
-x,-y,-z
1/2+x,y,-z
1/2-x,y,z
x,-y,z
loop_
_atom_site_type_symbol
_atom_site_label
_atom_site_fract_x
_atom_site_fract_y
_atom_site_fract_z
Si Si1 0.077972 0.704183 0.307687
Si Si2 0.912850 0.793657 0.039781
Si Si3 0.843230 0.000000 0.308366
Si Si4 0.506238 0.000000 0.591450
Si Si5 0.412993 0.306301 0.785683
Si Si6 0.250000 0.300157 0.233931
Si Si7 0.750000 0.794047 0.943618
O O1 0.082270 0.500000 0.333151
O O2 0.054428 0.824035 0.381455
O O3 0.165633 0.779942 0.272596
O O4 0.009381 0.734128 0.239773
O O5 0.906250 0.701370 0.122163
O O6 0.910588 0.000000 0.052339
O O7 0.833939 0.728293 0.988007
O O8 0.000000 0.733272 0.000000
O O9 0.850380 0.830172 0.254090
O O10 0.910521 0.000000 0.377231
O O11 0.750000 0.000000 0.346329
O O12 0.500000 0.000000 0.500000
O O13 0.386312 0.500000 0.758140
O O14 0.250000 0.500000 0.256475
O O15 0.250000 0.282841 0.141936
O O16 0.750000 0.000000 0.936933
#
# Coordination Sequence:
#
# PCOD8210710 Si02
#       7
#     8   8   4   4   8   4   4
#     4   9  20  37  59  89 118 150 190 232 278 336
#     4  10  20  33  48  73 111 153 194 244 294 332
#     4  10  22  40  60  81 118 144 180 239 280 331
#     4  10  22  41  64  92 115 150 181 215 287 349
#     4  10  20  35  58  80 108 154 200 237 284 337
#     4  10  20  36  56  82 118 153 192 241 282 328
#     4  10  22  32  48  76 110 149 194 244 295 325
#
# _framework density 19.248901
#
# number of rings (size 3 to 8) (size 9 to 14) (size 15 to 20)
#    0.000    2.200    1.000    1.200    2.800    2.000 
#    1.800    0.000    0.000    0.000    0.000    0.000 
#    0.000    0.000    0.000    0.000    0.000    0.000 
#
# Total GULP energy -496024.178758 kJ/mol
# GULP energy per Si atom -12400.604469 kJ/mol
# Density = 1.920509 g / cm^3
# Si number density = 19.248901 Si / 1000 Ang^3
#
#
#
# Elastic Constant Matrix: (Units=GPa)
#
#
# Indices 1 2 3 4 5 6 
#
# 1 150.6042 42.3690 54.9196 0.0000 0.0000 0.0000
# 2 42.3690 87.1885 41.5002 0.0000 0.0000 0.0000
# 3 54.9196 41.5002 127.8070 0.0000 0.0000 0.0000
# 4 0.0000 0.0000 0.0000 21.0177 0.0000 0.0000
# 5 0.0000 0.0000 0.0000 0.0000 16.2509 0.0000
# 6 0.0000 0.0000 0.0000 0.0000 0.0000 7.8117
#
#
#
# Elastic Compliance Matrix: (Units=1/GPa)
#
#
# Indices 1 2 3 4 5 6 
#
# 1 0.008415 -0.002801 -0.002706 0.000000 0.000000 0.000000
# 2 -0.002801 0.014498 -0.003504 0.000000 0.000000 0.000000
# 3 -0.002706 -0.003504 0.010125 0.000000 0.000000 0.000000
# 4 0.000000 0.000000 0.000000 0.047579 0.000000 0.000000
# 5 0.000000 0.000000 0.000000 0.000000 0.061535 0.000000
# 6 0.000000 0.000000 0.000000 0.000000 0.000000 0.128013
#
#
# Mechanical properties :
#
#
# Convention : Reuss Voigt Hill
#
# Bulk Modulus (GPa) = 66.59891 71.46413 69.03152
# Shear Modulus (GPa) = 17.05358 24.13678 20.59518
#
# Velocity S-wave (km/s) = 2.97972 3.54493 3.27454
# Velocity P-wave (km/s) = 6.81999 7.34590 7.08783
#
# Compressibility (1/GPa) = 0.01501526
#
# Stress axis : x y z
#
# Youngs Moduli (GPa) = 118.83784 68.97284 98.76432
#
# Poissons Ratio (x) = 0.19319 0.26730
# Poissons Ratio (y) = 0.33286 0.34609
# Poissons Ratio (z) = 0.32162 0.24169
#
# Static dielectric constant tensor:
#      x y z
#    x 3.815820 0.000000 0.000000 
#    y 0.000000 3.599390 0.000000 
#    z 0.000000 0.000000 3.171310 
# 
# 
# High freq. dielectric constant tensor:
#      x y z
#    x 1.758070 0.000000 0.000000 
#    y 0.000000 1.756120 0.000000 
#    z 0.000000 0.000000 1.721360 
# 
# From -- ./inp_files/23852.got.cif
#   From: 2010.03.12/outbox.cif.g09.slc.cpg/sg51_12_cif.got.tgz:23852.got - 2010.04.16 13:43:02.
