data_PCOD8210769
_publ_section_title
;
Structure prediction by ZEFSAII (Michael W. Deem and Ramdas Pophale) SiO2 
 PCOD8210769
Probable space group: P M M A
;
_chemical_formula_sum "Si O2"
_cell_formula_units_Z 48
_cell_length_a 23.742474
_cell_length_b 8.588853
_cell_length_c 13.750757
_cell_angle_alpha 90.000000
_cell_angle_beta 90.000000
_cell_angle_gamma 90.000000
_cell_volume 2804.062880
_symmetry_space_group_name_H-M "P M M A"
_symmetry_group_IT_number 51
_symmetry_cell_setting 'orthorhombic'
loop_
_space_group_symop_operation_xyz
x,y,z
1/2-x,-y,z
1/2+x,-y,-z
-x,y,-z
-x,-y,-z
1/2+x,y,-z
1/2-x,y,z
x,-y,z
loop_
_atom_site_type_symbol
_atom_site_label
_atom_site_fract_x
_atom_site_fract_y
_atom_site_fract_z
Si Si1 0.185697 0.681055 0.631870
Si Si2 0.482010 0.681804 0.357432
Si Si3 0.974465 0.184532 0.848182
Si Si4 0.416636 0.183727 0.961322
Si Si5 0.582242 0.818414 0.468570
Si Si6 0.686558 0.818325 0.160631
O O1 0.250000 0.725461 0.606412
O O2 0.173897 0.500000 0.616267
O O3 0.145962 0.778279 0.560365
O O4 0.172409 0.722739 0.743046
O O5 0.494484 0.500000 0.363655
O O6 0.460210 0.728070 0.251213
O O7 0.539896 0.771995 0.381582
O O8 0.433494 0.725785 0.433925
O O9 0.035559 0.241064 0.886257
O O10 0.972274 0.000000 0.830527
O O11 0.928545 0.241116 0.928636
O O12 0.355467 0.240016 0.924307
O O13 0.420730 0.000000 0.964048
O O14 0.576651 0.000000 0.489865
O O15 0.750000 0.785528 0.124367
O O16 0.677355 0.000000 0.184368
#
# Coordination Sequence:
#
# PCOD8210769 Si02
#       6
#     8   8   8   8   8   8
#     4  10  20  33  49  72 102 131 157 192 240 286
#     4  11  21  33  49  72 100 126 156 197 247 293
#     4   9  16  29  47  66  90 123 160 194 232 277
#     4   8  15  27  45  67  91 121 157 196 233 271
#     4  11  21  34  52  72  95 126 163 198 235 283
#     4   9  16  27  45  69  95 124 158 193 230 276
#
# _framework density 17.118017999999999
#
# number of rings (size 3 to 8) (size 9 to 14) (size 15 to 20)
#    0.000    2.333    0.000    6.500    0.000    2.333 
#    0.000    2.500    0.000    1.000    0.000    2.333 
#    0.000    0.000    0.000    0.000    0.000    0.000 
#
# Total GULP energy -595166.692326 kJ/mol
# GULP energy per Si atom -12399.306090 kJ/mol
# Density = 1.707906 g / cm^3
# Si number density = 17.118018 Si / 1000 Ang^3
#
#
#
# Elastic Constant Matrix: (Units=GPa)
#
#
# Indices 1 2 3 4 5 6 
#
# 1 106.0204 17.7426 52.1554 0.0000 0.0000 0.0000
# 2 17.7426 52.1425 17.8006 0.0000 0.0000 0.0000
# 3 52.1554 17.8006 106.3864 0.0000 0.0000 0.0000
# 4 0.0000 0.0000 0.0000 10.0797 0.0000 0.0000
# 5 0.0000 0.0000 0.0000 0.0000 27.6387 0.0000
# 6 0.0000 0.0000 0.0000 0.0000 0.0000 19.5655
#
#
#
# Elastic Compliance Matrix: (Units=1/GPa)
#
#
# Indices 1 2 3 4 5 6 
#
# 1 0.012691 -0.002327 -0.005832 0.000000 0.000000 0.000000
# 2 -0.002327 0.020767 -0.002334 0.000000 0.000000 0.000000
# 3 -0.005832 -0.002334 0.012649 0.000000 0.000000 0.000000
# 4 0.000000 0.000000 0.000000 0.099209 0.000000 0.000000
# 5 0.000000 0.000000 0.000000 0.000000 0.036181 0.000000
# 6 0.000000 0.000000 0.000000 0.000000 0.000000 0.051110
#
#
# Mechanical properties :
#
#
# Convention : Reuss Voigt Hill
#
# Bulk Modulus (GPa) = 39.80812 48.88294 44.34553
# Shear Modulus (GPa) = 19.08637 23.24684 21.16660
#
# Velocity S-wave (km/s) = 3.34276 3.68915 3.52022
# Velocity P-wave (km/s) = 6.18097 6.83848 6.51802
#
# Compressibility (1/GPa) = 0.02512050
#
# Stress axis : x y z
#
# Youngs Moduli (GPa) = 78.79804 48.15367 79.05539
#
# Poissons Ratio (x) = 0.11207 0.46106
# Poissons Ratio (y) = 0.18339 0.18450
# Poissons Ratio (z) = 0.45956 0.11238
#
# Static dielectric constant tensor:
#      x y z
#    x 3.311940 0.000000 0.000000 
#    y 0.000000 3.065420 0.000000 
#    z 0.000000 0.000000 3.214060 
# 
# 
# High freq. dielectric constant tensor:
#      x y z
#    x 1.650950 0.000000 0.000000 
#    y 0.000000 1.653020 0.000000 
#    z 0.000000 0.000000 1.651150 
# 
# From -- ./inp_files/26012.got.cif
#   From: 2010.03.12/outbox.cif.g09.slc.cpg/sg51_14_cif.got.tgz:26012.got - 2010.04.16 13:43:02.
