data_PCOD8210159
_publ_section_title
;
Structure prediction by ZEFSAII (Michael W. Deem and Ramdas Pophale) SiO2 
 PCOD8210159
Probable space group: P M M A
;
_chemical_formula_sum "Si O2"
_cell_formula_units_Z 64
_cell_length_a 9.158877
_cell_length_b 19.587206
_cell_length_c 19.034960
_cell_angle_alpha 90.000000
_cell_angle_beta 90.000000
_cell_angle_gamma 90.000000
_cell_volume 3414.811113
_symmetry_space_group_name_H-M "P M M A"
_symmetry_group_IT_number 51
_symmetry_cell_setting 'orthorhombic'
loop_
_space_group_symop_operation_xyz
x,y,z
1/2-x,-y,z
1/2+x,-y,-z
-x,y,-z
-x,-y,-z
1/2+x,y,-z
1/2-x,y,z
x,-y,z
loop_
_atom_site_type_symbol
_atom_site_label
_atom_site_fract_x
_atom_site_fract_y
_atom_site_fract_z
Si Si1 0.577464 0.223319 0.649652
Si Si2 0.575642 0.656959 0.427148
Si Si3 0.083351 0.422304 0.311491
Si Si4 0.908336 0.134892 0.062379
Si Si5 0.583426 0.300984 0.789844
Si Si6 0.414403 0.075924 0.180074
Si Si7 0.076911 0.927069 0.337241
Si Si8 0.089211 0.292394 0.934634
O O1 0.750000 0.234907 0.635661
O O2 0.483110 0.269603 0.597978
O O3 0.543175 0.242912 0.731261
O O4 0.527883 0.145326 0.629518
O O5 0.500000 0.637962 0.500000
O O6 0.750000 0.658927 0.434471
O O7 0.528067 0.598469 0.372776
O O8 0.250000 0.412304 0.338520
O O9 0.052458 0.500000 0.289294
O O10 0.056904 0.375366 0.243762
O O11 0.750000 0.099174 0.065469
O O12 0.889716 0.213906 0.046019
O O13 0.988509 0.127507 0.136199
O O14 0.000000 0.099367 0.000000
O O15 0.750000 0.291166 0.813673
O O16 0.486201 0.298356 0.859023
O O17 0.250000 0.104961 0.180256
O O18 0.480065 0.074051 0.257823
O O19 0.419381 0.000000 0.147182
O O20 0.250000 0.929527 0.336757
O O21 0.020580 0.000000 0.372171
O O22 0.250000 0.326932 0.930468
O O23 0.000000 0.326564 0.000000
#
# Coordination Sequence:
#
# PCOD8210159 Si02
#       8
#     8   8   8   8   8   8   8   8
#     4   9  17  31  52  77 105 137 173 213 259 310
#     4  11  22  36  55  80 111 144 178 213 249 293
#     4   9  19  37  59  83 112 144 175 205 242 293
#     4  10  20  31  42  57  79 110 149 193 244 298
#     4   9  17  30  51  77 103 134 169 207 253 303
#     4   9  17  29  44  61  82 111 148 189 236 294
#     4   8  14  26  47  73  97 124 161 205 253 305
#     4  10  20  32  47  68  94 125 163 210 259 305
#
# _framework density 18.741886000000001
#
# number of rings (size 3 to 8) (size 9 to 14) (size 15 to 20)
#    0.000    2.625    0.000    4.125    0.000    5.500 
#    0.000    0.625    0.000    1.875    0.000    0.000 
#    0.000    0.000    0.000    0.000    0.000    0.000 
#
# Total GULP energy -792989.246210 kJ/mol
# GULP energy per Si atom -12390.456972 kJ/mol
# Density = 1.869923 g / cm^3
# Si number density = 18.741886 Si / 1000 Ang^3
#
#
#
# Elastic Constant Matrix: (Units=GPa)
#
#
# Indices 1 2 3 4 5 6 
#
# 1 104.5182 12.7237 34.0313 0.0000 0.0000 0.0000
# 2 12.7237 92.3768 -0.3688 0.0000 0.0000 0.0000
# 3 34.0313 -0.3688 53.7442 0.0000 0.0000 0.0000
# 4 0.0000 0.0000 0.0000 7.5226 0.0000 0.0000
# 5 0.0000 0.0000 0.0000 0.0000 29.3807 0.0000
# 6 0.0000 0.0000 0.0000 0.0000 0.0000 18.7799
#
#
#
# Elastic Compliance Matrix: (Units=1/GPa)
#
#
# Indices 1 2 3 4 5 6 
#
# 1 0.012323 -0.001728 -0.007815 0.000000 0.000000 0.000000
# 2 -0.001728 0.011068 0.001170 0.000000 0.000000 0.000000
# 3 -0.007815 0.001170 0.023563 0.000000 0.000000 0.000000
# 4 0.000000 0.000000 0.000000 0.132932 0.000000 0.000000
# 5 0.000000 0.000000 0.000000 0.000000 0.034036 0.000000
# 6 0.000000 0.000000 0.000000 0.000000 0.000000 0.053248
#
#
# Mechanical properties :
#
#
# Convention : Reuss Voigt Hill
#
# Bulk Modulus (GPa) = 33.10360 38.15686 35.63023
# Shear Modulus (GPa) = 17.00767 24.75350 20.88059
#
# Velocity S-wave (km/s) = 3.01569 3.63817 3.34145
# Velocity P-wave (km/s) = 5.46142 6.16860 5.82575
#
# Compressibility (1/GPa) = 0.03020820
#
# Stress axis : x y z
#
# Youngs Moduli (GPa) = 81.15172 90.35075 42.43942
#
# Poissons Ratio (x) = 0.15617 0.33165
# Poissons Ratio (y) = 0.14027 -0.04967
# Poissons Ratio (z) = 0.63417 -0.10575
#
# Static dielectric constant tensor:
#      x y z
#    x 3.281050 0.000000 0.000000 
#    y 0.000000 3.568200 0.000000 
#    z 0.000000 0.000000 3.198400 
# 
# 
# High freq. dielectric constant tensor:
#      x y z
#    x 1.714790 0.000000 0.000000 
#    y 0.000000 1.715320 0.000000 
#    z 0.000000 0.000000 1.707210 
# 
# From -- ./inp_files/28494.got.cif
#   From: 2010.03.12/outbox.cif.g09.slc.cpg/sg51_15_cif.got.tgz:28494.got - 2010.04.16 13:43:02.
