data_PCOD8210413
_publ_section_title
;
Structure prediction by ZEFSAII (Michael W. Deem and Ramdas Pophale) SiO2 
 PCOD8210413
Probable space group: P M M A
;
_chemical_formula_sum "Si O2"
_cell_formula_units_Z 48
_cell_length_a 9.415532
_cell_length_b 13.941997
_cell_length_c 20.533261
_cell_angle_alpha 90.000000
_cell_angle_beta 90.000000
_cell_angle_gamma 90.000000
_cell_volume 2695.428253
_symmetry_space_group_name_H-M "P M M A"
_symmetry_group_IT_number 51
_symmetry_cell_setting 'orthorhombic'
loop_
_space_group_symop_operation_xyz
x,y,z
1/2-x,-y,z
1/2+x,-y,-z
-x,y,-z
-x,-y,-z
1/2+x,y,-z
1/2-x,y,z
x,-y,z
loop_
_atom_site_type_symbol
_atom_site_label
_atom_site_fract_x
_atom_site_fract_y
_atom_site_fract_z
Si Si1 0.096135 0.609837 0.445543
Si Si2 0.591490 0.604128 0.321545
Si Si3 0.585882 0.110520 0.436899
Si Si4 0.911537 0.885688 0.062094
Si Si5 0.411780 0.811089 0.702919
Si Si6 0.408962 0.887799 0.183056
O O1 0.250000 0.660826 0.442419
O O2 0.117118 0.500000 0.466748
O O3 0.000000 0.662722 0.500000
O O4 0.024866 0.615841 0.376121
O O5 0.750000 0.606341 0.352625
O O6 0.569577 0.500000 0.285450
O O7 0.574897 0.698196 0.276403
O O8 0.500000 0.147352 0.500000
O O9 0.750000 0.122949 0.454073
O O10 0.545395 0.173036 0.372880
O O11 0.548010 0.000000 0.421248
O O12 0.750000 0.845490 0.060046
O O13 0.991880 0.844631 0.125915
O O14 0.906933 0.000000 0.062949
O O15 0.000000 0.848404 0.000000
O O16 0.250000 0.847723 0.714077
O O17 0.518881 0.869802 0.747491
O O18 0.250000 0.842410 0.180845
O O19 0.395086 0.000000 0.171895
#
# Coordination Sequence:
#
# PCOD8210413 Si02
#       6
#     8   8   8   8   8   8
#     4   9  16  26  41  59  78 102 133 171 219 275
#     4   9  18  32  47  63  85 112 144 186 236 288
#     4   9  18  32  48  64  83 110 147 191 237 284
#     4   9  16  27  45  69  99 134 166 193 223 264
#     4  10  20  33  49  68  90 119 155 195 241 289
#     4  10  20  32  47  70  99 129 161 196 232 271
#
# _framework density 17.807932000000001
#
# number of rings (size 3 to 8) (size 9 to 14) (size 15 to 20)
#    0.000    2.667    0.000    2.000    0.000    7.667 
#    0.000    3.333    0.000    0.000    0.000    0.000 
#    0.000    0.667    0.000    1.833    0.000    2.667 
#
# Total GULP energy -594807.018216 kJ/mol
# GULP energy per Si atom -12391.812880 kJ/mol
# Density = 1.776740 g / cm^3
# Si number density = 17.807932 Si / 1000 Ang^3
#
#
#
# Elastic Constant Matrix: (Units=GPa)
#
#
# Indices 1 2 3 4 5 6 
#
# 1 135.7274 11.5976 55.4517 0.0000 0.0000 0.0000
# 2 11.5976 43.8694 8.2913 0.0000 0.0000 0.0000
# 3 55.4517 8.2913 93.3973 0.0000 0.0000 0.0000
# 4 0.0000 0.0000 0.0000 3.9315 0.0000 0.0000
# 5 0.0000 0.0000 0.0000 0.0000 29.5500 0.0000
# 6 0.0000 0.0000 0.0000 0.0000 0.0000 11.0906
#
#
#
# Elastic Compliance Matrix: (Units=1/GPa)
#
#
# Indices 1 2 3 4 5 6 
#
# 1 0.009826 -0.001521 -0.005699 0.000000 0.000000 0.000000
# 2 -0.001521 0.023419 -0.001176 0.000000 0.000000 0.000000
# 3 -0.005699 -0.001176 0.014195 0.000000 0.000000 0.000000
# 4 0.000000 0.000000 0.000000 0.254354 0.000000 0.000000
# 5 0.000000 0.000000 0.000000 0.000000 0.033841 0.000000
# 6 0.000000 0.000000 0.000000 0.000000 0.000000 0.090167
#
#
# Mechanical properties :
#
#
# Convention : Reuss Voigt Hill
#
# Bulk Modulus (GPa) = 32.62780 47.07504 39.85142
# Shear Modulus (GPa) = 11.04217 22.09131 16.56674
#
# Velocity S-wave (km/s) = 2.49282 3.52594 3.05339
# Velocity P-wave (km/s) = 5.16211 6.56267 5.90407
#
# Compressibility (1/GPa) = 0.03064871
#
# Stress axis : x y z
#
# Youngs Moduli (GPa) = 101.77176 42.69995 70.44799
#
# Poissons Ratio (x) = 0.06493 0.40147
# Poissons Ratio (y) = 0.15475 0.08287
# Poissons Ratio (z) = 0.57998 0.05023
#
# Static dielectric constant tensor:
#      x y z
#    x 3.603240 0.000000 0.000000 
#    y 0.000000 3.206250 0.000000 
#    z 0.000000 0.000000 3.013530 
# 
# 
# High freq. dielectric constant tensor:
#      x y z
#    x 1.706400 0.000000 0.000000 
#    y 0.000000 1.653700 0.000000 
#    z 0.000000 0.000000 1.652380 
# 
# From -- ./inp_files/27595.got.cif
#   From: 2010.03.12/outbox.cif.g09.slc.cpg/sg51_14_cif.got.tgz:27595.got - 2010.04.16 13:43:02.
