data_PCOD8210512
_publ_section_title
;
Structure prediction by ZEFSAII (Michael W. Deem and Ramdas Pophale) SiO2 
 PCOD8210512
Probable space group: P M M A
;
_chemical_formula_sum "Si O2"
_cell_formula_units_Z 64
_cell_length_a 18.495964
_cell_length_b 9.330443
_cell_length_c 19.850467
_cell_angle_alpha 90.000000
_cell_angle_beta 90.000000
_cell_angle_gamma 90.000000
_cell_volume 3425.705019
_symmetry_space_group_name_H-M "P M M A"
_symmetry_group_IT_number 51
_symmetry_cell_setting 'orthorhombic'
loop_
_space_group_symop_operation_xyz
x,y,z
1/2-x,-y,z
1/2+x,-y,-z
-x,y,-z
-x,-y,-z
1/2+x,y,-z
1/2-x,y,z
x,-y,z
loop_
_atom_site_type_symbol
_atom_site_label
_atom_site_fract_x
_atom_site_fract_y
_atom_site_fract_z
Si Si1 0.601294 0.662597 0.192933
Si Si2 0.088074 0.169616 0.421977
Si Si3 0.424349 0.830015 0.571272
Si Si4 0.437035 0.334574 0.181866
Si Si5 0.833935 0.667213 0.695910
Si Si6 0.166935 0.162215 0.692075
Si Si7 0.666462 0.334691 0.052632
Si Si8 0.929659 0.169805 0.956809
O O1 0.625782 0.500000 0.203949
O O2 0.517504 0.685149 0.211424
O O3 0.651645 0.757231 0.239378
O O4 0.617380 0.707888 0.116406
O O5 0.105285 0.221158 0.498444
O O6 0.140519 0.248476 0.370085
O O7 0.005416 0.218036 0.410508
O O8 0.098687 0.000000 0.412421
O O9 0.374106 0.764419 0.629400
O O10 0.421644 0.000000 0.569323
O O11 0.423735 0.500000 0.160750
O O12 0.380085 0.284635 0.238726
O O13 0.430621 0.233486 0.117681
O O14 0.750000 0.702575 0.710047
O O15 0.846114 0.500000 0.682034
O O16 0.250000 0.169760 0.673785
O O17 0.140144 0.000000 0.702041
O O18 0.750000 0.304041 0.068972
O O19 0.654185 0.500000 0.032135
O O20 0.641528 0.233827 0.991835
O O21 0.923006 0.000000 0.951608
O O22 0.000000 0.215960 0.000000
#
# Coordination Sequence:
#
# PCOD8210512 Si02
#       8
#     8   8   8   8   8   8   8   8
#     4  10  20  35  56  79 104 137 182 229 265 313
#     4   9  17  33  58  81 103 140 186 230 272 321
#     4   8  16  32  53  79 109 139 180 229 273 321
#     4  10  21  38  61  81 104 145 188 223 267 327
#     4  10  22  38  54  79 115 147 180 228 283 331
#     4  10  20  32  48  73 107 144 176 213 268 328
#     4  10  21  37  58  82 109 145 185 224 270 325
#     4  11  23  38  58  86 116 143 176 225 279 327
#
# _framework density 18.682286999999999
#
# number of rings (size 3 to 8) (size 9 to 14) (size 15 to 20)
#    0.000    2.250    1.250    2.250    0.000    4.250 
#    0.000    4.375    0.000    0.000    0.000    0.000 
#    0.000    0.000    0.000    0.000    0.000    0.000 
#
# Total GULP energy -793590.774532 kJ/mol
# GULP energy per Si atom -12399.855852 kJ/mol
# Density = 1.863977 g / cm^3
# Si number density = 18.682287 Si / 1000 Ang^3
#
#
#
# Elastic Constant Matrix: (Units=GPa)
#
#
# Indices 1 2 3 4 5 6 
#
# 1 75.6784 27.8970 35.0181 0.0000 0.0000 0.0000
# 2 27.8970 53.5503 44.0335 0.0000 0.0000 0.0000
# 3 35.0181 44.0335 95.2387 0.0000 0.0000 0.0000
# 4 0.0000 0.0000 0.0000 38.1179 0.0000 0.0000
# 5 0.0000 0.0000 0.0000 0.0000 32.7713 0.0000
# 6 0.0000 0.0000 0.0000 0.0000 0.0000 26.1699
#
#
#
# Elastic Compliance Matrix: (Units=1/GPa)
#
#
# Indices 1 2 3 4 5 6 
#
# 1 0.017043 -0.006011 -0.003487 0.000000 0.000000 0.000000
# 2 -0.006011 0.032248 -0.012700 0.000000 0.000000 0.000000
# 3 -0.003487 -0.012700 0.017654 0.000000 0.000000 0.000000
# 4 0.000000 0.000000 0.000000 0.026234 0.000000 0.000000
# 5 0.000000 0.000000 0.000000 0.000000 0.030515 0.000000
# 6 0.000000 0.000000 0.000000 0.000000 0.000000 0.038212
#
#
# Mechanical properties :
#
#
# Convention : Reuss Voigt Hill
#
# Bulk Modulus (GPa) = 44.34774 48.70719 46.52747
# Shear Modulus (GPa) = 23.38424 27.24639 25.31532
#
# Velocity S-wave (km/s) = 3.54175 3.82305 3.68509
# Velocity P-wave (km/s) = 6.36511 6.75393 6.56240
#
# Compressibility (1/GPa) = 0.02254906
#
# Stress axis : x y z
#
# Youngs Moduli (GPa) = 58.67391 31.00942 56.64465
#
# Poissons Ratio (x) = 0.18640 0.19754
# Poissons Ratio (y) = 0.35269 0.71937
# Poissons Ratio (z) = 0.20462 0.39381
#
# Static dielectric constant tensor:
#      x y z
#    x 3.533330 0.000000 0.000000 
#    y 0.000000 3.228740 0.000000 
#    z 0.000000 0.000000 3.523740 
# 
# 
# High freq. dielectric constant tensor:
#      x y z
#    x 1.728710 0.000000 0.000000 
#    y 0.000000 1.704490 0.000000 
#    z 0.000000 0.000000 1.732360 
# 
# From -- ./inp_files/33969.got.cif
#   From: 2010.03.12/outbox.cif.g09.slc.cpg/sg51_17_cif.got.tgz:33969.got - 2010.04.16 13:43:02.
