data_PCOD8210908
_publ_section_title
;
Structure prediction by ZEFSAII (Michael W. Deem and Ramdas Pophale) SiO2 
 PCOD8210908
Probable space group: P M M A
;
_chemical_formula_sum "Si O2"
_cell_formula_units_Z 64
_cell_length_a 8.882129
_cell_length_b 28.192458
_cell_length_c 13.818737
_cell_angle_alpha 90.000000
_cell_angle_beta 90.000000
_cell_angle_gamma 90.000000
_cell_volume 3460.336788
_symmetry_space_group_name_H-M "P M M A"
_symmetry_group_IT_number 51
_symmetry_cell_setting 'orthorhombic'
loop_
_space_group_symop_operation_xyz
x,y,z
1/2-x,-y,z
1/2+x,-y,-z
-x,y,-z
-x,-y,-z
1/2+x,y,-z
1/2-x,y,z
x,-y,z
loop_
_atom_site_type_symbol
_atom_site_label
_atom_site_fract_x
_atom_site_fract_y
_atom_site_fract_z
Si Si1 0.424589 0.729327 0.705593
Si Si2 0.924562 0.944792 0.898982
Si Si3 0.429116 0.185085 0.396607
Si Si4 0.575929 0.776392 0.100753
Si Si5 0.426936 0.445512 0.290430
Si Si6 0.418372 0.443657 0.905731
Si Si7 0.924849 0.635407 0.402148
Si Si8 0.071696 0.133023 0.778408
O O1 0.250000 0.743752 0.689070
O O2 0.524318 0.762089 0.636047
O O3 0.468856 0.737441 0.817841
O O4 0.453936 0.674536 0.680581
O O5 0.750000 0.930590 0.903975
O O6 0.006841 0.917194 0.812664
O O7 0.947041 0.000000 0.876755
O O8 0.000000 0.930422 0.000000
O O9 0.500000 0.173382 0.500000
O O10 0.250000 0.181579 0.401935
O O11 0.493258 0.146259 0.322295
O O12 0.750000 0.774985 0.078598
O O13 0.528304 0.828007 0.140468
O O14 0.500000 0.763603 0.000000
O O15 0.250000 0.438312 0.290039
O O16 0.471817 0.500000 0.309860
O O17 0.489976 0.427531 0.188029
O O18 0.500135 0.414375 0.374287
O O19 0.250000 0.422739 0.899142
O O20 0.413244 0.500000 0.913495
O O21 0.500000 0.422199 0.000000
O O22 0.750000 0.626538 0.420048
O O23 0.000000 0.654380 0.500000
O O24 0.250000 0.130165 0.762436
#
# Coordination Sequence:
#
# PCOD8210908 Si02
#       8
#     8   8   8   8   8   8   8   8
#     4   9  20  38  56  78 108 140 175 215 259 309
#     4  10  20  33  50  75 108 146 188 232 278 329
#     4  11  21  34  55  81 108 138 175 220 270 322
#     4   9  18  32  51  77 109 141 173 211 255 307
#     4  10  21  37  56  79 107 137 172 214 258 308
#     4   9  16  28  49  76 104 133 165 202 245 291
#     4  11  23  39  59  79 103 135 172 216 264 315
#     4  10  20  34  52  76 108 144 184 230 276 322
#
# _framework density 18.495311000000001
#
# number of rings (size 3 to 8) (size 9 to 14) (size 15 to 20)
#    0.000    2.125    0.000    4.500    0.000    8.750 
#    0.000    0.625    0.000    1.875    0.000    0.000 
#    0.000    0.000    0.000    0.000    0.000    0.000 
#
# Total GULP energy -793755.014960 kJ/mol
# GULP energy per Si atom -12402.422109 kJ/mol
# Density = 1.845321 g / cm^3
# Si number density = 18.495311 Si / 1000 Ang^3
#
#
#
# Elastic Constant Matrix: (Units=GPa)
#
#
# Indices 1 2 3 4 5 6 
#
# 1 122.3120 51.1037 63.7689 0.0000 0.0000 0.0000
# 2 51.1037 78.3031 53.4694 0.0000 0.0000 0.0000
# 3 63.7689 53.4694 136.4352 0.0000 0.0000 0.0000
# 4 0.0000 0.0000 0.0000 24.4664 0.0000 0.0000
# 5 0.0000 0.0000 0.0000 0.0000 38.7218 0.0000
# 6 0.0000 0.0000 0.0000 0.0000 0.0000 24.0861
#
#
#
# Elastic Compliance Matrix: (Units=1/GPa)
#
#
# Indices 1 2 3 4 5 6 
#
# 1 0.012404 -0.005648 -0.003584 0.000000 0.000000 0.000000
# 2 -0.005648 0.020009 -0.005202 0.000000 0.000000 0.000000
# 3 -0.003584 -0.005202 0.011043 0.000000 0.000000 0.000000
# 4 0.000000 0.000000 0.000000 0.040872 0.000000 0.000000
# 5 0.000000 0.000000 0.000000 0.000000 0.025825 0.000000
# 6 0.000000 0.000000 0.000000 0.000000 0.000000 0.041518
#
#
# Mechanical properties :
#
#
# Convention : Reuss Voigt Hill
#
# Bulk Modulus (GPa) = 68.54648 74.85938 71.70293
# Shear Modulus (GPa) = 26.96827 28.70207 27.83517
#
# Velocity S-wave (km/s) = 3.82267 3.94363 3.88362
# Velocity P-wave (km/s) = 7.52501 7.82937 7.67870
#
# Compressibility (1/GPa) = 0.01458864
#
# Stress axis : x y z
#
# Youngs Moduli (GPa) = 80.61698 49.97736 90.55270
#
# Poissons Ratio (x) = 0.28228 0.32456
# Poissons Ratio (y) = 0.45533 0.47103
# Poissons Ratio (z) = 0.28895 0.25997
#
# Static dielectric constant tensor:
#      x y z
#    x 3.566320 0.000000 0.000000 
#    y 0.000000 3.201360 0.000000 
#    z 0.000000 0.000000 3.448440 
# 
# 
# High freq. dielectric constant tensor:
#      x y z
#    x 1.730490 0.000000 0.000000 
#    y 0.000000 1.694610 0.000000 
#    z 0.000000 0.000000 1.719540 
# 
# From -- ./inp_files/14844.got.cif
#   From: 2010.03.12/outbox.cif.g09.slc.cpg/sg51_8_cif.got.tgz:14844.got - 2010.04.16 13:43:02.
