data_PCOD8210689
_publ_section_title
;
Structure prediction by ZEFSAII (Michael W. Deem and Ramdas Pophale) SiO2 
 PCOD8210689
Probable space group: P M M A
;
_chemical_formula_sum "Si O2"
_cell_formula_units_Z 40
_cell_length_a 9.296046
_cell_length_b 13.594266
_cell_length_c 18.728098
_cell_angle_alpha 90.000000
_cell_angle_beta 90.000000
_cell_angle_gamma 90.000000
_cell_volume 2366.724469
_symmetry_space_group_name_H-M "P M M A"
_symmetry_group_IT_number 51
_symmetry_cell_setting 'orthorhombic'
loop_
_space_group_symop_operation_xyz
x,y,z
1/2-x,-y,z
1/2+x,-y,-z
-x,y,-z
-x,-y,-z
1/2+x,y,-z
1/2-x,y,z
x,-y,z
loop_
_atom_site_type_symbol
_atom_site_label
_atom_site_fract_x
_atom_site_fract_y
_atom_site_fract_z
Si Si1 0.917263 0.200834 0.716663
Si Si2 0.917569 0.886334 0.569676
Si Si3 0.919252 0.701590 0.072719
Si Si4 0.584991 0.109844 0.157834
Si Si5 0.085294 0.389475 0.198998
O O1 0.750000 0.175689 0.721869
O O2 0.971965 0.178505 0.636743
O O3 0.950759 0.314466 0.736468
O O4 0.993592 0.127930 0.771497
O O5 0.750000 0.871038 0.555327
O O6 0.000000 0.847713 0.500000
O O7 0.954537 0.000000 0.585417
O O8 0.750000 0.683209 0.063051
O O9 0.955338 0.813840 0.095203
O O10 0.979494 0.628478 0.132823
O O11 0.000000 0.677073 0.000000
O O12 0.750000 0.124138 0.180065
O O13 0.554155 0.000000 0.128984
O O14 0.250000 0.373756 0.173343
O O15 0.061037 0.500000 0.227712
#
# Coordination Sequence:
#
# PCOD8210689 Si02
#       5
#     8   8   8   8   8
#     4   9  17  30  48  69  92 118 151 190 227 265
#     4   9  17  28  43  66  95 124 152 181 215 258
#     4  10  20  33  48  67  92 120 150 186 227 271
#     4   9  18  31  46  66  92 121 152 185 223 268
#     4   9  18  33  52  71  89 113 148 189 233 277
#
# _framework density 16.900994000000001
#
# number of rings (size 3 to 8) (size 9 to 14) (size 15 to 20)
#    0.000    2.800    0.000    1.200    0.000    4.000 
#    0.000    2.000    0.000    0.600    0.000    0.000 
#    0.000    0.000    0.000    0.000    0.000    0.000 
#
# Total GULP energy -495979.318851 kJ/mol
# GULP energy per Si atom -12399.482971 kJ/mol
# Density = 1.686253 g / cm^3
# Si number density = 16.900994 Si / 1000 Ang^3
#
#
#
# Elastic Constant Matrix: (Units=GPa)
#
#
# Indices 1 2 3 4 5 6 
#
# 1 53.3555 23.9157 42.7648 0.0000 0.0000 0.0000
# 2 23.9157 87.8296 37.4145 0.0000 0.0000 0.0000
# 3 42.7648 37.4145 117.1724 0.0000 0.0000 0.0000
# 4 0.0000 0.0000 0.0000 15.5948 0.0000 0.0000
# 5 0.0000 0.0000 0.0000 0.0000 29.3415 0.0000
# 6 0.0000 0.0000 0.0000 0.0000 0.0000 20.3825
#
#
#
# Elastic Compliance Matrix: (Units=1/GPa)
#
#
# Indices 1 2 3 4 5 6 
#
# 1 0.027503 -0.003719 -0.008850 0.000000 0.000000 0.000000
# 2 -0.003719 0.013681 -0.003011 0.000000 0.000000 0.000000
# 3 -0.008850 -0.003011 0.012726 0.000000 0.000000 0.000000
# 4 0.000000 0.000000 0.000000 0.064124 0.000000 0.000000
# 5 0.000000 0.000000 0.000000 0.000000 0.034081 0.000000
# 6 0.000000 0.000000 0.000000 0.000000 0.000000 0.049062
#
#
# Mechanical properties :
#
#
# Convention : Reuss Voigt Hill
#
# Bulk Modulus (GPa) = 43.95765 51.83860 47.89813
# Shear Modulus (GPa) = 20.84024 23.34794 22.09409
#
# Velocity S-wave (km/s) = 3.51533 3.72082 3.61954
# Velocity P-wave (km/s) = 6.52243 7.01412 6.77274
#
# Compressibility (1/GPa) = 0.02274917
#
# Stress axis : x y z
#
# Youngs Moduli (GPa) = 36.36018 73.09380 78.57877
#
# Poissons Ratio (x) = 0.27182 0.69544
# Poissons Ratio (y) = 0.13521 0.23662
# Poissons Ratio (z) = 0.32180 0.22011
#
# Static dielectric constant tensor:
#      x y z
#    x 3.194320 0.000000 0.000000 
#    y 0.000000 3.214420 0.000000 
#    z 0.000000 0.000000 3.092200 
# 
# 
# High freq. dielectric constant tensor:
#      x y z
#    x 1.653960 0.000000 0.000000 
#    y 0.000000 1.644860 0.000000 
#    z 0.000000 0.000000 1.636600 
# 
# From -- ./inp_files/27210.got.cif
#   From: 2010.03.12/outbox.cif.g09.slc.cpg/sg51_14_cif.got.tgz:27210.got - 2010.04.16 13:43:02.
