data_PCOD8210382
_publ_section_title
;
Structure prediction by ZEFSAII (Michael W. Deem and Ramdas Pophale) SiO2 
 PCOD8210382
Probable space group: P M M A
;
_chemical_formula_sum "Si O2"
_cell_formula_units_Z 48
_cell_length_a 9.463683
_cell_length_b 9.552647
_cell_length_c 30.956131
_cell_angle_alpha 90.000000
_cell_angle_beta 90.000000
_cell_angle_gamma 90.000000
_cell_volume 2798.534015
_symmetry_space_group_name_H-M "P M M A"
_symmetry_group_IT_number 51
_symmetry_cell_setting 'orthorhombic'
loop_
_space_group_symop_operation_xyz
x,y,z
1/2-x,-y,z
1/2+x,-y,-z
-x,y,-z
-x,-y,-z
1/2+x,y,-z
1/2-x,y,z
x,-y,z
loop_
_atom_site_type_symbol
_atom_site_label
_atom_site_fract_x
_atom_site_fract_y
_atom_site_fract_z
Si Si1 0.915661 0.662165 0.865326
Si Si2 0.905131 0.665497 0.962128
Si Si3 0.581990 0.155679 0.620822
Si Si4 0.586287 0.165398 0.203804
Si Si5 0.407538 0.833592 0.284592
Si Si6 0.914472 0.337540 0.541550
O O1 0.750000 0.695147 0.858772
O O2 0.946001 0.500000 0.854754
O O3 0.963398 0.698638 0.914281
O O4 0.009979 0.759497 0.835551
O O5 0.750000 0.731584 0.967332
O O6 0.895825 0.500000 0.968072
O O7 0.000000 0.733007 0.000000
O O8 0.750000 0.149535 0.619876
O O9 0.536880 0.215208 0.668064
O O10 0.525018 0.256619 0.583269
O O11 0.519715 0.000000 0.613110
O O12 0.750000 0.207711 0.204718
O O13 0.515566 0.219903 0.248226
O O14 0.565724 0.000000 0.198204
O O15 0.250000 0.773514 0.274909
O O16 0.399736 0.000000 0.285156
O O17 0.750000 0.305693 0.533584
O O18 0.942560 0.500000 0.550105
O O19 0.000000 0.283985 0.500000
#
# Coordination Sequence:
#
# PCOD8210382 Si02
#       6
#     8   8   8   8   8   8
#     4   9  18  32  49  70  95 122 155 194 231 270
#     4   8  14  25  42  65  91 117 147 184 226 272
#     4   8  14  26  45  66  85 108 143 184 219 253
#     4  10  20  32  47  69  96 125 156 189 228 277
#     4   8  14  27  47  66  84 112 149 185 222 265
#     4   9  17  29  44  62  86 115 144 174 211 257
#
# _framework density 17.151838000000001
#
# number of rings (size 3 to 8) (size 9 to 14) (size 15 to 20)
#    0.000    3.333    0.000    2.500    0.000    2.333 
#    0.000    3.333    0.000    4.500    0.000    0.000 
#    0.000    0.000    0.000    0.000    0.000    0.000 
#
# Total GULP energy -594904.755682 kJ/mol
# GULP energy per Si atom -12393.849077 kJ/mol
# Density = 1.711280 g / cm^3
# Si number density = 17.151838 Si / 1000 Ang^3
#
#
#
# Elastic Constant Matrix: (Units=GPa)
#
#
# Indices 1 2 3 4 5 6 
#
# 1 79.4641 31.6668 76.4940 0.0000 0.0000 0.0000
# 2 31.6668 36.6426 49.9504 0.0000 0.0000 0.0000
# 3 76.4940 49.9504 176.1587 0.0000 0.0000 0.0000
# 4 0.0000 0.0000 0.0000 27.8274 0.0000 0.0000
# 5 0.0000 0.0000 0.0000 0.0000 31.4544 0.0000
# 6 0.0000 0.0000 0.0000 0.0000 0.0000 18.1360
#
#
#
# Elastic Compliance Matrix: (Units=1/GPa)
#
#
# Indices 1 2 3 4 5 6 
#
# 1 0.023912 -0.010613 -0.007374 0.000000 0.000000 0.000000
# 2 -0.010613 0.049196 -0.009341 0.000000 0.000000 0.000000
# 3 -0.007374 -0.009341 0.011528 0.000000 0.000000 0.000000
# 4 0.000000 0.000000 0.000000 0.035936 0.000000 0.000000
# 5 0.000000 0.000000 0.000000 0.000000 0.031792 0.000000
# 6 0.000000 0.000000 0.000000 0.000000 0.000000 0.055139
#
#
# Mechanical properties :
#
#
# Convention : Reuss Voigt Hill
#
# Bulk Modulus (GPa) = 33.35628 67.60975 50.48301
# Shear Modulus (GPa) = 18.37211 24.42717 21.39964
#
# Velocity S-wave (km/s) = 3.27639 3.77791 3.53605
# Velocity P-wave (km/s) = 5.81402 7.65076 6.79474
#
# Compressibility (1/GPa) = 0.02997937
#
# Stress axis : x y z
#
# Youngs Moduli (GPa) = 41.81998 20.32687 86.74856
#
# Poissons Ratio (x) = 0.21572 0.63970
# Poissons Ratio (y) = 0.44382 0.81035
# Poissons Ratio (z) = 0.30839 0.18988
#
# Static dielectric constant tensor:
#      x y z
#    x 3.267860 0.000000 0.000000 
#    y 0.000000 2.891510 0.000000 
#    z 0.000000 0.000000 3.583640 
# 
# 
# High freq. dielectric constant tensor:
#      x y z
#    x 1.642030 0.000000 0.000000 
#    y 0.000000 1.621150 0.000000 
#    z 0.000000 0.000000 1.678640 
# 
# From -- ./inp_files/36154.got.cif
#   From: 2010.03.12/outbox.cif.g09.slc.cpg/sg51_19_cif.got.tgz:36154.got - 2010.04.16 13:43:02.
