data_PCOD8210225
_publ_section_title
;
Structure prediction by ZEFSAII (Michael W. Deem and Ramdas Pophale) SiO2 
 PCOD8210225
Probable space group: P M M A
;
_chemical_formula_sum "Si O2"
_cell_formula_units_Z 64
_cell_length_a 23.149326
_cell_length_b 14.381129
_cell_length_c 10.103474
_cell_angle_alpha 90.000000
_cell_angle_beta 90.000000
_cell_angle_gamma 90.000000
_cell_volume 3363.582320
_symmetry_space_group_name_H-M "P M M A"
_symmetry_group_IT_number 51
_symmetry_cell_setting 'orthorhombic'
loop_
_space_group_symop_operation_xyz
x,y,z
1/2-x,-y,z
1/2+x,-y,-z
-x,y,-z
-x,-y,-z
1/2+x,y,-z
1/2-x,y,z
x,-y,z
loop_
_atom_site_type_symbol
_atom_site_label
_atom_site_fract_x
_atom_site_fract_y
_atom_site_fract_z
Si Si1 0.317595 0.264357 0.618001
Si Si2 0.637658 0.755137 0.102201
Si Si3 0.317517 0.609099 0.091717
Si Si4 0.391280 0.894926 0.540977
Si Si5 0.917414 0.109654 0.745881
Si Si6 0.818439 0.397455 0.609897
Si Si7 0.956321 0.107582 0.191443
Si Si8 0.313603 0.105905 0.074931
O O1 0.250000 0.276871 0.632952
O O2 0.347664 0.289780 0.756526
O O3 0.333217 0.158944 0.581458
O O4 0.343781 0.330305 0.503214
O O5 0.578197 0.815815 0.105084
O O6 0.639006 0.668747 0.000109
O O7 0.685446 0.831230 0.057270
O O8 0.250000 0.633735 0.063806
O O9 0.327893 0.500000 0.065376
O O10 0.334681 0.635713 0.242216
O O11 0.416794 0.852610 0.404638
O O12 0.439538 0.885965 0.654152
O O13 0.370851 0.000000 0.521274
O O14 0.861503 0.147658 0.824879
O O15 0.976599 0.137202 0.820111
O O16 0.913232 0.000000 0.739016
O O17 0.750000 0.400787 0.598906
O O18 0.844160 0.500000 0.584141
O O19 0.946369 0.000000 0.141230
O O20 0.250000 0.113976 0.140775
O O21 0.327087 0.000000 0.034477
#
# Coordination Sequence:
#
# PCOD8210225 Si02
#       8
#     8   8   8   8   8   8   8   8
#     4  10  20  31  47  74 106 141 176 214 265 321
#     4  11  21  33  50  77 111 146 180 218 263 312
#     4   9  18  33  53  76 104 141 180 218 268 326
#     4   9  18  31  48  73 104 138 178 224 267 310
#     4   9  18  33  53  75 101 139 186 230 267 306
#     4   8  16  32  52  73  99 134 176 221 267 316
#     4   9  18  34  54  75 103 142 187 227 263 310
#     4  10  21  34  49  74 109 145 177 213 264 321
#
# _framework density 19.027332999999999
#
# number of rings (size 3 to 8) (size 9 to 14) (size 15 to 20)
#    0.000    2.625    0.000    2.625    1.750    3.750 
#    0.000    4.375    0.000    0.000    0.000    2.625 
#    0.000    4.000    0.000    0.000    0.000    0.000 
#
# Total GULP energy -793100.834549 kJ/mol
# GULP energy per Si atom -12392.200540 kJ/mol
# Density = 1.898403 g / cm^3
# Si number density = 19.027333 Si / 1000 Ang^3
#
#
#
# Elastic Constant Matrix: (Units=GPa)
#
#
# Indices 1 2 3 4 5 6 
#
# 1 80.3559 31.8319 45.0264 0.0000 0.0000 0.0000
# 2 31.8319 87.0267 60.8933 0.0000 0.0000 0.0000
# 3 45.0264 60.8933 114.9508 0.0000 0.0000 0.0000
# 4 0.0000 0.0000 0.0000 33.0873 0.0000 0.0000
# 5 0.0000 0.0000 0.0000 0.0000 22.8540 0.0000
# 6 0.0000 0.0000 0.0000 0.0000 0.0000 12.0857
#
#
#
# Elastic Compliance Matrix: (Units=1/GPa)
#
#
# Indices 1 2 3 4 5 6 
#
# 1 0.016245 -0.002367 -0.005109 0.000000 0.000000 0.000000
# 2 -0.002367 0.018603 -0.008928 0.000000 0.000000 0.000000
# 3 -0.005109 -0.008928 0.015430 0.000000 0.000000 0.000000
# 4 0.000000 0.000000 0.000000 0.030223 0.000000 0.000000
# 5 0.000000 0.000000 0.000000 0.000000 0.043756 0.000000
# 6 0.000000 0.000000 0.000000 0.000000 0.000000 0.082743
#
#
# Mechanical properties :
#
#
# Convention : Reuss Voigt Hill
#
# Bulk Modulus (GPa) = 57.23934 61.98182 59.61058
# Shear Modulus (GPa) = 20.35569 23.24419 21.79994
#
# Velocity S-wave (km/s) = 3.27435 3.49896 3.38852
# Velocity P-wave (km/s) = 6.66657 6.99782 6.83420
#
# Compressibility (1/GPa) = 0.01747050
#
# Stress axis : x y z
#
# Youngs Moduli (GPa) = 61.55631 53.75418 64.80872
#
# Poissons Ratio (x) = 0.12723 0.33114
# Poissons Ratio (y) = 0.14570 0.57859
# Poissons Ratio (z) = 0.31452 0.47990
#
# Static dielectric constant tensor:
#      x y z
#    x 3.304500 0.000000 0.000000 
#    y 0.000000 3.504330 0.000000 
#    z 0.000000 0.000000 3.755760 
# 
# 
# High freq. dielectric constant tensor:
#      x y z
#    x 1.706400 0.000000 0.000000 
#    y 0.000000 1.721590 0.000000 
#    z 0.000000 0.000000 1.750580 
# 
# From -- ./inp_files/11906.got.cif
#   From: 2010.03.12/outbox.cif.g09.slc.cpg/sg51_6_cif.got.tgz:11906.got - 2010.04.16 13:43:02.
