data_PCOD8210619
_publ_section_title
;
Structure prediction by ZEFSAII (Michael W. Deem and Ramdas Pophale) SiO2 
 PCOD8210619
Probable space group: P M M A
;
_chemical_formula_sum "Si O2"
_cell_formula_units_Z 52
_cell_length_a 9.532520
_cell_length_b 16.935846
_cell_length_c 17.444671
_cell_angle_alpha 90.000000
_cell_angle_beta 90.000000
_cell_angle_gamma 90.000000
_cell_volume 2816.290202
_symmetry_space_group_name_H-M "P M M A"
_symmetry_group_IT_number 51
_symmetry_cell_setting 'orthorhombic'
loop_
_space_group_symop_operation_xyz
x,y,z
1/2-x,-y,z
1/2+x,-y,-z
-x,y,-z
-x,-y,-z
1/2+x,y,-z
1/2-x,y,z
x,-y,z
loop_
_atom_site_type_symbol
_atom_site_label
_atom_site_fract_x
_atom_site_fract_y
_atom_site_fract_z
Si Si1 0.092273 0.156908 0.069690
Si Si2 0.093458 0.000000 0.426289
Si Si3 0.014175 0.315378 0.853505
Si Si4 0.250000 0.592559 0.941273
Si Si5 0.594047 0.910843 0.772423
Si Si6 0.089260 0.776960 0.709649
Si Si7 0.250000 0.408688 0.122276
Si Si8 0.086162 0.173997 0.421529
O O1 0.250000 0.174772 0.040844
O O2 0.093192 0.090271 0.135101
O O3 0.024826 0.237331 0.100616
O O4 0.000000 0.124115 0.000000
O O5 0.070942 0.915341 0.382547
O O6 0.000000 0.000000 0.500000
O O7 0.250000 0.000000 0.459160
O O8 0.115018 0.367337 0.905410
O O9 0.079101 0.294283 0.770385
O O10 0.881106 0.369035 0.836483
O O11 0.250000 0.500000 0.921770
O O12 0.250000 0.607231 0.031643
O O13 0.750000 0.879675 0.745069
O O14 0.464781 0.857620 0.746982
O O15 0.572767 0.000000 0.742541
O O16 0.250000 0.786942 0.683142
O O17 0.988446 0.763480 0.635520
O O18 0.250000 0.500000 0.142042
O O19 0.250000 0.195754 0.434787
O O20 0.000000 0.176042 0.500000
#
# Coordination Sequence:
#
# PCOD8210619 Si02
#       8
#     8   4   8   4   8   8   4   8
#     4  10  20  32  51  72  96 134 178 226 281 330
#     4   8  16  30  48  76 108 142 175 218 275 325
#     4  11  22  37  54  80 114 147 185 226 272 335
#     4  11  22  38  58  84 116 150 181 226 280 330
#     4   9  20  37  52  69  96 134 184 235 284 330
#     4  11  23  37  54  78 111 151 187 228 277 329
#     4  11  22  36  60  88 114 146 187 230 276 334
#     4  10  20  35  57  83 112 145 186 230 278 336
#
# _framework density 18.464006000000001
#
# number of rings (size 3 to 8) (size 9 to 14) (size 15 to 20)
#    0.000    1.846    1.538    2.769    4.308    3.077 
#    0.000    0.000    0.000    0.000    0.000    0.000 
#    0.000    3.692    0.000    0.000    0.000    0.000 
#
# Total GULP energy -644530.831371 kJ/mol
# GULP energy per Si atom -12394.823680 kJ/mol
# Density = 1.842198 g / cm^3
# Si number density = 18.464006 Si / 1000 Ang^3
#
#
#
# Elastic Constant Matrix: (Units=GPa)
#
#
# Indices 1 2 3 4 5 6 
#
# 1 134.9560 22.8871 31.8165 0.0000 0.0000 0.0000
# 2 22.8871 57.2608 11.3573 0.0000 0.0000 0.0000
# 3 31.8165 11.3573 56.5145 0.0000 0.0000 0.0000
# 4 0.0000 0.0000 0.0000 43.1990 0.0000 0.0000
# 5 0.0000 0.0000 0.0000 0.0000 35.6379 0.0000
# 6 0.0000 0.0000 0.0000 0.0000 0.0000 25.2207
#
#
#
# Elastic Compliance Matrix: (Units=1/GPa)
#
#
# Indices 1 2 3 4 5 6 
#
# 1 0.008921 -0.002676 -0.004484 0.000000 0.000000 0.000000
# 2 -0.002676 0.018992 -0.002310 0.000000 0.000000 0.000000
# 3 -0.004484 -0.002310 0.020683 0.000000 0.000000 0.000000
# 4 0.000000 0.000000 0.000000 0.023149 0.000000 0.000000
# 5 0.000000 0.000000 0.000000 0.000000 0.028060 0.000000
# 6 0.000000 0.000000 0.000000 0.000000 0.000000 0.039650
#
#
# Mechanical properties :
#
#
# Convention : Reuss Voigt Hill
#
# Bulk Modulus (GPa) = 33.72135 42.31703 38.01919
# Shear Modulus (GPa) = 29.71219 32.98955 31.35087
#
# Velocity S-wave (km/s) = 4.01583 4.23152 4.12508
# Velocity P-wave (km/s) = 6.30916 6.84417 6.58210
#
# Compressibility (1/GPa) = 0.02965480
#
# Stress axis : x y z
#
# Youngs Moduli (GPa) = 112.09620 52.65431 48.34785
#
# Poissons Ratio (x) = 0.14091 0.21681
# Poissons Ratio (y) = 0.29999 0.11168
# Poissons Ratio (z) = 0.50269 0.12163
#
# Static dielectric constant tensor:
#      x y z
#    x 3.531310 0.000000 0.000000 
#    y 0.000000 3.280240 0.000000 
#    z 0.000000 0.000000 3.522780 
# 
# 
# High freq. dielectric constant tensor:
#      x y z
#    x 1.733380 0.000000 0.000000 
#    y 0.000000 1.680450 0.000000 
#    z 0.000000 0.000000 1.715010 
# 
# From -- ./inp_files/27997.got.cif
#   From: 2010.03.12/outbox.cif.g09.slc.cpg/sg51_14_cif.got.tgz:27997.got - 2010.04.16 13:43:02.
