data_PCOD8210527
_publ_section_title
;
Structure prediction by ZEFSAII (Michael W. Deem and Ramdas Pophale) SiO2 
 PCOD8210527
Probable space group: P M M A
;
_chemical_formula_sum "Si O2"
_cell_formula_units_Z 56
_cell_length_a 20.093369
_cell_length_b 9.775475
_cell_length_c 14.798956
_cell_angle_alpha 90.000000
_cell_angle_beta 90.000000
_cell_angle_gamma 90.000000
_cell_volume 2906.843885
_symmetry_space_group_name_H-M "P M M A"
_symmetry_group_IT_number 51
_symmetry_cell_setting 'orthorhombic'
loop_
_space_group_symop_operation_xyz
x,y,z
1/2-x,-y,z
1/2+x,-y,-z
-x,y,-z
-x,-y,-z
1/2+x,y,-z
1/2-x,y,z
x,-y,z
loop_
_atom_site_type_symbol
_atom_site_label
_atom_site_fract_x
_atom_site_fract_y
_atom_site_fract_z
Si Si1 0.926835 0.854354 0.523996
Si Si2 0.750000 0.656073 0.555563
Si Si3 0.750000 0.155054 0.379939
Si Si4 0.585125 0.339111 0.863455
Si Si5 0.826509 0.337708 0.026453
Si Si6 0.063837 0.338752 0.828173
Si Si7 0.382102 0.657749 0.335897
Si Si8 0.110275 0.158356 0.670499
O O1 0.932329 0.747194 0.605287
O O2 0.893610 0.792147 0.433947
O O3 0.000000 0.894688 0.500000
O O4 0.891489 0.000000 0.551232
O O5 0.750000 0.500000 0.521761
O O6 0.750000 0.749073 0.467796
O O7 0.689201 0.687619 0.621626
O O8 0.811382 0.178928 0.311326
O O9 0.750000 0.000000 0.417808
O O10 0.590554 0.500000 0.873716
O O11 0.633840 0.275229 0.939827
O O12 0.506890 0.298367 0.875081
O O13 0.614167 0.291140 0.767146
O O14 0.750000 0.279966 0.033024
O O15 0.822502 0.500000 0.019733
O O16 0.872578 0.295626 0.111578
O O17 0.064574 0.500000 0.806143
O O18 0.067326 0.255393 0.734886
O O19 0.403641 0.500000 0.342163
O O20 0.087159 0.000000 0.682354
#
# Coordination Sequence:
#
# PCOD8210527 Si02
#       8
#     8   4   4   8   8   8   8   8
#     4  10  20  34  52  74 102 138 179 218 255 307
#     4  10  20  32  48  75 104 132 174 225 266 305
#     4  10  20  36  54  71  98 144 188 213 258 323
#     4   9  18  33  53  77 108 142 172 211 266 322
#     4   9  18  32  53  81 109 137 172 216 264 314
#     4  10  20  34  55  82 108 136 175 220 264 310
#     4  10  20  32  50  76 104 135 173 215 265 315
#     4  10  21  35  52  75 104 140 179 214 259 317
#
# _framework density 19.264879000000001
#
# number of rings (size 3 to 8) (size 9 to 14) (size 15 to 20)
#    0.000    2.286    1.429    1.286    2.000    3.143 
#    0.000    0.000    0.000    2.571    0.000    0.000 
#    0.000    0.000    0.000    0.000    0.000    0.000 
#
# Total GULP energy -693802.221374 kJ/mol
# GULP energy per Si atom -12389.325382 kJ/mol
# Density = 1.922103 g / cm^3
# Si number density = 19.264879 Si / 1000 Ang^3
#
#
#
# Elastic Constant Matrix: (Units=GPa)
#
#
# Indices 1 2 3 4 5 6 
#
# 1 98.3716 19.5188 26.5633 0.0000 0.0000 0.0000
# 2 19.5188 47.4137 39.5757 0.0000 0.0000 0.0000
# 3 26.5633 39.5757 95.8515 0.0000 0.0000 0.0000
# 4 0.0000 0.0000 0.0000 8.7685 0.0000 0.0000
# 5 0.0000 0.0000 0.0000 0.0000 29.5573 0.0000
# 6 0.0000 0.0000 0.0000 0.0000 0.0000 15.5745
#
#
#
# Elastic Compliance Matrix: (Units=1/GPa)
#
#
# Indices 1 2 3 4 5 6 
#
# 1 0.011279 -0.003104 -0.001844 0.000000 0.000000 0.000000
# 2 -0.003104 0.033036 -0.012780 0.000000 0.000000 0.000000
# 3 -0.001844 -0.012780 0.016221 0.000000 0.000000 0.000000
# 4 0.000000 0.000000 0.000000 0.114045 0.000000 0.000000
# 5 0.000000 0.000000 0.000000 0.000000 0.033833 0.000000
# 6 0.000000 0.000000 0.000000 0.000000 0.000000 0.064208
#
#
# Mechanical properties :
#
#
# Convention : Reuss Voigt Hill
#
# Bulk Modulus (GPa) = 39.87295 45.88361 42.87828
# Shear Modulus (GPa) = 15.80092 21.17865 18.48979
#
# Velocity S-wave (km/s) = 2.86701 3.31923 3.10137
# Velocity P-wave (km/s) = 5.63044 6.20956 5.92707
#
# Compressibility (1/GPa) = 0.02507966
#
# Stress axis : x y z
#
# Youngs Moduli (GPa) = 88.65689 30.26998 61.65025
#
# Poissons Ratio (x) = 0.09396 0.11370
# Poissons Ratio (y) = 0.27519 0.78788
# Poissons Ratio (z) = 0.16351 0.38685
#
# Static dielectric constant tensor:
#      x y z
#    x 3.863080 0.000000 0.000000 
#    y 0.000000 3.154620 0.000000 
#    z 0.000000 0.000000 3.610780 
# 
# 
# High freq. dielectric constant tensor:
#      x y z
#    x 1.767850 0.000000 0.000000 
#    y 0.000000 1.708350 0.000000 
#    z 0.000000 0.000000 1.743460 
# 
# From -- ./inp_files/25863.got.cif
#   From: 2010.03.12/outbox.cif.g09.slc.cpg/sg51_13_cif.got.tgz:25863.got - 2010.04.16 13:43:02.
