data_PCOD8210600
_publ_section_title
;
Structure prediction by ZEFSAII (Michael W. Deem and Ramdas Pophale) SiO2 
 PCOD8210600
Probable space group: P M M A
;
_chemical_formula_sum "Si O2"
_cell_formula_units_Z 48
_cell_length_a 13.862432
_cell_length_b 13.772524
_cell_length_c 13.113653
_cell_angle_alpha 90.000000
_cell_angle_beta 90.000000
_cell_angle_gamma 90.000000
_cell_volume 2503.667514
_symmetry_space_group_name_H-M "P M M A"
_symmetry_group_IT_number 51
_symmetry_cell_setting 'orthorhombic'
loop_
_space_group_symop_operation_xyz
x,y,z
1/2-x,-y,z
1/2+x,-y,-z
-x,y,-z
-x,-y,-z
1/2+x,y,-z
1/2-x,y,z
x,-y,z
loop_
_atom_site_type_symbol
_atom_site_label
_atom_site_fract_x
_atom_site_fract_y
_atom_site_fract_z
Si Si1 0.861882 0.218337 0.666521
Si Si2 0.467272 0.388436 0.245267
Si Si3 0.858536 0.891090 0.461608
Si Si4 0.032728 0.111564 0.745267
Si Si5 0.138118 0.718337 0.833479
Si Si6 0.358536 0.391090 0.038392
O O1 0.750000 0.210789 0.697747
O O2 0.900700 0.328639 0.675894
O O3 0.878666 0.185078 0.550747
O O4 0.922640 0.150690 0.745086
O O5 0.463059 0.500000 0.279074
O O6 0.577360 0.349310 0.245086
O O7 0.429704 0.370387 0.130861
O O8 0.750000 0.880430 0.419707
O O9 0.929704 0.870387 0.369139
O O10 0.875387 0.000000 0.505346
O O11 0.099300 0.171361 0.824106
O O12 0.036941 0.000000 0.779074
O O13 0.250000 0.710789 0.802253
O O14 0.121334 0.685078 0.949253
O O15 0.250000 0.380430 0.080293
O O16 0.375386 0.500000 0.994654
#
# Coordination Sequence:
#
# PCOD8210600 Si02
#       6
#     8   8   8   8   8   8
#     4  10  20  32  50  77 105 132 166 209 253 295
#     4  10  20  34  53  76 102 133 169 208 249 296
#     4   9  17  31  53  78 101 128 165 207 249 296
#     4  10  20  34  53  76 102 133 169 208 249 296
#     4  10  20  32  50  77 105 132 166 209 253 295
#     4   9  17  31  53  78 101 128 165 207 249 296
#
# _framework density 19.171875
#
# number of rings (size 3 to 8) (size 9 to 14) (size 15 to 20)
#    0.000    2.333    0.000    3.000    0.000    6.667 
#    0.000    0.000    0.000   18.000    0.000   18.667 
#    0.000    0.000    0.000    0.000    0.000    0.000 
#
# Total GULP energy -595156.170131 kJ/mol
# GULP energy per Si atom -12399.086878 kJ/mol
# Density = 1.912824 g / cm^3
# Si number density = 19.171875 Si / 1000 Ang^3
#
#
#
# Elastic Constant Matrix: (Units=GPa)
#
#
# Indices 1 2 3 4 5 6 
#
# 1 118.4090 49.8906 20.3628 0.0000 0.0000 0.0000
# 2 49.8906 161.1872 49.6426 0.0000 0.0000 0.0000
# 3 20.3628 49.6426 44.1695 0.0000 0.0000 0.0000
# 4 0.0000 0.0000 0.0000 37.2434 0.0000 0.0000
# 5 0.0000 0.0000 0.0000 0.0000 24.4159 0.0000
# 6 0.0000 0.0000 0.0000 0.0000 0.0000 21.5956
#
#
#
# Elastic Compliance Matrix: (Units=1/GPa)
#
#
# Indices 1 2 3 4 5 6 
#
# 1 0.009794 -0.002510 -0.001695 0.000000 0.000000 0.000000
# 2 -0.002510 0.010131 -0.010230 0.000000 0.000000 0.000000
# 3 -0.001695 -0.010230 0.034919 0.000000 0.000000 0.000000
# 4 0.000000 0.000000 0.000000 0.026850 0.000000 0.000000
# 5 0.000000 0.000000 0.000000 0.000000 0.040957 0.000000
# 6 0.000000 0.000000 0.000000 0.000000 0.000000 0.046306
#
#
# Mechanical properties :
#
#
# Convention : Reuss Voigt Hill
#
# Bulk Modulus (GPa) = 38.49701 62.61753 50.55727
# Shear Modulus (GPa) = 24.21498 30.24230 27.22864
#
# Velocity S-wave (km/s) = 3.55779 3.97600 3.77269
# Velocity P-wave (km/s) = 6.08282 7.33554 6.73835
#
# Compressibility (1/GPa) = 0.02597604
#
# Stress axis : x y z
#
# Youngs Moduli (GPa) = 102.10214 98.70432 28.63799
#
# Poissons Ratio (x) = 0.24770 0.04853
# Poissons Ratio (y) = 0.25623 0.29296
# Poissons Ratio (z) = 0.17304 1.00972
#
# Static dielectric constant tensor:
#      x y z
#    x 3.860130 0.000000 0.000000 
#    y 0.000000 3.598960 0.000000 
#    z 0.000000 0.000000 3.120720 
# 
# 
# High freq. dielectric constant tensor:
#      x y z
#    x 1.771880 0.000000 0.000000 
#    y 0.000000 1.742550 0.000000 
#    z 0.000000 0.000000 1.705720 
# 
# From -- ./inp_files/24044.got.cif
#   From: 2010.03.12/outbox.cif.g09.slc.cpg/sg51_13_cif.got.tgz:24044.got - 2010.04.16 13:43:02.
