data_PCOD8210348
_publ_section_title
;
Structure prediction by ZEFSAII (Michael W. Deem and Ramdas Pophale) SiO2 
 PCOD8210348
Probable space group: P M M A
;
_chemical_formula_sum "Si O2"
_cell_formula_units_Z 52
_cell_length_a 8.863806
_cell_length_b 15.583256
_cell_length_c 21.710521
_cell_angle_alpha 90.000000
_cell_angle_beta 90.000000
_cell_angle_gamma 90.000000
_cell_volume 2998.808223
_symmetry_space_group_name_H-M "P M M A"
_symmetry_group_IT_number 51
_symmetry_cell_setting 'orthorhombic'
loop_
_space_group_symop_operation_xyz
x,y,z
1/2-x,-y,z
1/2+x,-y,-z
-x,y,-z
-x,-y,-z
1/2+x,y,-z
1/2-x,y,z
x,-y,z
loop_
_atom_site_type_symbol
_atom_site_label
_atom_site_fract_x
_atom_site_fract_y
_atom_site_fract_z
Si Si1 0.069738 0.500000 0.716568
Si Si2 0.583511 0.903544 0.215215
Si Si3 0.073017 0.340034 0.933734
Si Si4 0.077526 0.246931 0.168298
Si Si5 0.071209 0.677842 0.299160
Si Si6 0.930255 0.000000 0.433119
Si Si7 0.929097 0.500000 0.143172
Si Si8 0.921791 0.156313 0.350087
O O1 0.250000 0.500000 0.711748
O O2 0.009956 0.500000 0.787192
O O3 0.005223 0.586188 0.683868
O O4 0.750000 0.867905 0.196614
O O5 0.448738 0.852436 0.183050
O O6 0.566201 0.898200 0.288162
O O7 0.565407 0.000000 0.192889
O O8 0.250000 0.344519 0.943134
O O9 0.007850 0.419677 0.894771
O O10 0.025034 0.260502 0.891818
O O11 0.000000 0.335642 0.000000
O O12 0.250000 0.265324 0.152068
O O13 0.024602 0.301028 0.228380
O O14 0.250000 0.670388 0.306523
O O15 0.014591 0.753915 0.344732
O O16 0.986002 0.089041 0.400760
O O17 0.000000 0.000000 0.500000
O O18 0.750000 0.000000 0.434130
O O19 0.750000 0.500000 0.144619
O O20 0.750000 0.182628 0.365127
#
# Coordination Sequence:
#
# PCOD8210348 Si02
#       8
#     4   8   8   8   8   4   4   8
#     4  11  19  32  52  74 100 137 176 211 259 318
#     4   9  16  29  51  74  96 126 163 203 246 294
#     4  11  21  35  50  67  90 122 163 205 249 303
#     4  10  20  32  46  69  97 126 159 201 254 305
#     4  10  20  32  48  74 105 135 170 218 266 305
#     4  10  20  34  54  82 116 152 187 218 253 296
#     4   9  19  32  48  68  91 122 162 200 241 300
#     4   9  17  32  51  74 105 143 181 213 248 303
#
# _framework density 17.340222000000001
#
# number of rings (size 3 to 8) (size 9 to 14) (size 15 to 20)
#    0.000    2.154    2.308    1.846    0.000    2.154 
#    0.000    1.154    0.000    0.462    0.000    0.538 
#    0.000    0.000    0.000    0.000    0.000    0.000 
#
# Total GULP energy -644513.865722 kJ/mol
# GULP energy per Si atom -12394.497418 kJ/mol
# Density = 1.730075 g / cm^3
# Si number density = 17.340222 Si / 1000 Ang^3
#
#
#
# Elastic Constant Matrix: (Units=GPa)
#
#
# Indices 1 2 3 4 5 6 
#
# 1 66.3466 43.9894 27.5322 0.0000 0.0000 0.0000
# 2 43.9894 123.1207 46.3992 0.0000 0.0000 0.0000
# 3 27.5322 46.3992 72.6842 0.0000 0.0000 0.0000
# 4 0.0000 0.0000 0.0000 21.5375 0.0000 0.0000
# 5 0.0000 0.0000 0.0000 0.0000 24.1967 0.0000
# 6 0.0000 0.0000 0.0000 0.0000 0.0000 26.6877
#
#
#
# Elastic Compliance Matrix: (Units=1/GPa)
#
#
# Indices 1 2 3 4 5 6 
#
# 1 0.020637 -0.005830 -0.004096 0.000000 0.000000 0.000000
# 2 -0.005830 0.012342 -0.005670 0.000000 0.000000 0.000000
# 3 -0.004096 -0.005670 0.018929 0.000000 0.000000 0.000000
# 4 0.000000 0.000000 0.000000 0.046431 0.000000 0.000000
# 5 0.000000 0.000000 0.000000 0.000000 0.041328 0.000000
# 6 0.000000 0.000000 0.000000 0.000000 0.000000 0.037470
#
#
# Mechanical properties :
#
#
# Convention : Reuss Voigt Hill
#
# Bulk Modulus (GPa) = 48.27011 55.33257 51.80134
# Shear Modulus (GPa) = 23.23038 24.09975 23.66506
#
# Velocity S-wave (km/s) = 3.66414 3.73207 3.69826
# Velocity P-wave (km/s) = 6.76747 7.10988 6.94079
#
# Compressibility (1/GPa) = 0.02071675
#
# Stress axis : x y z
#
# Youngs Moduli (GPa) = 48.45583 81.02386 52.82803
#
# Poissons Ratio (x) = 0.47237 0.21636
# Poissons Ratio (y) = 0.28250 0.29956
# Poissons Ratio (z) = 0.19846 0.45944
#
# Static dielectric constant tensor:
#      x y z
#    x 3.136800 0.000000 0.000000 
#    y 0.000000 3.301270 0.000000 
#    z 0.000000 0.000000 2.962340 
# 
# 
# High freq. dielectric constant tensor:
#      x y z
#    x 1.667880 0.000000 0.000000 
#    y 0.000000 1.674650 0.000000 
#    z 0.000000 0.000000 1.628680 
# 
# From -- ./inp_files/31811.got.cif
#   From: 2010.03.12/outbox.cif.g09.slc.cpg/sg51_16_cif.got.tgz:31811.got - 2010.04.16 13:43:02.
