data_PCOD8210859
_publ_section_title
;
Structure prediction by ZEFSAII (Michael W. Deem and Ramdas Pophale) SiO2 
 PCOD8210859
Probable space group: P M M A
;
_chemical_formula_sum "Si O2"
_cell_formula_units_Z 48
_cell_length_a 8.867100
_cell_length_b 23.609185
_cell_length_c 13.703578
_cell_angle_alpha 90.000000
_cell_angle_beta 90.000000
_cell_angle_gamma 90.000000
_cell_volume 2868.775596
_symmetry_space_group_name_H-M "P M M A"
_symmetry_group_IT_number 51
_symmetry_cell_setting 'orthorhombic'
loop_
_space_group_symop_operation_xyz
x,y,z
1/2-x,-y,z
1/2+x,-y,-z
-x,y,-z
-x,-y,-z
1/2+x,y,-z
1/2-x,y,z
x,-y,z
loop_
_atom_site_type_symbol
_atom_site_label
_atom_site_fract_x
_atom_site_fract_y
_atom_site_fract_z
Si Si1 0.070719 0.269958 0.603184
Si Si2 0.073850 0.065168 0.602637
Si Si3 0.927006 0.835881 0.705731
Si Si4 0.573243 0.436574 0.899261
Si Si5 0.071961 0.668575 0.224256
Si Si6 0.076456 0.225879 0.100554
O O1 0.250000 0.267524 0.596272
O O2 0.000000 0.286362 0.500000
O O3 0.008459 0.209197 0.636277
O O4 0.019904 0.319284 0.677495
O O5 0.250000 0.078792 0.596776
O O6 0.000000 0.081524 0.500000
O O7 0.995372 0.102275 0.686357
O O8 0.042875 0.000000 0.629242
O O9 0.750000 0.834119 0.682192
O O10 0.958930 0.822035 0.818874
O O11 0.750000 0.434383 0.916520
O O12 0.519348 0.500000 0.870596
O O13 0.527116 0.394006 0.812598
O O14 0.500000 0.416413 0.000000
O O15 0.250000 0.675182 0.245948
O O16 0.021121 0.713469 0.141510
O O17 0.250000 0.229509 0.076141
O O18 0.000000 0.208815 0.000000
#
# Coordination Sequence:
#
# PCOD8210859 Si02
#       6
#     8   8   8   8   8   8
#     4  11  21  33  50  71  95 124 157 194 238 284
#     4  10  20  33  50  73  99 127 159 195 235 279
#     4  10  20  34  50  71  99 128 158 193 235 280
#     4   9  17  29  47  71  99 130 161 196 238 282
#     4   9  18  32  47  68  98 127 158 195 236 281
#     4   9  18  30  46  68  94 124 155 192 234 276
#
# _framework density 16.731877000000001
#
# number of rings (size 3 to 8) (size 9 to 14) (size 15 to 20)
#    0.000    2.333    0.000    4.500    0.000    5.000 
#    0.000    0.000    0.000    1.000    0.000    0.000 
#    0.000    0.000    0.000    0.000    0.000    0.000 
#
# Total GULP energy -595239.667671 kJ/mol
# GULP energy per Si atom -12400.826410 kJ/mol
# Density = 1.669379 g / cm^3
# Si number density = 16.731877 Si / 1000 Ang^3
#
#
#
# Elastic Constant Matrix: (Units=GPa)
#
#
# Indices 1 2 3 4 5 6 
#
# 1 93.6146 48.7102 61.9687 0.0000 0.0000 0.0000
# 2 48.7102 100.9097 62.4872 0.0000 0.0000 0.0000
# 3 61.9687 62.4872 126.8865 0.0000 0.0000 0.0000
# 4 0.0000 0.0000 0.0000 22.3530 0.0000 0.0000
# 5 0.0000 0.0000 0.0000 0.0000 32.6074 0.0000
# 6 0.0000 0.0000 0.0000 0.0000 0.0000 24.8137
#
#
#
# Elastic Compliance Matrix: (Units=1/GPa)
#
#
# Indices 1 2 3 4 5 6 
#
# 1 0.017056 -0.004424 -0.006151 0.000000 0.000000 0.000000
# 2 -0.004424 0.015405 -0.005426 0.000000 0.000000 0.000000
# 3 -0.006151 -0.005426 0.013557 0.000000 0.000000 0.000000
# 4 0.000000 0.000000 0.000000 0.044737 0.000000 0.000000
# 5 0.000000 0.000000 0.000000 0.000000 0.030668 0.000000
# 6 0.000000 0.000000 0.000000 0.000000 0.000000 0.040300
#
#
# Mechanical properties :
#
#
# Convention : Reuss Voigt Hill
#
# Bulk Modulus (GPa) = 71.34585 74.19366 72.76976
# Shear Modulus (GPa) = 25.20195 25.83779 25.51987
#
# Velocity S-wave (km/s) = 3.88522 3.93393 3.90965
# Velocity P-wave (km/s) = 7.92842 8.06680 7.99791
#
# Compressibility (1/GPa) = 0.01401623
#
# Stress axis : x y z
#
# Youngs Moduli (GPa) = 58.63144 64.91241 73.76178
#
# Poissons Ratio (x) = 0.28718 0.45370
# Poissons Ratio (y) = 0.25939 0.40023
# Poissons Ratio (z) = 0.36064 0.35221
#
# Static dielectric constant tensor:
#      x y z
#    x 3.354490 0.000000 0.000000 
#    y 0.000000 3.204380 0.000000 
#    z 0.000000 0.000000 3.097590 
# 
# 
# High freq. dielectric constant tensor:
#      x y z
#    x 1.652470 0.000000 0.000000 
#    y 0.000000 1.636130 0.000000 
#    z 0.000000 0.000000 1.634260 
# 
# From -- ./inp_files/14400.got.cif
#   From: 2010.03.12/outbox.cif.g09.slc.cpg/sg51_8_cif.got.tgz:14400.got - 2010.04.16 13:43:02.
