data_PCOD8210649
_publ_section_title
;
Structure prediction by ZEFSAII (Michael W. Deem and Ramdas Pophale) SiO2 
 PCOD8210649
Probable space group: P M M A
;
_chemical_formula_sum "Si O2"
_cell_formula_units_Z 48
_cell_length_a 8.805693
_cell_length_b 20.565037
_cell_length_c 14.047525
_cell_angle_alpha 90.000000
_cell_angle_beta 90.000000
_cell_angle_gamma 90.000000
_cell_volume 2543.857907
_symmetry_space_group_name_H-M "P M M A"
_symmetry_group_IT_number 51
_symmetry_cell_setting 'orthorhombic'
loop_
_space_group_symop_operation_xyz
x,y,z
1/2-x,-y,z
1/2+x,-y,-z
-x,y,-z
-x,-y,-z
1/2+x,y,-z
1/2-x,y,z
x,-y,z
loop_
_atom_site_type_symbol
_atom_site_label
_atom_site_fract_x
_atom_site_fract_y
_atom_site_fract_z
Si Si1 0.928633 0.118315 0.786762
Si Si2 0.072235 0.249062 0.103384
Si Si3 0.927288 0.924211 0.399679
Si Si4 0.070063 0.625377 0.217185
Si Si5 0.429512 0.000000 0.896954
Si Si6 0.071017 0.574469 0.599218
Si Si7 0.928777 0.500000 0.897634
O O1 0.750000 0.103679 0.789798
O O2 0.970466 0.186373 0.834869
O O3 0.987021 0.119235 0.678469
O O4 0.018748 0.063673 0.842617
O O5 0.250000 0.255325 0.087521
O O6 0.010849 0.311301 0.161173
O O7 0.000000 0.244455 0.000000
O O8 0.750000 0.907184 0.400943
O O9 0.000000 0.905319 0.500000
O O10 0.954404 0.000000 0.376209
O O11 0.250000 0.626461 0.231522
O O12 0.014123 0.563333 0.157777
O O13 0.992726 0.622404 0.320229
O O14 0.250000 0.000000 0.904944
O O15 0.500000 0.000000 0.000000
O O16 0.250000 0.581500 0.592753
O O17 0.021938 0.500000 0.621250
O O18 0.000000 0.597665 0.500000
O O19 0.750000 0.500000 0.908805
O O20 0.000000 0.500000 0.000000
#
# Coordination Sequence:
#
# PCOD8210649 Si02
#       7
#     8   8   8   8   4   8   4
#     4  11  22  38  59  85 116 152 191 237 287 341
#     4  10  23  40  59  83 115 155 195 235 285 341
#     4  10  20  35  58  88 119 151 187 233 285 340
#     4  10  20  37  57  82 114 150 190 234 284 338
#     4  12  24  38  57  84 113 146 190 242 290 340
#     4  10  20  34  56  86 116 148 187 234 287 342
#     4  10  20  32  53  80 109 144 183 234 284 328
#
# _framework density 18.868979
#
# number of rings (size 3 to 8) (size 9 to 14) (size 15 to 20)
#    0.000    1.667    1.667    3.250    0.000    5.333 
#    0.000    0.833    0.000    0.000    0.000    0.000 
#    0.000    0.000    0.000    0.000    0.000    0.000 
#
# Total GULP energy -595425.005194 kJ/mol
# GULP energy per Si atom -12404.687608 kJ/mol
# Density = 1.882603 g / cm^3
# Si number density = 18.868979 Si / 1000 Ang^3
#
#
#
# Elastic Constant Matrix: (Units=GPa)
#
#
# Indices 1 2 3 4 5 6 
#
# 1 84.4808 51.7537 65.4300 0.0000 0.0000 0.0000
# 2 51.7537 128.6783 78.9930 0.0000 0.0000 0.0000
# 3 65.4300 78.9930 183.1424 0.0000 0.0000 0.0000
# 4 0.0000 0.0000 0.0000 -817.5904 0.0000 0.0000
# 5 0.0000 0.0000 0.0000 0.0000 42.5934 0.0000
# 6 0.0000 0.0000 0.0000 0.0000 0.0000 2.9194
#
#
#
# Elastic Compliance Matrix: (Units=1/GPa)
#
#
# Indices 1 2 3 4 5 6 
#
# 1 0.018099 -0.004502 -0.004524 0.000000 0.000000 0.000000
# 2 -0.004502 0.011690 -0.003434 0.000000 0.000000 0.000000
# 3 -0.004524 -0.003434 0.008558 0.000000 0.000000 0.000000
# 4 0.000000 0.000000 0.000000 -0.001223 0.000000 0.000000
# 5 0.000000 0.000000 0.000000 0.000000 0.023478 0.000000
# 6 0.000000 0.000000 0.000000 0.000000 0.000000 0.342534
#
#
# Mechanical properties :
#
#
# Convention : Reuss Voigt Hill
#
# Bulk Modulus (GPa) = 74.47913 87.62832 81.05373
# Shear Modulus (GPa) = 11.55987 -141.07387 -64.75700
#
# Velocity S-wave (km/s) = 2.47784 -8.65605 -5.86462
# Velocity P-wave (km/s) = 6.90968 7.30492 1.67603
#
# Compressibility (1/GPa) = 0.01342658
#
# Stress axis : x y z
#
# Youngs Moduli (GPa) = 55.25162 85.54441 116.85477
#
# Poissons Ratio (x) = 0.38511 0.52869
# Poissons Ratio (y) = 0.24874 0.40124
# Poissons Ratio (z) = 0.24998 0.29373
#
# Static dielectric constant tensor:
#      x y z
#    x 3.404970 0.000000 0.000000 
#    y 0.000000 3.515010 0.000000 
#    z 0.000000 0.000000 3.578150 
# 
# 
# High freq. dielectric constant tensor:
#      x y z
#    x 1.737460 0.000000 0.000000 
#    y 0.000000 1.719150 0.000000 
#    z 0.000000 0.000000 1.751460 
# 
# From -- ./inp_files/21164.got.cif
#   From: 2010.03.12/outbox.cif.g09.slc.cpg/sg51_11_cif.got.tgz:21164.got - 2010.04.16 13:43:02.
