data_PCOD8210489
_publ_section_title
;
Structure prediction by ZEFSAII (Michael W. Deem and Ramdas Pophale) SiO2 
 PCOD8210489
Probable space group: P M M A
;
_chemical_formula_sum "Si O2"
_cell_formula_units_Z 48
_cell_length_a 19.260846
_cell_length_b 9.350733
_cell_length_c 15.194853
_cell_angle_alpha 90.000000
_cell_angle_beta 90.000000
_cell_angle_gamma 90.000000
_cell_volume 2736.639040
_symmetry_space_group_name_H-M "P M M A"
_symmetry_group_IT_number 51
_symmetry_cell_setting 'orthorhombic'
loop_
_space_group_symop_operation_xyz
x,y,z
1/2-x,-y,z
1/2+x,-y,-z
-x,y,-z
-x,-y,-z
1/2+x,y,-z
1/2-x,y,z
x,-y,z
loop_
_atom_site_type_symbol
_atom_site_label
_atom_site_fract_x
_atom_site_fract_y
_atom_site_fract_z
Si Si1 0.167495 0.159053 0.066513
Si Si2 0.328279 0.169385 0.261943
Si Si3 0.167284 0.339026 0.904088
Si Si4 0.416287 0.335971 0.596786
Si Si5 0.831813 0.835002 0.264953
Si Si6 0.076206 0.336684 0.393666
O O1 0.250000 0.151223 0.060304
O O2 0.146673 0.214330 0.163803
O O3 0.137292 0.000000 0.049172
O O4 0.137462 0.266432 0.992919
O O5 0.250000 0.225033 0.279169
O O6 0.379333 0.235120 0.332554
O O7 0.330509 0.000000 0.270606
O O8 0.250000 0.339666 0.906362
O O9 0.137974 0.500000 0.897811
O O10 0.140622 0.249399 0.820513
O O11 0.396739 0.500000 0.618436
O O12 0.366902 0.229279 0.648797
O O13 0.495491 0.305342 0.623273
O O14 0.404504 0.304172 0.494264
O O15 0.750000 0.816681 0.276163
O O16 0.852869 0.000000 0.254280
O O17 0.093743 0.500000 0.370514
#
# Coordination Sequence:
#
# PCOD8210489 Si02
#       6
#     8   8   8   8   8   8
#     4   8  14  26  43  64  94 129 159 189 229 277
#     4   9  18  31  48  73 103 131 159 195 239 284
#     4   9  16  26  43  68  96 126 159 194 233 278
#     4   9  19  36  53  69  93 126 163 200 241 289
#     4  10  20  32  48  73 101 127 158 197 240 285
#     4   9  19  35  53  71  93 125 163 201 241 287
#
# _framework density 17.539762
#
# number of rings (size 3 to 8) (size 9 to 14) (size 15 to 20)
#    0.000    3.000    0.000    3.000    0.000    6.000 
#    0.000    6.667    0.000    1.000    0.000    7.000 
#    0.000    0.000    0.000    0.000    0.000    0.000 
#
# Total GULP energy -595103.536158 kJ/mol
# GULP energy per Si atom -12397.990337 kJ/mol
# Density = 1.749984 g / cm^3
# Si number density = 17.539762 Si / 1000 Ang^3
#
#
#
# Elastic Constant Matrix: (Units=GPa)
#
#
# Indices 1 2 3 4 5 6 
#
# 1 33.2883 38.0830 41.9083 0.0000 0.0000 0.0000
# 2 38.0830 110.7531 73.9009 0.0000 0.0000 0.0000
# 3 41.9083 73.9009 119.7445 0.0000 0.0000 0.0000
# 4 0.0000 0.0000 0.0000 37.8416 0.0000 0.0000
# 5 0.0000 0.0000 0.0000 0.0000 -6.1635 0.0000
# 6 0.0000 0.0000 0.0000 0.0000 0.0000 25.7491
#
#
#
# Elastic Compliance Matrix: (Units=1/GPa)
#
#
# Indices 1 2 3 4 5 6 
#
# 1 0.061240 -0.011487 -0.014344 0.000000 0.000000 0.000000
# 2 -0.011487 0.017505 -0.006783 0.000000 0.000000 0.000000
# 3 -0.014344 -0.006783 0.017557 0.000000 0.000000 0.000000
# 4 0.000000 0.000000 0.000000 0.026426 0.000000 0.000000
# 5 0.000000 0.000000 0.000000 0.000000 -0.162246 0.000000
# 6 0.000000 0.000000 0.000000 0.000000 0.000000 0.038836
#
#
# Mechanical properties :
#
#
# Convention : Reuss Voigt Hill
#
# Bulk Modulus (GPa) = 32.18020 63.50780 47.84400
# Shear Modulus (GPa) = 66.75270 18.81170 42.78220
#
# Velocity S-wave (km/s) = 6.17580 3.27848 4.94414
# Velocity P-wave (km/s) = 8.32111 7.11462 7.74140
#
# Compressibility (1/GPa) = 0.03107501
#
# Stress axis : x y z
#
# Youngs Moduli (GPa) = 16.32932 57.12669 56.95610
#
# Poissons Ratio (x) = 0.65619 0.81696
# Poissons Ratio (y) = 0.18757 0.38634
# Poissons Ratio (z) = 0.23422 0.38750
#
# Static dielectric constant tensor:
#      x y z
#    x 2.857530 0.000000 0.000000 
#    y 0.000000 3.328900 0.000000 
#    z 0.000000 0.000000 3.404350 
# 
# 
# High freq. dielectric constant tensor:
#      x y z
#    x 1.634280 0.000000 0.000000 
#    y 0.000000 1.681600 0.000000 
#    z 0.000000 0.000000 1.689750 
# 
# From -- ./inp_files/24719.got.cif
#   From: 2010.03.12/outbox.cif.g09.slc.cpg/sg51_13_cif.got.tgz:24719.got - 2010.04.16 13:43:02.
