data_PCOD8210851
_publ_section_title
;
Structure prediction by ZEFSAII (Michael W. Deem and Ramdas Pophale) SiO2 
 PCOD8210851
Probable space group: P M M A
;
_chemical_formula_sum "Si O2"
_cell_formula_units_Z 64
_cell_length_a 9.229543
_cell_length_b 20.072733
_cell_length_c 18.390501
_cell_angle_alpha 90.000000
_cell_angle_beta 90.000000
_cell_angle_gamma 90.000000
_cell_volume 3407.063798
_symmetry_space_group_name_H-M "P M M A"
_symmetry_group_IT_number 51
_symmetry_cell_setting 'orthorhombic'
loop_
_space_group_symop_operation_xyz
x,y,z
1/2-x,-y,z
1/2+x,-y,-z
-x,y,-z
-x,-y,-z
1/2+x,y,-z
1/2-x,y,z
x,-y,z
loop_
_atom_site_type_symbol
_atom_site_label
_atom_site_fract_x
_atom_site_fract_y
_atom_site_fract_z
Si Si1 0.419675 0.427259 0.279446
Si Si2 0.423145 0.354262 0.426480
Si Si3 0.086819 0.250393 0.656813
Si Si4 0.419579 0.296002 0.206043
Si Si5 0.917491 0.203395 0.926330
Si Si6 0.082277 0.076775 0.166532
Si Si7 0.912453 0.898662 0.311207
Si Si8 0.094799 0.926907 0.439210
O O1 0.250000 0.436245 0.284133
O O2 0.491407 0.500000 0.263867
O O3 0.471048 0.400717 0.358523
O O4 0.456984 0.375315 0.213975
O O5 0.500000 0.381043 0.500000
O O6 0.250000 0.350869 0.436926
O O7 0.488056 0.281546 0.407173
O O8 0.250000 0.280460 0.654295
O O9 0.091211 0.171826 0.647821
O O10 0.016004 0.259517 0.735191
O O11 0.250000 0.283818 0.223685
O O12 0.460909 0.263290 0.128972
O O13 0.750000 0.208254 0.944534
O O14 0.955121 0.129017 0.897542
O O15 0.000000 0.217709 0.000000
O O16 0.250000 0.084732 0.189691
O O17 0.980770 0.099648 0.231725
O O18 0.050238 0.000000 0.142535
O O19 0.750000 0.927708 0.305343
O O20 0.013639 0.941034 0.363460
O O21 0.250000 0.889794 0.427423
O O22 0.000000 0.887435 0.500000
O O23 0.127599 0.000000 0.471441
#
# Coordination Sequence:
#
# PCOD8210851 Si02
#       8
#     8   8   8   8   8   8   8   8
#     4   8  15  29  52  81 108 138 180 224 267 314
#     4  10  20  33  50  73 106 146 185 225 270 314
#     4  10  20  33  51  74 100 133 175 220 266 311
#     4   9  17  33  56  79 105 139 175 216 260 307
#     4  10  21  36  56  82 110 141 179 215 260 317
#     4  10  21  37  56  78 107 142 178 219 266 318
#     4  11  22  34  52  77 102 132 172 219 269 321
#     4  10  21  36  52  69  92 125 165 212 265 317
#
# _framework density 18.784503000000001
#
# number of rings (size 3 to 8) (size 9 to 14) (size 15 to 20)
#    0.000    2.250    1.250    2.625    0.000    6.000 
#    0.000    0.000    0.000    9.375    0.000    0.000 
#    0.000    0.000    0.000    0.000    0.000    0.000 
#
# Total GULP energy -792905.635671 kJ/mol
# GULP energy per Si atom -12389.150557 kJ/mol
# Density = 1.874175 g / cm^3
# Si number density = 18.784503 Si / 1000 Ang^3
#
#
#
# Elastic Constant Matrix: (Units=GPa)
#
#
# Indices 1 2 3 4 5 6 
#
# 1 98.9722 22.7195 48.8400 0.0000 0.0000 0.0000
# 2 22.7195 115.9305 43.8380 0.0000 0.0000 0.0000
# 3 48.8400 43.8380 115.2163 0.0000 0.0000 0.0000
# 4 0.0000 0.0000 0.0000 17.1666 0.0000 0.0000
# 5 0.0000 0.0000 0.0000 0.0000 35.0445 0.0000
# 6 0.0000 0.0000 0.0000 0.0000 0.0000 11.3474
#
#
#
# Elastic Compliance Matrix: (Units=1/GPa)
#
#
# Indices 1 2 3 4 5 6 
#
# 1 0.012805 -0.000534 -0.005225 0.000000 0.000000 0.000000
# 2 -0.000534 0.010098 -0.003616 0.000000 0.000000 0.000000
# 3 -0.005225 -0.003616 0.012270 0.000000 0.000000 0.000000
# 4 0.000000 0.000000 0.000000 0.058252 0.000000 0.000000
# 5 0.000000 0.000000 0.000000 0.000000 0.028535 0.000000
# 6 0.000000 0.000000 0.000000 0.000000 0.000000 0.088126
#
#
# Mechanical properties :
#
#
# Convention : Reuss Voigt Hill
#
# Bulk Modulus (GPa) = 60.88779 62.32380 61.60580
# Shear Modulus (GPa) = 21.33934 27.02648 24.18291
#
# Velocity S-wave (km/s) = 3.37413 3.79722 3.59191
# Velocity P-wave (km/s) = 6.90390 7.24400 7.07599
#
# Compressibility (1/GPa) = 0.01642365
#
# Stress axis : x y z
#
# Youngs Moduli (GPa) = 78.09659 99.03225 81.50039
#
# Poissons Ratio (x) = 0.05285 0.42583
# Poissons Ratio (y) = 0.04168 0.29469
# Poissons Ratio (z) = 0.40804 0.35808
#
# Static dielectric constant tensor:
#      x y z
#    x 3.612410 0.000000 0.000000 
#    y 0.000000 3.771550 0.000000 
#    z 0.000000 0.000000 3.214160 
# 
# 
# High freq. dielectric constant tensor:
#      x y z
#    x 1.729430 0.000000 0.000000 
#    y 0.000000 1.721050 0.000000 
#    z 0.000000 0.000000 1.707440 
# 
# From -- ./inp_files/28370.got.cif
#   From: 2010.03.12/outbox.cif.g09.slc.cpg/sg51_15_cif.got.tgz:28370.got - 2010.04.16 13:43:02.
