data_PCOD8210700
_publ_section_title
;
Structure prediction by ZEFSAII (Michael W. Deem and Ramdas Pophale) SiO2 
 PCOD8210700
Probable space group: P M M A
;
_chemical_formula_sum "Si O2"
_cell_formula_units_Z 56
_cell_length_a 13.833276
_cell_length_b 8.999568
_cell_length_c 23.896562
_cell_angle_alpha 90.000000
_cell_angle_beta 90.000000
_cell_angle_gamma 90.000000
_cell_volume 2974.966833
_symmetry_space_group_name_H-M "P M M A"
_symmetry_group_IT_number 51
_symmetry_cell_setting 'orthorhombic'
loop_
_space_group_symop_operation_xyz
x,y,z
1/2-x,-y,z
1/2+x,-y,-z
-x,y,-z
-x,-y,-z
1/2+x,y,-z
1/2-x,y,z
x,-y,z
loop_
_atom_site_type_symbol
_atom_site_label
_atom_site_fract_x
_atom_site_fract_y
_atom_site_fract_z
Si Si1 0.356496 0.176829 0.028748
Si Si2 0.547414 0.176516 0.084106
Si Si3 0.364414 0.165885 0.589443
Si Si4 0.144053 0.323988 0.360059
Si Si5 0.138637 0.823696 0.801530
Si Si6 0.635698 0.665250 0.517437
Si Si7 0.950717 0.324537 0.305940
O O1 0.250000 0.240293 0.044135
O O2 0.436160 0.229815 0.074358
O O3 0.354102 0.000000 0.027483
O O4 0.386854 0.235027 0.967182
O O5 0.588792 0.239747 0.142146
O O6 0.552130 0.000000 0.085435
O O7 0.250000 0.158619 0.583905
O O8 0.409696 0.235877 0.532562
O O9 0.388489 0.267792 0.642225
O O10 0.406657 0.000000 0.597783
O O11 0.250000 0.260827 0.342106
O O12 0.151443 0.500000 0.366356
O O13 0.112172 0.263299 0.421479
O O14 0.063405 0.279374 0.314730
O O15 0.250000 0.773916 0.801111
O O16 0.083192 0.751961 0.750313
O O17 0.129419 0.000000 0.797116
O O18 0.750000 0.657338 0.510570
O O19 0.591594 0.500000 0.511786
O O20 0.936629 0.500000 0.301016
#
# Coordination Sequence:
#
# PCOD8210700 Si02
#       7
#     8   8   8   8   8   8   8
#     4   8  12  20  38  66  97 125 156 197 238 275
#     4   8  14  24  40  64  94 128 162 192 231 285
#     4  10  20  33  48  69 100 131 154 185 236 292
#     4   8  16  33  54  72  90 116 153 196 241 288
#     4  10  20  34  50  68  96 132 163 194 237 287
#     4   8  14  28  51  73  91 115 150 191 234 285
#     4  11  22  34  51  72  92 120 162 206 239 274
#
# _framework density 18.823739
#
# number of rings (size 3 to 8) (size 9 to 14) (size 15 to 20)
#    0.000    3.000    0.000    3.429    0.000    5.143 
#    0.000    5.000    0.000    4.286    0.000    2.000 
#    0.000    1.143    0.000    0.000    0.000    0.000 
#
# Total GULP energy -694017.663492 kJ/mol
# GULP energy per Si atom -12393.172562 kJ/mol
# Density = 1.878090 g / cm^3
# Si number density = 18.823739 Si / 1000 Ang^3
#
#
#
# Elastic Constant Matrix: (Units=GPa)
#
#
# Indices 1 2 3 4 5 6 
#
# 1 125.1991 26.8661 79.2985 0.0000 0.0000 0.0000
# 2 26.8661 20.1100 25.3292 0.0000 0.0000 0.0000
# 3 79.2985 25.3292 150.5061 0.0000 0.0000 0.0000
# 4 0.0000 0.0000 0.0000 42.5498 0.0000 0.0000
# 5 0.0000 0.0000 0.0000 0.0000 30.2836 0.0000
# 6 0.0000 0.0000 0.0000 0.0000 0.0000 12.8833
#
#
#
# Elastic Compliance Matrix: (Units=1/GPa)
#
#
# Indices 1 2 3 4 5 6 
#
# 1 0.013912 -0.011869 -0.005332 0.000000 0.000000 0.000000
# 2 -0.011869 0.073229 -0.006070 0.000000 0.000000 0.000000
# 3 -0.005332 -0.006070 0.010475 0.000000 0.000000 0.000000
# 4 0.000000 0.000000 0.000000 0.023502 0.000000 0.000000
# 5 0.000000 0.000000 0.000000 0.000000 0.033021 0.000000
# 6 0.000000 0.000000 0.000000 0.000000 0.000000 0.077620
#
#
# Mechanical properties :
#
#
# Convention : Reuss Voigt Hill
#
# Bulk Modulus (GPa) = 19.58003 62.08918 40.83460
# Shear Modulus (GPa) = 16.93044 28.09811 22.51428
#
# Velocity S-wave (km/s) = 3.00229 3.86773 3.46216
# Velocity P-wave (km/s) = 4.73737 7.28024 6.14185
#
# Compressibility (1/GPa) = 0.05107244
#
# Stress axis : x y z
#
# Youngs Moduli (GPa) = 71.88275 13.65579 95.46292
#
# Poissons Ratio (x) = 0.16208 0.50903
# Poissons Ratio (y) = 0.85319 0.57949
# Poissons Ratio (z) = 0.38329 0.08290
#
# Static dielectric constant tensor:
#      x y z
#    x 3.781060 0.000000 0.000000 
#    y 0.000000 3.155310 0.000000 
#    z 0.000000 0.000000 3.513870 
# 
# 
# High freq. dielectric constant tensor:
#      x y z
#    x 1.743360 0.000000 0.000000 
#    y 0.000000 1.681770 0.000000 
#    z 0.000000 0.000000 1.720660 
# 
# From -- ./inp_files/33479.got.cif
#   From: 2010.03.12/outbox.cif.g09.slc.cpg/sg51_17_cif.got.tgz:33479.got - 2010.04.16 13:43:02.
