data_PCOD8210040
_publ_section_title
;
Structure prediction by ZEFSAII (Michael W. Deem and Ramdas Pophale) SiO2 
 PCOD8210040
Probable space group: P M M A
;
_chemical_formula_sum "Si O2"
_cell_formula_units_Z 48
_cell_length_a 30.838475
_cell_length_b 8.513924
_cell_length_c 9.675176
_cell_angle_alpha 90.000000
_cell_angle_beta 90.000000
_cell_angle_gamma 90.000000
_cell_volume 2540.279694
_symmetry_space_group_name_H-M "P M M A"
_symmetry_group_IT_number 51
_symmetry_cell_setting 'orthorhombic'
loop_
_space_group_symop_operation_xyz
x,y,z
1/2-x,-y,z
1/2+x,-y,-z
-x,y,-z
-x,-y,-z
1/2+x,y,-z
1/2-x,y,z
x,-y,z
loop_
_atom_site_type_symbol
_atom_site_label
_atom_site_fract_x
_atom_site_fract_y
_atom_site_fract_z
Si Si1 0.700807 0.313263 0.686644
Si Si2 0.488320 0.184241 0.846696
Si Si3 0.605419 0.685078 0.202273
Si Si4 0.067722 0.684726 0.297109
Si Si5 0.361563 0.315015 0.083505
Si Si6 0.129824 0.816128 0.513861
O O1 0.750000 0.253507 0.676453
O O2 0.697455 0.500000 0.669924
O O3 0.681722 0.258052 0.835962
O O4 0.673096 0.234459 0.566002
O O5 0.439688 0.223975 0.805274
O O6 0.518443 0.267601 0.732322
O O7 0.496431 0.000000 0.838457
O O8 0.500000 0.248230 0.000000
O O9 0.596348 0.500000 0.193233
O O10 0.631044 0.727619 0.340131
O O11 0.635382 0.745205 0.073936
O O12 0.071675 0.500000 0.322129
O O13 0.096251 0.743903 0.167176
O O14 0.085915 0.769080 0.433770
O O15 0.361770 0.500000 0.082927
O O16 0.130179 0.000000 0.540447
#
# Coordination Sequence:
#
# PCOD8210040 Si02
#       6
#     8   8   8   8   8   8
#     4   9  18  37  64  89 110 139 182 227 273 336
#     4  11  22  34  52  82 117 150 188 233 285 332
#     4  11  21  36  56  80 112 152 194 231 276 329
#     4  10  19  36  58  80 106 146 196 235 274 324
#     4   8  16  31  55  83 108 136 178 230 273 316
#     4  11  23  38  55  81 117 151 184 230 290 339
#
# _framework density 18.895557
#
# number of rings (size 3 to 8) (size 9 to 14) (size 15 to 20)
#    0.000    2.000    1.667    4.000    0.000    1.667 
#    0.000    5.000    0.000    3.000    0.000    0.000 
#    0.000    0.000    0.000    0.000    0.000    0.000 
#
# Total GULP energy -595171.499633 kJ/mol
# GULP energy per Si atom -12399.406242 kJ/mol
# Density = 1.885255 g / cm^3
# Si number density = 18.895557 Si / 1000 Ang^3
#
#
#
# Elastic Constant Matrix: (Units=GPa)
#
#
# Indices 1 2 3 4 5 6 
#
# 1 97.2154 12.1906 42.6255 0.0000 0.0000 0.0000
# 2 12.1906 33.6353 11.0586 0.0000 0.0000 0.0000
# 3 42.6255 11.0586 134.7590 0.0000 0.0000 0.0000
# 4 0.0000 0.0000 0.0000 21.1275 0.0000 0.0000
# 5 0.0000 0.0000 0.0000 0.0000 19.3792 0.0000
# 6 0.0000 0.0000 0.0000 0.0000 0.0000 20.9007
#
#
#
# Elastic Compliance Matrix: (Units=1/GPa)
#
#
# Indices 1 2 3 4 5 6 
#
# 1 0.012281 -0.003262 -0.003617 0.000000 0.000000 0.000000
# 2 -0.003262 0.031422 -0.001547 0.000000 0.000000 0.000000
# 3 -0.003617 -0.001547 0.008692 0.000000 0.000000 0.000000
# 4 0.000000 0.000000 0.000000 0.047332 0.000000 0.000000
# 5 0.000000 0.000000 0.000000 0.000000 0.051602 0.000000
# 6 0.000000 0.000000 0.000000 0.000000 0.000000 0.047845
#
#
# Mechanical properties :
#
#
# Convention : Reuss Voigt Hill
#
# Bulk Modulus (GPa) = 28.13487 44.15101 36.14294
# Shear Modulus (GPa) = 21.94210 25.59715 23.76963
#
# Velocity S-wave (km/s) = 3.41138 3.68457 3.55060
# Velocity P-wave (km/s) = 5.51713 6.44344 5.99819
#
# Compressibility (1/GPa) = 0.03554309
#
# Stress axis : x y z
#
# Youngs Moduli (GPa) = 81.42368 31.82534 115.05254
#
# Poissons Ratio (x) = 0.10382 0.41615
# Poissons Ratio (y) = 0.26561 0.17795
# Poissons Ratio (z) = 0.29451 0.04922
#
# Static dielectric constant tensor:
#      x y z
#    x 3.435820 0.000000 0.000000 
#    y 0.000000 3.292470 0.000000 
#    z 0.000000 0.000000 3.746630 
# 
# 
# High freq. dielectric constant tensor:
#      x y z
#    x 1.719300 0.000000 0.000000 
#    y 0.000000 1.725280 0.000000 
#    z 0.000000 0.000000 1.738020 
# 
# From -- ./inp_files/12818.got.cif
#   From: 2010.03.12/outbox.cif.g09.slc.cpg/sg51_7_cif.got.tgz:12818.got - 2010.04.16 13:43:02.
