data_PCOD8210510
_publ_section_title
;
Structure prediction by ZEFSAII (Michael W. Deem and Ramdas Pophale) SiO2 
 PCOD8210510
Probable space group: P M M A
;
_chemical_formula_sum "Si O2"
_cell_formula_units_Z 40
_cell_length_a 14.808831
_cell_length_b 9.079917
_cell_length_c 15.053836
_cell_angle_alpha 90.000000
_cell_angle_beta 90.000000
_cell_angle_gamma 90.000000
_cell_volume 2024.183293
_symmetry_space_group_name_H-M "P M M A"
_symmetry_group_IT_number 51
_symmetry_cell_setting 'orthorhombic'
loop_
_space_group_symop_operation_xyz
x,y,z
1/2-x,-y,z
1/2+x,-y,-z
-x,y,-z
-x,-y,-z
1/2+x,y,-z
1/2-x,y,z
x,-y,z
loop_
_atom_site_type_symbol
_atom_site_label
_atom_site_fract_x
_atom_site_fract_y
_atom_site_fract_z
Si Si1 0.113884 0.830285 0.339739
Si Si2 0.750000 0.326259 0.333539
Si Si3 0.750000 0.671905 0.995718
Si Si4 0.072889 0.172748 0.739750
Si Si5 0.750000 0.327644 0.539422
Si Si6 0.250000 0.168679 0.189179
Si Si7 0.935195 0.327463 0.080674
O O1 0.158121 0.736014 0.418394
O O2 0.161511 0.791464 0.246497
O O3 0.007248 0.797185 0.331348
O O4 0.132034 0.000000 0.363465
O O5 0.750000 0.500000 0.315918
O O6 0.838476 0.259299 0.288973
O O7 0.750000 0.285404 0.436582
O O8 0.750000 0.500000 0.979316
O O9 0.750000 0.737226 0.898476
O O10 0.664622 0.721906 0.052693
O O11 0.037635 0.232334 0.834082
O O12 0.093974 0.000000 0.746681
O O13 0.750000 0.500000 0.555401
O O14 0.250000 0.000000 0.159968
O O15 0.941809 0.500000 0.104018
O O16 0.000000 0.284924 0.000000
#
# Coordination Sequence:
#
# PCOD8210510 Si02
#       7
#     8   4   4   8   4   4   8
#     4   9  20  38  59  85 118 148 181 234 291 340
#     4  11  25  43  60  83 119 154 189 239 290 341
#     4  10  20  32  48  73 106 145 188 231 276 327
#     4  11  23  39  61  87 113 151 198 238 285 343
#     4  10  22  39  62  90 114 146 190 230 279 348
#     4   9  17  32  54  80 111 147 183 226 283 334
#     4  10  21  36  54  79 114 154 192 233 283 334
#
# _framework density 19.761057000000001
#
# number of rings (size 3 to 8) (size 9 to 14) (size 15 to 20)
#    0.000    2.000    0.000    3.600    0.000    7.600 
#    0.000    4.000    0.000    0.000    0.000    0.000 
#    0.000    0.000    0.000    0.000    0.000    0.000 
#
# Total GULP energy -496111.500253 kJ/mol
# GULP energy per Si atom -12402.787506 kJ/mol
# Density = 1.971608 g / cm^3
# Si number density = 19.761057 Si / 1000 Ang^3
#
#
#
# Elastic Constant Matrix: (Units=GPa)
#
#
# Indices 1 2 3 4 5 6 
#
# 1 127.1480 43.7407 39.1783 0.0000 0.0000 0.0000
# 2 43.7407 71.3125 57.0242 0.0000 0.0000 0.0000
# 3 39.1783 57.0242 107.3651 0.0000 0.0000 0.0000
# 4 0.0000 0.0000 0.0000-1077.9135 0.0000 0.0000
# 5 0.0000 0.0000 0.0000 0.0000 16.5642 0.0000
# 6 0.0000 0.0000 0.0000 0.0000 0.0000 11.4748
#
#
#
# Elastic Compliance Matrix: (Units=1/GPa)
#
#
# Indices 1 2 3 4 5 6 
#
# 1 0.009997 -0.005588 -0.000680 0.000000 0.000000 0.000000
# 2 -0.005588 0.027499 -0.012566 0.000000 0.000000 0.000000
# 3 -0.000680 -0.012566 0.016236 0.000000 0.000000 0.000000
# 4 0.000000 0.000000 0.000000 -0.000928 0.000000 0.000000
# 5 0.000000 0.000000 0.000000 0.000000 0.060371 0.000000
# 6 0.000000 0.000000 0.000000 0.000000 0.000000 0.087148
#
#
# Mechanical properties :
#
#
# Convention : Reuss Voigt Hill
#
# Bulk Modulus (GPa) = 62.25259 65.07914 63.66587
# Shear Modulus (GPa) = 20.54696 -198.91609 -89.18456
#
# Velocity S-wave (km/s) = 3.22804 -10.04386 -6.72528
# Velocity P-wave (km/s) = 6.74276 10.07477 5.29322
#
# Compressibility (1/GPa) = 0.01606359
#
# Stress axis : x y z
#
# Youngs Moduli (GPa) = 100.03310 36.36554 61.59029
#
# Poissons Ratio (x) = 0.20321 0.04188
# Poissons Ratio (y) = 0.55897 0.77395
# Poissons Ratio (z) = 0.06802 0.45697
#
# Static dielectric constant tensor:
#      x y z
#    x -0.496610 0.000000 0.000000 
#    y 0.000000 3.535110 0.000000 
#    z 0.000000 0.000000 3.515720 
# 
# 
# High freq. dielectric constant tensor:
#      x y z
#    x 1.784080 0.000000 0.000000 
#    y 0.000000 1.768370 0.000000 
#    z 0.000000 0.000000 1.769660 
# 
# From -- ./inp_files/23871.got.cif
#   From: 2010.03.12/outbox.cif.g09.slc.cpg/sg51_12_cif.got.tgz:23871.got - 2010.04.16 13:43:02.
