data_PCOD8210103
_publ_section_title
;
Structure prediction by ZEFSAII (Michael W. Deem and Ramdas Pophale) SiO2 
 PCOD8210103
Probable space group: P M M A
;
_chemical_formula_sum "Si O2"
_cell_formula_units_Z 48
_cell_length_a 18.971784
_cell_length_b 8.882417
_cell_length_c 15.127482
_cell_angle_alpha 90.000000
_cell_angle_beta 90.000000
_cell_angle_gamma 90.000000
_cell_volume 2549.212118
_symmetry_space_group_name_H-M "P M M A"
_symmetry_group_IT_number 51
_symmetry_cell_setting 'orthorhombic'
loop_
_space_group_symop_operation_xyz
x,y,z
1/2-x,-y,z
1/2+x,-y,-z
-x,y,-z
-x,-y,-z
1/2+x,y,-z
1/2-x,y,z
x,-y,z
loop_
_atom_site_type_symbol
_atom_site_label
_atom_site_fract_x
_atom_site_fract_y
_atom_site_fract_z
Si Si1 0.330840 0.675535 0.380317
Si Si2 0.830989 0.176678 0.436311
Si Si3 0.407226 0.678468 0.725448
Si Si4 0.062672 0.321412 0.231314
Si Si5 0.921082 0.673407 0.966148
Si Si6 0.667905 0.173543 0.112709
O O1 0.250000 0.706316 0.354019
O O2 0.344204 0.500000 0.399194
O O3 0.352843 0.767394 0.466862
O O4 0.378938 0.736086 0.300385
O O5 0.750000 0.219752 0.416269
O O6 0.880751 0.257952 0.366973
O O7 0.843205 0.000000 0.430026
O O8 0.405903 0.500000 0.721187
O O9 0.486025 0.741113 0.741501
O O10 0.357192 0.729883 0.804368
O O11 0.059433 0.500000 0.229143
O O12 0.083367 0.264176 0.133833
O O13 0.896697 0.500000 0.973142
O O14 0.869733 0.775492 0.023372
O O15 0.000000 0.691210 0.000000
O O16 0.750000 0.201613 0.099255
O O17 0.650638 0.000000 0.131892
#
# Coordination Sequence:
#
# PCOD8210103 Si02
#       6
#     8   8   8   8   8   8
#     4   9  18  35  58  81 106 142 187 228 272 330
#     4  10  21  37  55  78 112 148 182 228 281 330
#     4  11  21  36  58  83 112 146 186 231 280 335
#     4   9  19  35  57  85 113 141 180 234 282 324
#     4  10  19  37  61  84 112 147 189 233 280 335
#     4  11  24  39  55  82 118 151 188 234 281 334
#
# _framework density 18.829348
#
# number of rings (size 3 to 8) (size 9 to 14) (size 15 to 20)
#    0.000    2.000    1.667    2.000    0.000    6.000 
#    0.000    7.500    0.000    2.000    0.000    0.000 
#    0.000    0.000    0.000    0.000    0.000    0.000 
#
# Total GULP energy -595369.220439 kJ/mol
# GULP energy per Si atom -12403.525426 kJ/mol
# Density = 1.878649 g / cm^3
# Si number density = 18.829348 Si / 1000 Ang^3
#
#
#
# Elastic Constant Matrix: (Units=GPa)
#
#
# Indices 1 2 3 4 5 6 
#
# 1 85.6702 33.3135 62.4339 0.0000 0.0000 0.0000
# 2 33.3135 51.3675 39.3662 0.0000 0.0000 0.0000
# 3 62.4339 39.3662 146.6712 0.0000 0.0000 0.0000
# 4 0.0000 0.0000 0.0000 4.1741 0.0000 0.0000
# 5 0.0000 0.0000 0.0000 0.0000 40.7286 0.0000
# 6 0.0000 0.0000 0.0000 0.0000 0.0000 22.8475
#
#
#
# Elastic Compliance Matrix: (Units=1/GPa)
#
#
# Indices 1 2 3 4 5 6 
#
# 1 0.019093 -0.007747 -0.006048 0.000000 0.000000 0.000000
# 2 -0.007747 0.027653 -0.004124 0.000000 0.000000 0.000000
# 3 -0.006048 -0.004124 0.010499 0.000000 0.000000 0.000000
# 4 0.000000 0.000000 0.000000 0.239570 0.000000 0.000000
# 5 0.000000 0.000000 0.000000 0.000000 0.024553 0.000000
# 6 0.000000 0.000000 0.000000 0.000000 0.000000 0.043768
#
#
# Mechanical properties :
#
#
# Convention : Reuss Voigt Hill
#
# Bulk Modulus (GPa) = 46.71596 61.54845 54.13220
# Shear Modulus (GPa) = 12.25160 23.45641 17.85400
#
# Velocity S-wave (km/s) = 2.55358 3.53333 3.08263
# Velocity P-wave (km/s) = 5.79296 7.02882 6.44060
#
# Compressibility (1/GPa) = 0.02140596
#
# Stress axis : x y z
#
# Youngs Moduli (GPa) = 52.37560 36.16302 95.24470
#
# Poissons Ratio (x) = 0.28017 0.57603
# Poissons Ratio (y) = 0.40578 0.39279
# Poissons Ratio (z) = 0.31676 0.14914
#
# Static dielectric constant tensor:
#      x y z
#    x 3.564280 0.000000 0.000000 
#    y 0.000000 3.327350 0.000000 
#    z 0.000000 0.000000 3.669480 
# 
# 
# High freq. dielectric constant tensor:
#      x y z
#    x 1.733890 0.000000 0.000000 
#    y 0.000000 1.717100 0.000000 
#    z 0.000000 0.000000 1.745180 
# 
# From -- ./inp_files/24671.got.cif
#   From: 2010.03.12/outbox.cif.g09.slc.cpg/sg51_13_cif.got.tgz:24671.got - 2010.04.16 13:43:02.
