data_PCOD8210904
_publ_section_title
;
Structure prediction by ZEFSAII (Michael W. Deem and Ramdas Pophale) SiO2 
 PCOD8210904
Probable space group: P M M A
;
_chemical_formula_sum "Si O2"
_cell_formula_units_Z 64
_cell_length_a 9.099648
_cell_length_b 24.559435
_cell_length_c 15.536944
_cell_angle_alpha 90.000000
_cell_angle_beta 90.000000
_cell_angle_gamma 90.000000
_cell_volume 3472.230637
_symmetry_space_group_name_H-M "P M M A"
_symmetry_group_IT_number 51
_symmetry_cell_setting 'orthorhombic'
loop_
_space_group_symop_operation_xyz
x,y,z
1/2-x,-y,z
1/2+x,-y,-z
-x,y,-z
-x,-y,-z
1/2+x,y,-z
1/2-x,y,z
x,-y,z
loop_
_atom_site_type_symbol
_atom_site_label
_atom_site_fract_x
_atom_site_fract_y
_atom_site_fract_z
Si Si1 0.417592 0.435335 0.754464
Si Si2 0.420843 0.745700 0.086150
Si Si3 0.913861 0.802767 0.417609
Si Si4 0.590237 0.929159 0.423008
Si Si5 0.576820 0.820164 0.759352
Si Si6 0.577115 0.619938 0.911788
Si Si7 0.916933 0.435149 0.584546
Si Si8 0.419201 0.058499 0.252772
O O1 0.250000 0.413644 0.756764
O O2 0.419855 0.500000 0.755929
O O3 0.508026 0.414622 0.835572
O O4 0.496279 0.413366 0.668087
O O5 0.250000 0.755670 0.071631
O O6 0.481329 0.781891 0.164377
O O7 0.455912 0.683043 0.106884
O O8 0.500000 0.765397 0.000000
O O9 0.750000 0.776297 0.409588
O O10 0.895607 0.865501 0.437687
O O11 0.000000 0.776033 0.500000
O O12 0.000831 0.798038 0.327463
O O13 0.500000 0.955891 0.500000
O O14 0.750000 0.955853 0.421331
O O15 0.512012 0.947073 0.337322
O O16 0.750000 0.813593 0.744682
O O17 0.536458 0.882843 0.788964
O O18 0.750000 0.607759 0.918426
O O19 0.500000 0.601338 0.000000
O O20 0.750000 0.412715 0.586061
O O21 0.915626 0.500000 0.583410
O O22 0.000000 0.412722 0.500000
O O23 0.250000 0.062892 0.278613
O O24 0.445136 0.000000 0.200676
#
# Coordination Sequence:
#
# PCOD8210904 Si02
#       8
#     8   8   8   8   8   8   8   8
#     4  10  20  33  50  75 107 142 177 209 245 293
#     4   9  19  35  56  79  99 122 156 202 251 296
#     4   9  16  26  42  66  94 125 160 195 234 282
#     4   9  16  25  37  54  80 115 153 191 228 269
#     4   9  17  31  50  71  95 123 157 198 242 286
#     4  10  20  35  54  76 102 131 164 203 249 298
#     4   9  16  27  45  70 101 138 179 220 257 291
#     4   9  17  28  42  61  86 117 151 186 228 280
#
# _framework density 18.431954999999999
#
# number of rings (size 3 to 8) (size 9 to 14) (size 15 to 20)
#    0.000    2.750    0.000    1.875    0.000    7.000 
#    0.000    0.000    0.000    1.125    0.000    3.500 
#    0.000    0.000    0.000    0.000    0.000    0.000 
#
# Total GULP energy -792881.182505 kJ/mol
# GULP energy per Si atom -12388.768477 kJ/mol
# Density = 1.839000 g / cm^3
# Si number density = 18.431955 Si / 1000 Ang^3
#
#
#
# Elastic Constant Matrix: (Units=GPa)
#
#
# Indices 1 2 3 4 5 6 
#
# 1 90.3352 22.3365 59.3532 0.0000 0.0000 0.0000
# 2 22.3365 24.4489 30.1244 0.0000 0.0000 0.0000
# 3 59.3532 30.1244 128.8908 0.0000 0.0000 0.0000
# 4 0.0000 0.0000 0.0000 -5.5664 0.0000 0.0000
# 5 0.0000 0.0000 0.0000 0.0000 33.5918 0.0000
# 6 0.0000 0.0000 0.0000 0.0000 0.0000 22.9382
#
#
#
# Elastic Compliance Matrix: (Units=1/GPa)
#
#
# Indices 1 2 3 4 5 6 
#
# 1 0.016981 -0.008257 -0.005890 0.000000 0.000000 0.000000
# 2 -0.008257 0.061459 -0.010562 0.000000 0.000000 0.000000
# 3 -0.005890 -0.010562 0.012939 0.000000 0.000000 0.000000
# 4 0.000000 0.000000 0.000000 -0.179648 0.000000 0.000000
# 5 0.000000 0.000000 0.000000 0.000000 0.029769 0.000000
# 6 0.000000 0.000000 0.000000 0.000000 0.000000 0.043595
#
#
# Mechanical properties :
#
#
# Convention : Reuss Voigt Hill
#
# Bulk Modulus (GPa) = 23.83115 51.92256 37.87686
# Shear Modulus (GPa) = 103.09057 18.98343 61.03700
#
# Velocity S-wave (km/s) = 7.48677 3.21272 5.76079
# Velocity P-wave (km/s) = 9.36446 6.48021 8.05252
#
# Compressibility (1/GPa) = 0.04196189
#
# Stress axis : x y z
#
# Youngs Moduli (GPa) = 58.88784 16.27106 77.28362
#
# Poissons Ratio (x) = 0.13435 0.45520
# Poissons Ratio (y) = 0.48623 0.81627
# Poissons Ratio (z) = 0.34685 0.17185
#
# Static dielectric constant tensor:
#      x y z
#    x 3.647030 0.000000 0.000000 
#    y 0.000000 3.312270 0.000000 
#    z 0.000000 0.000000 3.283310 
# 
# 
# High freq. dielectric constant tensor:
#      x y z
#    x 1.727970 0.000000 0.000000 
#    y 0.000000 1.691710 0.000000 
#    z 0.000000 0.000000 1.696540 
# 
# From -- ./inp_files/22244.got.cif
#   From: 2010.03.12/outbox.cif.g09.slc.cpg/sg51_12_cif.got.tgz:22244.got - 2010.04.16 13:43:02.
