data_PCOD8210928
_publ_section_title
;
Structure prediction by ZEFSAII (Michael W. Deem and Ramdas Pophale) SiO2 
 PCOD8210928
Probable space group: P M M A
;
_chemical_formula_sum "Si O2"
_cell_formula_units_Z 64
_cell_length_a 19.499824
_cell_length_b 9.259929
_cell_length_c 20.111388
_cell_angle_alpha 90.000000
_cell_angle_beta 90.000000
_cell_angle_gamma 90.000000
_cell_volume 3631.452710
_symmetry_space_group_name_H-M "P M M A"
_symmetry_group_IT_number 51
_symmetry_cell_setting 'orthorhombic'
loop_
_space_group_symop_operation_xyz
x,y,z
1/2-x,-y,z
1/2+x,-y,-z
-x,y,-z
-x,-y,-z
1/2+x,y,-z
1/2-x,y,z
x,-y,z
loop_
_atom_site_type_symbol
_atom_site_label
_atom_site_fract_x
_atom_site_fract_y
_atom_site_fract_z
Si Si1 0.570001 0.329505 0.685765
Si Si2 0.828005 0.168998 0.438829
Si Si3 0.432332 0.167312 0.674386
Si Si4 0.171042 0.167802 0.059797
Si Si5 0.076052 0.167439 0.180510
Si Si6 0.418602 0.163724 0.825962
Si Si7 0.671598 0.332329 0.568917
Si Si8 0.329232 0.331402 0.928144
O O1 0.561763 0.500000 0.694462
O O2 0.498655 0.263803 0.660492
O O3 0.593931 0.261868 0.755321
O O4 0.627423 0.287308 0.632401
O O5 0.750000 0.215932 0.423355
O O6 0.873466 0.216776 0.376215
O O7 0.855857 0.247465 0.504589
O O8 0.833660 0.000000 0.451899
O O9 0.404051 0.193075 0.748448
O O10 0.453077 0.000000 0.665139
O O11 0.250000 0.201608 0.076757
O O12 0.125854 0.219392 0.121888
O O13 0.159083 0.000000 0.044502
O O14 0.145937 0.255250 0.995621
O O15 0.998095 0.192992 0.157444
O O16 0.087854 0.000000 0.198811
O O17 0.372593 0.274026 0.866590
O O18 0.398466 0.000000 0.845060
O O19 0.750000 0.290079 0.584602
O O20 0.663635 0.500000 0.552677
O O21 0.250000 0.295367 0.914158
O O22 0.342448 0.500000 0.936170
#
# Coordination Sequence:
#
# PCOD8210928 Si02
#       8
#     8   8   8   8   8   8   8   8
#     4  10  20  33  51  74 100 132 168 203 241 292
#     4   9  18  33  53  76  99 126 165 209 249 291
#     4   9  19  35  53  74 101 130 161 203 251 294
#     4   9  18  34  55  76  99 130 166 201 241 293
#     4   9  19  35  53  75 102 129 162 205 248 289
#     4   9  18  33  52  72  97 131 165 199 243 294
#     4   9  19  35  51  70 100 135 168 202 243 292
#     4  10  21  35  50  72 102 131 162 204 247 287
#
# _framework density 17.623801
#
# number of rings (size 3 to 8) (size 9 to 14) (size 15 to 20)
#    0.000    2.750    0.000    1.500    0.000    6.750 
#    0.000    6.250    0.000    1.500    0.000    0.000 
#    0.000    0.000    0.000    0.000    0.000    0.000 
#
# Total GULP energy -793770.479413 kJ/mol
# GULP energy per Si atom -12402.663741 kJ/mol
# Density = 1.758369 g / cm^3
# Si number density = 17.623801 Si / 1000 Ang^3
#
#
#
# Elastic Constant Matrix: (Units=GPa)
#
#
# Indices 1 2 3 4 5 6 
#
# 1 87.1205 49.7869 85.7068 0.0000 0.0000 0.0000
# 2 49.7869 69.0303 67.4673 0.0000 0.0000 0.0000
# 3 85.7068 67.4673 141.8392 0.0000 0.0000 0.0000
# 4 0.0000 0.0000 0.0000 24.0447 0.0000 0.0000
# 5 0.0000 0.0000 0.0000 0.0000 35.1806 0.0000
# 6 0.0000 0.0000 0.0000 0.0000 0.0000 26.0891
#
#
#
# Elastic Compliance Matrix: (Units=1/GPa)
#
#
# Indices 1 2 3 4 5 6 
#
# 1 0.030185 -0.007370 -0.014733 0.000000 0.000000 0.000000
# 2 -0.007370 0.028872 -0.009279 0.000000 0.000000 0.000000
# 3 -0.014733 -0.009279 0.020367 0.000000 0.000000 0.000000
# 4 0.000000 0.000000 0.000000 0.041589 0.000000 0.000000
# 5 0.000000 0.000000 0.000000 0.000000 0.028425 0.000000
# 6 0.000000 0.000000 0.000000 0.000000 0.000000 0.038330
#
#
# Mechanical properties :
#
#
# Convention : Reuss Voigt Hill
#
# Bulk Modulus (GPa) = 60.03655 78.21245 69.12450
# Shear Modulus (GPa) = 19.52471 23.39812 21.46142
#
# Velocity S-wave (km/s) = 3.33206 3.64764 3.49342
# Velocity P-wave (km/s) = 6.99593 7.88768 7.45515
#
# Compressibility (1/GPa) = 0.01665652
#
# Stress axis : x y z
#
# Youngs Moduli (GPa) = 33.12944 34.63621 49.09952
#
# Poissons Ratio (x) = 0.25528 0.72340
# Poissons Ratio (y) = 0.24418 0.45562
# Poissons Ratio (z) = 0.48811 0.32140
#
# Static dielectric constant tensor:
#      x y z
#    x 3.299840 0.000000 0.000000 
#    y 0.000000 3.226740 0.000000 
#    z 0.000000 0.000000 3.318930 
# 
# 
# High freq. dielectric constant tensor:
#      x y z
#    x 1.678680 0.000000 0.000000 
#    y 0.000000 1.679880 0.000000 
#    z 0.000000 0.000000 1.685360 
# 
# From -- ./inp_files/30508.got.cif
#   From: 2010.03.12/outbox.cif.g09.slc.cpg/sg51_16_cif.got.tgz:30508.got - 2010.04.16 13:43:02.
