data_PCOD8210405
_publ_section_title
;
Structure prediction by ZEFSAII (Michael W. Deem and Ramdas Pophale) SiO2 
 PCOD8210405
Probable space group: P M M A
;
_chemical_formula_sum "Si O2"
_cell_formula_units_Z 44
_cell_length_a 8.730331
_cell_length_b 28.424118
_cell_length_c 9.976246
_cell_angle_alpha 90.000000
_cell_angle_beta 90.000000
_cell_angle_gamma 90.000000
_cell_volume 2475.624984
_symmetry_space_group_name_H-M "P M M A"
_symmetry_group_IT_number 51
_symmetry_cell_setting 'orthorhombic'
loop_
_space_group_symop_operation_xyz
x,y,z
1/2-x,-y,z
1/2+x,-y,-z
-x,y,-z
-x,-y,-z
1/2+x,y,-z
1/2-x,y,z
x,-y,z
loop_
_atom_site_type_symbol
_atom_site_label
_atom_site_fract_x
_atom_site_fract_y
_atom_site_fract_z
Si Si1 0.931491 0.273296 0.857386
Si Si2 0.071280 0.000000 0.644806
Si Si3 0.430336 0.194214 0.353021
Si Si4 0.569169 0.100458 0.352617
Si Si5 0.069332 0.552977 0.639038
Si Si6 0.567891 0.372882 0.142155
O O1 0.750000 0.277713 0.871838
O O2 0.980590 0.236103 0.744655
O O3 0.000835 0.322968 0.811225
O O4 0.000000 0.257363 0.000000
O O5 0.028229 0.950309 0.719308
O O6 0.000000 0.000000 0.500000
O O7 0.250000 0.000000 0.618740
O O8 0.500000 0.202924 0.500000
O O9 0.250000 0.190991 0.368187
O O10 0.491696 0.145787 0.283149
O O11 0.500000 0.098527 0.500000
O O12 0.750000 0.108731 0.358320
O O13 0.250000 0.554680 0.626342
O O14 0.012403 0.500000 0.671660
O O15 0.011188 0.587559 0.754737
O O16 0.000000 0.571090 0.500000
O O17 0.750000 0.369315 0.133129
O O18 0.500000 0.387961 0.000000
#
# Coordination Sequence:
#
# PCOD8210405 Si02
#       6
#     8   4   8   8   8   8
#     4  10  21  36  53  72  96 126 162 201 241 287
#     4   8  14  22  34  56  85 118 153 186 228 278
#     4  10  20  32  47  70  97 125 158 196 238 285
#     4   9  15  24  39  60  89 122 154 191 233 278
#     4   9  19  35  53  75 103 133 164 198 237 282
#     4  10  20  34  53  75  99 127 161 200 240 284
#
# _framework density 17.773288999999998
#
# number of rings (size 3 to 8) (size 9 to 14) (size 15 to 20)
#    0.000    2.545    0.000    4.364    0.000    6.182 
#    0.000    3.636    0.000    0.000    0.000    0.636 
#    0.000    0.000    0.000    0.000    0.000    0.000 
#
# Total GULP energy -545199.235093 kJ/mol
# GULP energy per Si atom -12390.891707 kJ/mol
# Density = 1.773284 g / cm^3
# Si number density = 17.773289 Si / 1000 Ang^3
#
#
#
# Elastic Constant Matrix: (Units=GPa)
#
#
# Indices 1 2 3 4 5 6 
#
# 1 66.0557 52.2183 36.6864 0.0000 0.0000 0.0000
# 2 52.2183 172.8987 97.3593 0.0000 0.0000 0.0000
# 3 36.6864 97.3593 90.8934 0.0000 0.0000 0.0000
# 4 0.0000 0.0000 0.0000 7.3743 0.0000 0.0000
# 5 0.0000 0.0000 0.0000 0.0000 23.0329 0.0000
# 6 0.0000 0.0000 0.0000 0.0000 0.0000 19.5461
#
#
#
# Elastic Compliance Matrix: (Units=1/GPa)
#
#
# Indices 1 2 3 4 5 6 
#
# 1 0.020486 -0.003858 -0.004136 0.000000 0.000000 0.000000
# 2 -0.003858 0.015301 -0.014832 0.000000 0.000000 0.000000
# 3 -0.004136 -0.014832 0.028559 0.000000 0.000000 0.000000
# 4 0.000000 0.000000 0.000000 0.135607 0.000000 0.000000
# 5 0.000000 0.000000 0.000000 0.000000 0.043416 0.000000
# 6 0.000000 0.000000 0.000000 0.000000 0.000000 0.051161
#
#
# Mechanical properties :
#
#
# Convention : Reuss Voigt Hill
#
# Bulk Modulus (GPa) = 53.49652 78.04174 65.76913
# Shear Modulus (GPa) = 14.43366 19.56291 16.99828
#
# Velocity S-wave (km/s) = 2.85283 3.32127 3.09592
# Velocity P-wave (km/s) = 6.40439 7.66242 7.06147
#
# Compressibility (1/GPa) = 0.01869280
#
# Stress axis : x y z
#
# Youngs Moduli (GPa) = 48.81466 65.35518 35.01566
#
# Poissons Ratio (x) = 0.25215 0.14482
# Poissons Ratio (y) = 0.18833 0.51936
# Poissons Ratio (z) = 0.20189 0.96937
#
# Static dielectric constant tensor:
#      x y z
#    x 3.348590 0.000000 0.000000 
#    y 0.000000 4.093810 0.000000 
#    z 0.000000 0.000000 3.011740 
# 
# 
# High freq. dielectric constant tensor:
#      x y z
#    x 1.699240 0.000000 0.000000 
#    y 0.000000 1.711260 0.000000 
#    z 0.000000 0.000000 1.643160 
# 
# From -- ./inp_files/5829.got.cif
#   From: 2010.03.12/outbox.cif.g09.slc.cpg/sg51_3_cif.got.tgz:5829.got - 2010.04.16 13:43:02.
