data_PCOD8210793
_publ_section_title
;
Structure prediction by ZEFSAII (Michael W. Deem and Ramdas Pophale) SiO2 
 PCOD8210793
Probable space group: P M M A
;
_chemical_formula_sum "Si O2"
_cell_formula_units_Z 48
_cell_length_a 9.263001
_cell_length_b 14.113610
_cell_length_c 20.931153
_cell_angle_alpha 90.000000
_cell_angle_beta 90.000000
_cell_angle_gamma 90.000000
_cell_volume 2736.421384
_symmetry_space_group_name_H-M "P M M A"
_symmetry_group_IT_number 51
_symmetry_cell_setting 'orthorhombic'
loop_
_space_group_symop_operation_xyz
x,y,z
1/2-x,-y,z
1/2+x,-y,-z
-x,y,-z
-x,-y,-z
1/2+x,y,-z
1/2-x,y,z
x,-y,z
loop_
_atom_site_type_symbol
_atom_site_label
_atom_site_fract_x
_atom_site_fract_y
_atom_site_fract_z
Si Si1 0.592043 0.607116 0.054687
Si Si2 0.919630 0.108615 0.064898
Si Si3 0.587890 0.886918 0.560846
Si Si4 0.418774 0.785065 0.805139
Si Si5 0.410567 0.111568 0.679767
Si Si6 0.919308 0.395001 0.816158
O O1 0.750000 0.656562 0.065012
O O2 0.621120 0.500000 0.032703
O O3 0.495791 0.610370 0.116345
O O4 0.500000 0.660911 0.000000
O O5 0.750000 0.117494 0.052781
O O6 0.966918 0.175601 0.124861
O O7 0.960793 0.000000 0.081968
O O8 0.000000 0.141089 0.000000
O O9 0.500000 0.848105 0.500000
O O10 0.750000 0.847290 0.556724
O O11 0.516789 0.846391 0.625854
O O12 0.587356 0.000000 0.560858
O O13 0.250000 0.760959 0.805829
O O14 0.458274 0.862118 0.751471
O O15 0.505756 0.692022 0.779703
O O16 0.250000 0.150746 0.665513
O O17 0.412192 0.000000 0.675055
O O18 0.750000 0.376776 0.823683
O O19 0.947082 0.500000 0.785421
#
# Coordination Sequence:
#
# PCOD8210793 Si02
#       6
#     8   8   8   8   8   8
#     4   9  16  27  44  63  81 102 131 170 219 276
#     4   9  18  33  51  70  92 119 153 193 237 284
#     4   9  16  26  42  66  97 132 165 193 223 264
#     4  10  20  33  50  70  92 121 157 197 241 288
#     4   9  17  30  48  70  97 128 160 194 233 277
#     4  10  21  35  48  63  86 116 150 191 238 285
#
# _framework density 17.541157999999999
#
# number of rings (size 3 to 8) (size 9 to 14) (size 15 to 20)
#    0.000    2.667    0.000    2.000    0.000    9.000 
#    0.000    1.667    0.000    5.000    0.000    0.000 
#    0.000    0.667    0.000    2.167    0.000    3.167 
#
# Total GULP energy -594692.101343 kJ/mol
# GULP energy per Si atom -12389.418778 kJ/mol
# Density = 1.750123 g / cm^3
# Si number density = 17.541158 Si / 1000 Ang^3
#
#
#
# Elastic Constant Matrix: (Units=GPa)
#
#
# Indices 1 2 3 4 5 6 
#
# 1 94.9232 29.0099 54.3491 0.0000 0.0000 0.0000
# 2 29.0099 54.0842 13.1340 0.0000 0.0000 0.0000
# 3 54.3491 13.1340 105.2896 0.0000 0.0000 0.0000
# 4 0.0000 0.0000 0.0000 6.2784 0.0000 0.0000
# 5 0.0000 0.0000 0.0000 0.0000 27.7580 0.0000
# 6 0.0000 0.0000 0.0000 0.0000 0.0000 17.0481
#
#
#
# Elastic Compliance Matrix: (Units=1/GPa)
#
#
# Indices 1 2 3 4 5 6 
#
# 1 0.017408 -0.007379 -0.008065 0.000000 0.000000 0.000000
# 2 -0.007379 0.022195 0.001040 0.000000 0.000000 0.000000
# 3 -0.008065 0.001040 0.013531 0.000000 0.000000 0.000000
# 4 0.000000 0.000000 0.000000 0.159277 0.000000 0.000000
# 5 0.000000 0.000000 0.000000 0.000000 0.036026 0.000000
# 6 0.000000 0.000000 0.000000 0.000000 0.000000 0.058657
#
#
# Mechanical properties :
#
#
# Convention : Reuss Voigt Hill
#
# Bulk Modulus (GPa) = 41.10798 49.69812 45.40305
# Shear Modulus (GPa) = 14.53449 20.73716 17.63582
#
# Velocity S-wave (km/s) = 2.88165 3.44204 3.17424
# Velocity P-wave (km/s) = 5.87860 6.64761 6.27490
#
# Compressibility (1/GPa) = 0.02432618
#
# Stress axis : x y z
#
# Youngs Moduli (GPa) = 57.44612 45.05546 73.90438
#
# Poissons Ratio (x) = 0.33245 0.59605
# Poissons Ratio (y) = 0.42387 -0.07687
# Poissons Ratio (z) = 0.46331 -0.04686
#
# Static dielectric constant tensor:
#      x y z
#    x 3.528660 0.000000 0.000000 
#    y 0.000000 3.622520 0.000000 
#    z 0.000000 0.000000 3.202240 
# 
# 
# High freq. dielectric constant tensor:
#      x y z
#    x 1.687200 0.000000 0.000000 
#    y 0.000000 1.648970 0.000000 
#    z 0.000000 0.000000 1.652890 
# 
# From -- ./inp_files/31577.got.cif
#   From: 2010.03.12/outbox.cif.g09.slc.cpg/sg51_16_cif.got.tgz:31577.got - 2010.04.16 13:43:02.
