data_PCOD8210896
_publ_section_title
;
Structure prediction by ZEFSAII (Michael W. Deem and Ramdas Pophale) SiO2 
 PCOD8210896
Probable space group: P M M A
;
_chemical_formula_sum "Si O2"
_cell_formula_units_Z 52
_cell_length_a 9.166843
_cell_length_b 10.040346
_cell_length_c 29.613174
_cell_angle_alpha 90.000000
_cell_angle_beta 90.000000
_cell_angle_gamma 90.000000
_cell_volume 2725.545465
_symmetry_space_group_name_H-M "P M M A"
_symmetry_group_IT_number 51
_symmetry_cell_setting 'orthorhombic'
loop_
_space_group_symop_operation_xyz
x,y,z
1/2-x,-y,z
1/2+x,-y,-z
-x,y,-z
-x,-y,-z
1/2+x,y,-z
1/2-x,y,z
x,-y,z
loop_
_atom_site_type_symbol
_atom_site_label
_atom_site_fract_x
_atom_site_fract_y
_atom_site_fract_z
Si Si1 0.079606 0.000000 0.548301
Si Si2 0.419887 0.153007 0.867768
Si Si3 0.578142 0.753220 0.387640
Si Si4 0.086037 0.158331 0.043060
Si Si5 0.408111 0.351777 0.460913
Si Si6 0.078918 0.654280 0.304330
Si Si7 0.918271 0.652373 0.212713
O O1 0.035346 0.122305 0.580764
O O2 0.000000 0.000000 0.500000
O O3 0.250000 0.000000 0.537968
O O4 0.250000 0.167077 0.879137
O O5 0.507254 0.204401 0.911247
O O6 0.466271 0.247840 0.826753
O O7 0.459058 0.000000 0.855467
O O8 0.750000 0.733271 0.382288
O O9 0.500145 0.634226 0.414766
O O10 0.505832 0.754133 0.338173
O O11 0.250000 0.215388 0.042664
O O12 0.087215 0.000000 0.040304
O O13 0.000000 0.217431 0.000000
O O14 0.500000 0.273787 0.500000
O O15 0.250000 0.280677 0.454151
O O16 0.377957 0.500000 0.478548
O O17 0.250000 0.684822 0.306473
O O18 0.045347 0.500000 0.316318
O O19 0.020323 0.687569 0.254777
O O20 0.750000 0.675498 0.226531
O O21 0.942710 0.500000 0.196779
#
# Coordination Sequence:
#
# PCOD8210896 Si02
#       7
#     4   8   8   8   8   8   8
#     4  10  24  42  58  78 104 138 174 208 247 298
#     4   9  17  30  49  75 105 137 175 221 272 320
#     4  11  22  37  56  77 101 131 168 206 247 296
#     4   9  16  26  43  69 102 139 178 222 271 322
#     4  10  20  33  50  75 104 129 156 194 240 288
#     4  10  21  37  57  81 107 134 168 212 260 309
#     4   9  18  34  55  77 103 140 181 218 264 324
#
# _framework density 19.078748000000001
#
# number of rings (size 3 to 8) (size 9 to 14) (size 15 to 20)
#    0.000    2.308    0.000    2.769    0.000    8.615 
#    1.385    0.000    0.000    0.462    0.000    0.000 
#    0.000    0.000    0.000    0.000    0.000    0.000 
#
# Total GULP energy -644533.857760 kJ/mol
# GULP energy per Si atom -12394.881880 kJ/mol
# Density = 1.903532 g / cm^3
# Si number density = 19.078748 Si / 1000 Ang^3
#
#
#
# Elastic Constant Matrix: (Units=GPa)
#
#
# Indices 1 2 3 4 5 6 
#
# 1 139.7226 39.7306 94.7190 0.0000 0.0000 0.0000
# 2 39.7306 58.9081 58.9673 0.0000 0.0000 0.0000
# 3 94.7190 58.9673 171.5418 0.0000 0.0000 0.0000
# 4 0.0000 0.0000 0.0000 24.2365 0.0000 0.0000
# 5 0.0000 0.0000 0.0000 0.0000 41.6438 0.0000
# 6 0.0000 0.0000 0.0000 0.0000 0.0000 13.9578
#
#
#
# Elastic Compliance Matrix: (Units=1/GPa)
#
#
# Indices 1 2 3 4 5 6 
#
# 1 0.011616 -0.002156 -0.005673 0.000000 0.000000 0.000000
# 2 -0.002156 0.026281 -0.007844 0.000000 0.000000 0.000000
# 3 -0.005673 -0.007844 0.011658 0.000000 0.000000 0.000000
# 4 0.000000 0.000000 0.000000 0.041260 0.000000 0.000000
# 5 0.000000 0.000000 0.000000 0.000000 0.024013 0.000000
# 6 0.000000 0.000000 0.000000 0.000000 0.000000 0.071645
#
#
# Mechanical properties :
#
#
# Convention : Reuss Voigt Hill
#
# Bulk Modulus (GPa) = 54.91382 84.11183 69.51282
# Shear Modulus (GPa) = 22.33264 27.75130 25.04197
#
# Velocity S-wave (km/s) = 3.42504 3.81801 3.62686
# Velocity P-wave (km/s) = 6.66981 7.97613 7.35204
#
# Compressibility (1/GPa) = 0.01821035
#
# Stress axis : x y z
#
# Youngs Moduli (GPa) = 86.09135 38.04993 85.77805
#
# Poissons Ratio (x) = 0.08203 0.48659
# Poissons Ratio (y) = 0.18560 0.67283
# Poissons Ratio (z) = 0.48836 0.29846
#
# Static dielectric constant tensor:
#      x y z
#    x 3.710460 0.000000 0.000000 
#    y 0.000000 3.292670 0.000000 
#    z 0.000000 0.000000 3.495300 
# 
# 
# High freq. dielectric constant tensor:
#      x y z
#    x 1.753820 0.000000 0.000000 
#    y 0.000000 1.708140 0.000000 
#    z 0.000000 0.000000 1.744210 
# 
# From -- ./inp_files/36218.got.cif
#   From: 2010.03.12/outbox.cif.g09.slc.cpg/sg51_19_cif.got.tgz:36218.got - 2010.04.16 13:43:02.
