data_PCOD8210253
_publ_section_title
;
Structure prediction by ZEFSAII (Michael W. Deem and Ramdas Pophale) SiO2 
 PCOD8210253
Probable space group: P M M A
;
_chemical_formula_sum "Si O2"
_cell_formula_units_Z 56
_cell_length_a 9.689893
_cell_length_b 13.409274
_cell_length_c 28.957495
_cell_angle_alpha 90.000000
_cell_angle_beta 90.000000
_cell_angle_gamma 90.000000
_cell_volume 3762.575615
_symmetry_space_group_name_H-M "P M M A"
_symmetry_group_IT_number 51
_symmetry_cell_setting 'orthorhombic'
loop_
_space_group_symop_operation_xyz
x,y,z
1/2-x,-y,z
1/2+x,-y,-z
-x,y,-z
-x,-y,-z
1/2+x,y,-z
1/2-x,y,z
x,-y,z
loop_
_atom_site_type_symbol
_atom_site_label
_atom_site_fract_x
_atom_site_fract_y
_atom_site_fract_z
Si Si1 0.407399 0.118848 0.957417
Si Si2 0.594589 0.881306 0.874901
Si Si3 0.250000 0.886659 0.432616
Si Si4 0.404243 0.118270 0.227467
Si Si5 0.483165 0.795151 0.597925
Si Si6 0.905946 0.885861 0.308912
Si Si7 0.587942 0.614138 0.545822
Si Si8 0.250000 0.119341 0.535045
O O1 0.250000 0.160239 0.960319
O O2 0.482005 0.160014 0.911123
O O3 0.403232 0.000000 0.957523
O O4 0.500000 0.157811 0.000000
O O5 0.750000 0.844553 0.887584
O O6 0.553160 0.842851 0.823593
O O7 0.594190 0.000000 0.876046
O O8 0.379907 0.860404 0.401846
O O9 0.250000 0.835300 0.483197
O O10 0.250000 0.000000 0.445469
O O11 0.250000 0.154536 0.239220
O O12 0.504449 0.159686 0.267101
O O13 0.412511 0.000000 0.227277
O O14 0.417375 0.809926 0.648166
O O15 0.523464 0.680598 0.587094
O O16 0.385132 0.837766 0.558646
O O17 0.750000 0.885736 0.291278
O O18 0.949268 0.000000 0.322427
O O19 0.500000 0.636088 0.500000
O O20 0.750000 0.639553 0.537846
O O21 0.569927 0.500000 0.561307
O O22 0.250000 0.000000 0.538934
#
# Coordination Sequence:
#
# PCOD8210253 Si02
#       8
#     8   8   4   8   8   8   8   4
#     4   9  15  20  27  40  58  82 112 149 194 242
#     4   8  13  22  33  45  62  84 113 152 195 236
#     4  11  22  32  47  69  89 115 146 166 194 244
#     4   8  15  26  40  55  71  95 128 163 196 236
#     4  12  22  34  50  69  90 117 140 171 208 243
#     4  10  20  32  44  60  85 113 137 164 199 241
#     4  10  22  39  57  75  91 109 137 173 210 248
#     4  11  22  36  49  65  95 121 142 166 196 242
#
# _framework density 14.883421
#
# number of rings (size 3 to 8) (size 9 to 14) (size 15 to 20)
#    0.000    2.286    1.429    3.857    2.000    3.429 
#    0.000    2.857    0.000    0.000    0.000    0.000 
#    0.000    0.000    0.000    0.000    0.000    0.000 
#
# Total GULP energy -694065.858747 kJ/mol
# GULP energy per Si atom -12394.033192 kJ/mol
# Density = 1.484955 g / cm^3
# Si number density = 14.883421 Si / 1000 Ang^3
#
#
#
# Elastic Constant Matrix: (Units=GPa)
#
#
# Indices 1 2 3 4 5 6 
#
# 1 96.2094 19.1599 43.3009 0.0000 0.0000 0.0000
# 2 19.1599 43.0093 18.9145 0.0000 0.0000 0.0000
# 3 43.3009 18.9145 93.6273 0.0000 0.0000 0.0000
# 4 0.0000 0.0000 0.0000 4.5924 0.0000 0.0000
# 5 0.0000 0.0000 0.0000 0.0000 30.8651 0.0000
# 6 0.0000 0.0000 0.0000 0.0000 0.0000 14.1577
#
#
#
# Elastic Compliance Matrix: (Units=1/GPa)
#
#
# Indices 1 2 3 4 5 6 
#
# 1 0.013621 -0.003619 -0.005568 0.000000 0.000000 0.000000
# 2 -0.003619 0.026479 -0.003676 0.000000 0.000000 0.000000
# 3 -0.005568 -0.003676 0.013998 0.000000 0.000000 0.000000
# 4 0.000000 0.000000 0.000000 0.217752 0.000000 0.000000
# 5 0.000000 0.000000 0.000000 0.000000 0.032399 0.000000
# 6 0.000000 0.000000 0.000000 0.000000 0.000000 0.070633
#
#
# Mechanical properties :
#
#
# Convention : Reuss Voigt Hill
#
# Bulk Modulus (GPa) = 35.24497 43.95519 39.60008
# Shear Modulus (GPa) = 12.19317 20.02109 16.10713
#
# Velocity S-wave (km/s) = 2.86535 3.67167 3.29328
# Velocity P-wave (km/s) = 5.88889 6.89724 6.41292
#
# Compressibility (1/GPa) = 0.02837284
#
# Stress axis : x y z
#
# Youngs Moduli (GPa) = 73.41695 37.76511 71.43672
#
# Poissons Ratio (x) = 0.13667 0.39778
# Poissons Ratio (y) = 0.26570 0.26257
# Poissons Ratio (z) = 0.40881 0.13881
#
# Static dielectric constant tensor:
#      x y z
#    x 3.141130 0.000000 0.000000 
#    y 0.000000 2.411020 0.000000 
#    z 0.000000 0.000000 3.038730 
# 
# 
# High freq. dielectric constant tensor:
#      x y z
#    x 1.590260 0.000000 0.000000 
#    y 0.000000 1.495530 0.000000 
#    z 0.000000 0.000000 1.565190 
# 
# From -- ./inp_files/37508.got.cif
#   From: 2010.03.12/outbox.cif.g09.slc.cpg/sg51_19_cif.got.tgz:37508.got - 2010.04.16 13:43:02.
