data_PCOD8210754
_publ_section_title
;
Structure prediction by ZEFSAII (Michael W. Deem and Ramdas Pophale) SiO2 
 PCOD8210754
Probable space group: P M M A
;
_chemical_formula_sum "Si O2"
_cell_formula_units_Z 48
_cell_length_a 17.111795
_cell_length_b 7.776117
_cell_length_c 18.099191
_cell_angle_alpha 90.000000
_cell_angle_beta 90.000000
_cell_angle_gamma 90.000000
_cell_volume 2408.338444
_symmetry_space_group_name_H-M "P M M A"
_symmetry_group_IT_number 51
_symmetry_cell_setting 'orthorhombic'
loop_
_space_group_symop_operation_xyz
x,y,z
1/2-x,-y,z
1/2+x,-y,-z
-x,y,-z
-x,-y,-z
1/2+x,y,-z
1/2-x,y,z
x,-y,z
loop_
_atom_site_type_symbol
_atom_site_label
_atom_site_fract_x
_atom_site_fract_y
_atom_site_fract_z
Si Si1 0.836649 0.300994 0.185890
Si Si2 0.663922 0.000000 0.664377
Si Si3 0.073566 0.191455 0.957006
Si Si4 0.662797 0.303716 0.913222
Si Si5 0.608217 0.693084 0.757465
Si Si6 0.999467 0.000000 0.587065
Si Si7 0.556595 0.302915 0.316359
O O1 0.750000 0.215594 0.173493
O O2 0.824472 0.500000 0.196775
O O3 0.896007 0.278214 0.117721
O O4 0.873902 0.233831 0.263121
O O5 0.660602 0.171480 0.713611
O O6 0.592335 0.000000 0.607299
O O7 0.750000 0.000000 0.625397
O O8 0.048320 0.000000 0.934861
O O9 0.143490 0.187410 0.016260
O O10 0.000000 0.283610 0.000000
O O11 0.750000 0.263424 0.886530
O O12 0.653212 0.500000 0.939248
O O13 0.607309 0.260030 0.844147
O O14 0.642563 0.500000 0.745181
O O15 0.519285 0.703097 0.734074
O O16 0.000000 0.000000 0.500000
O O17 0.044601 0.829167 0.615816
O O18 0.570641 0.500000 0.345332
#
# Coordination Sequence:
#
# PCOD8210754 Si02
#       7
#     8   4   8   8   8   4   8
#     4  10  21  38  59  82 109 145 195 251 299 344
#     4  10  20  34  56  83 113 145 179 224 272 322
#     4  11  24  36  48  70 104 146 192 240 289 340
#     4  10  20  33  49  71 100 134 175 225 278 326
#     4   9  18  33  54  79 109 146 185 224 273 334
#     4  10  22  40  62  89 119 149 184 220 266 342
#     4   9  19  37  61  86 113 147 185 227 276 333
#
# _framework density 19.930754
#
# number of rings (size 3 to 8) (size 9 to 14) (size 15 to 20)
#    0.000    2.167    0.000    2.500    2.333    6.667 
#    0.000    0.833    0.000    0.000    0.000    0.000 
#    0.000    0.000    0.000    0.000    0.000    0.000 
#
# Total GULP energy -594828.007348 kJ/mol
# GULP energy per Si atom -12392.250153 kJ/mol
# Density = 1.988539 g / cm^3
# Si number density = 19.930754 Si / 1000 Ang^3
#
#
#
# Elastic Constant Matrix: (Units=GPa)
#
#
# Indices 1 2 3 4 5 6 
#
# 1 96.1182 30.1222 46.0797 0.0000 0.0000 0.0000
# 2 30.1222 81.1537 48.2052 0.0000 0.0000 0.0000
# 3 46.0797 48.2052 137.6805 0.0000 0.0000 0.0000
# 4 0.0000 0.0000 0.0000 24.7128 0.0000 0.0000
# 5 0.0000 0.0000 0.0000 0.0000 18.3363 0.0000
# 6 0.0000 0.0000 0.0000 0.0000 0.0000 17.4057
#
#
#
# Elastic Compliance Matrix: (Units=1/GPa)
#
#
# Indices 1 2 3 4 5 6 
#
# 1 0.012878 -0.002803 -0.003329 0.000000 0.000000 0.000000
# 2 -0.002803 0.016168 -0.004723 0.000000 0.000000 0.000000
# 3 -0.003329 -0.004723 0.010031 0.000000 0.000000 0.000000
# 4 0.000000 0.000000 0.000000 0.040465 0.000000 0.000000
# 5 0.000000 0.000000 0.000000 0.000000 0.054536 0.000000
# 6 0.000000 0.000000 0.000000 0.000000 0.000000 0.057452
#
#
# Mechanical properties :
#
#
# Convention : Reuss Voigt Hill
#
# Bulk Modulus (GPa) = 57.57622 62.64074 60.10848
# Shear Modulus (GPa) = 22.82808 24.79399 23.81104
#
# Velocity S-wave (km/s) = 3.38800 3.53087 3.46018
# Velocity P-wave (km/s) = 6.65249 6.93687 6.79617
#
# Compressibility (1/GPa) = 0.01736828
#
# Stress axis : x y z
#
# Youngs Moduli (GPa) = 77.65154 61.85101 99.69258
#
# Poissons Ratio (x) = 0.17335 0.33186
# Poissons Ratio (y) = 0.21763 0.47082
# Poissons Ratio (z) = 0.25849 0.29211
#
# Static dielectric constant tensor:
#      x y z
#    x 3.993690 0.000000 0.000000 
#    y 0.000000 3.829200 0.000000 
#    z 0.000000 0.000000 3.246390 
# 
# 
# High freq. dielectric constant tensor:
#      x y z
#    x 1.782410 0.000000 0.000000 
#    y 0.000000 1.777270 0.000000 
#    z 0.000000 0.000000 1.742070 
# 
# From -- ./inp_files/24866.got.cif
#   From: 2010.03.12/outbox.cif.g09.slc.cpg/sg51_13_cif.got.tgz:24866.got - 2010.04.16 13:43:02.
