data_PCOD8210563
_publ_section_title
;
Structure prediction by ZEFSAII (Michael W. Deem and Ramdas Pophale) SiO2 
 PCOD8210563
Probable space group: P M M A
;
_chemical_formula_sum "Si O2"
_cell_formula_units_Z 40
_cell_length_a 8.957467
_cell_length_b 18.328526
_cell_length_c 13.698581
_cell_angle_alpha 90.000000
_cell_angle_beta 90.000000
_cell_angle_gamma 90.000000
_cell_volume 2248.994218
_symmetry_space_group_name_H-M "P M M A"
_symmetry_group_IT_number 51
_symmetry_cell_setting 'orthorhombic'
loop_
_space_group_symop_operation_xyz
x,y,z
1/2-x,-y,z
1/2+x,-y,-z
-x,y,-z
-x,-y,-z
1/2+x,y,-z
1/2-x,y,z
x,-y,z
loop_
_atom_site_type_symbol
_atom_site_label
_atom_site_fract_x
_atom_site_fract_y
_atom_site_fract_z
Si Si1 0.074436 0.706815 0.099790
Si Si2 0.074897 0.649047 0.397033
Si Si3 0.421875 0.583805 0.784234
Si Si4 0.920798 0.203856 0.711452
Si Si5 0.575539 0.082983 0.399765
O O1 0.250000 0.694348 0.086531
O O2 0.041053 0.768828 0.179943
O O3 0.002122 0.630462 0.131941
O O4 0.000000 0.734034 0.000000
O O5 0.250000 0.632483 0.402389
O O6 0.043995 0.732121 0.365324
O O7 0.000000 0.633437 0.500000
O O8 0.002121 0.594533 0.319379
O O9 0.250000 0.608456 0.775093
O O10 0.435253 0.500000 0.815682
O O11 0.750000 0.179240 0.703670
O O12 0.022281 0.134087 0.688488
O O13 0.500000 0.108881 0.500000
O O14 0.750000 0.091712 0.414121
O O15 0.530345 0.000000 0.374344
#
# Coordination Sequence:
#
# PCOD8210563 Si02
#       5
#     8   8   8   8   8
#     4  10  21  37  57  79 101 128 165 208 256 306
#     4  10  20  33  50  73 101 134 172 210 251 301
#     4  10  21  36  53  74 100 131 168 209 254 303
#     4   9  19  34  52  75 101 131 167 207 250 295
#     4  10  20  32  49  76 108 141 173 204 242 289
#
# _framework density 17.785729
#
# number of rings (size 3 to 8) (size 9 to 14) (size 15 to 20)
#    0.000    2.200    0.000    4.200    0.000   10.000 
#    0.000    0.000    0.000    0.600    0.000    0.000 
#    0.000    0.000    0.000    0.000    0.000    0.000 
#
# Total GULP energy -496156.773920 kJ/mol
# GULP energy per Si atom -12403.919348 kJ/mol
# Density = 1.774525 g / cm^3
# Si number density = 17.785729 Si / 1000 Ang^3
#
#
#
# Elastic Constant Matrix: (Units=GPa)
#
#
# Indices 1 2 3 4 5 6 
#
# 1 112.3056 50.9893 50.1434 0.0000 0.0000 0.0000
# 2 50.9893 85.7202 39.7736 0.0000 0.0000 0.0000
# 3 50.1434 39.7736 106.1999 0.0000 0.0000 0.0000
# 4 0.0000 0.0000 0.0000 17.9394 0.0000 0.0000
# 5 0.0000 0.0000 0.0000 0.0000 36.5504 0.0000
# 6 0.0000 0.0000 0.0000 0.0000 0.0000 31.7396
#
#
#
# Elastic Compliance Matrix: (Units=1/GPa)
#
#
# Indices 1 2 3 4 5 6 
#
# 1 0.013517 -0.006147 -0.004080 0.000000 0.000000 0.000000
# 2 -0.006147 0.016915 -0.003432 0.000000 0.000000 0.000000
# 3 -0.004080 -0.003432 0.012628 0.000000 0.000000 0.000000
# 4 0.000000 0.000000 0.000000 0.055743 0.000000 0.000000
# 5 0.000000 0.000000 0.000000 0.000000 0.027360 0.000000
# 6 0.000000 0.000000 0.000000 0.000000 0.000000 0.031506
#
#
# Mechanical properties :
#
#
# Convention : Reuss Voigt Hill
#
# Bulk Modulus (GPa) = 63.52912 65.11533 64.32223
# Shear Modulus (GPa) = 26.28321 28.13383 27.20852
#
# Velocity S-wave (km/s) = 3.84835 3.98153 3.91550
# Velocity P-wave (km/s) = 7.45272 7.60442 7.52895
#
# Compressibility (1/GPa) = 0.01574081
#
# Stress axis : x y z
#
# Youngs Moduli (GPa) = 73.98136 59.11868 79.18857
#
# Poissons Ratio (x) = 0.36342 0.32308
# Poissons Ratio (y) = 0.45478 0.27181
# Poissons Ratio (z) = 0.30184 0.20292
#
# Static dielectric constant tensor:
#      x y z
#    x 3.417490 0.000000 0.000000 
#    y 0.000000 3.163840 0.000000 
#    z 0.000000 0.000000 3.220430 
# 
# 
# High freq. dielectric constant tensor:
#      x y z
#    x 1.705450 0.000000 0.000000 
#    y 0.000000 1.675150 0.000000 
#    z 0.000000 0.000000 1.680200 
# 
# From -- ./inp_files/14015.got.cif
#   From: 2010.03.12/outbox.cif.g09.slc.cpg/sg51_8_cif.got.tgz:14015.got - 2010.04.16 13:43:02.
