data_PCOD8210009
_publ_section_title
;
Structure prediction by ZEFSAII (Michael W. Deem and Ramdas Pophale) SiO2 
 PCOD8210009
Probable space group: P M M A
;
_chemical_formula_sum "Si O2"
_cell_formula_units_Z 40
_cell_length_a 22.909451
_cell_length_b 8.651781
_cell_length_c 10.142670
_cell_angle_alpha 90.000000
_cell_angle_beta 90.000000
_cell_angle_gamma 90.000000
_cell_volume 2010.353800
_symmetry_space_group_name_H-M "P M M A"
_symmetry_group_IT_number 51
_symmetry_cell_setting 'orthorhombic'
loop_
_space_group_symop_operation_xyz
x,y,z
1/2-x,-y,z
1/2+x,-y,-z
-x,y,-z
-x,-y,-z
1/2+x,y,-z
1/2-x,y,z
x,-y,z
loop_
_atom_site_type_symbol
_atom_site_label
_atom_site_fract_x
_atom_site_fract_y
_atom_site_fract_z
Si Si1 0.627328 0.318322 0.249294
Si Si2 0.182802 0.322754 0.482414
Si Si3 0.684077 0.683336 0.984626
Si Si4 0.886322 0.179432 0.745553
Si Si5 0.502901 0.316695 0.347348
O O1 0.622226 0.500000 0.231500
O O2 0.672349 0.276951 0.365953
O O3 0.652376 0.245694 0.114232
O O4 0.563248 0.254225 0.285080
O O5 0.250000 0.300441 0.446173
O O6 0.162705 0.500000 0.457748
O O7 0.144593 0.210546 0.393435
O O8 0.750000 0.749650 0.975029
O O9 0.686610 0.500000 0.994161
O O10 0.647687 0.728767 0.857415
O O11 0.952625 0.236814 0.738061
O O12 0.884762 0.000000 0.779333
O O13 0.500000 0.265403 0.500000
O O14 0.496220 0.500000 0.335695
#
# Coordination Sequence:
#
# PCOD8210009 Si02
#       5
#     8   8   8   8   8
#     4   9  18  35  62  92 115 143 188 246 299 342
#     4  10  19  35  61  89 114 145 193 247 296 346
#     4  10  21  39  62  87 116 151 194 242 292 345
#     4  12  25  38  55  82 121 161 197 236 284 345
#     4  10  19  37  64  89 117 149 191 244 295 347
#
# _framework density 19.896996000000001
#
# number of rings (size 3 to 8) (size 9 to 14) (size 15 to 20)
#    0.000    1.800    2.000    3.000    0.000    6.800 
#    0.000    6.000    0.000    2.400    0.000    0.000 
#    0.000    0.000    0.000    0.000    0.000    0.000 
#
# Total GULP energy -496080.547525 kJ/mol
# GULP energy per Si atom -12402.013688 kJ/mol
# Density = 1.985171 g / cm^3
# Si number density = 19.896996 Si / 1000 Ang^3
#
#
#
# Elastic Constant Matrix: (Units=GPa)
#
#
# Indices 1 2 3 4 5 6 
#
# 1 131.2339 19.7650 48.2663 0.0000 0.0000 0.0000
# 2 19.7650 25.9146 6.8498 0.0000 0.0000 0.0000
# 3 48.2663 6.8498 103.8419 0.0000 0.0000 0.0000
# 4 0.0000 0.0000 0.0000 2.5334 0.0000 0.0000
# 5 0.0000 0.0000 0.0000 0.0000 41.3186 0.0000
# 6 0.0000 0.0000 0.0000 0.0000 0.0000 8.0724
#
#
#
# Elastic Compliance Matrix: (Units=1/GPa)
#
#
# Indices 1 2 3 4 5 6 
#
# 1 0.010204 -0.006645 -0.004305 0.000000 0.000000 0.000000
# 2 -0.006645 0.043600 0.000212 0.000000 0.000000 0.000000
# 3 -0.004305 0.000212 0.011617 0.000000 0.000000 0.000000
# 4 0.000000 0.000000 0.000000 0.394730 0.000000 0.000000
# 5 0.000000 0.000000 0.000000 0.000000 0.024202 0.000000
# 6 0.000000 0.000000 0.000000 0.000000 0.000000 0.123879
#
#
# Mechanical properties :
#
#
# Convention : Reuss Voigt Hill
#
# Bulk Modulus (GPa) = 22.75457 45.63916 34.19687
# Shear Modulus (GPa) = 7.75969 22.79217 15.27593
#
# Velocity S-wave (km/s) = 1.97697 3.38821 2.77384
# Velocity P-wave (km/s) = 4.08316 6.18822 5.24244
#
# Compressibility (1/GPa) = 0.04394722
#
# Stress axis : x y z
#
# Youngs Moduli (GPa) = 98.00198 22.93576 86.08251
#
# Poissons Ratio (x) = 0.15240 0.37054
# Poissons Ratio (y) = 0.65119 -0.01829
# Poissons Ratio (z) = 0.42185 -0.00487
#
# Static dielectric constant tensor:
#      x y z
#    x 3.896150 0.000000 0.000000 
#    y 0.000000 3.189570 0.000000 
#    z 0.000000 0.000000 3.713900 
# 
# 
# High freq. dielectric constant tensor:
#      x y z
#    x 1.795010 0.000000 0.000000 
#    y 0.000000 1.731800 0.000000 
#    z 0.000000 0.000000 1.781670 
# 
# From -- ./inp_files/11424.got.cif
#   From: 2010.03.12/outbox.cif.g09.slc.cpg/sg51_6_cif.got.tgz:11424.got - 2010.04.16 13:43:02.
