data_PCOD8210961
_publ_section_title
;
Structure prediction by ZEFSAII (Michael W. Deem and Ramdas Pophale) SiO2 
 PCOD8210961
Probable space group: P M M A
;
_chemical_formula_sum "Si O2"
_cell_formula_units_Z 56
_cell_length_a 14.263339
_cell_length_b 13.919493
_cell_length_c 15.034854
_cell_angle_alpha 90.000000
_cell_angle_beta 90.000000
_cell_angle_gamma 90.000000
_cell_volume 2984.996570
_symmetry_space_group_name_H-M "P M M A"
_symmetry_group_IT_number 51
_symmetry_cell_setting 'orthorhombic'
loop_
_space_group_symop_operation_xyz
x,y,z
1/2-x,-y,z
1/2+x,-y,-z
-x,y,-z
-x,-y,-z
1/2+x,y,-z
1/2-x,y,z
x,-y,z
loop_
_atom_site_type_symbol
_atom_site_label
_atom_site_fract_x
_atom_site_fract_y
_atom_site_fract_z
Si Si1 0.639105 0.392181 0.955682
Si Si2 0.855555 0.390084 0.471608
Si Si3 0.355427 0.222929 0.174091
Si Si4 0.638839 0.286769 0.133633
Si Si5 0.521042 0.892704 0.103079
Si Si6 0.450525 0.394595 0.704946
Si Si7 0.353558 0.342075 0.335548
O O1 0.750000 0.399197 0.958695
O O2 0.597002 0.500000 0.941014
O O3 0.602895 0.349745 0.049868
O O4 0.608673 0.319774 0.876981
O O5 0.750000 0.382416 0.436103
O O6 0.880236 0.500000 0.498860
O O7 0.921290 0.353361 0.391944
O O8 0.870320 0.324429 0.559293
O O9 0.250000 0.195433 0.141605
O O10 0.426327 0.137169 0.154609
O O11 0.355230 0.242194 0.280350
O O12 0.750000 0.292674 0.145262
O O13 0.608857 0.176213 0.122607
O O14 0.587118 0.323768 0.220930
O O15 0.548176 0.000000 0.134273
O O16 0.500000 0.889963 0.000000
O O17 0.405645 0.500000 0.719627
O O18 0.563169 0.405817 0.705558
O O19 0.250000 0.391205 0.322027
#
# Coordination Sequence:
#
# PCOD8210961 Si02
#       7
#     8   8   8   8   8   8   8
#     4   9  18  32  51  75 109 149 183 215 254 311
#     4   9  18  32  49  75 111 150 192 233 269 312
#     4  10  20  37  56  80 111 144 184 224 270 329
#     4  11  22  38  56  79 111 145 187 230 275 330
#     4  11  23  40  61  84 108 138 182 234 292 342
#     4  11  21  33  53  80 113 155 195 227 268 322
#     4  10  20  33  51  75 110 149 188 230 273 320
#
# _framework density 18.760490999999998
#
# number of rings (size 3 to 8) (size 9 to 14) (size 15 to 20)
#    0.000    1.857    2.857    1.714    0.000    5.143 
#    0.000    6.429    0.000    0.000    0.000    2.000 
#    0.000    3.429    0.000    0.000    0.000    0.000 
#
# Total GULP energy -694110.857507 kJ/mol
# GULP energy per Si atom -12394.836741 kJ/mol
# Density = 1.871779 g / cm^3
# Si number density = 18.760491 Si / 1000 Ang^3
#
#
#
# Elastic Constant Matrix: (Units=GPa)
#
#
# Indices 1 2 3 4 5 6 
#
# 1 77.0931 22.5991 30.4526 0.0000 0.0000 0.0000
# 2 22.5991 94.7787 40.7991 0.0000 0.0000 0.0000
# 3 30.4526 40.7991 116.2014 0.0000 0.0000 0.0000
# 4 0.0000 0.0000 0.0000 290.0025 0.0000 0.0000
# 5 0.0000 0.0000 0.0000 0.0000 25.6726 0.0000
# 6 0.0000 0.0000 0.0000 0.0000 0.0000 22.8786
#
#
#
# Elastic Compliance Matrix: (Units=1/GPa)
#
#
# Indices 1 2 3 4 5 6 
#
# 1 0.014848 -0.002197 -0.003120 0.000000 0.000000 0.000000
# 2 -0.002197 0.012755 -0.003902 0.000000 0.000000 0.000000
# 3 -0.003120 -0.003902 0.010793 0.000000 0.000000 0.000000
# 4 0.000000 0.000000 0.000000 0.003448 0.000000 0.000000
# 5 0.000000 0.000000 0.000000 0.000000 0.038952 0.000000
# 6 0.000000 0.000000 0.000000 0.000000 0.000000 0.043709
#
#
# Mechanical properties :
#
#
# Convention : Reuss Voigt Hill
#
# Bulk Modulus (GPa) = 50.10747 52.86386 51.48566
# Shear Modulus (GPa) = 33.42332 80.65893 57.04113
#
# Velocity S-wave (km/s) = 4.22546 6.56410 5.52005
# Velocity P-wave (km/s) = 7.11147 9.25685 8.25416
#
# Compressibility (1/GPa) = 0.01995710
#
# Stress axis : x y z
#
# Youngs Moduli (GPa) = 67.35026 78.40250 92.64886
#
# Poissons Ratio (x) = 0.17228 0.28902
# Poissons Ratio (y) = 0.14800 0.36155
# Poissons Ratio (z) = 0.21010 0.30596
#
# Static dielectric constant tensor:
#      x y z
#    x 3.600670 0.000000 0.000000 
#    y 0.000000 3.227770 0.000000 
#    z 0.000000 0.000000 3.531600 
# 
# 
# High freq. dielectric constant tensor:
#      x y z
#    x 1.746690 0.000000 0.000000 
#    y 0.000000 1.671440 0.000000 
#    z 0.000000 0.000000 1.732270 
# 
# From -- ./inp_files/24165.got.cif
#   From: 2010.03.12/outbox.cif.g09.slc.cpg/sg51_13_cif.got.tgz:24165.got - 2010.04.16 13:43:02.
