data_PCOD8210140
_publ_section_title
;
Structure prediction by ZEFSAII (Michael W. Deem and Ramdas Pophale) SiO2 
 PCOD8210140
Probable space group: P M M A
;
_chemical_formula_sum "Si O2"
_cell_formula_units_Z 56
_cell_length_a 14.342511
_cell_length_b 14.832185
_cell_length_c 16.002031
_cell_angle_alpha 90.000000
_cell_angle_beta 90.000000
_cell_angle_gamma 90.000000
_cell_volume 3404.124480
_symmetry_space_group_name_H-M "P M M A"
_symmetry_group_IT_number 51
_symmetry_cell_setting 'orthorhombic'
loop_
_space_group_symop_operation_xyz
x,y,z
1/2-x,-y,z
1/2+x,-y,-z
-x,y,-z
-x,-y,-z
1/2+x,y,-z
1/2-x,y,z
x,-y,z
loop_
_atom_site_type_symbol
_atom_site_label
_atom_site_fract_x
_atom_site_fract_y
_atom_site_fract_z
Si Si1 0.353522 0.106286 0.522720
Si Si2 0.476153 0.893222 0.366889
Si Si3 0.013424 0.792810 0.199347
Si Si4 0.855488 0.367726 0.003972
Si Si5 0.646039 0.166904 0.949981
Si Si6 0.505296 0.402527 0.861224
Si Si7 0.357565 0.100026 0.878195
O O1 0.250000 0.149765 0.533217
O O2 0.421710 0.135096 0.598292
O O3 0.398046 0.134459 0.434297
O O4 0.345249 0.000000 0.524089
O O5 0.452893 0.831815 0.287322
O O6 0.472169 0.000000 0.345930
O O7 0.016593 0.683328 0.200657
O O8 0.910257 0.827773 0.179147
O O9 0.078866 0.836584 0.128790
O O10 0.750000 0.405294 0.007298
O O11 0.857822 0.260994 0.998195
O O12 0.906921 0.407617 0.923359
O O13 0.909005 0.395009 0.087949
O O14 0.750000 0.145215 0.917071
O O15 0.613809 0.099132 0.023334
O O16 0.503840 0.500000 0.813120
O O17 0.250000 0.126847 0.870613
O O18 0.377209 0.000000 0.842619
#
# Coordination Sequence:
#
# PCOD8210140 Si02
#       7
#     8   8   8   8   8   8   8
#     4   8  15  31  52  71  94 117 138 175 222 270
#     4   9  18  30  47  73  95 116 148 176 216 280
#     4  11  20  31  46  66  95 123 150 195 235 267
#     4   9  16  30  48  62  82 115 157 205 246 276
#     4   9  18  31  44  61  88 123 163 197 229 269
#     4  10  20  30  43  66  89 116 157 198 240 280
#     4  10  20  32  45  61  86 125 166 195 223 266
#
# _framework density 16.450631999999999
#
# number of rings (size 3 to 8) (size 9 to 14) (size 15 to 20)
#    0.000    2.571    1.429    2.571    0.000    4.000 
#    0.000    1.429    0.000    0.000    0.000    2.000 
#    0.000    1.143    0.000    0.000    0.000    0.000 
#
# Total GULP energy -693991.126498 kJ/mol
# GULP energy per Si atom -12392.698687 kJ/mol
# Density = 1.641319 g / cm^3
# Si number density = 16.450632 Si / 1000 Ang^3
#
#
#
# Elastic Constant Matrix: (Units=GPa)
#
#
# Indices 1 2 3 4 5 6 
#
# 1 75.7548 3.5387 -0.6430 0.0000 0.0000 0.0000
# 2 3.5387 66.0812 18.4421 0.0000 0.0000 0.0000
# 3 -0.6430 18.4421 38.2429 0.0000 0.0000 0.0000
# 4 0.0000 0.0000 0.0000 8.5583 0.0000 0.0000
# 5 0.0000 0.0000 0.0000 0.0000 9.6839 0.0000
# 6 0.0000 0.0000 0.0000 0.0000 0.0000 7.5475
#
#
#
# Elastic Compliance Matrix: (Units=1/GPa)
#
#
# Indices 1 2 3 4 5 6 
#
# 1 0.013248 -0.000892 0.000653 0.000000 0.000000 0.000000
# 2 -0.000892 0.017546 -0.008476 0.000000 0.000000 0.000000
# 3 0.000653 -0.008476 0.030247 0.000000 0.000000 0.000000
# 4 0.000000 0.000000 0.000000 0.116846 0.000000 0.000000
# 5 0.000000 0.000000 0.000000 0.000000 0.103264 0.000000
# 6 0.000000 0.000000 0.000000 0.000000 0.000000 0.132494
#
#
# Mechanical properties :
#
#
# Convention : Reuss Voigt Hill
#
# Bulk Modulus (GPa) = 22.93023 24.75050 23.84037
# Shear Modulus (GPa) = 11.22050 15.74067 13.48058
#
# Velocity S-wave (km/s) = 2.61448 3.09664 2.86572
# Velocity P-wave (km/s) = 4.80449 5.27860 5.04711
#
# Compressibility (1/GPa) = 0.04361055
#
# Stress axis : x y z
#
# Youngs Moduli (GPa) = 75.48495 56.99220 33.06087
#
# Poissons Ratio (x) = 0.05081 -0.02158
# Poissons Ratio (y) = 0.06730 0.28024
# Poissons Ratio (z) = -0.04927 0.48309
#
# Static dielectric constant tensor:
#      x y z
#    x 3.530940 0.000000 0.000000 
#    y 0.000000 3.086600 0.000000 
#    z 0.000000 0.000000 2.771630 
# 
# 
# High freq. dielectric constant tensor:
#      x y z
#    x 1.647130 0.000000 0.000000 
#    y 0.000000 1.613620 0.000000 
#    z 0.000000 0.000000 1.590660 
# 
# From -- ./inp_files/24279.got.cif
#   From: 2010.03.12/outbox.cif.g09.slc.cpg/sg51_13_cif.got.tgz:24279.got - 2010.04.16 13:43:02.
