data_PCOD8210206
_publ_section_title
;
Structure prediction by ZEFSAII (Michael W. Deem and Ramdas Pophale) SiO2 
 PCOD8210206
Probable space group: P M M A
;
_chemical_formula_sum "Si O2"
_cell_formula_units_Z 48
_cell_length_a 9.453130
_cell_length_b 9.379718
_cell_length_c 30.440122
_cell_angle_alpha 90.000000
_cell_angle_beta 90.000000
_cell_angle_gamma 90.000000
_cell_volume 2699.055411
_symmetry_space_group_name_H-M "P M M A"
_symmetry_group_IT_number 51
_symmetry_cell_setting 'orthorhombic'
loop_
_space_group_symop_operation_xyz
x,y,z
1/2-x,-y,z
1/2+x,-y,-z
-x,y,-z
-x,-y,-z
1/2+x,y,-z
1/2-x,y,z
x,-y,z
loop_
_atom_site_type_symbol
_atom_site_label
_atom_site_fract_x
_atom_site_fract_y
_atom_site_fract_z
Si Si1 0.091332 0.330409 0.960593
Si Si2 0.586687 0.667618 0.542471
Si Si3 0.408973 0.669433 0.863934
Si Si4 0.089527 0.164791 0.611327
Si Si5 0.088483 0.163812 0.713420
Si Si6 0.912174 0.331075 0.782506
O O1 0.250000 0.275527 0.967402
O O2 0.085470 0.500000 0.963146
O O3 0.037060 0.280642 0.912295
O O4 0.000000 0.261932 0.000000
O O5 0.500000 0.719783 0.500000
O O6 0.750000 0.712010 0.536585
O O7 0.570171 0.500000 0.549371
O O8 0.523062 0.742620 0.585044
O O9 0.250000 0.726855 0.855332
O O10 0.407404 0.500000 0.862500
O O11 0.512770 0.729421 0.826499
O O12 0.250000 0.211963 0.599796
O O13 0.059086 0.191007 0.662363
O O14 0.068228 0.000000 0.599171
O O15 0.250000 0.203592 0.725043
O O16 0.983621 0.264223 0.739918
O O17 0.058412 0.000000 0.725523
O O18 0.750000 0.283214 0.784419
O O19 0.927942 0.500000 0.778998
#
# Coordination Sequence:
#
# PCOD8210206 Si02
#       6
#     8   8   8   8   8   8
#     4   8  13  20  31  49  74 107 146 185 227 276
#     4  10  21  36  54  77 105 136 168 201 238 281
#     4   8  14  25  39  55  80 116 155 192 231 278
#     4   9  19  36  56  77 100 127 162 202 242 286
#     4   9  19  36  55  73  95 126 163 200 239 286
#     4  10  20  31  45  69  98 126 158 197 241 287
#
# _framework density 17.783999999999999
#
# number of rings (size 3 to 8) (size 9 to 14) (size 15 to 20)
#    0.000    3.000    0.000    3.000    0.000    5.000 
#    0.000    8.333    0.000    0.000    0.000    0.000 
#    0.000    0.667    0.000    2.167    0.000    4.333 
#
# Total GULP energy -595044.474352 kJ/mol
# GULP energy per Si atom -12396.759882 kJ/mol
# Density = 1.774352 g / cm^3
# Si number density = 17.784000 Si / 1000 Ang^3
#
#
#
# Elastic Constant Matrix: (Units=GPa)
#
#
# Indices 1 2 3 4 5 6 
#
# 1 134.9413 36.1482 84.5212 0.0000 0.0000 0.0000
# 2 36.1482 23.1417 33.5230 0.0000 0.0000 0.0000
# 3 84.5212 33.5230 118.7600 0.0000 0.0000 0.0000
# 4 0.0000 0.0000 0.0000 -0.5319 0.0000 0.0000
# 5 0.0000 0.0000 0.0000 0.0000 40.0143 0.0000
# 6 0.0000 0.0000 0.0000 0.0000 0.0000 23.2277
#
#
#
# Elastic Compliance Matrix: (Units=1/GPa)
#
#
# Indices 1 2 3 4 5 6 
#
# 1 0.015687 -0.014094 -0.007186 0.000000 0.000000 0.000000
# 2 -0.014094 0.085768 -0.014179 0.000000 0.000000 0.000000
# 3 -0.007186 -0.014179 0.017537 0.000000 0.000000 0.000000
# 4 0.000000 0.000000 0.000000 -1.880208 0.000000 0.000000
# 5 0.000000 0.000000 0.000000 0.000000 0.024991 0.000000
# 6 0.000000 0.000000 0.000000 0.000000 0.000000 0.043052
#
#
# Mechanical properties :
#
#
# Convention : Reuss Voigt Hill
#
# Bulk Modulus (GPa) = 20.80168 65.02530 42.91349
# Shear Modulus (GPa) = -3.11288 20.71872 8.80292
#
# Velocity S-wave (km/s) = -1.32446 3.41694 2.22725
# Velocity P-wave (km/s) = 3.06322 7.22569 5.54950
#
# Compressibility (1/GPa) = 0.04807304
#
# Stress axis : x y z
#
# Youngs Moduli (GPa) = 63.74580 11.65934 57.02176
#
# Poissons Ratio (x) = 0.16433 0.40977
# Poissons Ratio (y) = 0.89846 0.80853
# Poissons Ratio (z) = 0.45809 0.16532
#
# Static dielectric constant tensor:
#      x y z
#    x 3.406000 0.000000 0.000000 
#    y 0.000000 2.832620 0.000000 
#    z 0.000000 0.000000 3.494820 
# 
# 
# High freq. dielectric constant tensor:
#      x y z
#    x 1.690170 0.000000 0.000000 
#    y 0.000000 1.641120 0.000000 
#    z 0.000000 0.000000 1.701640 
# 
# From -- ./inp_files/37050.got.cif
#   From: 2010.03.12/outbox.cif.g09.slc.cpg/sg51_19_cif.got.tgz:37050.got - 2010.04.16 13:43:02.
