data_PCOD8210916
_publ_section_title
;
Structure prediction by ZEFSAII (Michael W. Deem and Ramdas Pophale) SiO2 
 PCOD8210916
Probable space group: P M M A
;
_chemical_formula_sum "Si O2"
_cell_formula_units_Z 64
_cell_length_a 9.067537
_cell_length_b 24.340322
_cell_length_c 15.276148
_cell_angle_alpha 90.000000
_cell_angle_beta 90.000000
_cell_angle_gamma 90.000000
_cell_volume 3371.549288
_symmetry_space_group_name_H-M "P M M A"
_symmetry_group_IT_number 51
_symmetry_cell_setting 'orthorhombic'
loop_
_space_group_symop_operation_xyz
x,y,z
1/2-x,-y,z
1/2+x,-y,-z
-x,y,-z
-x,-y,-z
1/2+x,y,-z
1/2-x,y,z
x,-y,z
loop_
_atom_site_type_symbol
_atom_site_label
_atom_site_fract_x
_atom_site_fract_y
_atom_site_fract_z
Si Si1 0.920176 0.563308 0.228589
Si Si2 0.423686 0.148176 0.765997
Si Si3 0.422017 0.396580 0.583708
Si Si4 0.922392 0.937424 0.087606
Si Si5 0.922738 0.362004 0.910761
Si Si6 0.077465 0.834852 0.413198
Si Si7 0.083410 0.745257 0.184270
Si Si8 0.085113 0.290148 0.376785
O O1 0.750000 0.581375 0.218687
O O2 0.942282 0.500000 0.203826
O O3 0.973495 0.572907 0.328241
O O4 0.019143 0.599447 0.165733
O O5 0.250000 0.150433 0.748148
O O6 0.469840 0.098032 0.828514
O O7 0.506157 0.139135 0.673903
O O8 0.471234 0.204023 0.815251
O O9 0.500000 0.424870 0.500000
O O10 0.250000 0.401948 0.569906
O O11 0.466260 0.332292 0.585695
O O12 0.750000 0.932290 0.070704
O O13 0.970867 0.000000 0.106569
O O14 0.000000 0.914838 0.000000
O O15 0.750000 0.372059 0.919766
O O16 0.957533 0.297685 0.892127
O O17 0.000000 0.379655 0.000000
O O18 0.250000 0.849349 0.413836
O O19 0.048735 0.769901 0.413508
O O20 0.000000 0.859785 0.500000
O O21 0.250000 0.768410 0.173953
O O22 0.071394 0.710131 0.272475
O O23 0.250000 0.308612 0.404534
#
# Coordination Sequence:
#
# PCOD8210916 Si02
#       8
#     8   8   8   8   8   8   8   8
#     4  10  23  43  62  81 107 139 179 228 276 325
#     4  10  20  33  54  83 114 150 189 229 277 330
#     4  11  22  34  54  81 108 140 176 218 267 322
#     4   9  19  36  57  82 112 147 189 236 282 329
#     4  11  23  40  62  86 111 142 180 222 274 331
#     4  10  20  33  50  76 112 151 189 230 274 324
#     4   9  19  35  54  78 112 147 179 221 269 323
#     4   9  17  32  52  75 105 140 178 218 263 315
#
# _framework density 18.982372999999999
#
# number of rings (size 3 to 8) (size 9 to 14) (size 15 to 20)
#    0.000    2.125    1.250    2.625    0.000    7.250 
#    0.000    2.500    0.000    0.375    0.000    0.000 
#    0.000    0.000    0.000    0.000    0.000    0.000 
#
# Total GULP energy -793671.442149 kJ/mol
# GULP energy per Si atom -12401.116284 kJ/mol
# Density = 1.893917 g / cm^3
# Si number density = 18.982373 Si / 1000 Ang^3
#
#
#
# Elastic Constant Matrix: (Units=GPa)
#
#
# Indices 1 2 3 4 5 6 
#
# 1 96.8125 42.7633 75.6080 0.0000 0.0000 0.0000
# 2 42.7633 65.0477 50.5344 0.0000 0.0000 0.0000
# 3 75.6080 50.5344 135.1904 0.0000 0.0000 0.0000
# 4 0.0000 0.0000 0.0000 9.9835 0.0000 0.0000
# 5 0.0000 0.0000 0.0000 0.0000 35.2018 0.0000
# 6 0.0000 0.0000 0.0000 0.0000 0.0000 21.1978
#
#
#
# Elastic Compliance Matrix: (Units=1/GPa)
#
#
# Indices 1 2 3 4 5 6 
#
# 1 0.020011 -0.006287 -0.008842 0.000000 0.000000 0.000000
# 2 -0.006287 0.023640 -0.005321 0.000000 0.000000 0.000000
# 3 -0.008842 -0.005321 0.014331 0.000000 0.000000 0.000000
# 4 0.000000 0.000000 0.000000 0.100165 0.000000 0.000000
# 5 0.000000 0.000000 0.000000 0.000000 0.028408 0.000000
# 6 0.000000 0.000000 0.000000 0.000000 0.000000 0.047175
#
#
# Mechanical properties :
#
#
# Convention : Reuss Voigt Hill
#
# Bulk Modulus (GPa) = 58.53532 70.54022 64.53777
# Shear Modulus (GPa) = 17.83660 21.81961 19.82810
#
# Velocity S-wave (km/s) = 3.06868 3.39406 3.23546
# Velocity P-wave (km/s) = 6.59237 7.25266 6.93038
#
# Compressibility (1/GPa) = 0.01708370
#
# Stress axis : x y z
#
# Youngs Moduli (GPa) = 49.97154 42.30154 69.77985
#
# Poissons Ratio (x) = 0.26594 0.61698
# Poissons Ratio (y) = 0.31416 0.37127
# Poissons Ratio (z) = 0.44184 0.22507
#
# Static dielectric constant tensor:
#      x y z
#    x 3.455230 0.000000 0.000000 
#    y 0.000000 3.259050 0.000000 
#    z 0.000000 0.000000 3.621590 
# 
# 
# High freq. dielectric constant tensor:
#      x y z
#    x 1.741820 0.000000 0.000000 
#    y 0.000000 1.709750 0.000000 
#    z 0.000000 0.000000 1.747950 
# 
# From -- ./inp_files/22302.got.cif
#   From: 2010.03.12/outbox.cif.g09.slc.cpg/sg51_12_cif.got.tgz:22302.got - 2010.04.16 13:43:02.
