data_PCOD8210771
_publ_section_title
;
Structure prediction by ZEFSAII (Michael W. Deem and Ramdas Pophale) SiO2 
 PCOD8210771
Probable space group: P M M A
;
_chemical_formula_sum "Si O2"
_cell_formula_units_Z 48
_cell_length_a 9.816482
_cell_length_b 9.432773
_cell_length_c 28.641590
_cell_angle_alpha 90.000000
_cell_angle_beta 90.000000
_cell_angle_gamma 90.000000
_cell_volume 2652.115181
_symmetry_space_group_name_H-M "P M M A"
_symmetry_group_IT_number 51
_symmetry_cell_setting 'orthorhombic'
loop_
_space_group_symop_operation_xyz
x,y,z
1/2-x,-y,z
1/2+x,-y,-z
-x,y,-z
-x,-y,-z
1/2+x,y,-z
1/2-x,y,z
x,-y,z
loop_
_atom_site_type_symbol
_atom_site_label
_atom_site_fract_x
_atom_site_fract_y
_atom_site_fract_z
Si Si1 0.475338 0.168619 0.108795
Si Si2 0.905770 0.834938 0.789145
Si Si3 0.750000 0.168958 0.960918
Si Si4 0.905134 0.661792 0.278218
Si Si5 0.904351 0.334937 0.386898
Si Si6 0.250000 0.168858 0.934535
Si Si7 0.409178 0.166295 0.455366
O O1 0.434309 0.229457 0.159377
O O2 0.379414 0.225860 0.067591
O O3 0.623486 0.224428 0.095253
O O4 0.464454 0.000000 0.110611
O O5 0.750000 0.806980 0.775660
O O6 0.997948 0.761911 0.750878
O O7 0.941888 0.000000 0.788636
O O8 0.750000 0.000000 0.964048
O O9 0.750000 0.233006 0.013122
O O10 0.750000 0.691487 0.263253
O O11 0.944671 0.500000 0.267825
O O12 0.924684 0.695696 0.332497
O O13 0.750000 0.289144 0.401798
O O14 0.924923 0.500000 0.398381
O O15 0.021939 0.246691 0.412309
O O16 0.250000 0.000000 0.938195
O O17 0.500000 0.208175 0.500000
O O18 0.250000 0.212113 0.461846
O O19 0.417866 0.000000 0.445266
#
# Coordination Sequence:
#
# PCOD8210771 Si02
#       7
#     8   8   4   8   8   4   8
#     4   9  16  26  38  59  92 126 160 201 246 297
#     4  10  20  33  49  72 104 138 169 207 258 312
#     4   9  14  24  38  54  87 129 161 193 244 301
#     4   9  20  38  57  77 102 133 173 220 264 309
#     4   9  19  37  58  79 105 137 174 219 268 313
#     4   9  16  22  36  60  85 123 167 199 238 299
#     4  10  21  36  55  81 113 148 183 218 256 302
#
# _framework density 18.098762000000001
#
# number of rings (size 3 to 8) (size 9 to 14) (size 15 to 20)
#    0.000    2.667    0.833    2.000    1.167    5.667 
#    0.000    5.000    0.000    0.000    0.000    0.000 
#    0.000    4.000    0.000    0.000    0.000    0.000 
#
# Total GULP energy -595035.024970 kJ/mol
# GULP energy per Si atom -12396.563020 kJ/mol
# Density = 1.805757 g / cm^3
# Si number density = 18.098762 Si / 1000 Ang^3
#
#
#
# Elastic Constant Matrix: (Units=GPa)
#
#
# Indices 1 2 3 4 5 6 
#
# 1 145.7943 43.8126 68.8951 0.0000 0.0000 0.0000
# 2 43.8126 34.1639 40.3785 0.0000 0.0000 0.0000
# 3 68.8951 40.3785 98.1109 0.0000 0.0000 0.0000
# 4 0.0000 0.0000 0.0000 -6.7434 0.0000 0.0000
# 5 0.0000 0.0000 0.0000 0.0000 40.9487 0.0000
# 6 0.0000 0.0000 0.0000 0.0000 0.0000 25.6490
#
#
#
# Elastic Compliance Matrix: (Units=1/GPa)
#
#
# Indices 1 2 3 4 5 6 
#
# 1 0.011934 -0.010514 -0.004053 0.000000 0.000000 0.000000
# 2 -0.010514 0.066257 -0.019886 0.000000 0.000000 0.000000
# 3 -0.004053 -0.019886 0.021223 0.000000 0.000000 0.000000
# 4 0.000000 0.000000 0.000000 -0.148293 0.000000 0.000000
# 5 0.000000 0.000000 0.000000 0.000000 0.024421 0.000000
# 6 0.000000 0.000000 0.000000 0.000000 0.000000 0.038988
#
#
# Mechanical properties :
#
#
# Convention : Reuss Voigt Hill
#
# Bulk Modulus (GPa) = 32.77789 64.91571 48.84680
# Shear Modulus (GPa) = 53.41683 20.30306 36.85994
#
# Velocity S-wave (km/s) = 5.43858 3.35295 4.51777
# Velocity P-wave (km/s) = 7.58864 7.13688 7.36622
#
# Compressibility (1/GPa) = 0.03050837
#
# Stress axis : x y z
#
# Youngs Moduli (GPa) = 83.79610 15.09277 47.11922
#
# Poissons Ratio (x) = 0.15868 0.19097
# Poissons Ratio (y) = 0.88102 0.93700
# Poissons Ratio (z) = 0.33962 0.30013
#
# Static dielectric constant tensor:
#      x y z
#    x 3.515150 0.000000 0.000000 
#    y 0.000000 2.881360 0.000000 
#    z 0.000000 0.000000 3.389820 
# 
# 
# High freq. dielectric constant tensor:
#      x y z
#    x 1.715640 0.000000 0.000000 
#    y 0.000000 1.650970 0.000000 
#    z 0.000000 0.000000 1.710510 
# 
# From -- ./inp_files/37106.got.cif
#   From: 2010.03.12/outbox.cif.g09.slc.cpg/sg51_19_cif.got.tgz:37106.got - 2010.04.16 13:43:02.
