data_PCOD8210979
_publ_section_title
;
Structure prediction by ZEFSAII (Michael W. Deem and Ramdas Pophale) SiO2 
 PCOD8210979
Probable space group: P M M A
;
_chemical_formula_sum "Si O2"
_cell_formula_units_Z 48
_cell_length_a 9.064195
_cell_length_b 9.626133
_cell_length_c 31.045911
_cell_angle_alpha 90.000000
_cell_angle_beta 90.000000
_cell_angle_gamma 90.000000
_cell_volume 2708.853424
_symmetry_space_group_name_H-M "P M M A"
_symmetry_group_IT_number 51
_symmetry_cell_setting 'orthorhombic'
loop_
_space_group_symop_operation_xyz
x,y,z
1/2-x,-y,z
1/2+x,-y,-z
-x,y,-z
-x,-y,-z
1/2+x,y,-z
1/2-x,y,z
x,-y,z
loop_
_atom_site_type_symbol
_atom_site_label
_atom_site_fract_x
_atom_site_fract_y
_atom_site_fract_z
Si Si1 0.925898 0.154879 0.879090
Si Si2 0.585135 0.834974 0.297305
Si Si3 0.923447 0.340380 0.956836
Si Si4 0.422511 0.339782 0.544481
Si Si5 0.414490 0.165525 0.215250
Si Si6 0.921221 0.836557 0.617109
O O1 0.750000 0.152652 0.879019
O O2 0.987175 0.255725 0.916159
O O3 0.977760 0.208983 0.831856
O O4 0.987025 0.000000 0.888056
O O5 0.750000 0.775272 0.303502
O O6 0.518628 0.774089 0.252851
O O7 0.483455 0.786977 0.336864
O O8 0.588876 0.000000 0.294823
O O9 0.750000 0.318549 0.962060
O O10 0.965459 0.500000 0.948969
O O11 0.000000 0.283437 0.000000
O O12 0.500000 0.299562 0.500000
O O13 0.250000 0.308605 0.539893
O O14 0.452728 0.500000 0.556395
O O15 0.489538 0.243369 0.580917
O O16 0.250000 0.225932 0.222278
O O17 0.407511 0.000000 0.217333
O O18 0.750000 0.796429 0.614788
O O19 0.945929 0.000000 0.610225
#
# Coordination Sequence:
#
# PCOD8210979 Si02
#       6
#     8   8   8   8   8   8
#     4   8  14  25  42  63  85 110 142 180 220 261
#     4   9  16  26  42  66  96 126 154 188 231 277
#     4   9  17  29  44  61  82 110 143 177 215 262
#     4  10  21  37  56  76  99 130 166 202 243 292
#     4   8  13  23  40  60  82 111 147 183 219 264
#     4  10  20  33  51  76 103 131 165 204 243 282
#
# _framework density 17.719674999999999
#
# number of rings (size 3 to 8) (size 9 to 14) (size 15 to 20)
#    0.000    3.000    0.000    2.500    0.000    4.667 
#    0.000    0.833    0.000    2.000    0.000    2.333 
#    0.000    0.000    0.000    0.000    0.000    0.000 
#
# Total GULP energy -595047.743871 kJ/mol
# GULP energy per Si atom -12396.827997 kJ/mol
# Density = 1.767934 g / cm^3
# Si number density = 17.719675 Si / 1000 Ang^3
#
#
#
# Elastic Constant Matrix: (Units=GPa)
#
#
# Indices 1 2 3 4 5 6 
#
# 1 85.7427 28.2872 64.9524 0.0000 0.0000 0.0000
# 2 28.2872 40.4201 55.4622 0.0000 0.0000 0.0000
# 3 64.9524 55.4622 178.0963 0.0000 0.0000 0.0000
# 4 0.0000 0.0000 0.0000 -2.1460 0.0000 0.0000
# 5 0.0000 0.0000 0.0000 0.0000 33.3520 0.0000
# 6 0.0000 0.0000 0.0000 0.0000 0.0000 16.5424
#
#
#
# Elastic Compliance Matrix: (Units=1/GPa)
#
#
# Indices 1 2 3 4 5 6 
#
# 1 0.016878 -0.005877 -0.004325 0.000000 0.000000 0.000000
# 2 -0.005877 0.045246 -0.011947 0.000000 0.000000 0.000000
# 3 -0.004325 -0.011947 0.010913 0.000000 0.000000 0.000000
# 4 0.000000 0.000000 0.000000 -0.465973 0.000000 0.000000
# 5 0.000000 0.000000 0.000000 0.000000 0.029983 0.000000
# 6 0.000000 0.000000 0.000000 0.000000 0.000000 0.060451
#
#
# Mechanical properties :
#
#
# Convention : Reuss Voigt Hill
#
# Bulk Modulus (GPa) = 34.79643 66.85141 50.82392
# Shear Modulus (GPa) = -20.11067 19.92017 -0.09525
#
# Velocity S-wave (km/s) = -3.37253 3.35652 -0.23210
# Velocity P-wave (km/s) = 2.12473 7.26848 5.35468
#
# Compressibility (1/GPa) = 0.02873858
#
# Stress axis : x y z
#
# Youngs Moduli (GPa) = 59.24798 22.10144 91.63423
#
# Poissons Ratio (x) = 0.12989 0.39636
# Poissons Ratio (y) = 0.34819 1.09476
# Poissons Ratio (z) = 0.25627 0.26405
#
# Static dielectric constant tensor:
#      x y z
#    x 3.359690 0.000000 0.000000 
#    y 0.000000 2.983200 0.000000 
#    z 0.000000 0.000000 3.652700 
# 
# 
# High freq. dielectric constant tensor:
#      x y z
#    x 1.674830 0.000000 0.000000 
#    y 0.000000 1.639830 0.000000 
#    z 0.000000 0.000000 1.703210 
# 
# From -- ./inp_files/37033.got.cif
#   From: 2010.03.12/outbox.cif.g09.slc.cpg/sg51_19_cif.got.tgz:37033.got - 2010.04.16 13:43:02.
