data_PCOD8210196
_publ_section_title
;
Structure prediction by ZEFSAII (Michael W. Deem and Ramdas Pophale) SiO2 
 PCOD8210196
Probable space group: P M M A
;
_chemical_formula_sum "Si O2"
_cell_formula_units_Z 44
_cell_length_a 9.180632
_cell_length_b 7.881074
_cell_length_c 30.118140
_cell_angle_alpha 90.000000
_cell_angle_beta 90.000000
_cell_angle_gamma 90.000000
_cell_volume 2179.145017
_symmetry_space_group_name_H-M "P M M A"
_symmetry_group_IT_number 51
_symmetry_cell_setting 'orthorhombic'
loop_
_space_group_symop_operation_xyz
x,y,z
1/2-x,-y,z
1/2+x,-y,-z
-x,y,-z
-x,-y,-z
1/2+x,y,-z
1/2-x,y,z
x,-y,z
loop_
_atom_site_type_symbol
_atom_site_label
_atom_site_fract_x
_atom_site_fract_y
_atom_site_fract_z
Si Si1 0.589777 0.304584 0.211880
Si Si2 0.085264 0.702167 0.957078
Si Si3 0.086352 0.198189 0.294413
Si Si4 0.076918 0.188085 0.393662
Si Si5 0.076250 0.500000 0.453021
Si Si6 0.586099 0.702574 0.871120
O O1 0.750000 0.217917 0.212211
O O2 0.608816 0.500000 0.200136
O O3 0.517907 0.290006 0.259992
O O4 0.489629 0.222854 0.173388
O O5 0.250000 0.772811 0.957492
O O6 0.086728 0.500000 0.957479
O O7 0.003581 0.770347 0.913375
O O8 0.000000 0.772221 0.000000
O O9 0.250000 0.271734 0.289530
O O10 0.024502 0.233677 0.343888
O O11 0.086886 0.000000 0.284315
O O12 0.250000 0.183265 0.393042
O O13 0.020653 0.331912 0.427307
O O14 0.018574 0.000000 0.407787
O O15 0.250000 0.500000 0.458411
O O16 0.000000 0.500000 0.500000
O O17 0.750000 0.774833 0.873285
O O18 0.589880 0.500000 0.870694
#
# Coordination Sequence:
#
# PCOD8210196 Si02
#       6
#     8   8   8   8   4   8
#     4  10  20  31  44  67  98 130 160 195 245 303
#     4   9  15  22  33  50  75 110 151 195 244 300
#     4   9  18  33  53  75  96 123 165 211 249 293
#     4   8  16  32  53  77 104 135 175 220 263 311
#     4  10  20  34  54  80 108 142 178 218 265 312
#     4   9  16  26  39  56  81 115 156 200 244 293
#
# _framework density 20.191407000000002
#
# number of rings (size 3 to 8) (size 9 to 14) (size 15 to 20)
#    0.000    2.909    0.000    2.727    1.273    6.182 
#    0.000    0.909    0.000    1.091    0.000    0.000 
#    0.000    0.727    0.000    2.727    0.000    6.000 
#
# Total GULP energy -545439.404610 kJ/mol
# GULP energy per Si atom -12396.350105 kJ/mol
# Density = 2.014545 g / cm^3
# Si number density = 20.191407 Si / 1000 Ang^3
#
#
#
# Elastic Constant Matrix: (Units=GPa)
#
#
# Indices 1 2 3 4 5 6 
#
# 1 139.0304 24.1236 77.0327 0.0000 0.0000 0.0000
# 2 24.1236 51.4209 47.3104 0.0000 0.0000 0.0000
# 3 77.0327 47.3104 179.0017 0.0000 0.0000 0.0000
# 4 0.0000 0.0000 0.0000 -5.5896 0.0000 0.0000
# 5 0.0000 0.0000 0.0000 0.0000 38.2021 0.0000
# 6 0.0000 0.0000 0.0000 0.0000 0.0000 6.9308
#
#
#
# Elastic Compliance Matrix: (Units=1/GPa)
#
#
# Indices 1 2 3 4 5 6 
#
# 1 0.009477 -0.000917 -0.003836 0.000000 0.000000 0.000000
# 2 -0.000917 0.025785 -0.006420 0.000000 0.000000 0.000000
# 3 -0.003836 -0.006420 0.008934 0.000000 0.000000 0.000000
# 4 0.000000 0.000000 0.000000 -0.178904 0.000000 0.000000
# 5 0.000000 0.000000 0.000000 0.000000 0.026177 0.000000
# 6 0.000000 0.000000 0.000000 0.000000 0.000000 0.144283
#
#
# Mechanical properties :
#
#
# Convention : Reuss Voigt Hill
#
# Bulk Modulus (GPa) = 45.76736 74.04293 59.90515
# Shear Modulus (GPa) = 76.47423 22.64108 49.55766
#
# Velocity S-wave (km/s) = 6.16091 3.35225 4.95956
# Velocity P-wave (km/s) = 8.56301 7.19260 7.90755
#
# Compressibility (1/GPa) = 0.02184963
#
# Stress axis : x y z
#
# Youngs Moduli (GPa) = 105.51573 38.78295 111.92710
#
# Poissons Ratio (x) = 0.03555 0.42938
# Poissons Ratio (y) = 0.09671 0.71862
# Poissons Ratio (z) = 0.40478 0.24900
#
# Static dielectric constant tensor:
#      x y z
#    x 3.659430 0.000000 0.000000 
#    y 0.000000 3.414300 0.000000 
#    z 0.000000 0.000000 3.737880 
# 
# 
# High freq. dielectric constant tensor:
#      x y z
#    x 1.772300 0.000000 0.000000 
#    y 0.000000 1.753960 0.000000 
#    z 0.000000 0.000000 1.794110 
# 
# From -- ./inp_files/36796.got.cif
#   From: 2010.03.12/outbox.cif.g09.slc.cpg/sg51_19_cif.got.tgz:36796.got - 2010.04.16 13:43:02.
