data_PCOD8210418
_publ_section_title
;
Structure prediction by ZEFSAII (Michael W. Deem and Ramdas Pophale) SiO2 
 PCOD8210418
Probable space group: P M M A
;
_chemical_formula_sum "Si O2"
_cell_formula_units_Z 28
_cell_length_a 9.879508
_cell_length_b 9.314127
_cell_length_c 18.910899
_cell_angle_alpha 90.000000
_cell_angle_beta 90.000000
_cell_angle_gamma 90.000000
_cell_volume 1740.161868
_symmetry_space_group_name_H-M "P M M A"
_symmetry_group_IT_number 51
_symmetry_cell_setting 'orthorhombic'
loop_
_space_group_symop_operation_xyz
x,y,z
1/2-x,-y,z
1/2+x,-y,-z
-x,y,-z
-x,-y,-z
1/2+x,y,-z
1/2-x,y,z
x,-y,z
loop_
_atom_site_type_symbol
_atom_site_label
_atom_site_fract_x
_atom_site_fract_y
_atom_site_fract_z
Si Si1 0.094391 0.833164 0.935787
Si Si2 0.098101 0.000000 0.434415
Si Si3 0.402260 0.841208 0.299443
Si Si4 0.906387 0.667193 0.204240
O O1 0.250000 0.800277 0.955798
O O2 0.047955 0.743928 0.867718
O O3 0.072633 0.000000 0.918646
O O4 0.000000 0.782592 0.000000
O O5 0.075909 0.859075 0.384480
O O6 0.000000 0.000000 0.500000
O O7 0.250000 0.000000 0.464724
O O8 0.250000 0.785967 0.283936
O O9 0.508449 0.728031 0.269529
O O10 0.421883 0.000000 0.264271
O O11 0.750000 0.699056 0.220593
O O12 0.936113 0.500000 0.195947
#
# Coordination Sequence:
#
# PCOD8210418 Si02
#       4
#     8   4   8   8
#     4   9  18  32  48  66  90 122 161 204 247 287
#     4   8  16  30  50  78 103 122 153 196 237 280
#     4   8  17  32  49  72  99 125 157 196 236 283
#     4  10  20  32  47  70  99 129 164 202 239 286
#
# _framework density 16.090457000000001
#
# number of rings (size 3 to 8) (size 9 to 14) (size 15 to 20)
#    0.857    2.286    0.000    0.857    0.000    5.143 
#    0.000    2.857    0.000    0.857    0.000    0.000 
#    0.000    0.000    0.000    0.000    0.000    0.000 
#
# Total GULP energy -347009.482037 kJ/mol
# GULP energy per Si atom -12393.195787 kJ/mol
# Density = 1.605383 g / cm^3
# Si number density = 16.090457 Si / 1000 Ang^3
#
#
#
# Elastic Constant Matrix: (Units=GPa)
#
#
# Indices 1 2 3 4 5 6 
#
# 1 95.7586 47.3086 75.3561 0.0000 0.0000 0.0000
# 2 47.3086 64.7552 49.1614 0.0000 0.0000 0.0000
# 3 75.3561 49.1614 106.5207 0.0000 0.0000 0.0000
# 4 0.0000 0.0000 0.0000 5.8949 0.0000 0.0000
# 5 0.0000 0.0000 0.0000 0.0000 37.0085 0.0000
# 6 0.0000 0.0000 0.0000 0.0000 0.0000 25.1089
#
#
#
# Elastic Compliance Matrix: (Units=1/GPa)
#
#
# Indices 1 2 3 4 5 6 
#
# 1 0.025829 -0.007694 -0.014721 0.000000 0.000000 0.000000
# 2 -0.007694 0.026064 -0.006586 0.000000 0.000000 0.000000
# 3 -0.014721 -0.006586 0.022842 0.000000 0.000000 0.000000
# 4 0.000000 0.000000 0.000000 0.169638 0.000000 0.000000
# 5 0.000000 0.000000 0.000000 0.000000 0.027021 0.000000
# 6 0.000000 0.000000 0.000000 0.000000 0.000000 0.039827
#
#
# Mechanical properties :
#
#
# Convention : Reuss Voigt Hill
#
# Bulk Modulus (GPa) = 59.76569 67.85409 63.80989
# Shear Modulus (GPa) = 13.34051 19.94969 16.64510
#
# Velocity S-wave (km/s) = 2.88252 3.52496 3.21981
# Velocity P-wave (km/s) = 6.95002 7.67001 7.31888
#
# Compressibility (1/GPa) = 0.01673201
#
# Stress axis : x y z
#
# Youngs Moduli (GPa) = 38.71692 38.36756 43.77948
#
# Poissons Ratio (x) = 0.29518 0.64449
# Poissons Ratio (y) = 0.29787 0.28834
# Poissons Ratio (z) = 0.56996 0.25270
#
# Static dielectric constant tensor:
#      x y z
#    x 3.018000 0.000000 0.000000 
#    y 0.000000 2.854850 0.000000 
#    z 0.000000 0.000000 2.844460 
# 
# 
# High freq. dielectric constant tensor:
#      x y z
#    x 1.624420 0.000000 0.000000 
#    y 0.000000 1.598360 0.000000 
#    z 0.000000 0.000000 1.604480 
# 
# From -- ./inp_files/22712.got.cif
#   From: 2010.03.12/outbox.cif.g09.slc.cpg/sg51_12_cif.got.tgz:22712.got - 2010.04.16 13:43:02.
