data_PCOD8210227
_publ_section_title
;
Structure prediction by ZEFSAII (Michael W. Deem and Ramdas Pophale) SiO2 
 PCOD8210227
Probable space group: P M M A
;
_chemical_formula_sum "Si O2"
_cell_formula_units_Z 64
_cell_length_a 18.385298
_cell_length_b 9.166457
_cell_length_c 20.268903
_cell_angle_alpha 90.000000
_cell_angle_beta 90.000000
_cell_angle_gamma 90.000000
_cell_volume 3415.878567
_symmetry_space_group_name_H-M "P M M A"
_symmetry_group_IT_number 51
_symmetry_cell_setting 'orthorhombic'
loop_
_space_group_symop_operation_xyz
x,y,z
1/2-x,-y,z
1/2+x,-y,-z
-x,y,-z
-x,-y,-z
1/2+x,y,-z
1/2-x,y,z
x,-y,z
loop_
_atom_site_type_symbol
_atom_site_label
_atom_site_fract_x
_atom_site_fract_y
_atom_site_fract_z
Si Si1 0.336341 0.163675 0.049802
Si Si2 0.836482 0.665122 0.220871
Si Si3 0.088804 0.832482 0.293920
Si Si4 0.575744 0.169154 0.328319
Si Si5 0.663517 0.835903 0.095251
Si Si6 0.834843 0.832042 0.572363
Si Si7 0.923646 0.671526 0.466676
Si Si8 0.834006 0.328850 0.823206
O O1 0.250000 0.167176 0.049036
O O2 0.365589 0.268310 0.107506
O O3 0.364138 0.000000 0.064217
O O4 0.364473 0.215096 0.977356
O O5 0.750000 0.670862 0.222780
O O6 0.865140 0.500000 0.228298
O O7 0.864633 0.763833 0.280133
O O8 0.866774 0.727993 0.151390
O O9 0.123111 0.778436 0.362589
O O10 0.119431 0.734816 0.235859
O O11 0.002803 0.809955 0.295806
O O12 0.110533 0.000000 0.280930
O O13 0.580618 0.252226 0.396749
O O14 0.593519 0.000000 0.340536
O O15 0.750000 0.834531 0.096026
O O16 0.635628 0.000000 0.109961
O O17 0.750000 0.809932 0.584929
O O18 0.858743 0.732332 0.511553
O O19 0.854255 0.000000 0.556509
O O20 0.913256 0.500000 0.457256
O O21 0.000000 0.711463 0.500000
O O22 0.750000 0.283304 0.813406
O O23 0.844085 0.500000 0.824071
#
# Coordination Sequence:
#
# PCOD8210227 Si02
#       8
#     8   8   8   8   8   8   8   8
#     4   8  14  26  46  72 103 141 183 226 271 319
#     4  10  21  36  55  82 115 146 177 221 277 332
#     4  10  21  37  57  79 106 143 185 227 270 319
#     4  11  23  39  62  84 106 142 186 228 268 319
#     4   8  14  27  49  76 105 139 181 226 271 322
#     4  10  21  38  61  87 113 143 182 228 273 319
#     4  11  23  39  60  84 112 145 178 219 273 328
#     4  10  20  31  47  76 112 147 183 225 272 323
#
# _framework density 18.736028999999998
#
# number of rings (size 3 to 8) (size 9 to 14) (size 15 to 20)
#    0.000    2.250    1.250    2.625    0.000    5.250 
#    0.000    2.500    0.000    0.750    0.000    5.250 
#    0.000    0.000    0.000    0.000    0.000    0.000 
#
# Total GULP energy -793634.131760 kJ/mol
# GULP energy per Si atom -12400.533309 kJ/mol
# Density = 1.869338 g / cm^3
# Si number density = 18.736029 Si / 1000 Ang^3
#
#
#
# Elastic Constant Matrix: (Units=GPa)
#
#
# Indices 1 2 3 4 5 6 
#
# 1 32.7009 29.2260 25.3158 0.0000 0.0000 0.0000
# 2 29.2260 90.8142 71.1667 0.0000 0.0000 0.0000
# 3 25.3158 71.1667 149.2423 0.0000 0.0000 0.0000
# 4 0.0000 0.0000 0.0000 20.0398 0.0000 0.0000
# 5 0.0000 0.0000 0.0000 0.0000 11.6079 0.0000
# 6 0.0000 0.0000 0.0000 0.0000 0.0000 22.1548
#
#
#
# Elastic Compliance Matrix: (Units=1/GPa)
#
#
# Indices 1 2 3 4 5 6 
#
# 1 0.043042 -0.012981 -0.001111 0.000000 0.000000 0.000000
# 2 -0.012981 0.021496 -0.008049 0.000000 0.000000 0.000000
# 3 -0.001111 -0.008049 0.010727 0.000000 0.000000 0.000000
# 4 0.000000 0.000000 0.000000 0.049901 0.000000 0.000000
# 5 0.000000 0.000000 0.000000 0.000000 0.086148 0.000000
# 6 0.000000 0.000000 0.000000 0.000000 0.000000 0.045137
#
#
# Mechanical properties :
#
#
# Convention : Reuss Voigt Hill
#
# Bulk Modulus (GPa) = 32.27496 58.24157 45.25826
# Shear Modulus (GPa) = 16.07401 20.56377 18.31889
#
# Velocity S-wave (km/s) = 2.93220 3.31653 3.13027
# Velocity P-wave (km/s) = 5.35979 6.76894 6.10516
#
# Compressibility (1/GPa) = 0.03098377
#
# Stress axis : x y z
#
# Youngs Moduli (GPa) = 23.23303 46.51923 93.22256
#
# Poissons Ratio (x) = 0.60388 0.10358
# Poissons Ratio (y) = 0.30159 0.75032
# Poissons Ratio (z) = 0.02581 0.37442
#
# Static dielectric constant tensor:
#      x y z
#    x 3.159890 0.000000 0.000000 
#    y 0.000000 3.538310 0.000000 
#    z 0.000000 0.000000 3.747090 
# 
# 
# High freq. dielectric constant tensor:
#      x y z
#    x 1.695290 0.000000 0.000000 
#    y 0.000000 1.730250 0.000000 
#    z 0.000000 0.000000 1.743780 
# 
# From -- ./inp_files/33956.got.cif
#   From: 2010.03.12/outbox.cif.g09.slc.cpg/sg51_17_cif.got.tgz:33956.got - 2010.04.16 13:43:02.
