data_PCOD8210425
_publ_section_title
;
Structure prediction by ZEFSAII (Michael W. Deem and Ramdas Pophale) SiO2 
 PCOD8210425
Probable space group: P M M A
;
_chemical_formula_sum "Si O2"
_cell_formula_units_Z 64
_cell_length_a 22.707581
_cell_length_b 9.303538
_cell_length_c 17.962822
_cell_angle_alpha 90.000000
_cell_angle_beta 90.000000
_cell_angle_gamma 90.000000
_cell_volume 3794.840913
_symmetry_space_group_name_H-M "P M M A"
_symmetry_group_IT_number 51
_symmetry_cell_setting 'orthorhombic'
loop_
_space_group_symop_operation_xyz
x,y,z
1/2-x,-y,z
1/2+x,-y,-z
-x,y,-z
-x,-y,-z
1/2+x,y,-z
1/2-x,y,z
x,-y,z
loop_
_atom_site_type_symbol
_atom_site_label
_atom_site_fract_x
_atom_site_fract_y
_atom_site_fract_z
Si Si1 0.632160 0.832306 0.859660
Si Si2 0.819381 0.667105 0.721270
Si Si3 0.819910 0.838991 0.579409
Si Si4 0.607761 0.330298 0.134380
Si Si5 0.817465 0.669114 0.275067
Si Si6 0.317201 0.663653 0.007163
Si Si7 0.998606 0.833535 0.915194
Si Si8 0.180203 0.162048 0.584231
O O1 0.644850 0.753499 0.782765
O O2 0.673705 0.766627 0.922907
O O3 0.564778 0.804867 0.880402
O O4 0.646951 0.000000 0.851742
O O5 0.750000 0.693018 0.732937
O O6 0.835435 0.500000 0.726066
O O7 0.841498 0.726694 0.641533
O O8 0.750000 0.842042 0.577407
O O9 0.843386 0.790059 0.497626
O O10 0.843018 0.000000 0.598046
O O11 0.598564 0.500000 0.136939
O O12 0.644163 0.276152 0.205706
O O13 0.544642 0.254293 0.134571
O O14 0.642889 0.282859 0.060796
O O15 0.750000 0.717972 0.261694
O O16 0.821495 0.500000 0.284133
O O17 0.844775 0.737147 0.350344
O O18 0.250000 0.673619 0.980441
O O19 0.332976 0.500000 0.030146
O O20 0.016456 0.000000 0.913105
O O21 0.000000 0.776358 0.000000
O O22 0.250000 0.173490 0.583988
O O23 0.159651 0.000000 0.600700
#
# Coordination Sequence:
#
# PCOD8210425 Si02
#       8
#     8   8   8   8   8   8   8   8
#     4  11  22  35  51  69  92 124 160 199 244 288
#     4  10  20  32  47  71 102 130 158 195 237 284
#     4   8  14  26  44  66  95 130 164 195 229 275
#     4  10  20  33  51  72  94 125 163 199 239 285
#     4   9  17  29  45  69 102 133 160 194 236 283
#     4  10  20  33  49  70  97 126 156 192 235 284
#     4  10  21  38  54  69  91 119 158 209 251 284
#     4   8  14  25  42  66  96 130 165 196 228 273
#
# _framework density 16.865002
#
# number of rings (size 3 to 8) (size 9 to 14) (size 15 to 20)
#    0.000    2.500    1.250    2.250    0.000    6.250 
#    0.000    2.500    0.000    2.250    0.000    0.875 
#    0.000    7.000    0.000    0.000    0.000    0.000 
#
# Total GULP energy -793539.881728 kJ/mol
# GULP energy per Si atom -12399.060652 kJ/mol
# Density = 1.682662 g / cm^3
# Si number density = 16.865002 Si / 1000 Ang^3
#
#
#
# Elastic Constant Matrix: (Units=GPa)
#
#
# Indices 1 2 3 4 5 6 
#
# 1 51.1504 30.0948 33.3507 0.0000 0.0000 0.0000
# 2 30.0948 70.3704 57.8348 0.0000 0.0000 0.0000
# 3 33.3507 57.8348 136.3262 0.0000 0.0000 0.0000
# 4 0.0000 0.0000 0.0000 34.0639 0.0000 0.0000
# 5 0.0000 0.0000 0.0000 0.0000 9.0910 0.0000
# 6 0.0000 0.0000 0.0000 0.0000 0.0000 21.9474
#
#
#
# Elastic Compliance Matrix: (Units=1/GPa)
#
#
# Indices 1 2 3 4 5 6 
#
# 1 0.026707 -0.009291 -0.002592 0.000000 0.000000 0.000000
# 2 -0.009291 0.025050 -0.008354 0.000000 0.000000 0.000000
# 3 -0.002592 -0.008354 0.011514 0.000000 0.000000 0.000000
# 4 0.000000 0.000000 0.000000 0.029357 0.000000 0.000000
# 5 0.000000 0.000000 0.000000 0.000000 0.109999 0.000000
# 6 0.000000 0.000000 0.000000 0.000000 0.000000 0.045563
#
#
# Mechanical properties :
#
#
# Convention : Reuss Voigt Hill
#
# Bulk Modulus (GPa) = 43.86791 55.60085 49.73438
# Shear Modulus (GPa) = 16.87692 22.12491 19.50092
#
# Velocity S-wave (km/s) = 3.16683 3.62592 3.40412
# Velocity P-wave (km/s) = 6.28008 7.11122 6.70854
#
# Compressibility (1/GPa) = 0.02279571
#
# Stress axis : x y z
#
# Youngs Moduli (GPa) = 37.44380 39.91999 86.85429
#
# Poissons Ratio (x) = 0.37091 0.22510
# Poissons Ratio (y) = 0.34791 0.72560
# Poissons Ratio (z) = 0.09704 0.33350
#
# Static dielectric constant tensor:
#      x y z
#    x 2.835200 0.000000 0.000000 
#    y 0.000000 3.192150 0.000000 
#    z 0.000000 0.000000 3.493570 
# 
# 
# High freq. dielectric constant tensor:
#      x y z
#    x 1.609530 0.000000 0.000000 
#    y 0.000000 1.651090 0.000000 
#    z 0.000000 0.000000 1.659530 
# 
# From -- ./inp_files/30905.got.cif
#   From: 2010.03.12/outbox.cif.g09.slc.cpg/sg51_16_cif.got.tgz:30905.got - 2010.04.16 13:43:02.
