data_PCOD8210907
_publ_section_title
;
Structure prediction by ZEFSAII (Michael W. Deem and Ramdas Pophale) SiO2 
 PCOD8210907
Probable space group: P M M A
;
_chemical_formula_sum "Si O2"
_cell_formula_units_Z 56
_cell_length_a 9.017540
_cell_length_b 13.820765
_cell_length_c 23.322490
_cell_angle_alpha 90.000000
_cell_angle_beta 90.000000
_cell_angle_gamma 90.000000
_cell_volume 2906.665631
_symmetry_space_group_name_H-M "P M M A"
_symmetry_group_IT_number 51
_symmetry_cell_setting 'orthorhombic'
loop_
_space_group_symop_operation_xyz
x,y,z
1/2-x,-y,z
1/2+x,-y,-z
-x,y,-z
-x,-y,-z
1/2+x,y,-z
1/2-x,y,z
x,-y,z
loop_
_atom_site_type_symbol
_atom_site_label
_atom_site_fract_x
_atom_site_fract_y
_atom_site_fract_z
Si Si1 0.420811 0.390664 0.167157
Si Si2 0.076668 0.778411 0.442514
Si Si3 0.421605 0.898353 0.940019
Si Si4 0.574684 0.688100 0.061893
Si Si5 0.577031 0.278585 0.266680
Si Si6 0.423124 0.888624 0.328222
Si Si7 0.922284 0.389136 0.381966
O O1 0.250000 0.361381 0.159581
O O2 0.436951 0.500000 0.190332
O O3 0.502085 0.386656 0.105798
O O4 0.495999 0.317088 0.210796
O O5 0.250000 0.770654 0.453338
O O6 0.036725 0.853620 0.392260
O O7 0.000000 0.817755 0.500000
O O8 0.016221 0.671780 0.427528
O O9 0.250000 0.896413 0.954320
O O10 0.461596 0.795627 0.910832
O O11 0.460894 0.000000 0.905767
O O12 0.500000 0.902311 0.000000
O O13 0.750000 0.668763 0.056404
O O14 0.500000 0.674513 0.000000
O O15 0.750000 0.269841 0.253085
O O16 0.515463 0.172417 0.281992
O O17 0.543471 0.352723 0.318008
O O18 0.250000 0.872645 0.316032
O O19 0.469793 0.000000 0.322147
O O20 0.750000 0.375881 0.396721
O O21 0.972804 0.500000 0.386541
#
# Coordination Sequence:
#
# PCOD8210907 Si02
#       7
#     8   8   8   8   8   8   8
#     4  11  24  40  58  80 107 142 183 225 271 327
#     4  10  20  33  50  75 108 146 187 229 272 320
#     4   8  14  26  46  72 100 130 164 201 243 293
#     4  10  20  35  56  81 111 146 182 224 272 323
#     4  10  20  36  59  85 110 136 173 224 278 331
#     4   9  19  37  59  82 111 147 184 224 272 325
#     4   9  18  33  53  76 103 137 177 223 276 330
#
# _framework density 19.266062000000002
#
# number of rings (size 3 to 8) (size 9 to 14) (size 15 to 20)
#    0.000    2.429    0.000    2.143    0.000    4.857 
#    0.000    0.714    0.000    2.571    0.000    0.000 
#    0.000    0.000    0.000    0.000    0.000    0.000 
#
# Total GULP energy -694134.955317 kJ/mol
# GULP energy per Si atom -12395.267059 kJ/mol
# Density = 1.922221 g / cm^3
# Si number density = 19.266062 Si / 1000 Ang^3
#
#
#
# Elastic Constant Matrix: (Units=GPa)
#
#
# Indices 1 2 3 4 5 6 
#
# 1 98.0716 50.4607 56.9073 0.0000 0.0000 0.0000
# 2 50.4607 114.8043 42.8465 0.0000 0.0000 0.0000
# 3 56.9073 42.8465 98.6420 0.0000 0.0000 0.0000
# 4 0.0000 0.0000 0.0000 21.0568 0.0000 0.0000
# 5 0.0000 0.0000 0.0000 0.0000 33.3831 0.0000
# 6 0.0000 0.0000 0.0000 0.0000 0.0000 27.4391
#
#
#
# Elastic Compliance Matrix: (Units=1/GPa)
#
#
# Indices 1 2 3 4 5 6 
#
# 1 0.017137 -0.004586 -0.007895 0.000000 0.000000 0.000000
# 2 -0.004586 0.011623 -0.002403 0.000000 0.000000 0.000000
# 3 -0.007895 -0.002403 0.015736 0.000000 0.000000 0.000000
# 4 0.000000 0.000000 0.000000 0.047491 0.000000 0.000000
# 5 0.000000 0.000000 0.000000 0.000000 0.029955 0.000000
# 6 0.000000 0.000000 0.000000 0.000000 0.000000 0.036444
#
#
# Mechanical properties :
#
#
# Convention : Reuss Voigt Hill
#
# Bulk Modulus (GPa) = 67.89313 67.99408 67.94360
# Shear Modulus (GPa) = 25.89828 27.12935 26.51382
#
# Velocity S-wave (km/s) = 3.67037 3.75659 3.71373
# Velocity P-wave (km/s) = 7.29921 7.36103 7.33018
#
# Compressibility (1/GPa) = 0.01472903
#
# Stress axis : x y z
#
# Youngs Moduli (GPa) = 58.35259 86.03627 63.54931
#
# Poissons Ratio (x) = 0.39457 0.50169
# Poissons Ratio (y) = 0.26761 0.15270
# Poissons Ratio (z) = 0.46067 0.20673
#
# Static dielectric constant tensor:
#      x y z
#    x 3.518520 0.000000 0.000000 
#    y 0.000000 3.921730 0.000000 
#    z 0.000000 0.000000 3.259870 
# 
# 
# High freq. dielectric constant tensor:
#      x y z
#    x 1.756510 0.000000 0.000000 
#    y 0.000000 1.758550 0.000000 
#    z 0.000000 0.000000 1.727320 
# 
# From -- ./inp_files/31873.got.cif
#   From: 2010.03.12/outbox.cif.g09.slc.cpg/sg51_16_cif.got.tgz:31873.got - 2010.04.16 13:43:02.
