data_PCOD8210170
_publ_section_title
;
Structure prediction by ZEFSAII (Michael W. Deem and Ramdas Pophale) SiO2 
 PCOD8210170
Probable space group: P M M A
;
_chemical_formula_sum "Si O2"
_cell_formula_units_Z 64
_cell_length_a 9.643260
_cell_length_b 19.117747
_cell_length_c 23.549940
_cell_angle_alpha 90.000000
_cell_angle_beta 90.000000
_cell_angle_gamma 90.000000
_cell_volume 4341.605825
_symmetry_space_group_name_H-M "P M M A"
_symmetry_group_IT_number 51
_symmetry_cell_setting 'orthorhombic'
loop_
_space_group_symop_operation_xyz
x,y,z
1/2-x,-y,z
1/2+x,-y,-z
-x,y,-z
-x,-y,-z
1/2+x,y,-z
1/2-x,y,z
x,-y,z
loop_
_atom_site_type_symbol
_atom_site_label
_atom_site_fract_x
_atom_site_fract_y
_atom_site_fract_z
Si Si1 0.089777 0.419100 0.553267
Si Si2 0.591136 0.222972 0.262926
Si Si3 0.591204 0.421629 0.766830
Si Si4 0.409188 0.076173 0.767331
Si Si5 0.910607 0.212928 0.945815
Si Si6 0.911618 0.355222 0.329208
Si Si7 0.590660 0.921908 0.878027
Si Si8 0.909325 0.712080 0.832548
O O1 0.250000 0.407139 0.538019
O O2 0.059957 0.500000 0.567899
O O3 0.043006 0.372177 0.606705
O O4 0.000000 0.393659 0.500000
O O5 0.750000 0.236022 0.245483
O O6 0.565282 0.140345 0.277158
O O7 0.554438 0.273251 0.316229
O O8 0.500000 0.240540 0.208561
O O9 0.750000 0.414118 0.746451
O O10 0.558862 0.500000 0.788020
O O11 0.495382 0.404320 0.713396
O O12 0.561074 0.369757 0.819665
O O13 0.250000 0.076696 0.787339
O O14 0.500085 0.089654 0.822501
O O15 0.445765 0.000000 0.739686
O O16 0.750000 0.216214 0.962915
O O17 0.951983 0.134942 0.925109
O O18 0.946560 0.270039 0.897367
O O19 0.000000 0.233570 0.000000
O O20 0.750000 0.372886 0.321007
O O21 0.750000 0.910066 0.859989
O O22 0.567630 0.000000 0.903115
O O23 0.750000 0.731744 0.820459
#
# Coordination Sequence:
#
# PCOD8210170 Si02
#       8
#     8   8   8   8   8   8   8   8
#     4   9  17  28  41  57  81 114 146 172 198 230
#     4   9  16  26  42  62  83 107 134 164 200 239
#     4   9  17  28  44  65  85 105 130 163 202 243
#     4   9  16  25  39  60  84 108 132 159 194 237
#     4  10  20  31  43  58  76 101 131 165 200 237
#     4   9  17  28  42  62  87 113 139 169 202 236
#     4   9  17  29  43  58  77 102 131 161 194 235
#     4   9  17  30  44  59  80 103 129 161 200 244
#
# _framework density 14.74109
#
# number of rings (size 3 to 8) (size 9 to 14) (size 15 to 20)
#    0.000    2.875    1.250    0.375    0.000    2.500 
#    0.000    1.250    0.000    0.375    0.000    0.000 
#    0.000    0.500    0.000    0.375    0.000    0.750 
#
# Total GULP energy -793169.036696 kJ/mol
# GULP energy per Si atom -12393.266198 kJ/mol
# Density = 1.470754 g / cm^3
# Si number density = 14.741090 Si / 1000 Ang^3
#
#
#
# Elastic Constant Matrix: (Units=GPa)
#
#
# Indices 1 2 3 4 5 6 
#
# 1 42.6959 37.2885 39.9911 0.0000 0.0000 0.0000
# 2 37.2885 123.3228 65.3931 0.0000 0.0000 0.0000
# 3 39.9911 65.3931 95.3567 0.0000 0.0000 0.0000
# 4 0.0000 0.0000 0.0000 20.0690 0.0000 0.0000
# 5 0.0000 0.0000 0.0000 0.0000 22.0991 0.0000
# 6 0.0000 0.0000 0.0000 0.0000 0.0000 16.3934
#
#
#
# Elastic Compliance Matrix: (Units=1/GPa)
#
#
# Indices 1 2 3 4 5 6 
#
# 1 0.040511 -0.005092 -0.013498 0.000000 0.000000 0.000000
# 2 -0.005092 0.013382 -0.007042 0.000000 0.000000 0.000000
# 3 -0.013498 -0.007042 0.020977 0.000000 0.000000 0.000000
# 4 0.000000 0.000000 0.000000 0.049828 0.000000 0.000000
# 5 0.000000 0.000000 0.000000 0.000000 0.045251 0.000000
# 6 0.000000 0.000000 0.000000 0.000000 0.000000 0.061000
#
#
# Mechanical properties :
#
#
# Convention : Reuss Voigt Hill
#
# Bulk Modulus (GPa) = 42.35978 60.74675 51.55326
# Shear Modulus (GPa) = 17.23650 19.62580 18.43115
#
# Velocity S-wave (km/s) = 3.42319 3.65275 3.53983
# Velocity P-wave (km/s) = 6.66502 7.68692 7.19414
#
# Compressibility (1/GPa) = 0.02360730
#
# Stress axis : x y z
#
# Youngs Moduli (GPa) = 24.68449 74.72504 47.67133
#
# Poissons Ratio (x) = 0.38048 0.64347
# Poissons Ratio (y) = 0.12569 0.33570
# Poissons Ratio (z) = 0.33319 0.52621
#
# Static dielectric constant tensor:
#      x y z
#    x 2.965940 0.000000 0.000000 
#    y 0.000000 3.201830 0.000000 
#    z 0.000000 0.000000 2.597590 
# 
# 
# High freq. dielectric constant tensor:
#      x y z
#    x 1.570760 0.000000 0.000000 
#    y 0.000000 1.570590 0.000000 
#    z 0.000000 0.000000 1.522360 
# 
# From -- ./inp_files/32559.got.cif
#   From: 2010.03.12/outbox.cif.g09.slc.cpg/sg51_17_cif.got.tgz:32559.got - 2010.04.16 13:43:02.
