data_PCOD8210757
_publ_section_title
;
Structure prediction by ZEFSAII (Michael W. Deem and Ramdas Pophale) SiO2 
 PCOD8210757
Probable space group: P M M A
;
_chemical_formula_sum "Si O2"
_cell_formula_units_Z 48
_cell_length_a 9.116618
_cell_length_b 14.031190
_cell_length_c 20.601777
_cell_angle_alpha 90.000000
_cell_angle_beta 90.000000
_cell_angle_gamma 90.000000
_cell_volume 2635.317494
_symmetry_space_group_name_H-M "P M M A"
_symmetry_group_IT_number 51
_symmetry_cell_setting 'orthorhombic'
loop_
_space_group_symop_operation_xyz
x,y,z
1/2-x,-y,z
1/2+x,-y,-z
-x,y,-z
-x,-y,-z
1/2+x,y,-z
1/2-x,y,z
x,-y,z
loop_
_atom_site_type_symbol
_atom_site_label
_atom_site_fract_x
_atom_site_fract_y
_atom_site_fract_z
Si Si1 0.078592 0.310895 0.193616
Si Si2 0.093601 0.892106 0.944782
Si Si3 0.084574 0.897619 0.183987
Si Si4 0.084360 0.613688 0.436525
Si Si5 0.423458 0.610107 0.931553
Si Si6 0.913094 0.389149 0.312628
O O1 0.250000 0.338097 0.186620
O O2 0.060178 0.201787 0.221953
O O3 0.998663 0.324657 0.124163
O O4 0.002294 0.377154 0.246355
O O5 0.250000 0.838981 0.939503
O O6 0.020137 0.890341 0.876150
O O7 0.118883 0.000000 0.968105
O O8 0.000000 0.837442 0.000000
O O9 0.250000 0.899470 0.157576
O O10 0.053207 0.000000 0.221369
O O11 0.250000 0.653757 0.437173
O O12 0.086970 0.500000 0.435432
O O13 0.000000 0.651461 0.500000
O O14 0.001699 0.655596 0.373240
O O15 0.250000 0.631742 0.935528
O O16 0.451147 0.500000 0.912997
O O17 0.500000 0.634124 0.000000
O O18 0.750000 0.342941 0.307674
O O19 0.895244 0.500000 0.325871
#
# Coordination Sequence:
#
# PCOD8210757 Si02
#       6
#     8   8   8   8   8   8
#     4  11  22  34  51  73  95 123 160 202 247 293
#     4   9  16  26  42  62  81 103 133 171 219 275
#     4   9  19  35  50  64  86 116 150 190 237 288
#     4   9  16  27  45  70 101 136 170 200 231 272
#     4  10  21  37  55  73  94 122 157 199 246 294
#     4  10  20  33  49  71 101 135 167 199 236 279
#
# _framework density 18.214124000000002
#
# number of rings (size 3 to 8) (size 9 to 14) (size 15 to 20)
#    0.000    2.333    0.000    3.000    0.000   10.000 
#    0.000    0.000    0.000    0.000    0.000    0.000 
#    0.000    0.667    0.000    1.833    0.000    2.667 
#
# Total GULP energy -594644.419547 kJ/mol
# GULP energy per Si atom -12388.425407 kJ/mol
# Density = 1.817267 g / cm^3
# Si number density = 18.214124 Si / 1000 Ang^3
#
#
#
# Elastic Constant Matrix: (Units=GPa)
#
#
# Indices 1 2 3 4 5 6 
#
# 1 137.3178 15.0270 50.7020 0.0000 0.0000 0.0000
# 2 15.0270 60.7664 5.3583 0.0000 0.0000 0.0000
# 3 50.7020 5.3583 97.6428 0.0000 0.0000 0.0000
# 4 0.0000 0.0000 0.0000 2.8872 0.0000 0.0000
# 5 0.0000 0.0000 0.0000 0.0000 30.4407 0.0000
# 6 0.0000 0.0000 0.0000 0.0000 0.0000 9.7747
#
#
#
# Elastic Compliance Matrix: (Units=1/GPa)
#
#
# Indices 1 2 3 4 5 6 
#
# 1 0.009216 -0.001866 -0.004683 0.000000 0.000000 0.000000
# 2 -0.001866 0.016914 0.000041 0.000000 0.000000 0.000000
# 3 -0.004683 0.000041 0.012671 0.000000 0.000000 0.000000
# 4 0.000000 0.000000 0.000000 0.346354 0.000000 0.000000
# 5 0.000000 0.000000 0.000000 0.000000 0.032851 0.000000
# 6 0.000000 0.000000 0.000000 0.000000 0.000000 0.102305
#
#
# Mechanical properties :
#
#
# Convention : Reuss Voigt Hill
#
# Bulk Modulus (GPa) = 38.78313 48.65575 43.71944
# Shear Modulus (GPa) = 9.22641 23.59650 16.41145
#
# Velocity S-wave (km/s) = 2.25311 3.60322 3.00497
# Velocity P-wave (km/s) = 5.30168 6.63943 6.00791
#
# Compressibility (1/GPa) = 0.02578441
#
# Stress axis : x y z
#
# Youngs Moduli (GPa) = 108.51098 59.12152 78.92147
#
# Poissons Ratio (x) = 0.11032 0.36958
# Poissons Ratio (y) = 0.20248 -0.00322
# Poissons Ratio (z) = 0.50815 -0.00241
#
# Static dielectric constant tensor:
#      x y z
#    x 3.809300 0.000000 0.000000 
#    y 0.000000 3.484760 0.000000 
#    z 0.000000 0.000000 3.087570 
# 
# 
# High freq. dielectric constant tensor:
#      x y z
#    x 1.732590 0.000000 0.000000 
#    y 0.000000 1.675520 0.000000 
#    z 0.000000 0.000000 1.669820 
# 
# From -- ./inp_files/27555.got.cif
#   From: 2010.03.12/outbox.cif.g09.slc.cpg/sg51_14_cif.got.tgz:27555.got - 2010.04.16 13:43:02.
