data_PCOD8210496
_publ_section_title
;
Structure prediction by ZEFSAII (Michael W. Deem and Ramdas Pophale) SiO2 
 PCOD8210496
Probable space group: P M M A
;
_chemical_formula_sum "Si O2"
_cell_formula_units_Z 48
_cell_length_a 25.041208
_cell_length_b 9.649930
_cell_length_c 11.648426
_cell_angle_alpha 90.000000
_cell_angle_beta 90.000000
_cell_angle_gamma 90.000000
_cell_volume 2814.794435
_symmetry_space_group_name_H-M "P M M A"
_symmetry_group_IT_number 51
_symmetry_cell_setting 'orthorhombic'
loop_
_space_group_symop_operation_xyz
x,y,z
1/2-x,-y,z
1/2+x,-y,-z
-x,y,-z
-x,-y,-z
1/2+x,y,-z
1/2-x,y,z
x,-y,z
loop_
_atom_site_type_symbol
_atom_site_label
_atom_site_fract_x
_atom_site_fract_y
_atom_site_fract_z
Si Si1 0.995072 0.338903 0.130978
Si Si2 0.407595 0.841320 0.744364
Si Si3 0.596753 0.340038 0.717006
Si Si4 0.438729 0.160831 0.490873
Si Si5 0.189686 0.159148 0.898570
Si Si6 0.811106 0.659672 0.886120
O O1 0.980286 0.500000 0.139222
O O2 0.948188 0.254902 0.189239
O O3 0.050276 0.304230 0.193459
O O4 0.000000 0.290466 0.000000
O O5 0.408544 0.808211 0.609574
O O6 0.347894 0.811655 0.789413
O O7 0.424849 0.000000 0.766104
O O8 0.594308 0.500000 0.679426
O O9 0.592090 0.247340 0.604581
O O10 0.652922 0.302918 0.776555
O O11 0.500000 0.210851 0.500000
O O12 0.436516 0.000000 0.456216
O O13 0.250000 0.199007 0.862201
O O14 0.186027 0.000000 0.937831
O O15 0.170166 0.250571 0.005455
O O16 0.750000 0.692338 0.852705
O O17 0.819347 0.500000 0.921141
#
# Coordination Sequence:
#
# PCOD8210496 Si02
#       6
#     8   8   8   8   8   8
#     4  10  20  32  48  73 103 129 158 202 251 300
#     4  10  20  34  51  72  98 131 168 205 249 295
#     4  10  20  33  51  75 101 131 168 206 249 297
#     4  10  20  35  52  71 100 136 172 209 248 295
#     4   9  18  33  53  76 101 129 164 206 250 298
#     4   9  18  34  55  77 103 134 166 203 250 301
#
# _framework density 17.052755000000001
#
# number of rings (size 3 to 8) (size 9 to 14) (size 15 to 20)
#    0.000    2.333    1.667    1.000    0.000    4.000 
#    0.000    0.833    0.000    1.000    0.000    0.000 
#    0.000    0.000    0.000    0.000    0.000    0.000 
#
# Total GULP energy -595342.078622 kJ/mol
# GULP energy per Si atom -12402.959971 kJ/mol
# Density = 1.701394 g / cm^3
# Si number density = 17.052755 Si / 1000 Ang^3
#
#
#
# Elastic Constant Matrix: (Units=GPa)
#
#
# Indices 1 2 3 4 5 6 
#
# 1 99.7705 47.9599 69.9675 0.0000 0.0000 0.0000
# 2 47.9599 60.6261 63.5509 0.0000 0.0000 0.0000
# 3 69.9675 63.5509 137.2348 0.0000 0.0000 0.0000
# 4 0.0000 0.0000 0.0000 28.8230 0.0000 0.0000
# 5 0.0000 0.0000 0.0000 0.0000 23.6233 0.0000
# 6 0.0000 0.0000 0.0000 0.0000 0.0000 22.1294
#
#
#
# Elastic Compliance Matrix: (Units=1/GPa)
#
#
# Indices 1 2 3 4 5 6 
#
# 1 0.017750 -0.008853 -0.004950 0.000000 0.000000 0.000000
# 2 -0.008853 0.036470 -0.012375 0.000000 0.000000 0.000000
# 3 -0.004950 -0.012375 0.015541 0.000000 0.000000 0.000000
# 4 0.000000 0.000000 0.000000 0.034695 0.000000 0.000000
# 5 0.000000 0.000000 0.000000 0.000000 0.042331 0.000000
# 6 0.000000 0.000000 0.000000 0.000000 0.000000 0.045189
#
#
# Mechanical properties :
#
#
# Convention : Reuss Voigt Hill
#
# Bulk Modulus (GPa) = 57.45387 73.39867 65.42627
# Shear Modulus (GPa) = 19.98940 22.65867 21.32403
#
# Velocity S-wave (km/s) = 3.42747 3.64914 3.54004
# Velocity P-wave (km/s) = 7.03053 7.80324 7.42694
#
# Compressibility (1/GPa) = 0.01740527
#
# Stress axis : x y z
#
# Youngs Moduli (GPa) = 56.33839 27.41999 64.34523
#
# Poissons Ratio (x) = 0.24274 0.31851
# Poissons Ratio (y) = 0.49874 0.79628
# Poissons Ratio (z) = 0.27888 0.33932
#
# Static dielectric constant tensor:
#      x y z
#    x 3.319470 0.000000 0.000000 
#    y 0.000000 3.210110 0.000000 
#    z 0.000000 0.000000 3.161200 
# 
# 
# High freq. dielectric constant tensor:
#      x y z
#    x 1.659500 0.000000 0.000000 
#    y 0.000000 1.658760 0.000000 
#    z 0.000000 0.000000 1.653510 
# 
# From -- ./inp_files/18555.got.cif
#   From: 2010.03.12/outbox.cif.g09.slc.cpg/sg51_10_cif.got.tgz:18555.got - 2010.04.16 13:43:02.
