data_PCOD8210954
_publ_section_title
;
Structure prediction by ZEFSAII (Michael W. Deem and Ramdas Pophale) SiO2 
 PCOD8210954
Probable space group: P M M A
;
_chemical_formula_sum "Si O2"
_cell_formula_units_Z 64
_cell_length_a 14.076203
_cell_length_b 9.011828
_cell_length_c 25.640832
_cell_angle_alpha 90.000000
_cell_angle_beta 90.000000
_cell_angle_gamma 90.000000
_cell_volume 3252.599034
_symmetry_space_group_name_H-M "P M M A"
_symmetry_group_IT_number 51
_symmetry_cell_setting 'orthorhombic'
loop_
_space_group_symop_operation_xyz
x,y,z
1/2-x,-y,z
1/2+x,-y,-z
-x,y,-z
-x,-y,-z
1/2+x,y,-z
1/2-x,y,z
x,-y,z
loop_
_atom_site_type_symbol
_atom_site_label
_atom_site_fract_x
_atom_site_fract_y
_atom_site_fract_z
Si Si1 0.043051 0.823878 0.077872
Si Si2 0.139485 0.826617 0.685395
Si Si3 0.965045 0.675573 0.722418
Si Si4 0.144712 0.660248 0.585318
Si Si5 0.891532 0.163430 0.513778
Si Si6 0.144441 0.823444 0.974569
Si Si7 0.361122 0.173848 0.183085
Si Si8 0.140257 0.829251 0.369354
O O1 0.082740 0.763980 0.132594
O O2 0.933349 0.771809 0.068687
O O3 0.048184 0.000000 0.077773
O O4 0.109831 0.764445 0.031043
O O5 0.250000 0.790535 0.697078
O O6 0.102411 0.774127 0.627885
O O7 0.072125 0.742613 0.727056
O O8 0.120239 0.000000 0.689121
O O9 0.971274 0.500000 0.725845
O O10 0.898832 0.736190 0.767959
O O11 0.919869 0.723894 0.667733
O O12 0.250000 0.629274 0.605257
O O13 0.090295 0.500000 0.584815
O O14 0.153975 0.726727 0.527709
O O15 0.876236 0.227968 0.571564
O O16 0.000000 0.150749 0.500000
O O17 0.843649 0.000000 0.510230
O O18 0.250000 0.759242 0.961918
O O19 0.148637 0.000000 0.975637
O O20 0.250000 0.205431 0.175292
O O21 0.380125 0.000000 0.192348
O O22 0.250000 0.814713 0.353961
O O23 0.106153 0.000000 0.363575
#
# Coordination Sequence:
#
# PCOD8210954 Si02
#       8
#     8   8   8   8   8   8   8   8
#     4   8  14  24  41  69 104 142 183 226 275 329
#     4  10  21  39  63  85 105 134 173 216 264 324
#     4  12  25  39  57  80 107 138 176 227 281 330
#     4  10  20  33  51  77 106 132 160 199 250 310
#     4  10  20  33  51  75 102 134 172 213 259 316
#     4   8  12  20  38  68 107 144 177 221 278 331
#     4  10  20  35  55  77 105 144 189 233 274 322
#     4  10  21  37  56  78 107 144 185 228 274 326
#
# _framework density 19.676572
#
# number of rings (size 3 to 8) (size 9 to 14) (size 15 to 20)
#    0.000    2.250    0.000    4.500    0.000    7.250 
#    0.000    0.625    0.000    2.250    0.000    1.750 
#    0.000    1.000    0.000    0.000    0.000    0.000 
#
# Total GULP energy -793208.167157 kJ/mol
# GULP energy per Si atom -12393.877612 kJ/mol
# Density = 1.963179 g / cm^3
# Si number density = 19.676572 Si / 1000 Ang^3
#
#
#
# Elastic Constant Matrix: (Units=GPa)
#
#
# Indices 1 2 3 4 5 6 
#
# 1 131.1946 40.2878 51.3408 0.0000 0.0000 0.0000
# 2 40.2878 87.9030 36.0788 0.0000 0.0000 0.0000
# 3 51.3408 36.0788 88.0811 0.0000 0.0000 0.0000
# 4 0.0000 0.0000 0.0000 0.7604 0.0000 0.0000
# 5 0.0000 0.0000 0.0000 0.0000 32.2844 0.0000
# 6 0.0000 0.0000 0.0000 0.0000 0.0000 16.0662
#
#
#
# Elastic Compliance Matrix: (Units=1/GPa)
#
#
# Indices 1 2 3 4 5 6 
#
# 1 0.010395 -0.002738 -0.004938 0.000000 0.000000 0.000000
# 2 -0.002738 0.014396 -0.004301 0.000000 0.000000 0.000000
# 3 -0.004938 -0.004301 0.015993 0.000000 0.000000 0.000000
# 4 0.000000 0.000000 0.000000 1.315168 0.000000 0.000000
# 5 0.000000 0.000000 0.000000 0.000000 0.030975 0.000000
# 6 0.000000 0.000000 0.000000 0.000000 0.000000 0.062243
#
#
# Mechanical properties :
#
#
# Convention : Reuss Voigt Hill
#
# Bulk Modulus (GPa) = 59.41269 62.51039 60.96154
# Shear Modulus (GPa) = 3.38127 21.78693 12.58410
#
# Velocity S-wave (km/s) = 1.31231 3.33115 2.53167
# Velocity P-wave (km/s) = 5.70582 6.82886 6.29244
#
# Compressibility (1/GPa) = 0.01683142
#
# Stress axis : x y z
#
# Youngs Moduli (GPa) = 96.19724 69.46245 62.52692
#
# Poissons Ratio (x) = 0.19017 0.30875
# Poissons Ratio (y) = 0.26336 0.26893
# Poissons Ratio (z) = 0.47501 0.29876
#
# Static dielectric constant tensor:
#      x y z
#    x 3.858280 0.000000 0.000000 
#    y 0.000000 3.356500 0.000000 
#    z 0.000000 0.000000 3.926920 
# 
# 
# High freq. dielectric constant tensor:
#      x y z
#    x 1.782060 0.000000 0.000000 
#    y 0.000000 1.731430 0.000000 
#    z 0.000000 0.000000 1.749230 
# 
# From -- ./inp_files/35619.got.cif
#   From: 2010.03.12/outbox.cif.g09.slc.cpg/sg51_18_cif.got.tgz:35619.got - 2010.04.16 13:43:02.
