data_PCOD8210032
_publ_section_title
;
Structure prediction by ZEFSAII (Michael W. Deem and Ramdas Pophale) SiO2 
 PCOD8210032
Probable space group: P M M A
;
_chemical_formula_sum "Si O2"
_cell_formula_units_Z 48
_cell_length_a 14.309047
_cell_length_b 16.896139
_cell_length_c 10.246241
_cell_angle_alpha 90.000000
_cell_angle_beta 90.000000
_cell_angle_gamma 90.000000
_cell_volume 2477.209578
_symmetry_space_group_name_H-M "P M M A"
_symmetry_group_IT_number 51
_symmetry_cell_setting 'orthorhombic'
loop_
_space_group_symop_operation_xyz
x,y,z
1/2-x,-y,z
1/2+x,-y,-z
-x,y,-z
-x,-y,-z
1/2+x,y,-z
1/2-x,y,z
x,-y,z
loop_
_atom_site_type_symbol
_atom_site_label
_atom_site_fract_x
_atom_site_fract_y
_atom_site_fract_z
Si Si1 0.071069 0.173390 0.617962
Si Si2 0.750000 0.907461 0.484316
Si Si3 0.442494 0.171945 0.132645
Si Si4 0.549519 0.647300 0.867192
Si Si5 0.750000 0.905591 0.782788
Si Si6 0.351691 0.500000 0.511308
Si Si7 0.070399 0.349176 0.618442
Si Si8 0.856090 0.500000 0.768047
O O1 0.158589 0.116124 0.597778
O O2 0.115768 0.261681 0.621141
O O3 0.000000 0.162010 0.500000
O O4 0.014137 0.152672 0.749679
O O5 0.750000 0.872872 0.632898
O O6 0.750000 0.000000 0.497726
O O7 0.409747 0.263727 0.135526
O O8 0.345283 0.123509 0.144984
O O9 0.500000 0.151726 0.000000
O O10 0.474411 0.635117 0.756247
O O11 0.626935 0.580132 0.848769
O O12 0.500000 0.627714 0.000000
O O13 0.750000 0.000000 0.788404
O O14 0.250000 0.500000 0.454039
O O15 0.359239 0.578914 0.597576
O O16 0.412348 0.500000 0.374389
O O17 0.000000 0.350894 0.500000
O O18 0.750000 0.500000 0.734642
#
# Coordination Sequence:
#
# PCOD8210032 Si02
#       8
#     8   4   8   8   4   4   8   4
#     4  10  21  39  63  93 120 163 208 252 304 367
#     4  11  24  39  65  98 130 163 202 259 314 368
#     4  10  23  43  66  93 127 167 207 256 311 370
#     4  10  21  39  59  82 114 159 198 241 300 355
#     4  11  24  41  67  98 126 163 204 255 318 374
#     4  11  22  32  51  87 116 151 193 254 300 341
#     4  10  19  36  57  79 113 151 196 242 296 348
#     4  11  22  33  53  88 114 147 201 248 292 353
#
# _framework density 19.376642
#
# number of rings (size 3 to 8) (size 9 to 14) (size 15 to 20)
#    0.000    1.667    3.333    1.000    2.333    2.000 
#    0.000    2.500    0.000    0.000    0.000    0.000 
#    0.000    0.000    0.000    0.000    0.000    0.000 
#
# Total GULP energy -594720.293934 kJ/mol
# GULP energy per Si atom -12390.006124 kJ/mol
# Density = 1.933254 g / cm^3
# Si number density = 19.376642 Si / 1000 Ang^3
#
#
#
# Elastic Constant Matrix: (Units=GPa)
#
#
# Indices 1 2 3 4 5 6 
#
# 1 103.2637 55.5879 51.5951 0.0000 0.0000 0.0000
# 2 55.5879 100.7985 38.9981 0.0000 0.0000 0.0000
# 3 51.5951 38.9981 147.4585 0.0000 0.0000 0.0000
# 4 0.0000 0.0000 0.0000 17.8903 0.0000 0.0000
# 5 0.0000 0.0000 0.0000 0.0000 17.4497 0.0000
# 6 0.0000 0.0000 0.0000 0.0000 0.0000 40.9679
#
#
#
# Elastic Compliance Matrix: (Units=1/GPa)
#
#
# Indices 1 2 3 4 5 6 
#
# 1 0.015205 -0.007048 -0.003456 0.000000 0.000000 0.000000
# 2 -0.007048 0.014319 -0.001321 0.000000 0.000000 0.000000
# 3 -0.003456 -0.001321 0.008340 0.000000 0.000000 0.000000
# 4 0.000000 0.000000 0.000000 0.055896 0.000000 0.000000
# 5 0.000000 0.000000 0.000000 0.000000 0.057308 0.000000
# 6 0.000000 0.000000 0.000000 0.000000 0.000000 0.024409
#
#
# Mechanical properties :
#
#
# Convention : Reuss Voigt Hill
#
# Bulk Modulus (GPa) = 70.35402 71.54256 70.94829
# Shear Modulus (GPa) = 24.52614 28.95089 26.73852
#
# Velocity S-wave (km/s) = 3.56161 3.86957 3.71878
# Velocity P-wave (km/s) = 7.30075 7.54765 7.42522
#
# Compressibility (1/GPa) = 0.01421383
#
# Stress axis : x y z
#
# Youngs Moduli (GPa) = 65.76903 69.83970 119.90184
#
# Poissons Ratio (x) = 0.49222 0.41440
# Poissons Ratio (y) = 0.46353 0.15836
# Poissons Ratio (z) = 0.22731 0.09224
#
# Static dielectric constant tensor:
#      x y z
#    x 3.274020 0.000000 0.000000 
#    y 0.000000 3.943340 0.000000 
#    z 0.000000 0.000000 3.722910 
# 
# 
# High freq. dielectric constant tensor:
#      x y z
#    x 1.734620 0.000000 0.000000 
#    y 0.000000 1.762630 0.000000 
#    z 0.000000 0.000000 1.764380 
# 
# From -- ./inp_files/8399.got.cif
#   From: 2010.03.12/outbox.cif.g09.slc.cpg/sg51_5_cif.got.tgz:8399.got - 2010.04.16 13:43:02.
