data_PCOD8210673
_publ_section_title
;
Structure prediction by ZEFSAII (Michael W. Deem and Ramdas Pophale) SiO2 
 PCOD8210673
Probable space group: P M M A
;
_chemical_formula_sum "Si O2"
_cell_formula_units_Z 40
_cell_length_a 8.662765
_cell_length_b 18.880774
_cell_length_c 14.423329
_cell_angle_alpha 90.000000
_cell_angle_beta 90.000000
_cell_angle_gamma 90.000000
_cell_volume 2359.075482
_symmetry_space_group_name_H-M "P M M A"
_symmetry_group_IT_number 51
_symmetry_cell_setting 'orthorhombic'
loop_
_space_group_symop_operation_xyz
x,y,z
1/2-x,-y,z
1/2+x,-y,-z
-x,y,-z
-x,-y,-z
1/2+x,y,-z
1/2-x,y,z
x,-y,z
loop_
_atom_site_type_symbol
_atom_site_label
_atom_site_fract_x
_atom_site_fract_y
_atom_site_fract_z
Si Si1 0.567770 0.580691 0.100652
Si Si2 0.429844 0.660443 0.265960
Si Si3 0.067914 0.781327 0.603807
Si Si4 0.080520 0.581332 0.588000
Si Si5 0.569517 0.076553 0.601097
O O1 0.750000 0.590696 0.099298
O O2 0.525848 0.500000 0.132727
O O3 0.495870 0.642537 0.164677
O O4 0.500000 0.594952 0.000000
O O5 0.250000 0.676871 0.258873
O O6 0.514103 0.722985 0.321929
O O7 0.468262 0.589822 0.324465
O O8 0.250000 0.779909 0.595251
O O9 0.000000 0.770079 0.500000
O O10 0.013552 0.856451 0.649115
O O11 0.250000 0.616271 0.604804
O O12 0.104739 0.500000 0.565960
O O13 0.000000 0.619365 0.500000
O O14 0.500000 0.070218 0.500000
O O15 0.750000 0.093165 0.594584
O O16 0.541035 0.000000 0.652013
#
# Coordination Sequence:
#
# PCOD8210673 Si02
#       5
#     8   8   8   8   8
#     4  10  21  38  58  78  98 121 154 197 245 295
#     4  12  23  34  49  69  95 125 158 196 241 289
#     4  11  21  33  48  68  98 133 169 205 242 286
#     4  10  20  33  47  64  88 119 156 195 233 277
#     4   9  16  27  44  66  93 126 164 202 238 278
#
# _framework density 16.955795999999999
#
# number of rings (size 3 to 8) (size 9 to 14) (size 15 to 20)
#    0.000    1.600    0.000    7.800    0.000    6.000 
#    0.000    0.000    0.000    0.000    0.000    0.000 
#    0.000    0.800    0.000    3.000    0.000    5.000 
#
# Total GULP energy -495532.446110 kJ/mol
# GULP energy per Si atom -12388.311153 kJ/mol
# Density = 1.691720 g / cm^3
# Si number density = 16.955796 Si / 1000 Ang^3
#
#
#
# Elastic Constant Matrix: (Units=GPa)
#
#
# Indices 1 2 3 4 5 6 
#
# 1 140.9600 55.6474 46.0876 0.0000 0.0000 0.0000
# 2 55.6474 107.6327 46.4452 0.0000 0.0000 0.0000
# 3 46.0876 46.4452 82.8260 0.0000 0.0000 0.0000
# 4 0.0000 0.0000 0.0000 7.0926 0.0000 0.0000
# 5 0.0000 0.0000 0.0000 0.0000 26.6121 0.0000
# 6 0.0000 0.0000 0.0000 0.0000 0.0000 25.2893
#
#
#
# Elastic Compliance Matrix: (Units=1/GPa)
#
#
# Indices 1 2 3 4 5 6 
#
# 1 0.009576 -0.003498 -0.003367 0.000000 0.000000 0.000000
# 2 -0.003498 0.013534 -0.005643 0.000000 0.000000 0.000000
# 3 -0.003367 -0.005643 0.017111 0.000000 0.000000 0.000000
# 4 0.000000 0.000000 0.000000 0.140992 0.000000 0.000000
# 5 0.000000 0.000000 0.000000 0.000000 0.037577 0.000000
# 6 0.000000 0.000000 0.000000 0.000000 0.000000 0.039542
#
#
# Mechanical properties :
#
#
# Convention : Reuss Voigt Hill
#
# Bulk Modulus (GPa) = 65.76451 69.75322 67.75887
# Shear Modulus (GPa) = 17.33593 24.01468 20.67530
#
# Velocity S-wave (km/s) = 3.20100 3.76747 3.49573
# Velocity P-wave (km/s) = 7.24789 7.75582 7.50615
#
# Compressibility (1/GPa) = 0.01520577
#
# Stress axis : x y z
#
# Youngs Moduli (GPa) = 104.42807 73.88549 58.44062
#
# Poissons Ratio (x) = 0.25845 0.19676
# Poissons Ratio (y) = 0.36529 0.32979
# Poissons Ratio (z) = 0.35160 0.41694
#
# Static dielectric constant tensor:
#      x y z
#    x 4.429200 0.000000 0.000000 
#    y 0.000000 3.737090 0.000000 
#    z 0.000000 0.000000 2.934180 
# 
# 
# High freq. dielectric constant tensor:
#      x y z
#    x 1.679240 0.000000 0.000000 
#    y 0.000000 1.653400 0.000000 
#    z 0.000000 0.000000 1.606310 
# 
# From -- ./inp_files/21300.got.cif
#   From: 2010.03.12/outbox.cif.g09.slc.cpg/sg51_11_cif.got.tgz:21300.got - 2010.04.16 13:43:02.
