data_PCOD8210999
_publ_section_title
;
Structure prediction by ZEFSAII (Michael W. Deem and Ramdas Pophale) SiO2 
 PCOD8210999
Probable space group: P M M A
;
_chemical_formula_sum "Si O2"
_cell_formula_units_Z 40
_cell_length_a 9.134288
_cell_length_b 9.098609
_cell_length_c 25.817387
_cell_angle_alpha 90.000000
_cell_angle_beta 90.000000
_cell_angle_gamma 90.000000
_cell_volume 2145.665349
_symmetry_space_group_name_H-M "P M M A"
_symmetry_group_IT_number 51
_symmetry_cell_setting 'orthorhombic'
loop_
_space_group_symop_operation_xyz
x,y,z
1/2-x,-y,z
1/2+x,-y,-z
-x,y,-z
-x,-y,-z
1/2+x,y,-z
1/2-x,y,z
x,-y,z
loop_
_atom_site_type_symbol
_atom_site_label
_atom_site_fract_x
_atom_site_fract_y
_atom_site_fract_z
Si Si1 0.417755 0.326907 0.744174
Si Si2 0.419995 0.830526 0.848805
Si Si3 0.584703 0.825066 0.450059
Si Si4 0.584948 0.824868 0.950189
Si Si5 0.078741 0.829502 0.347468
O O1 0.250000 0.281443 0.732271
O O2 0.437168 0.500000 0.746092
O O3 0.468321 0.262148 0.799052
O O4 0.522978 0.262531 0.700845
O O5 0.250000 0.809970 0.861682
O O6 0.508628 0.768189 0.897815
O O7 0.458223 0.000000 0.837613
O O8 0.500000 0.761315 0.500000
O O9 0.750000 0.763399 0.449862
O O10 0.502663 0.770435 0.398610
O O11 0.585040 0.000000 0.452274
O O12 0.750000 0.765061 0.951649
O O13 0.580699 0.000000 0.951456
O O14 0.500000 0.760976 0.000000
O O15 0.250000 0.803079 0.355369
O O16 0.042732 0.000000 0.337582
#
# Coordination Sequence:
#
# PCOD8210999 Si02
#       5
#     8   8   8   8   8
#     4  10  21  36  53  73  99 133 171 210 254 303
#     4   9  17  30  49  72  98 128 162 201 245 293
#     4   9  16  27  46  73 104 134 164 202 248 296
#     4   9  16  26  43  69  99 127 156 194 241 291
#     4  10  20  33  51  76 104 134 170 210 250 295
#
# _framework density 18.642237000000002
#
# number of rings (size 3 to 8) (size 9 to 14) (size 15 to 20)
#    0.000    2.600    0.000    2.400    0.000    8.000 
#    0.000    2.000    0.000    1.200    0.000    0.000 
#    0.000    0.000    0.000    0.000    0.000    0.000 
#
# Total GULP energy -496073.417118 kJ/mol
# GULP energy per Si atom -12401.835428 kJ/mol
# Density = 1.859981 g / cm^3
# Si number density = 18.642237 Si / 1000 Ang^3
#
#
#
# Elastic Constant Matrix: (Units=GPa)
#
#
# Indices 1 2 3 4 5 6 
#
# 1 128.8814 31.2787 93.8509 0.0000 0.0000 0.0000
# 2 31.2787 36.9411 41.2362 0.0000 0.0000 0.0000
# 3 93.8509 41.2362 179.9387 0.0000 0.0000 0.0000
# 4 0.0000 0.0000 0.0000 -3.3734 0.0000 0.0000
# 5 0.0000 0.0000 0.0000 0.0000 43.7466 0.0000
# 6 0.0000 0.0000 0.0000 0.0000 0.0000 15.2190
#
#
#
# Elastic Compliance Matrix: (Units=1/GPa)
#
#
# Indices 1 2 3 4 5 6 
#
# 1 0.013079 -0.004649 -0.005756 0.000000 0.000000 0.000000
# 2 -0.004649 0.038028 -0.006290 0.000000 0.000000 0.000000
# 3 -0.005756 -0.006290 0.010001 0.000000 0.000000 0.000000
# 4 0.000000 0.000000 0.000000 -0.296436 0.000000 0.000000
# 5 0.000000 0.000000 0.000000 0.000000 0.022859 0.000000
# 6 0.000000 0.000000 0.000000 0.000000 0.000000 0.065707
#
#
# Mechanical properties :
#
#
# Convention : Reuss Voigt Hill
#
# Bulk Modulus (GPa) = 36.07786 75.38808 55.73297
# Shear Modulus (GPa) = -48.01558 23.07812 -12.46873
#
# Velocity S-wave (km/s) = -5.08058 3.52227 -2.58901
# Velocity P-wave (km/s) = 3.87577 7.55440 4.58516
#
# Compressibility (1/GPa) = 0.02771783
#
# Stress axis : x y z
#
# Youngs Moduli (GPa) = 76.45855 26.29660 99.98710
#
# Poissons Ratio (x) = 0.12224 0.57556
# Poissons Ratio (y) = 0.35542 0.62894
# Poissons Ratio (z) = 0.44012 0.16541
#
# Static dielectric constant tensor:
#      x y z
#    x 3.538780 0.000000 0.000000 
#    y 0.000000 2.919380 0.000000 
#    z 0.000000 0.000000 3.606030 
# 
# 
# High freq. dielectric constant tensor:
#      x y z
#    x 1.731200 0.000000 0.000000 
#    y 0.000000 1.669050 0.000000 
#    z 0.000000 0.000000 1.740750 
# 
# From -- ./inp_files/34333.got.cif
#   From: 2010.03.12/outbox.cif.g09.slc.cpg/sg51_18_cif.got.tgz:34333.got - 2010.04.16 13:43:02.
