data_PCOD8210797
_publ_section_title
;
Structure prediction by ZEFSAII (Michael W. Deem and Ramdas Pophale) SiO2 
 PCOD8210797
Probable space group: P M M A
;
_chemical_formula_sum "Si O2"
_cell_formula_units_Z 48
_cell_length_a 9.388221
_cell_length_b 8.999313
_cell_length_c 31.056077
_cell_angle_alpha 90.000000
_cell_angle_beta 90.000000
_cell_angle_gamma 90.000000
_cell_volume 2623.851526
_symmetry_space_group_name_H-M "P M M A"
_symmetry_group_IT_number 51
_symmetry_cell_setting 'orthorhombic'
loop_
_space_group_symop_operation_xyz
x,y,z
1/2-x,-y,z
1/2+x,-y,-z
-x,y,-z
-x,-y,-z
1/2+x,y,-z
1/2-x,y,z
x,-y,z
loop_
_atom_site_type_symbol
_atom_site_label
_atom_site_fract_x
_atom_site_fract_y
_atom_site_fract_z
Si Si1 0.589358 0.323042 0.286805
Si Si2 0.087153 0.824728 0.871086
Si Si3 0.084800 0.674953 0.204004
Si Si4 0.089518 0.323287 0.366296
Si Si5 0.084926 0.329270 0.958691
Si Si6 0.090732 0.323283 0.461127
O O1 0.750000 0.260184 0.283509
O O2 0.591305 0.500000 0.288302
O O3 0.498366 0.267399 0.246136
O O4 0.516133 0.258214 0.330082
O O5 0.250000 0.774770 0.861305
O O6 0.039194 0.767876 0.917821
O O7 0.980852 0.754905 0.836943
O O8 0.071823 0.000000 0.869788
O O9 0.250000 0.718213 0.208858
O O10 0.065011 0.500000 0.197975
O O11 0.250000 0.263436 0.358396
O O12 0.092527 0.500000 0.363353
O O13 0.034029 0.274061 0.413812
O O14 0.250000 0.309606 0.969302
O O15 0.045743 0.500000 0.948731
O O16 0.000000 0.269574 0.000000
O O17 0.250000 0.263717 0.467017
O O18 0.087319 0.500000 0.464162
O O19 0.000000 0.251897 0.500000
#
# Coordination Sequence:
#
# PCOD8210797 Si02
#       6
#     8   8   8   8   8   8
#     4   9  16  25  39  59  80 104 138 182 230 277
#     4  10  21  36  53  74 101 132 164 198 238 283
#     4  10  20  33  50  71  94 122 157 197 240 286
#     4   8  13  21  31  44  66  95 128 171 222 271
#     4   9  18  33  53  76 102 132 165 200 236 275
#     4   8  13  19  26  37  56  86 124 166 212 262
#
# _framework density 18.293717000000001
#
# number of rings (size 3 to 8) (size 9 to 14) (size 15 to 20)
#    0.000    3.000    0.000    2.500    0.000    5.667 
#    0.000    5.000    0.000    0.000    0.000    0.000 
#    0.000    0.000    0.000    0.000    0.000    0.833 
#
# Total GULP energy -595026.437170 kJ/mol
# GULP energy per Si atom -12396.384108 kJ/mol
# Density = 1.825208 g / cm^3
# Si number density = 18.293717 Si / 1000 Ang^3
#
#
#
# Elastic Constant Matrix: (Units=GPa)
#
#
# Indices 1 2 3 4 5 6 
#
# 1 127.2721 28.3027 106.0915 0.0000 0.0000 0.0000
# 2 28.3027 19.5060 29.0273 0.0000 0.0000 0.0000
# 3 106.0915 29.0273 183.6079 0.0000 0.0000 0.0000
# 4 0.0000 0.0000 0.0000 -2.6273 0.0000 0.0000
# 5 0.0000 0.0000 0.0000 0.0000 44.5248 0.0000
# 6 0.0000 0.0000 0.0000 0.0000 0.0000 11.7822
#
#
#
# Elastic Compliance Matrix: (Units=1/GPa)
#
#
# Indices 1 2 3 4 5 6 
#
# 1 0.017526 -0.013547 -0.007985 0.000000 0.000000 0.000000
# 2 -0.013547 0.077509 -0.004426 0.000000 0.000000 0.000000
# 3 -0.007985 -0.004426 0.010760 0.000000 0.000000 0.000000
# 4 0.000000 0.000000 0.000000 -0.380625 0.000000 0.000000
# 5 0.000000 0.000000 0.000000 0.000000 0.022459 0.000000
# 6 0.000000 0.000000 0.000000 0.000000 0.000000 0.084874
#
#
# Mechanical properties :
#
#
# Convention : Reuss Voigt Hill
#
# Bulk Modulus (GPa) = 18.56014 73.02543 45.79278
# Shear Modulus (GPa) = -51.21896 21.86692 -14.67602
#
# Velocity S-wave (km/s) = -5.29706 3.46110 -2.83546
# Velocity P-wave (km/s) = 5.21960 7.48179 3.79032
#
# Compressibility (1/GPa) = 0.05387892
#
# Stress axis : x y z
#
# Youngs Moduli (GPa) = 57.05834 12.90170 92.93666
#
# Poissons Ratio (x) = 0.17478 0.74210
# Poissons Ratio (y) = 0.77297 0.41135
# Poissons Ratio (z) = 0.45561 0.05710
#
# Static dielectric constant tensor:
#      x y z
#    x 3.540390 0.000000 0.000000 
#    y 0.000000 2.771150 0.000000 
#    z 0.000000 0.000000 3.687810 
# 
# 
# High freq. dielectric constant tensor:
#      x y z
#    x 1.710520 0.000000 0.000000 
#    y 0.000000 1.643820 0.000000 
#    z 0.000000 0.000000 1.727240 
# 
# From -- ./inp_files/36883.got.cif
#   From: 2010.03.12/outbox.cif.g09.slc.cpg/sg51_19_cif.got.tgz:36883.got - 2010.04.16 13:43:02.
