data_PCOD8210761
_publ_section_title
;
Structure prediction by ZEFSAII (Michael W. Deem and Ramdas Pophale) SiO2 
 PCOD8210761
Probable space group: P M M A
;
_chemical_formula_sum "Si O2"
_cell_formula_units_Z 56
_cell_length_a 19.473863
_cell_length_b 8.969578
_cell_length_c 16.491838
_cell_angle_alpha 90.000000
_cell_angle_beta 90.000000
_cell_angle_gamma 90.000000
_cell_volume 2880.667821
_symmetry_space_group_name_H-M "P M M A"
_symmetry_group_IT_number 51
_symmetry_cell_setting 'orthorhombic'
loop_
_space_group_symop_operation_xyz
x,y,z
1/2-x,-y,z
1/2+x,-y,-z
-x,y,-z
-x,-y,-z
1/2+x,y,-z
1/2-x,y,z
x,-y,z
loop_
_atom_site_type_symbol
_atom_site_label
_atom_site_fract_x
_atom_site_fract_y
_atom_site_fract_z
Si Si1 0.593297 0.324414 0.331040
Si Si2 0.828066 0.175456 0.473415
Si Si3 0.327104 0.670783 0.970337
Si Si4 0.046230 0.327152 0.071622
Si Si5 0.327722 0.673919 0.356686
Si Si6 0.046468 0.323501 0.251000
Si Si7 0.831309 0.167764 0.189277
O O1 0.599068 0.500000 0.342764
O O2 0.616719 0.247186 0.413568
O O3 0.515570 0.274328 0.309821
O O4 0.642407 0.275299 0.258855
O O5 0.750000 0.217179 0.447207
O O6 0.843618 0.235169 0.562495
O O7 0.838726 0.000000 0.472378
O O8 0.250000 0.717640 0.994719
O O9 0.330035 0.500000 0.940706
O O10 0.356585 0.770479 0.897190
O O11 0.373890 0.695332 0.049131
O O12 0.025493 0.500000 0.076994
O O13 0.035410 0.253495 0.160652
O O14 0.000000 0.252933 0.000000
O O15 0.250000 0.704304 0.325865
O O16 0.338770 0.500000 0.376145
O O17 0.381159 0.730933 0.288572
O O18 0.048297 0.500000 0.241509
O O19 0.750000 0.171293 0.192500
O O20 0.859246 0.000000 0.201665
#
# Coordination Sequence:
#
# PCOD8210761 Si02
#       7
#     8   8   8   8   8   8   8
#     4  11  21  33  52  77 106 138 174 214 254 305
#     4  10  21  37  56  78 106 138 170 208 257 309
#     4   9  17  29  48  74  99 127 169 216 258 305
#     4   9  16  28  48  73 102 134 167 206 254 303
#     4   9  18  35  58  80 103 134 174 216 256 304
#     4   9  19  33  51  79 109 137 171 215 265 306
#     4  10  20  33  49  71 103 140 174 213 263 313
#
# _framework density 19.439935999999999
#
# number of rings (size 3 to 8) (size 9 to 14) (size 15 to 20)
#    0.000    2.429    0.000    2.571    0.000    6.857 
#    0.000    7.143    0.000    5.571    0.000    4.000 
#    0.000    0.000    0.000    0.000    0.000    0.000 
#
# Total GULP energy -694294.361348 kJ/mol
# GULP energy per Si atom -12398.113595 kJ/mol
# Density = 1.939569 g / cm^3
# Si number density = 19.439936 Si / 1000 Ang^3
#
#
#
# Elastic Constant Matrix: (Units=GPa)
#
#
# Indices 1 2 3 4 5 6 
#
# 1 90.1002 34.3607 82.9953 0.0000 0.0000 0.0000
# 2 34.3607 46.4827 36.6358 0.0000 0.0000 0.0000
# 3 82.9953 36.6358 139.4098 0.0000 0.0000 0.0000
# 4 0.0000 0.0000 0.0000 -4.5357 0.0000 0.0000
# 5 0.0000 0.0000 0.0000 0.0000 31.4210 0.0000
# 6 0.0000 0.0000 0.0000 0.0000 0.0000 13.8910
#
#
#
# Elastic Compliance Matrix: (Units=1/GPa)
#
#
# Indices 1 2 3 4 5 6 
#
# 1 0.027460 -0.009351 -0.013890 0.000000 0.000000 0.000000
# 2 -0.009351 0.030318 -0.002400 0.000000 0.000000 0.000000
# 3 -0.013890 -0.002400 0.016073 0.000000 0.000000 0.000000
# 4 0.000000 0.000000 0.000000 -0.220473 0.000000 0.000000
# 5 0.000000 0.000000 0.000000 0.000000 0.031826 0.000000
# 6 0.000000 0.000000 0.000000 0.000000 0.000000 0.071989
#
#
# Mechanical properties :
#
#
# Convention : Reuss Voigt Hill
#
# Bulk Modulus (GPa) = 44.31156 64.88626 54.59891
# Shear Modulus (GPa) = 312.52548 16.28866 164.40707
#
# Velocity S-wave (km/s) = 12.69306 2.89779 9.20627
# Velocity P-wave (km/s) = 15.41628 6.68180 11.88083
#
# Compressibility (1/GPa) = 0.02256747
#
# Stress axis : x y z
#
# Youngs Moduli (GPa) = 36.41669 32.98422 62.21477
#
# Poissons Ratio (x) = 0.30843 0.86419
# Poissons Ratio (y) = 0.34053 0.14934
# Poissons Ratio (z) = 0.50585 0.07917
#
# Static dielectric constant tensor:
#      x y z
#    x 3.728850 0.000000 0.000000 
#    y 0.000000 3.356740 0.000000 
#    z 0.000000 0.000000 3.649150 
# 
# 
# High freq. dielectric constant tensor:
#      x y z
#    x 1.763490 0.000000 0.000000 
#    y 0.000000 1.723450 0.000000 
#    z 0.000000 0.000000 1.756370 
# 
# From -- ./inp_files/25624.got.cif
#   From: 2010.03.12/outbox.cif.g09.slc.cpg/sg51_13_cif.got.tgz:25624.got - 2010.04.16 13:43:02.
