data_PCOD8210802
_publ_section_title
;
Structure prediction by ZEFSAII (Michael W. Deem and Ramdas Pophale) SiO2 
 PCOD8210802
Probable space group: P M M A
;
_chemical_formula_sum "Si O2"
_cell_formula_units_Z 64
_cell_length_a 29.564824
_cell_length_b 8.647336
_cell_length_c 14.937113
_cell_angle_alpha 90.000000
_cell_angle_beta 90.000000
_cell_angle_gamma 90.000000
_cell_volume 3818.777004
_symmetry_space_group_name_H-M "P M M A"
_symmetry_group_IT_number 51
_symmetry_cell_setting 'orthorhombic'
loop_
_space_group_symop_operation_xyz
x,y,z
1/2-x,-y,z
1/2+x,-y,-z
-x,y,-z
-x,-y,-z
1/2+x,y,-z
1/2-x,y,z
x,-y,z
loop_
_atom_site_type_symbol
_atom_site_label
_atom_site_fract_x
_atom_site_fract_y
_atom_site_fract_z
Si Si1 0.940956 0.319681 0.943099
Si Si2 0.801196 0.323434 0.717372
Si Si3 0.395955 0.319436 0.532664
Si Si4 0.445292 0.181306 0.364312
Si Si5 0.033108 0.181038 0.880635
Si Si6 0.701153 0.317052 0.514820
Si Si7 0.616859 0.179281 0.801609
Si Si8 0.538261 0.679454 0.308691
O O1 0.951882 0.500000 0.937986
O O2 0.895712 0.277648 0.889605
O O3 0.981027 0.225665 0.895158
O O4 0.935865 0.269080 0.046538
O O5 0.750000 0.310549 0.751930
O O6 0.818471 0.500000 0.722676
O O7 0.805382 0.259495 0.616426
O O8 0.831195 0.215589 0.780612
O O9 0.398915 0.500000 0.506776
O O10 0.420902 0.223062 0.456352
O O11 0.343175 0.264651 0.541152
O O12 0.419350 0.285967 0.627126
O O13 0.413957 0.232914 0.281748
O O14 0.492715 0.269513 0.358597
O O15 0.455235 0.000000 0.361581
O O16 0.048088 0.226213 0.781284
O O17 0.039271 0.000000 0.894291
O O18 0.750000 0.252191 0.477590
O O19 0.704766 0.500000 0.515608
O O20 0.610527 0.000000 0.822910
O O21 0.534311 0.500000 0.284536
#
# Coordination Sequence:
#
# PCOD8210802 Si02
#       8
#     8   8   8   8   8   8   8   8
#     4  11  21  34  54  75  97 127 162 204 246 294
#     4   9  17  30  50  73  97 129 169 209 249 297
#     4  10  20  33  50  71  97 130 171 209 246 295
#     4  11  22  33  46  67  99 137 172 206 243 291
#     4  11  21  35  52  72  99 128 161 205 248 297
#     4   8  14  27  48  71  94 122 159 204 249 289
#     4  11  21  32  48  73 103 135 168 203 247 300
#     4  11  22  34  49  70  97 133 172 211 248 291
#
# _framework density 16.759291000000001
#
# number of rings (size 3 to 8) (size 9 to 14) (size 15 to 20)
#    0.000    1.750    2.500    5.250    0.000    3.750 
#    0.000    0.000    0.000    0.375    0.000    0.875 
#    0.000    5.000    0.000    0.000    0.000    0.000 
#
# Total GULP energy -793592.072511 kJ/mol
# GULP energy per Si atom -12399.876133 kJ/mol
# Density = 1.672115 g / cm^3
# Si number density = 16.759291 Si / 1000 Ang^3
#
#
#
# Elastic Constant Matrix: (Units=GPa)
#
#
# Indices 1 2 3 4 5 6 
#
# 1 109.3376 22.2588 47.1868 0.0000 0.0000 0.0000
# 2 22.2588 61.8470 24.8811 0.0000 0.0000 0.0000
# 3 47.1868 24.8811 84.5444 0.0000 0.0000 0.0000
# 4 0.0000 0.0000 0.0000 24.9019 0.0000 0.0000
# 5 0.0000 0.0000 0.0000 0.0000 18.1160 0.0000
# 6 0.0000 0.0000 0.0000 0.0000 0.0000 14.5909
#
#
#
# Elastic Compliance Matrix: (Units=1/GPa)
#
#
# Indices 1 2 3 4 5 6 
#
# 1 0.012238 -0.001879 -0.006277 0.000000 0.000000 0.000000
# 2 -0.001879 0.018629 -0.004434 0.000000 0.000000 0.000000
# 3 -0.006277 -0.004434 0.016636 0.000000 0.000000 0.000000
# 4 0.000000 0.000000 0.000000 0.040158 0.000000 0.000000
# 5 0.000000 0.000000 0.000000 0.000000 0.055200 0.000000
# 6 0.000000 0.000000 0.000000 0.000000 0.000000 0.068536
#
#
# Mechanical properties :
#
#
# Convention : Reuss Voigt Hill
#
# Bulk Modulus (GPa) = 44.79663 49.37585 47.08624
# Shear Modulus (GPa) = 20.49040 22.28192 21.38616
#
# Velocity S-wave (km/s) = 3.50041 3.65022 3.57610
# Velocity P-wave (km/s) = 6.56693 6.87686 6.72368
#
# Compressibility (1/GPa) = 0.02232311
#
# Stress axis : x y z
#
# Youngs Moduli (GPa) = 81.71577 53.68017 60.10917
#
# Poissons Ratio (x) = 0.10086 0.37732
# Poissons Ratio (y) = 0.15354 0.26650
# Poissons Ratio (z) = 0.51294 0.23800
#
# Static dielectric constant tensor:
#      x y z
#    x 3.310980 0.000000 0.000000 
#    y 0.000000 3.096550 0.000000 
#    z 0.000000 0.000000 3.094620 
# 
# 
# High freq. dielectric constant tensor:
#      x y z
#    x 1.633780 0.000000 0.000000 
#    y 0.000000 1.646170 0.000000 
#    z 0.000000 0.000000 1.626320 
# 
# From -- ./inp_files/26705.got.cif
#   From: 2010.03.12/outbox.cif.g09.slc.cpg/sg51_14_cif.got.tgz:26705.got - 2010.04.16 13:43:02.
