data_PCOD8210166
_publ_section_title
;
Structure prediction by ZEFSAII (Michael W. Deem and Ramdas Pophale) SiO2 
 PCOD8210166
Probable space group: P M M A
;
_chemical_formula_sum "Si O2"
_cell_formula_units_Z 48
_cell_length_a 18.666424
_cell_length_b 9.092232
_cell_length_c 16.474046
_cell_angle_alpha 90.000000
_cell_angle_beta 90.000000
_cell_angle_gamma 90.000000
_cell_volume 2795.966152
_symmetry_space_group_name_H-M "P M M A"
_symmetry_group_IT_number 51
_symmetry_cell_setting 'orthorhombic'
loop_
_space_group_symop_operation_xyz
x,y,z
1/2-x,-y,z
1/2+x,-y,-z
-x,y,-z
-x,-y,-z
1/2+x,y,-z
1/2-x,y,z
x,-y,z
loop_
_atom_site_type_symbol
_atom_site_label
_atom_site_fract_x
_atom_site_fract_y
_atom_site_fract_z
Si Si1 0.602534 0.170439 0.831256
Si Si2 0.528495 0.823894 0.585145
Si Si3 0.668783 0.826274 0.146752
Si Si4 0.957043 0.170812 0.254878
Si Si5 0.671090 0.174660 0.664690
Si Si6 0.332391 0.328691 0.019231
O O1 0.519839 0.198075 0.809806
O O2 0.651327 0.224035 0.755912
O O3 0.619071 0.267933 0.908897
O O4 0.617490 0.000000 0.851267
O O5 0.500000 0.759523 0.500000
O O6 0.477611 0.760623 0.657282
O O7 0.610328 0.769155 0.601479
O O8 0.527021 0.000000 0.584931
O O9 0.750000 0.784319 0.170676
O O10 0.616972 0.765064 0.218275
O O11 0.659478 0.000000 0.134731
O O12 0.645149 0.750591 0.063526
O O13 0.946471 0.000000 0.270370
O O14 0.750000 0.237620 0.641532
O O15 0.671779 0.000000 0.662344
O O16 0.250000 0.294762 0.040152
O O17 0.347130 0.500000 0.008372
#
# Coordination Sequence:
#
# PCOD8210166 Si02
#       6
#     8   8   8   8   8   8
#     4   9  16  27  44  62  82 111 144 175 207 248
#     4   8  13  22  36  55  83 113 133 159 208 257
#     4   9  17  30  46  60  79 112 149 178 205 243
#     4   8  15  27  42  61  82 107 142 177 207 245
#     4   8  13  21  35  56  79 104 137 171 200 241
#     4  10  20  31  42  60  87 113 139 176 216 249
#
# _framework density 17.167590000000001
#
# number of rings (size 3 to 8) (size 9 to 14) (size 15 to 20)
#    0.000    3.333    0.000    3.000    0.000    2.333 
#    0.000    5.000    0.000    5.000    0.000    0.000 
#    0.000   16.667    0.000   19.667    0.000   17.333 
#
# Total GULP energy -594846.779191 kJ/mol
# GULP energy per Si atom -12392.641233 kJ/mol
# Density = 1.712852 g / cm^3
# Si number density = 17.167590 Si / 1000 Ang^3
#
#
#
# Elastic Constant Matrix: (Units=GPa)
#
#
# Indices 1 2 3 4 5 6 
#
# 1 121.1350 15.9478 84.0799 0.0000 0.0000 0.0000
# 2 15.9478 21.7445 22.0067 0.0000 0.0000 0.0000
# 3 84.0799 22.0067 130.8228 0.0000 0.0000 0.0000
# 4 0.0000 0.0000 0.0000 -1.4596 0.0000 0.0000
# 5 0.0000 0.0000 0.0000 0.0000 23.4492 0.0000
# 6 0.0000 0.0000 0.0000 0.0000 0.0000 9.6202
#
#
#
# Elastic Compliance Matrix: (Units=1/GPa)
#
#
# Indices 1 2 3 4 5 6 
#
# 1 0.014944 -0.001494 -0.009353 0.000000 0.000000 0.000000
# 2 -0.001494 0.055574 -0.008388 0.000000 0.000000 0.000000
# 3 -0.009353 -0.008388 0.015066 0.000000 0.000000 0.000000
# 4 0.000000 0.000000 0.000000 -0.685140 0.000000 0.000000
# 5 0.000000 0.000000 0.000000 0.000000 0.042645 0.000000
# 6 0.000000 0.000000 0.000000 0.000000 0.000000 0.103948
#
#
# Mechanical properties :
#
#
# Convention : Reuss Voigt Hill
#
# Bulk Modulus (GPa) = 21.22554 57.53012 39.37783
# Shear Modulus (GPa) = -12.53801 16.43316 1.94757
#
# Velocity S-wave (km/s) = -2.70539 3.09725 1.06626
# Velocity P-wave (km/s) = 1.62225 6.80987 4.95005
#
# Compressibility (1/GPa) = 0.04711306
#
# Stress axis : x y z
#
# Youngs Moduli (GPa) = 66.91640 17.99404 66.37354
#
# Poissons Ratio (x) = 0.02689 0.62080
# Poissons Ratio (y) = 0.09999 0.55675
# Poissons Ratio (z) = 0.62588 0.15094
#
# Static dielectric constant tensor:
#      x y z
#    x 3.569410 0.000000 0.000000 
#    y 0.000000 2.666920 0.000000 
#    z 0.000000 0.000000 3.367420 
# 
# 
# High freq. dielectric constant tensor:
#      x y z
#    x 1.668660 0.000000 0.000000 
#    y 0.000000 1.604870 0.000000 
#    z 0.000000 0.000000 1.655000 
# 
# From -- ./inp_files/25482.got.cif
#   From: 2010.03.12/outbox.cif.g09.slc.cpg/sg51_13_cif.got.tgz:25482.got - 2010.04.16 13:43:02.
