data_PCOD8210499
_publ_section_title
;
Structure prediction by ZEFSAII (Michael W. Deem and Ramdas Pophale) SiO2 
 PCOD8210499
Probable space group: P M M A
;
_chemical_formula_sum "Si O2"
_cell_formula_units_Z 48
_cell_length_a 13.477042
_cell_length_b 8.885548
_cell_length_c 21.213035
_cell_angle_alpha 90.000000
_cell_angle_beta 90.000000
_cell_angle_gamma 90.000000
_cell_volume 2540.280109
_symmetry_space_group_name_H-M "P M M A"
_symmetry_group_IT_number 51
_symmetry_cell_setting 'orthorhombic'
loop_
_space_group_symop_operation_xyz
x,y,z
1/2-x,-y,z
1/2+x,-y,-z
-x,y,-z
-x,-y,-z
1/2+x,y,-z
1/2-x,y,z
x,-y,z
loop_
_atom_site_type_symbol
_atom_site_label
_atom_site_fract_x
_atom_site_fract_y
_atom_site_fract_z
Si Si1 0.366895 0.675080 0.711319
Si Si2 0.133354 0.166624 0.962488
Si Si3 0.860624 0.325659 0.913522
Si Si4 0.363378 0.676925 0.469166
Si Si5 0.045359 0.178811 0.589707
Si Si6 0.950164 0.674182 0.156880
O O1 0.250000 0.701131 0.715762
O O2 0.392100 0.500000 0.698708
O O3 0.412263 0.777739 0.657161
O O4 0.417294 0.736849 0.775360
O O5 0.250000 0.164107 0.972447
O O6 0.112472 0.252467 0.898386
O O7 0.088341 0.000000 0.957542
O O8 0.090073 0.244037 0.025862
O O9 0.750000 0.267182 0.896231
O O10 0.857338 0.500000 0.931296
O O11 0.932280 0.295611 0.853799
O O12 0.250000 0.706927 0.449315
O O13 0.386608 0.500000 0.472835
O O14 0.383113 0.749286 0.537297
O O15 0.434191 0.755087 0.417596
O O16 0.043038 0.000000 0.581535
O O17 0.923352 0.500000 0.154597
#
# Coordination Sequence:
#
# PCOD8210499 Si02
#       6
#     8   8   8   8   8   8
#     4  10  21  37  55  75 104 141 178 217 262 315
#     4  10  20  32  48  73 103 132 164 208 263 319
#     4   9  18  33  52  73  98 129 167 212 261 313
#     4  10  20  36  60  86 112 144 182 222 261 305
#     4  11  22  35  55  83 115 147 178 218 265 313
#     4  10  20  34  53  75  99 132 175 219 260 304
#
# _framework density 18.895555000000002
#
# number of rings (size 3 to 8) (size 9 to 14) (size 15 to 20)
#    0.000    2.000    0.000    5.000    0.000    8.667 
#    0.000    0.833    0.000    3.000    0.000    0.000 
#    0.000    0.000    0.000    0.000    0.000    0.000 
#
# Total GULP energy -595205.211099 kJ/mol
# GULP energy per Si atom -12400.108565 kJ/mol
# Density = 1.885255 g / cm^3
# Si number density = 18.895555 Si / 1000 Ang^3
#
#
#
# Elastic Constant Matrix: (Units=GPa)
#
#
# Indices 1 2 3 4 5 6 
#
# 1 96.3163 42.3588 51.3484 0.0000 0.0000 0.0000
# 2 42.3588 89.4404 47.3057 0.0000 0.0000 0.0000
# 3 51.3484 47.3057 122.9836 0.0000 0.0000 0.0000
# 4 0.0000 0.0000 0.0000 5.6996 0.0000 0.0000
# 5 0.0000 0.0000 0.0000 0.0000 27.5643 0.0000
# 6 0.0000 0.0000 0.0000 0.0000 0.0000 18.6808
#
#
#
# Elastic Compliance Matrix: (Units=1/GPa)
#
#
# Indices 1 2 3 4 5 6 
#
# 1 0.014770 -0.004687 -0.004364 0.000000 0.000000 0.000000
# 2 -0.004687 0.015524 -0.004014 0.000000 0.000000 0.000000
# 3 -0.004364 -0.004014 0.011497 0.000000 0.000000 0.000000
# 4 0.000000 0.000000 0.000000 0.175452 0.000000 0.000000
# 5 0.000000 0.000000 0.000000 0.000000 0.036279 0.000000
# 6 0.000000 0.000000 0.000000 0.000000 0.000000 0.053531
#
#
# Mechanical properties :
#
#
# Convention : Reuss Voigt Hill
#
# Bulk Modulus (GPa) = 63.85446 65.64067 64.74757
# Shear Modulus (GPa) = 14.77526 21.57076 18.17301
#
# Velocity S-wave (km/s) = 2.79936 3.38239 3.10459
# Velocity P-wave (km/s) = 6.65697 7.07589 6.86962
#
# Compressibility (1/GPa) = 0.01566061
#
# Stress axis : x y z
#
# Youngs Moduli (GPa) = 67.70321 64.41829 86.97665
#
# Poissons Ratio (x) = 0.30193 0.37957
# Poissons Ratio (y) = 0.31733 0.34914
# Poissons Ratio (z) = 0.29546 0.25859
#
# Static dielectric constant tensor:
#      x y z
#    x 3.667630 0.000000 0.000000 
#    y 0.000000 3.544000 0.000000 
#    z 0.000000 0.000000 3.367380 
# 
# 
# High freq. dielectric constant tensor:
#      x y z
#    x 1.747390 0.000000 0.000000 
#    y 0.000000 1.734240 0.000000 
#    z 0.000000 0.000000 1.718580 
# 
# From -- ./inp_files/29476.got.cif
#   From: 2010.03.12/outbox.cif.g09.slc.cpg/sg51_15_cif.got.tgz:29476.got - 2010.04.16 13:43:02.
