data_PCOD8210202
_publ_section_title
;
Structure prediction by ZEFSAII (Michael W. Deem and Ramdas Pophale) SiO2 
 PCOD8210202
Probable space group: P M M A
;
_chemical_formula_sum "Si O2"
_cell_formula_units_Z 64
_cell_length_a 14.067142
_cell_length_b 23.613690
_cell_length_c 9.346822
_cell_angle_alpha 90.000000
_cell_angle_beta 90.000000
_cell_angle_gamma 90.000000
_cell_volume 3104.800510
_symmetry_space_group_name_H-M "P M M A"
_symmetry_group_IT_number 51
_symmetry_cell_setting 'orthorhombic'
loop_
_space_group_symop_operation_xyz
x,y,z
1/2-x,-y,z
1/2+x,-y,-z
-x,y,-z
-x,-y,-z
1/2+x,y,-z
1/2-x,y,z
x,-y,z
loop_
_atom_site_type_symbol
_atom_site_label
_atom_site_fract_x
_atom_site_fract_y
_atom_site_fract_z
Si Si1 0.507398 0.437305 0.330161
Si Si2 0.643882 0.936134 0.056240
Si Si3 0.139483 0.348696 0.278285
Si Si4 0.855581 0.936804 0.715288
Si Si5 0.000248 0.144187 0.783292
Si Si6 0.140057 0.656333 0.608167
Si Si7 0.141519 0.765252 0.763353
Si Si8 0.358988 0.237675 0.099578
O O1 0.500000 0.443531 0.500000
O O2 0.518878 0.500000 0.261954
O O3 0.419579 0.406275 0.247926
O O4 0.599740 0.398487 0.310106
O O5 0.750000 0.915441 0.105261
O O6 0.560155 0.896359 0.111468
O O7 0.626357 0.000000 0.112805
O O8 0.640280 0.935641 0.886131
O O9 0.250000 0.362770 0.255698
O O10 0.113568 0.335358 0.442574
O O11 0.108896 0.295260 0.180550
O O12 0.750000 0.918276 0.662388
O O13 0.938894 0.892997 0.668018
O O14 0.877380 0.000000 0.657734
O O15 0.078813 0.182440 0.705119
O O16 0.925773 0.184737 0.865103
O O17 0.250000 0.651258 0.633684
O O18 0.098129 0.711014 0.685798
O O19 0.250000 0.777110 0.718806
O O20 0.130814 0.753531 0.931248
O O21 0.250000 0.222853 0.141958
#
# Coordination Sequence:
#
# PCOD8210202 Si02
#       8
#     8   8   8   8   8   8   8   8
#     4   9  17  29  48  75  99 117 148 195 234 264
#     4   9  17  27  38  55  82 117 155 191 228 275
#     4   9  18  33  51  69  93 126 157 185 224 273
#     4   9  17  27  38  55  82 117 155 191 228 275
#     4  12  19  26  42  62  88 123 157 188 229 278
#     4   9  18  33  51  69  93 126 157 185 224 273
#     4  10  20  31  45  68  95 122 154 191 228 269
#     4  10  20  31  45  68  95 122 154 191 228 269
#
# _framework density 20.613240000000001
#
# number of rings (size 3 to 8) (size 9 to 14) (size 15 to 20)
#    0.000    2.375    0.000    4.875    0.000    3.500 
#    0.000    2.500    0.000    1.500    0.000    3.500 
#    0.000    8.000    0.000   37.000    0.000   20.000 
#
# Total GULP energy -792944.743352 kJ/mol
# GULP energy per Si atom -12389.761615 kJ/mol
# Density = 2.056632 g / cm^3
# Si number density = 20.613240 Si / 1000 Ang^3
#
#
#
# Elastic Constant Matrix: (Units=GPa)
#
#
# Indices 1 2 3 4 5 6 
#
# 1 98.4425 77.4636 19.3815 0.0000 0.0000 0.0000
# 2 77.4636 167.1322 24.9139 0.0000 0.0000 0.0000
# 3 19.3815 24.9139 13.7453 0.0000 0.0000 0.0000
# 4 0.0000 0.0000 0.0000 13.6022 0.0000 0.0000
# 5 0.0000 0.0000 0.0000 0.0000 10.7091 0.0000
# 6 0.0000 0.0000 0.0000 0.0000 0.0000 48.9305
#
#
#
# Elastic Compliance Matrix: (Units=1/GPa)
#
#
# Indices 1 2 3 4 5 6 
#
# 1 0.017724 -0.006151 -0.013842 0.000000 0.000000 0.000000
# 2 -0.006151 0.010333 -0.010056 0.000000 0.000000 0.000000
# 3 -0.013842 -0.010056 0.110497 0.000000 0.000000 0.000000
# 4 0.000000 0.000000 0.000000 0.073518 0.000000 0.000000
# 5 0.000000 0.000000 0.000000 0.000000 0.093379 0.000000
# 6 0.000000 0.000000 0.000000 0.000000 0.000000 0.020437
#
#
# Mechanical properties :
#
#
# Convention : Reuss Voigt Hill
#
# Bulk Modulus (GPa) = 12.74603 58.09311 35.41957
# Shear Modulus (GPa) = 12.13186 25.15243 18.64214
#
# Velocity S-wave (km/s) = 2.42863 3.49694 3.01055
# Velocity P-wave (km/s) = 3.74982 6.67446 5.41339
#
# Compressibility (1/GPa) = 0.07845578
#
# Stress axis : x y z
#
# Youngs Moduli (GPa) = 56.42082 96.77363 9.05002
#
# Poissons Ratio (x) = 0.59530 0.12527
# Poissons Ratio (y) = 0.34707 0.09101
# Poissons Ratio (z) = 0.78097 0.97314
#
# Static dielectric constant tensor:
#      x y z
#    x 4.401500 0.000000 0.000000 
#    y 0.000000 4.501660 0.000000 
#    z 0.000000 0.000000 3.158570 
# 
# 
# High freq. dielectric constant tensor:
#      x y z
#    x 1.831780 0.000000 0.000000 
#    y 0.000000 1.815430 0.000000 
#    z 0.000000 0.000000 1.736620 
# 
# From -- ./inp_files/8712.got.cif
#   From: 2010.03.12/outbox.cif.g09.slc.cpg/sg51_5_cif.got.tgz:8712.got - 2010.04.16 13:43:02.
