data_PCOD8210737
_publ_section_title
;
Structure prediction by ZEFSAII (Michael W. Deem and Ramdas Pophale) SiO2 
 PCOD8210737
Probable space group: P M M A
;
_chemical_formula_sum "Si O2"
_cell_formula_units_Z 64
_cell_length_a 9.388537
_cell_length_b 18.573343
_cell_length_c 20.630735
_cell_angle_alpha 90.000000
_cell_angle_beta 90.000000
_cell_angle_gamma 90.000000
_cell_volume 3597.515732
_symmetry_space_group_name_H-M "P M M A"
_symmetry_group_IT_number 51
_symmetry_cell_setting 'orthorhombic'
loop_
_space_group_symop_operation_xyz
x,y,z
1/2-x,-y,z
1/2+x,-y,-z
-x,y,-z
-x,-y,-z
1/2+x,y,-z
1/2-x,y,z
x,-y,z
loop_
_atom_site_type_symbol
_atom_site_label
_atom_site_fract_x
_atom_site_fract_y
_atom_site_fract_z
Si Si1 0.411480 0.085610 0.060953
Si Si2 0.406782 0.414617 0.057807
Si Si3 0.418285 0.668285 0.689851
Si Si4 0.918519 0.832824 0.312442
Si Si5 0.082087 0.417233 0.202094
Si Si6 0.584439 0.915888 0.186365
Si Si7 0.084423 0.416978 0.562937
Si Si8 0.415496 0.916345 0.563072
O O1 0.250000 0.116107 0.059957
O O2 0.491473 0.110983 0.125799
O O3 0.408224 0.000000 0.057429
O O4 0.500000 0.116597 0.000000
O O5 0.250000 0.381300 0.050172
O O6 0.398883 0.500000 0.050584
O O7 0.467107 0.395974 0.129164
O O8 0.500000 0.380380 0.000000
O O9 0.250000 0.660781 0.700142
O O10 0.468923 0.750544 0.686403
O O11 0.495286 0.632769 0.750209
O O12 0.467176 0.629431 0.623977
O O13 0.750000 0.839499 0.313495
O O14 0.974961 0.872178 0.248022
O O15 0.978718 0.872515 0.376065
O O16 0.250000 0.404566 0.210439
O O17 0.043597 0.500000 0.216786
O O18 0.750000 0.899311 0.171726
O O19 0.562131 0.000000 0.200560
O O20 0.250000 0.405113 0.548697
O O21 0.049211 0.500000 0.578221
O O22 0.000000 0.389797 0.500000
O O23 0.500000 0.890234 0.500000
O O24 0.250000 0.899597 0.551318
O O25 0.441842 0.000000 0.577431
#
# Coordination Sequence:
#
# PCOD8210737 Si02
#       8
#     8   8   8   8   8   8   8   8
#     4   9  16  26  42  67  97 124 152 192 241 287
#     4   8  14  25  42  66  94 120 148 186 230 273
#     4  10  20  33  49  70  96 125 159 198 236 279
#     4   9  18  32  49  69  95 127 160 195 237 284
#     4   9  18  32  49  70  97 127 158 194 237 284
#     4   9  16  28  48  70  91 121 161 199 235 280
#     4   9  18  32  49  69  92 118 150 188 229 274
#     4   9  17  31  51  73  97 126 160 197 237 282
#
# _framework density 17.790054000000001
#
# number of rings (size 3 to 8) (size 9 to 14) (size 15 to 20)
#    0.000    3.000    0.000    1.875    0.000    5.250 
#    0.000    4.375    0.000    3.750    0.000    1.750 
#    0.000    0.000    0.000    0.000    0.000    0.000 
#
# Total GULP energy -793505.339332 kJ/mol
# GULP energy per Si atom -12398.520927 kJ/mol
# Density = 1.774956 g / cm^3
# Si number density = 17.790054 Si / 1000 Ang^3
#
#
#
# Elastic Constant Matrix: (Units=GPa)
#
#
# Indices 1 2 3 4 5 6 
#
# 1 66.1519 34.3186 71.8532 0.0000 0.0000 0.0000
# 2 34.3186 72.7690 74.3320 0.0000 0.0000 0.0000
# 3 71.8532 74.3320 194.6120 0.0000 0.0000 0.0000
# 4 0.0000 0.0000 0.0000 1.4055 0.0000 0.0000
# 5 0.0000 0.0000 0.0000 0.0000 35.6923 0.0000
# 6 0.0000 0.0000 0.0000 0.0000 0.0000 14.5707
#
#
#
# Elastic Compliance Matrix: (Units=1/GPa)
#
#
# Indices 1 2 3 4 5 6 
#
# 1 0.025935 -0.004017 -0.008041 0.000000 0.000000 0.000000
# 2 -0.004017 0.023156 -0.007361 0.000000 0.000000 0.000000
# 3 -0.008041 -0.007361 0.010919 0.000000 0.000000 0.000000
# 4 0.000000 0.000000 0.000000 0.711492 0.000000 0.000000
# 5 0.000000 0.000000 0.000000 0.000000 0.028017 0.000000
# 6 0.000000 0.000000 0.000000 0.000000 0.000000 0.068631
#
#
# Mechanical properties :
#
#
# Convention : Reuss Voigt Hill
#
# Bulk Modulus (GPa) = 47.23531 77.17119 62.20325
# Shear Modulus (GPa) = 5.47018 20.53564 13.00291
#
# Velocity S-wave (km/s) = 1.75543 3.40123 2.70647
# Velocity P-wave (km/s) = 5.54237 7.67447 6.69386
#
# Compressibility (1/GPa) = 0.02117060
#
# Stress axis : x y z
#
# Youngs Moduli (GPa) = 38.55790 43.18527 91.58445
#
# Poissons Ratio (x) = 0.17349 0.73644
# Poissons Ratio (y) = 0.15490 0.67417
# Poissons Ratio (z) = 0.31005 0.31789
#
# Static dielectric constant tensor:
#      x y z
#    x 3.266130 0.000000 0.000000 
#    y 0.000000 3.072440 0.000000 
#    z 0.000000 0.000000 3.513340 
# 
# 
# High freq. dielectric constant tensor:
#      x y z
#    x 1.671550 0.000000 0.000000 
#    y 0.000000 1.655870 0.000000 
#    z 0.000000 0.000000 1.704250 
# 
# From -- ./inp_files/32326.got.cif
#   From: 2010.03.12/outbox.cif.g09.slc.cpg/sg51_17_cif.got.tgz:32326.got - 2010.04.16 13:43:02.
