data_PCOD8210709
_publ_section_title
;
Structure prediction by ZEFSAII (Michael W. Deem and Ramdas Pophale) SiO2 
 PCOD8210709
Probable space group: P M M A
;
_chemical_formula_sum "Si O2"
_cell_formula_units_Z 56
_cell_length_a 21.153266
_cell_length_b 9.516960
_cell_length_c 16.348194
_cell_angle_alpha 90.000000
_cell_angle_beta 90.000000
_cell_angle_gamma 90.000000
_cell_volume 3291.133183
_symmetry_space_group_name_H-M "P M M A"
_symmetry_group_IT_number 51
_symmetry_cell_setting 'orthorhombic'
loop_
_space_group_symop_operation_xyz
x,y,z
1/2-x,-y,z
1/2+x,-y,-z
-x,y,-z
-x,-y,-z
1/2+x,y,-z
1/2-x,y,z
x,-y,z
loop_
_atom_site_type_symbol
_atom_site_label
_atom_site_fract_x
_atom_site_fract_y
_atom_site_fract_z
Si Si1 0.097196 0.660107 0.974747
Si Si2 0.060347 0.663826 0.444079
Si Si3 0.976288 0.661936 0.867381
Si Si4 0.481254 0.835614 0.294762
Si Si5 0.176625 0.159425 0.869738
Si Si6 0.821438 0.338673 0.445530
Si Si7 0.372873 0.837629 0.698167
O O1 0.115552 0.500000 0.959401
O O2 0.156853 0.753745 0.949703
O O3 0.039088 0.702849 0.916549
O O4 0.081775 0.684603 0.070025
O O5 0.058300 0.500000 0.419611
O O6 0.060371 0.758597 0.363136
O O7 0.126233 0.704301 0.487713
O O8 0.000000 0.702051 0.500000
O O9 0.978871 0.500000 0.837310
O O10 0.966105 0.765966 0.792153
O O11 0.553747 0.812921 0.320255
O O12 0.463751 0.000000 0.290387
O O13 0.250000 0.176444 0.854224
O O14 0.141296 0.217816 0.789287
O O15 0.156590 0.000000 0.886259
O O16 0.750000 0.314178 0.479602
O O17 0.831823 0.500000 0.420462
O O18 0.830255 0.247788 0.364547
O O19 0.353324 0.000000 0.690456
#
# Coordination Sequence:
#
# PCOD8210709 Si02
#       7
#     8   8   8   8   8   8   8
#     4   9  18  32  51  74  99 130 170 209 247 296
#     4  10  20  35  54  75 102 137 171 211 264 309
#     4   9  18  33  52  74 101 131 162 206 259 301
#     4  11  21  32  52  80 106 134 171 213 253 302
#     4  10  20  33  48  70 105 144 174 202 245 301
#     4  10  21  36  54  76 101 133 176 217 253 304
#     4  10  20  33  49  73 107 142 171 203 251 305
#
# _framework density 17.015416999999999
#
# number of rings (size 3 to 8) (size 9 to 14) (size 15 to 20)
#    0.000    2.143    2.857    1.714    0.000    3.714 
#    0.000    1.429    0.000    0.857    0.000    2.000 
#    0.000    0.000    0.000    0.000    0.000    0.000 
#
# Total GULP energy -694441.943735 kJ/mol
# GULP energy per Si atom -12400.748995 kJ/mol
# Density = 1.697669 g / cm^3
# Si number density = 17.015417 Si / 1000 Ang^3
#
#
#
# Elastic Constant Matrix: (Units=GPa)
#
#
# Indices 1 2 3 4 5 6 
#
# 1 74.2919 36.4868 38.9303 0.0000 0.0000 0.0000
# 2 36.4868 79.7998 61.5558 0.0000 0.0000 0.0000
# 3 38.9303 61.5558 97.3095 0.0000 0.0000 0.0000
# 4 0.0000 0.0000 0.0000 20.3922 0.0000 0.0000
# 5 0.0000 0.0000 0.0000 0.0000 24.4301 0.0000
# 6 0.0000 0.0000 0.0000 0.0000 0.0000 23.1160
#
#
#
# Elastic Compliance Matrix: (Units=1/GPa)
#
#
# Indices 1 2 3 4 5 6 
#
# 1 0.018092 -0.005251 -0.003916 0.000000 0.000000 0.000000
# 2 -0.005251 0.025997 -0.014345 0.000000 0.000000 0.000000
# 3 -0.003916 -0.014345 0.020917 0.000000 0.000000 0.000000
# 4 0.000000 0.000000 0.000000 0.049038 0.000000 0.000000
# 5 0.000000 0.000000 0.000000 0.000000 0.040933 0.000000
# 6 0.000000 0.000000 0.000000 0.000000 0.000000 0.043260
#
#
# Mechanical properties :
#
#
# Convention : Reuss Voigt Hill
#
# Bulk Modulus (GPa) = 55.60942 58.37188 56.99065
# Shear Modulus (GPa) = 19.90007 21.21621 20.55814
#
# Velocity S-wave (km/s) = 3.42355 3.53495 3.47970
# Velocity P-wave (km/s) = 6.95560 7.14429 7.05058
#
# Compressibility (1/GPa) = 0.01798256
#
# Stress axis : x y z
#
# Youngs Moduli (GPa) = 55.27452 38.46538 47.80766
#
# Poissons Ratio (x) = 0.20199 0.18722
# Poissons Ratio (y) = 0.29026 0.68578
# Poissons Ratio (z) = 0.21646 0.55177
#
# Static dielectric constant tensor:
#      x y z
#    x 3.086360 0.000000 0.000000 
#    y 0.000000 3.170520 0.000000 
#    z 0.000000 0.000000 3.106050 
# 
# 
# High freq. dielectric constant tensor:
#      x y z
#    x 1.639610 0.000000 0.000000 
#    y 0.000000 1.658890 0.000000 
#    z 0.000000 0.000000 1.648620 
# 
# From -- ./inp_files/30390.got.cif
#   From: 2010.03.12/outbox.cif.g09.slc.cpg/sg51_16_cif.got.tgz:30390.got - 2010.04.16 13:43:02.
