data_PCOD8210946
_publ_section_title
;
Structure prediction by ZEFSAII (Michael W. Deem and Ramdas Pophale) SiO2 
 PCOD8210946
Probable space group: P M M A
;
_chemical_formula_sum "Si O2"
_cell_formula_units_Z 48
_cell_length_a 9.391680
_cell_length_b 8.618623
_cell_length_c 30.893625
_cell_angle_alpha 90.000000
_cell_angle_beta 90.000000
_cell_angle_gamma 90.000000
_cell_volume 2500.633478
_symmetry_space_group_name_H-M "P M M A"
_symmetry_group_IT_number 51
_symmetry_cell_setting 'orthorhombic'
loop_
_space_group_symop_operation_xyz
x,y,z
1/2-x,-y,z
1/2+x,-y,-z
-x,y,-z
-x,-y,-z
1/2+x,y,-z
1/2-x,y,z
x,-y,z
loop_
_atom_site_type_symbol
_atom_site_label
_atom_site_fract_x
_atom_site_fract_y
_atom_site_fract_z
Si Si1 0.910315 0.184538 0.634371
Si Si2 0.909920 0.816228 0.286014
Si Si3 0.414693 0.321979 0.958697
Si Si4 0.590705 0.815457 0.539067
Si Si5 0.085650 0.180414 0.868321
Si Si6 0.414131 0.318785 0.207994
O O1 0.750000 0.247436 0.642465
O O2 0.965445 0.236703 0.586632
O O3 0.015293 0.253171 0.670867
O O4 0.907585 0.000000 0.636928
O O5 0.750000 0.747558 0.282487
O O6 0.001180 0.772438 0.244551
O O7 0.902806 0.000000 0.288916
O O8 0.250000 0.304589 0.970066
O O9 0.455418 0.500000 0.948563
O O10 0.456585 0.218450 0.917532
O O11 0.500000 0.258325 0.000000
O O12 0.500000 0.740878 0.500000
O O13 0.750000 0.753803 0.533010
O O14 0.586624 0.000000 0.536160
O O15 0.250000 0.226864 0.859541
O O16 0.983789 0.280599 0.837996
O O17 0.060580 0.000000 0.859058
O O18 0.250000 0.264407 0.207972
O O19 0.426701 0.500000 0.217240
#
# Coordination Sequence:
#
# PCOD8210946 Si02
#       6
#     8   8   8   8   8   8
#     4   8  14  25  40  59  87 124 162 200 245 295
#     4  10  20  33  51  75 100 128 164 205 251 303
#     4   9  18  33  53  77 107 143 179 214 252 294
#     4   8  13  20  31  50  79 117 158 197 239 287
#     4  10  21  37  57  81 108 138 173 212 255 303
#     4  11  24  39  55  76 101 131 168 208 252 304
#
# _framework density 19.195136999999999
#
# number of rings (size 3 to 8) (size 9 to 14) (size 15 to 20)
#    0.000    2.667    0.000    3.000    0.000    7.000 
#    0.000    5.000    0.000    0.000    0.000    0.000 
#    0.000    0.667    0.000    2.167    0.000    4.333 
#
# Total GULP energy -595094.010706 kJ/mol
# GULP energy per Si atom -12397.791890 kJ/mol
# Density = 1.915145 g / cm^3
# Si number density = 19.195137 Si / 1000 Ang^3
#
#
#
# Elastic Constant Matrix: (Units=GPa)
#
#
# Indices 1 2 3 4 5 6 
#
# 1 118.2847 14.7359 80.0583 0.0000 0.0000 0.0000
# 2 14.7359 17.2275 7.9470 0.0000 0.0000 0.0000
# 3 80.0583 7.9470 143.3369 0.0000 0.0000 0.0000
# 4 0.0000 0.0000 0.0000 -1.8139 0.0000 0.0000
# 5 0.0000 0.0000 0.0000 0.0000 45.1155 0.0000
# 6 0.0000 0.0000 0.0000 0.0000 0.0000 15.7804
#
#
#
# Elastic Compliance Matrix: (Units=1/GPa)
#
#
# Indices 1 2 3 4 5 6 
#
# 1 0.014869 -0.009121 -0.007799 0.000000 0.000000 0.000000
# 2 -0.009121 0.065165 0.001481 0.000000 0.000000 0.000000
# 3 -0.007799 0.001481 0.011251 0.000000 0.000000 0.000000
# 4 0.000000 0.000000 0.000000 -0.551311 0.000000 0.000000
# 5 0.000000 0.000000 0.000000 0.000000 0.022165 0.000000
# 6 0.000000 0.000000 0.000000 0.000000 0.000000 0.063370
#
#
# Mechanical properties :
#
#
# Convention : Reuss Voigt Hill
#
# Bulk Modulus (GPa) = 16.55424 53.81459 35.18441
# Shear Modulus (GPa) = -15.45703 23.55694 4.04995
#
# Velocity S-wave (km/s) = -2.84078 3.50699 1.45412
# Velocity P-wave (km/s) = 1.45505 6.67046 4.60314
#
# Compressibility (1/GPa) = 0.06040750
#
# Stress axis : x y z
#
# Youngs Moduli (GPa) = 67.25313 15.34560 88.88443
#
# Poissons Ratio (x) = 0.13997 0.69323
# Poissons Ratio (y) = 0.61341 -0.13167
# Poissons Ratio (z) = 0.52452 -0.02273
#
# Static dielectric constant tensor:
#      x y z
#    x 3.757570 0.000000 0.000000 
#    y 0.000000 3.070340 0.000000 
#    z 0.000000 0.000000 3.784430 
# 
# 
# High freq. dielectric constant tensor:
#      x y z
#    x 1.746310 0.000000 0.000000 
#    y 0.000000 1.702400 0.000000 
#    z 0.000000 0.000000 1.763090 
# 
# From -- ./inp_files/37003.got.cif
#   From: 2010.03.12/outbox.cif.g09.slc.cpg/sg51_19_cif.got.tgz:37003.got - 2010.04.16 13:43:02.
