data_PCOD8210062
_publ_section_title
;
Structure prediction by ZEFSAII (Michael W. Deem and Ramdas Pophale) SiO2 
 PCOD8210062
Probable space group: P M M A
;
_chemical_formula_sum "Si O2"
_cell_formula_units_Z 48
_cell_length_a 14.452652
_cell_length_b 8.987673
_cell_length_c 20.239037
_cell_angle_alpha 90.000000
_cell_angle_beta 90.000000
_cell_angle_gamma 90.000000
_cell_volume 2628.964084
_symmetry_space_group_name_H-M "P M M A"
_symmetry_group_IT_number 51
_symmetry_cell_setting 'orthorhombic'
loop_
_space_group_symop_operation_xyz
x,y,z
1/2-x,-y,z
1/2+x,-y,-z
-x,y,-z
-x,-y,-z
1/2+x,y,-z
1/2-x,y,z
x,-y,z
loop_
_atom_site_type_symbol
_atom_site_label
_atom_site_fract_x
_atom_site_fract_y
_atom_site_fract_z
Si Si1 0.250000 0.824402 0.520093
Si Si2 0.569985 0.669876 0.823839
Si Si3 0.564501 0.325839 0.060707
Si Si4 0.053253 0.174248 0.567265
Si Si5 0.750000 0.176286 0.023222
Si Si6 0.250000 0.177143 0.371497
Si Si7 0.067418 0.671168 0.326048
Si Si8 0.750000 0.175583 0.872705
O O1 0.340765 0.772775 0.559511
O O2 0.250000 0.758727 0.446099
O O3 0.250000 0.000000 0.512118
O O4 0.598418 0.500000 0.838909
O O5 0.487026 0.719094 0.871782
O O6 0.533738 0.689239 0.749244
O O7 0.659844 0.768944 0.834851
O O8 0.587089 0.500000 0.056619
O O9 0.659814 0.236620 0.060179
O O10 0.500000 0.275395 0.000000
O O11 0.000000 0.212532 0.500000
O O12 0.013050 0.266942 0.627569
O O13 0.044261 0.000000 0.583435
O O14 0.750000 0.000000 0.026786
O O15 0.750000 0.234900 0.947851
O O16 0.339619 0.235478 0.334236
O O17 0.250000 0.000000 0.369760
O O18 0.087090 0.500000 0.343842
O O19 0.750000 0.000000 0.870932
#
# Coordination Sequence:
#
# PCOD8210062 Si02
#       8
#     4   8   8   8   4   4   8   4
#     4   9  18  34  57  84 108 138 187 236 268 311
#     4  10  22  39  57  80 114 151 189 232 278 330
#     4  10  20  37  62  83 104 150 202 231 261 329
#     4  10  19  36  60  82 109 150 193 230 269 327
#     4  11  23  36  55  88 122 144 173 237 300 331
#     4  11  20  36  59  83 113 149 187 225 273 341
#     4  11  23  37  54  84 120 148 180 233 291 334
#     4  11  22  34  55  87 119 147 179 226 287 343
#
# _framework density 18.258140999999998
#
# number of rings (size 3 to 8) (size 9 to 14) (size 15 to 20)
#    0.000    1.667    3.333    1.750    0.000    5.333 
#    0.000    1.250    0.000    3.000    0.000    0.000 
#    0.000    0.000    0.000    0.000    0.000    0.000 
#
# Total GULP energy -595402.164281 kJ/mol
# GULP energy per Si atom -12404.211756 kJ/mol
# Density = 1.821658 g / cm^3
# Si number density = 18.258141 Si / 1000 Ang^3
#
#
#
# Elastic Constant Matrix: (Units=GPa)
#
#
# Indices 1 2 3 4 5 6 
#
# 1 146.8257 47.8164 65.4343 0.0000 0.0000 0.0000
# 2 47.8164 69.7063 48.0098 0.0000 0.0000 0.0000
# 3 65.4343 48.0098 128.8495 0.0000 0.0000 0.0000
# 4 0.0000 0.0000 0.0000 26.8724 0.0000 0.0000
# 5 0.0000 0.0000 0.0000 0.0000 18.1654 0.0000
# 6 0.0000 0.0000 0.0000 0.0000 0.0000 15.2334
#
#
#
# Elastic Compliance Matrix: (Units=1/GPa)
#
#
# Indices 1 2 3 4 5 6 
#
# 1 0.009709 -0.004391 -0.003294 0.000000 0.000000 0.000000
# 2 -0.004391 0.021284 -0.005701 0.000000 0.000000 0.000000
# 3 -0.003294 -0.005701 0.011558 0.000000 0.000000 0.000000
# 4 0.000000 0.000000 0.000000 0.037213 0.000000 0.000000
# 5 0.000000 0.000000 0.000000 0.000000 0.055050 0.000000
# 6 0.000000 0.000000 0.000000 0.000000 0.000000 0.065645
#
#
# Mechanical properties :
#
#
# Convention : Reuss Voigt Hill
#
# Bulk Modulus (GPa) = 63.37499 74.21139 68.79319
# Shear Modulus (GPa) = 21.50615 24.32897 22.91756
#
# Velocity S-wave (km/s) = 3.43577 3.65430 3.54672
# Velocity P-wave (km/s) = 7.10811 7.65109 7.38459
#
# Compressibility (1/GPa) = 0.01577910
#
# Stress axis : x y z
#
# Youngs Moduli (GPa) = 102.99686 46.98282 86.51914
#
# Poissons Ratio (x) = 0.20630 0.28503
# Poissons Ratio (y) = 0.45227 0.49322
# Poissons Ratio (z) = 0.33932 0.26783
#
# Static dielectric constant tensor:
#      x y z
#    x 3.411880 0.000000 0.000000 
#    y 0.000000 3.273270 0.000000 
#    z 0.000000 0.000000 3.445980 
# 
# 
# High freq. dielectric constant tensor:
#      x y z
#    x 1.708810 0.000000 0.000000 
#    y 0.000000 1.701260 0.000000 
#    z 0.000000 0.000000 1.708570 
# 
# From -- ./inp_files/29698.got.cif
#   From: 2010.03.12/outbox.cif.g09.slc.cpg/sg51_15_cif.got.tgz:29698.got - 2010.04.16 13:43:02.
