data_PCOD8210957
_publ_section_title
;
Structure prediction by ZEFSAII (Michael W. Deem and Ramdas Pophale) SiO2 
 PCOD8210957
Probable space group: P M M A
;
_chemical_formula_sum "Si O2"
_cell_formula_units_Z 40
_cell_length_a 8.905649
_cell_length_b 12.615174
_cell_length_c 18.393619
_cell_angle_alpha 90.000000
_cell_angle_beta 90.000000
_cell_angle_gamma 90.000000
_cell_volume 2066.455254
_symmetry_space_group_name_H-M "P M M A"
_symmetry_group_IT_number 51
_symmetry_cell_setting 'orthorhombic'
loop_
_space_group_symop_operation_xyz
x,y,z
1/2-x,-y,z
1/2+x,-y,-z
-x,y,-z
-x,-y,-z
1/2+x,y,-z
1/2-x,y,z
x,-y,z
loop_
_atom_site_type_symbol
_atom_site_label
_atom_site_fract_x
_atom_site_fract_y
_atom_site_fract_z
Si Si1 0.928843 0.500000 0.839670
Si Si2 0.426710 0.292719 0.077653
Si Si3 0.925458 0.877804 0.342999
Si Si4 0.071898 0.308127 0.423899
Si Si5 0.927933 0.500000 0.676326
Si Si6 0.422658 0.878653 0.193512
O O1 0.750000 0.500000 0.835664
O O2 0.988822 0.602626 0.882348
O O3 0.995260 0.500000 0.757836
O O4 0.250000 0.300302 0.066892
O O5 0.473327 0.191501 0.125446
O O6 0.500000 0.279496 0.000000
O O7 0.750000 0.855383 0.350642
O O8 0.014331 0.807656 0.401024
O O9 0.976575 0.847031 0.262025
O O10 0.965361 0.000000 0.359374
O O11 0.250000 0.305809 0.431854
O O12 0.016813 0.394637 0.365105
O O13 0.000000 0.341350 0.500000
O O14 0.750000 0.500000 0.679652
O O15 0.250000 0.855429 0.214847
O O16 0.447199 0.000000 0.170551
#
# Coordination Sequence:
#
# PCOD8210957 Si02
#       6
#     4   8   8   8   4   8
#     4   9  17  32  53  75 100 133 174 215 258 312
#     4  10  20  33  51  75 105 139 174 215 262 314
#     4  10  21  37  57  82 111 143 182 227 272 320
#     4  11  22  37  58  83 113 146 180 221 270 323
#     4   9  19  36  59  83 106 139 182 225 270 322
#     4   9  18  34  55  77 102 137 180 221 265 319
#
# _framework density 19.356818000000001
#
# number of rings (size 3 to 8) (size 9 to 14) (size 15 to 20)
#    0.000    2.200    0.000    3.000    0.000    6.000 
#    0.000    1.500    0.000    2.400    0.000    0.000 
#    0.000    0.000    0.000    0.000    0.000    0.000 
#
# Total GULP energy -496144.222404 kJ/mol
# GULP energy per Si atom -12403.605560 kJ/mol
# Density = 1.931276 g / cm^3
# Si number density = 19.356818 Si / 1000 Ang^3
#
#
#
# Elastic Constant Matrix: (Units=GPa)
#
#
# Indices 1 2 3 4 5 6 
#
# 1 51.1339 24.8319 21.7979 0.0000 0.0000 0.0000
# 2 24.8319 90.4113 31.2872 0.0000 0.0000 0.0000
# 3 21.7979 31.2872 84.4370 0.0000 0.0000 0.0000
# 4 0.0000 0.0000 0.0000 32.1300 0.0000 0.0000
# 5 0.0000 0.0000 0.0000 0.0000 37.1763 0.0000
# 6 0.0000 0.0000 0.0000 0.0000 0.0000 20.3292
#
#
#
# Elastic Compliance Matrix: (Units=1/GPa)
#
#
# Indices 1 2 3 4 5 6 
#
# 1 0.023841 -0.005068 -0.004277 0.000000 0.000000 0.000000
# 2 -0.005068 0.013765 -0.003792 0.000000 0.000000 0.000000
# 3 -0.004277 -0.003792 0.014352 0.000000 0.000000 0.000000
# 4 0.000000 0.000000 0.000000 0.031124 0.000000 0.000000
# 5 0.000000 0.000000 0.000000 0.000000 0.026899 0.000000
# 6 0.000000 0.000000 0.000000 0.000000 0.000000 0.049190
#
#
# Mechanical properties :
#
#
# Convention : Reuss Voigt Hill
#
# Bulk Modulus (GPa) = 38.93432 42.42403 40.67918
# Shear Modulus (GPa) = 25.77243 27.79810 26.78527
#
# Velocity S-wave (km/s) = 3.65285 3.79369 3.72393
# Velocity P-wave (km/s) = 6.16025 6.41513 6.28898
#
# Compressibility (1/GPa) = 0.02568428
#
# Stress axis : x y z
#
# Youngs Moduli (GPa) = 41.94489 72.64917 69.67519
#
# Poissons Ratio (x) = 0.36819 0.29798
# Poissons Ratio (y) = 0.21258 0.26421
# Poissons Ratio (z) = 0.17939 0.27549
#
# Static dielectric constant tensor:
#      x y z
#    x 3.327660 0.000000 0.000000 
#    y 0.000000 3.727450 0.000000 
#    z 0.000000 0.000000 3.584000 
# 
# 
# High freq. dielectric constant tensor:
#      x y z
#    x 1.730590 0.000000 0.000000 
#    y 0.000000 1.767560 0.000000 
#    z 0.000000 0.000000 1.758520 
# 
# From -- ./inp_files/31466.got.cif
#   From: 2010.03.12/outbox.cif.g09.slc.cpg/sg51_16_cif.got.tgz:31466.got - 2010.04.16 13:43:02.
