data_PCOD8210328
_publ_section_title
;
Structure prediction by ZEFSAII (Michael W. Deem and Ramdas Pophale) SiO2 
 PCOD8210328
Probable space group: P M M A
;
_chemical_formula_sum "Si O2"
_cell_formula_units_Z 48
_cell_length_a 9.070337
_cell_length_b 9.719884
_cell_length_c 30.895756
_cell_angle_alpha 90.000000
_cell_angle_beta 90.000000
_cell_angle_gamma 90.000000
_cell_volume 2723.850903
_symmetry_space_group_name_H-M "P M M A"
_symmetry_group_IT_number 51
_symmetry_cell_setting 'orthorhombic'
loop_
_space_group_symop_operation_xyz
x,y,z
1/2-x,-y,z
1/2+x,-y,-z
-x,y,-z
-x,-y,-z
1/2+x,y,-z
1/2-x,y,z
x,-y,z
loop_
_atom_site_type_symbol
_atom_site_label
_atom_site_fract_x
_atom_site_fract_y
_atom_site_fract_z
Si Si1 0.916573 0.164113 0.457600
Si Si2 0.077149 0.158893 0.712926
Si Si3 0.083866 0.836394 0.373397
Si Si4 0.576387 0.842238 0.956564
Si Si5 0.075035 0.651901 0.119677
Si Si6 0.920314 0.338933 0.783105
O O1 0.750000 0.220478 0.457937
O O2 0.000000 0.220044 0.500000
O O3 0.998919 0.222491 0.415217
O O4 0.917036 0.000000 0.457239
O O5 0.250000 0.178169 0.706229
O O6 0.997856 0.214241 0.669766
O O7 0.023815 0.249315 0.752810
O O8 0.036485 0.000000 0.721934
O O9 0.250000 0.778250 0.373332
O O10 0.084202 0.000000 0.375311
O O11 0.750000 0.822172 0.961845
O O12 0.512435 0.757763 0.915774
O O13 0.533393 0.000000 0.948328
O O14 0.500000 0.786248 0.000000
O O15 0.250000 0.647365 0.117541
O O16 0.011685 0.500000 0.109390
O O17 0.029298 0.697270 0.167980
O O18 0.750000 0.298463 0.775458
O O19 0.944015 0.500000 0.773725
#
# Coordination Sequence:
#
# PCOD8210328 Si02
#       6
#     8   8   8   8   8   8
#     4   9  15  22  33  51  78 113 151 189 231 281
#     4  10  20  32  46  67  95 125 156 191 234 284
#     4   9  16  26  40  58  82 114 152 193 235 278
#     4   9  17  29  45  66  92 121 151 183 221 265
#     4   8  15  29  48  68  89 114 147 187 227 268
#     4   9  18  33  52  72  93 119 154 196 239 282
#
# _framework density 17.622109999999999
#
# number of rings (size 3 to 8) (size 9 to 14) (size 15 to 20)
#    0.000    3.000    0.000    2.500    0.000    6.333 
#    0.000    2.500    0.000    3.000    0.000    0.000 
#    0.000    0.667    0.000    2.500    0.000    5.500 
#
# Total GULP energy -595108.852612 kJ/mol
# GULP energy per Si atom -12398.101096 kJ/mol
# Density = 1.758200 g / cm^3
# Si number density = 17.622110 Si / 1000 Ang^3
#
#
#
# Elastic Constant Matrix: (Units=GPa)
#
#
# Indices 1 2 3 4 5 6 
#
# 1 94.1594 29.8683 65.7222 0.0000 0.0000 0.0000
# 2 29.8683 43.5530 58.0255 0.0000 0.0000 0.0000
# 3 65.7222 58.0255 174.2042 0.0000 0.0000 0.0000
# 4 0.0000 0.0000 0.0000 1.9650 0.0000 0.0000
# 5 0.0000 0.0000 0.0000 0.0000 34.4663 0.0000
# 6 0.0000 0.0000 0.0000 0.0000 0.0000 16.3260
#
#
#
# Elastic Compliance Matrix: (Units=1/GPa)
#
#
# Indices 1 2 3 4 5 6 
#
# 1 0.014984 -0.004934 -0.004010 0.000000 0.000000 0.000000
# 2 -0.004934 0.042904 -0.012429 0.000000 0.000000 0.000000
# 3 -0.004010 -0.012429 0.011393 0.000000 0.000000 0.000000
# 4 0.000000 0.000000 0.000000 0.508904 0.000000 0.000000
# 5 0.000000 0.000000 0.000000 0.000000 0.029014 0.000000
# 6 0.000000 0.000000 0.000000 0.000000 0.000000 0.061252
#
#
# Mechanical properties :
#
#
# Convention : Reuss Voigt Hill
#
# Bulk Modulus (GPa) = 37.68583 68.79430 53.24007
# Shear Modulus (GPa) = 6.94404 21.10484 14.02444
#
# Velocity S-wave (km/s) = 1.98723 3.46444 2.82413
# Velocity P-wave (km/s) = 5.16695 7.42472 6.39625
#
# Compressibility (1/GPa) = 0.02653517
#
# Stress axis : x y z
#
# Youngs Moduli (GPa) = 66.73762 23.30799 87.77189
#
# Poissons Ratio (x) = 0.11500 0.35193
# Poissons Ratio (y) = 0.32928 1.09095
# Poissons Ratio (z) = 0.26759 0.28970
#
# Static dielectric constant tensor:
#      x y z
#    x 3.180030 0.000000 0.000000 
#    y 0.000000 2.972490 0.000000 
#    z 0.000000 0.000000 3.523370 
# 
# 
# High freq. dielectric constant tensor:
#      x y z
#    x 1.671530 0.000000 0.000000 
#    y 0.000000 1.634620 0.000000 
#    z 0.000000 0.000000 1.696910 
# 
# From -- ./inp_files/36122.got.cif
#   From: 2010.03.12/outbox.cif.g09.slc.cpg/sg51_19_cif.got.tgz:36122.got - 2010.04.16 13:43:02.
