data_PCOD8210801
_publ_section_title
;
Structure prediction by ZEFSAII (Michael W. Deem and Ramdas Pophale) SiO2 
 PCOD8210801
Probable space group: P M M A
;
_chemical_formula_sum "Si O2"
_cell_formula_units_Z 40
_cell_length_a 8.973913
_cell_length_b 20.261106
_cell_length_c 13.955711
_cell_angle_alpha 90.000000
_cell_angle_beta 90.000000
_cell_angle_gamma 90.000000
_cell_volume 2537.446947
_symmetry_space_group_name_H-M "P M M A"
_symmetry_group_IT_number 51
_symmetry_cell_setting 'orthorhombic'
loop_
_space_group_symop_operation_xyz
x,y,z
1/2-x,-y,z
1/2+x,-y,-z
-x,y,-z
-x,-y,-z
1/2+x,y,-z
1/2-x,y,z
x,-y,z
loop_
_atom_site_type_symbol
_atom_site_label
_atom_site_fract_x
_atom_site_fract_y
_atom_site_fract_z
Si Si1 0.418584 0.252452 0.597877
Si Si2 0.919119 0.817366 0.217040
Si Si3 0.575226 0.425602 0.902254
Si Si4 0.924372 0.076226 0.901395
Si Si5 0.573595 0.689359 0.763706
O O1 0.500000 0.234697 0.500000
O O2 0.250000 0.275306 0.576611
O O3 0.420499 0.187214 0.666273
O O4 0.504383 0.311168 0.655766
O O5 0.750000 0.818877 0.177818
O O6 0.005934 0.882684 0.185623
O O7 0.003387 0.751564 0.177440
O O8 0.750000 0.421544 0.918984
O O9 0.524471 0.500000 0.875981
O O10 0.525643 0.378051 0.815854
O O11 0.500000 0.401334 0.000000
O O12 0.750000 0.090043 0.908840
O O13 0.959688 0.000000 0.880410
O O14 0.000000 0.099371 0.000000
O O15 0.750000 0.697824 0.757875
#
# Coordination Sequence:
#
# PCOD8210801 Si02
#       5
#     8   8   8   8   8
#     4   9  18  31  50  73  95 121 154 194 241 287
#     4   9  19  32  48  72  97 124 159 197 235 281
#     4   9  18  31  47  68  95 129 163 194 234 280
#     4  10  20  33  50  71  97 130 163 195 234 280
#     4   9  17  30  48  70  96 126 158 198 238 279
#
# _framework density 15.763876
#
# number of rings (size 3 to 8) (size 9 to 14) (size 15 to 20)
#    1.200    1.600    0.000    1.800    0.000    3.600 
#    0.000    2.000    0.000    1.200    0.000    0.000 
#    0.000    0.000    0.000    0.000    0.000    0.000 
#
# Total GULP energy -495652.277786 kJ/mol
# GULP energy per Si atom -12391.306945 kJ/mol
# Density = 1.572800 g / cm^3
# Si number density = 15.763876 Si / 1000 Ang^3
#
#
#
# Elastic Constant Matrix: (Units=GPa)
#
#
# Indices 1 2 3 4 5 6 
#
# 1 102.6494 47.1583 48.8392 0.0000 0.0000 0.0000
# 2 47.1583 77.8448 50.5295 0.0000 0.0000 0.0000
# 3 48.8392 50.5295 92.1314 0.0000 0.0000 0.0000
# 4 0.0000 0.0000 0.0000 13.2672 0.0000 0.0000
# 5 0.0000 0.0000 0.0000 0.0000 30.8265 0.0000
# 6 0.0000 0.0000 0.0000 0.0000 0.0000 21.6223
#
#
#
# Elastic Compliance Matrix: (Units=1/GPa)
#
#
# Indices 1 2 3 4 5 6 
#
# 1 0.014603 -0.005934 -0.004486 0.000000 0.000000 0.000000
# 2 -0.005934 0.022359 -0.009117 0.000000 0.000000 0.000000
# 3 -0.004486 -0.009117 0.018233 0.000000 0.000000 0.000000
# 4 0.000000 0.000000 0.000000 0.075374 0.000000 0.000000
# 5 0.000000 0.000000 0.000000 0.000000 0.032440 0.000000
# 6 0.000000 0.000000 0.000000 0.000000 0.000000 0.046249
#
#
# Mechanical properties :
#
#
# Convention : Reuss Voigt Hill
#
# Bulk Modulus (GPa) = 62.03845 62.85329 62.44587
# Shear Modulus (GPa) = 19.70801 21.54978 20.62889
#
# Velocity S-wave (km/s) = 3.53965 3.70136 3.62141
# Velocity P-wave (km/s) = 7.49305 7.63053 7.56210
#
# Compressibility (1/GPa) = 0.01611903
#
# Stress axis : x y z
#
# Youngs Moduli (GPa) = 68.48067 44.72499 54.84710
#
# Poissons Ratio (x) = 0.26541 0.24606
# Poissons Ratio (y) = 0.40638 0.50004
# Poissons Ratio (z) = 0.30723 0.40776
#
# Static dielectric constant tensor:
#      x y z
#    x 3.097980 0.000000 0.000000 
#    y 0.000000 2.886100 0.000000 
#    z 0.000000 0.000000 2.823210 
# 
# 
# High freq. dielectric constant tensor:
#      x y z
#    x 1.624550 0.000000 0.000000 
#    y 0.000000 1.584080 0.000000 
#    z 0.000000 0.000000 1.585480 
# 
# From -- ./inp_files/21303.got.cif
#   From: 2010.03.12/outbox.cif.g09.slc.cpg/sg51_11_cif.got.tgz:21303.got - 2010.04.16 13:43:02.
