data_PCOD8210833
_publ_section_title
;
Structure prediction by ZEFSAII (Michael W. Deem and Ramdas Pophale) SiO2 
 PCOD8210833
Probable space group: P M M A
;
_chemical_formula_sum "Si O2"
_cell_formula_units_Z 48
_cell_length_a 9.067165
_cell_length_b 9.013004
_cell_length_c 30.892751
_cell_angle_alpha 90.000000
_cell_angle_beta 90.000000
_cell_angle_gamma 90.000000
_cell_volume 2524.629582
_symmetry_space_group_name_H-M "P M M A"
_symmetry_group_IT_number 51
_symmetry_cell_setting 'orthorhombic'
loop_
_space_group_symop_operation_xyz
x,y,z
1/2-x,-y,z
1/2+x,-y,-z
-x,y,-z
-x,-y,-z
1/2+x,y,-z
1/2-x,y,z
x,-y,z
loop_
_atom_site_type_symbol
_atom_site_label
_atom_site_fract_x
_atom_site_fract_y
_atom_site_fract_z
Si Si1 0.081099 0.174308 0.209625
Si Si2 0.916617 0.676996 0.457602
Si Si3 0.577208 0.328694 0.287213
Si Si4 0.577211 0.829634 0.043926
Si Si5 0.916319 0.323436 0.626682
Si Si6 0.580985 0.673673 0.878908
O O1 0.250000 0.218232 0.220109
O O2 0.028948 0.247161 0.164904
O O3 0.976185 0.232822 0.247066
O O4 0.061005 0.000000 0.205098
O O5 0.750000 0.737736 0.457924
O O6 0.917251 0.500000 0.457283
O O7 0.000000 0.737473 0.500000
O O8 0.998907 0.739821 0.415195
O O9 0.750000 0.306958 0.293863
O O10 0.536374 0.500000 0.278754
O O11 0.497631 0.267540 0.330174
O O12 0.750000 0.807067 0.038048
O O13 0.521844 0.727791 0.082596
O O14 0.536018 0.000000 0.054060
O O15 0.500000 0.775793 0.000000
O O16 0.750000 0.261394 0.626577
O O17 0.917063 0.500000 0.625127
O O18 0.750000 0.714902 0.889688
O O19 0.559297 0.500000 0.872363
#
# Coordination Sequence:
#
# PCOD8210833 Si02
#       6
#     8   8   8   8   8   8
#     4  10  21  37  57  79 103 134 172 213 258 309
#     4   9  15  22  33  52  82 120 161 203 248 301
#     4  10  20  33  50  73 101 133 169 210 257 309
#     4  10  21  37  58  83 111 145 183 221 262 308
#     4   9  16  26  41  61  87 122 163 206 253 304
#     4  10  21  37  58  83 110 141 177 217 262 311
#
# _framework density 19.012691
#
# number of rings (size 3 to 8) (size 9 to 14) (size 15 to 20)
#    0.000    2.333    0.000    3.000    0.000    9.000 
#    0.000    0.000    0.000    0.000    0.000    0.000 
#    0.000    0.667    0.000    2.500    0.000    5.500 
#
# Total GULP energy -595367.302385 kJ/mol
# GULP energy per Si atom -12403.485466 kJ/mol
# Density = 1.896942 g / cm^3
# Si number density = 19.012691 Si / 1000 Ang^3
#
#
#
# Elastic Constant Matrix: (Units=GPa)
#
#
# Indices 1 2 3 4 5 6 
#
# 1 124.7638 32.3965 80.5956 0.0000 0.0000 0.0000
# 2 32.3965 48.3689 44.3398 0.0000 0.0000 0.0000
# 3 80.5956 44.3398 169.8701 0.0000 0.0000 0.0000
# 4 0.0000 0.0000 0.0000 -9.9235 0.0000 0.0000
# 5 0.0000 0.0000 0.0000 0.0000 40.3979 0.0000
# 6 0.0000 0.0000 0.0000 0.0000 0.0000 21.3272
#
#
#
# Elastic Compliance Matrix: (Units=1/GPa)
#
#
# Indices 1 2 3 4 5 6 
#
# 1 0.012046 -0.003719 -0.004744 0.000000 0.000000 0.000000
# 2 -0.003719 0.028325 -0.005629 0.000000 0.000000 0.000000
# 3 -0.004744 -0.005629 0.009607 0.000000 0.000000 0.000000
# 4 0.000000 0.000000 0.000000 -0.100771 0.000000 0.000000
# 5 0.000000 0.000000 0.000000 0.000000 0.024754 0.000000
# 6 0.000000 0.000000 0.000000 0.000000 0.000000 0.046889
#
#
# Mechanical properties :
#
#
# Convention : Reuss Voigt Hill
#
# Bulk Modulus (GPa) = 45.88503 73.07408 59.47955
# Shear Modulus (GPa) = 88.81181 22.73838 55.77510
#
# Velocity S-wave (km/s) = 6.84202 3.46201 5.42212
# Velocity P-wave (km/s) = 9.30613 7.38231 8.39948
#
# Compressibility (1/GPa) = 0.02179360
#
# Stress axis : x y z
#
# Youngs Moduli (GPa) = 83.01806 35.30397 104.08854
#
# Poissons Ratio (x) = 0.13128 0.49384
# Poissons Ratio (y) = 0.30872 0.58594
# Poissons Ratio (z) = 0.39387 0.19873
#
# Static dielectric constant tensor:
#      x y z
#    x 3.571860 0.000000 0.000000 
#    y 0.000000 3.074540 0.000000 
#    z 0.000000 0.000000 3.635000 
# 
# 
# High freq. dielectric constant tensor:
#      x y z
#    x 1.747870 0.000000 0.000000 
#    y 0.000000 1.696420 0.000000 
#    z 0.000000 0.000000 1.754980 
# 
# From -- ./inp_files/36898.got.cif
#   From: 2010.03.12/outbox.cif.g09.slc.cpg/sg51_19_cif.got.tgz:36898.got - 2010.04.16 13:43:02.
