data_PCOD8210712
_publ_section_title
;
Structure prediction by ZEFSAII (Michael W. Deem and Ramdas Pophale) SiO2 
 PCOD8210712
Probable space group: P M M A
;
_chemical_formula_sum "Si O2"
_cell_formula_units_Z 64
_cell_length_a 9.112918
_cell_length_b 18.055131
_cell_length_c 26.541527
_cell_angle_alpha 90.000000
_cell_angle_beta 90.000000
_cell_angle_gamma 90.000000
_cell_volume 4367.008241
_symmetry_space_group_name_H-M "P M M A"
_symmetry_group_IT_number 51
_symmetry_cell_setting 'orthorhombic'
loop_
_space_group_symop_operation_xyz
x,y,z
1/2-x,-y,z
1/2+x,-y,-z
-x,y,-z
-x,-y,-z
1/2+x,y,-z
1/2-x,y,z
x,-y,z
loop_
_atom_site_type_symbol
_atom_site_label
_atom_site_fract_x
_atom_site_fract_y
_atom_site_fract_z
Si Si1 0.924964 0.349245 0.948397
Si Si2 0.911951 0.795823 0.896740
Si Si3 0.581398 0.414135 0.146598
Si Si4 0.915049 0.702570 0.795148
Si Si5 0.584538 0.911782 0.548572
Si Si6 0.422408 0.917185 0.846345
Si Si7 0.578598 0.085140 0.352286
Si Si8 0.922462 0.828964 0.252583
O O1 0.750000 0.361672 0.949864
O O2 0.963781 0.262240 0.939474
O O3 0.992102 0.399611 0.904525
O O4 0.000000 0.375051 0.000000
O O5 0.750000 0.825907 0.909062
O O6 0.911583 0.750680 0.845259
O O7 0.017116 0.866825 0.892156
O O8 0.750000 0.388063 0.139570
O O9 0.572608 0.500000 0.160169
O O10 0.509088 0.371066 0.193760
O O11 0.750000 0.681188 0.778265
O O12 0.992695 0.750950 0.751580
O O13 0.500000 0.879517 0.500000
O O14 0.750000 0.881555 0.547526
O O15 0.506718 0.883405 0.599322
O O16 0.580704 0.000000 0.547173
O O17 0.250000 0.918941 0.852147
O O18 0.469082 0.884191 0.792393
O O19 0.487659 0.000000 0.850603
O O20 0.750000 0.093058 0.363472
O O21 0.529514 0.132996 0.304460
O O22 0.537334 0.000000 0.341161
O O23 0.750000 0.812919 0.250539
#
# Coordination Sequence:
#
# PCOD8210712 Si02
#       8
#     8   8   8   8   8   8   8   8
#     4  10  20  33  49  67  86 107 131 158 190 229
#     4   8  16  29  42  58  78 101 128 156 189 229
#     4  10  20  33  49  68  88 109 133 159 187 223
#     4   9  17  29  44  61  82 107 134 162 192 230
#     4   9  16  25  36  49  67  95 133 176 219 260
#     4   9  16  25  39  59  79 100 128 161 197 236
#     4   9  16  25  37  54  77 105 138 177 218 254
#     4   9  16  26  40  57  80 108 135 165 202 243
#
# _framework density 14.655341999999999
#
# number of rings (size 3 to 8) (size 9 to 14) (size 15 to 20)
#    0.000    2.875    0.000    2.625    0.000    8.500 
#    0.000    0.000    0.000    2.625    0.000    0.000 
#    0.000    0.000    0.000    0.000    0.000    0.625 
#
# Total GULP energy -793416.242938 kJ/mol
# GULP energy per Si atom -12397.128796 kJ/mol
# Density = 1.462199 g / cm^3
# Si number density = 14.655342 Si / 1000 Ang^3
#
#
#
# Elastic Constant Matrix: (Units=GPa)
#
#
# Indices 1 2 3 4 5 6 
#
# 1 78.5359 39.2134 33.8644 0.0000 0.0000 0.0000
# 2 39.2134 71.0937 28.5325 0.0000 0.0000 0.0000
# 3 33.8644 28.5325 58.9012 0.0000 0.0000 0.0000
# 4 0.0000 0.0000 0.0000 12.4647 0.0000 0.0000
# 5 0.0000 0.0000 0.0000 0.0000 23.0534 0.0000
# 6 0.0000 0.0000 0.0000 0.0000 0.0000 19.6916
#
#
#
# Elastic Compliance Matrix: (Units=1/GPa)
#
#
# Indices 1 2 3 4 5 6 
#
# 1 0.020007 -0.007968 -0.007643 0.000000 0.000000 0.000000
# 2 -0.007968 0.020634 -0.005414 0.000000 0.000000 0.000000
# 3 -0.007643 -0.005414 0.023995 0.000000 0.000000 0.000000
# 4 0.000000 0.000000 0.000000 0.080227 0.000000 0.000000
# 5 0.000000 0.000000 0.000000 0.000000 0.043378 0.000000
# 6 0.000000 0.000000 0.000000 0.000000 0.000000 0.050783
#
#
# Mechanical properties :
#
#
# Convention : Reuss Voigt Hill
#
# Bulk Modulus (GPa) = 44.27706 45.75015 45.01360
# Shear Modulus (GPa) = 17.32493 18.16996 17.74745
#
# Velocity S-wave (km/s) = 3.44198 3.52493 3.48370
# Velocity P-wave (km/s) = 6.78779 6.91751 6.85296
#
# Compressibility (1/GPa) = 0.02258506
#
# Stress axis : x y z
#
# Youngs Moduli (GPa) = 49.98220 48.46420 41.67610
#
# Poissons Ratio (x) = 0.38616 0.31853
# Poissons Ratio (y) = 0.39826 0.22564
# Poissons Ratio (z) = 0.38202 0.26240
#
# Static dielectric constant tensor:
#      x y z
#    x 2.992520 0.000000 0.000000 
#    y 0.000000 2.736930 0.000000 
#    z 0.000000 0.000000 2.732580 
# 
# 
# High freq. dielectric constant tensor:
#      x y z
#    x 1.571890 0.000000 0.000000 
#    y 0.000000 1.530160 0.000000 
#    z 0.000000 0.000000 1.531790 
# 
# From -- ./inp_files/35117.got.cif
#   From: 2010.03.12/outbox.cif.g09.slc.cpg/sg51_18_cif.got.tgz:35117.got - 2010.04.16 13:43:02.
