data_PCOD8210609
_publ_section_title
;
Structure prediction by ZEFSAII (Michael W. Deem and Ramdas Pophale) SiO2 
 PCOD8210609
Probable space group: P M M A
;
_chemical_formula_sum "Si O2"
_cell_formula_units_Z 32
_cell_length_a 7.610207
_cell_length_b 9.619689
_cell_length_c 24.043574
_cell_angle_alpha 90.000000
_cell_angle_beta 90.000000
_cell_angle_gamma 90.000000
_cell_volume 1760.177747
_symmetry_space_group_name_H-M "P M M A"
_symmetry_group_IT_number 51
_symmetry_cell_setting 'orthorhombic'
loop_
_space_group_symop_operation_xyz
x,y,z
1/2-x,-y,z
1/2+x,-y,-z
-x,y,-z
-x,-y,-z
1/2+x,y,-z
1/2-x,y,z
x,-y,z
loop_
_atom_site_type_symbol
_atom_site_label
_atom_site_fract_x
_atom_site_fract_y
_atom_site_fract_z
Si Si1 0.445516 0.834973 0.560065
Si Si2 0.750000 0.339500 0.751998
Si Si3 0.750000 0.834738 0.641157
Si Si4 0.455513 0.845522 0.939612
Si Si5 0.952459 0.339714 0.161068
O O1 0.500000 0.773316 0.500000
O O2 0.250000 0.782834 0.575558
O O3 0.578923 0.783522 0.607326
O O4 0.452494 0.000000 0.556403
O O5 0.750000 0.500000 0.733070
O O6 0.750000 0.239407 0.699809
O O7 0.573816 0.304916 0.786368
O O8 0.750000 0.000000 0.650260
O O9 0.250000 0.855598 0.932025
O O10 0.528780 0.747113 0.891048
O O11 0.540355 0.000000 0.934550
O O12 0.500000 0.781112 0.000000
O O13 0.750000 0.302032 0.175844
O O14 0.970035 0.500000 0.144039
#
# Coordination Sequence:
#
# PCOD8210609 Si02
#       5
#     8   4   4   8   8
#     4   9  15  26  47  76 108 136 163 204 253 295
#     4  10  22  38  54  72 100 138 175 210 251 298
#     4  10  20  32  50  80 106 130 171 210 247 298
#     4   9  18  31  48  74 104 130 158 199 255 310
#     4   9  19  36  54  71  94 129 172 212 249 293
#
# _framework density 18.179981000000002
#
# number of rings (size 3 to 8) (size 9 to 14) (size 15 to 20)
#    0.000    2.750    1.250    0.000    1.750    2.500 
#    0.000    0.000    0.000    0.750    0.000    0.000 
#    0.000    0.000    0.000    0.000    0.000    0.000 
#
# Total GULP energy -396701.021339 kJ/mol
# GULP energy per Si atom -12396.906917 kJ/mol
# Density = 1.813860 g / cm^3
# Si number density = 18.179981 Si / 1000 Ang^3
#
#
#
# Elastic Constant Matrix: (Units=GPa)
#
#
# Indices 1 2 3 4 5 6 
#
# 1 120.1223 34.0249 70.7505 0.0000 0.0000 0.0000
# 2 34.0249 52.1530 66.1271 0.0000 0.0000 0.0000
# 3 70.7505 66.1271 164.4215 0.0000 0.0000 0.0000
# 4 0.0000 0.0000 0.0000 -10.7410 0.0000 0.0000
# 5 0.0000 0.0000 0.0000 0.0000 29.9986 0.0000
# 6 0.0000 0.0000 0.0000 0.0000 0.0000 12.2071
#
#
#
# Elastic Compliance Matrix: (Units=1/GPa)
#
#
# Indices 1 2 3 4 5 6 
#
# 1 0.011304 -0.002464 -0.003873 0.000000 0.000000 0.000000
# 2 -0.002464 0.039664 -0.014892 0.000000 0.000000 0.000000
# 3 -0.003873 -0.014892 0.013738 0.000000 0.000000 0.000000
# 4 0.000000 0.000000 0.000000 -0.093101 0.000000 0.000000
# 5 0.000000 0.000000 0.000000 0.000000 0.033335 0.000000
# 6 0.000000 0.000000 0.000000 0.000000 0.000000 0.081919
#
#
# Mechanical properties :
#
#
# Convention : Reuss Voigt Hill
#
# Bulk Modulus (GPa) = 44.94805 75.38906 60.16856
# Shear Modulus (GPa) = 36.56789 17.34590 26.95689
#
# Velocity S-wave (km/s) = 4.48977 3.09224 3.85486
# Velocity P-wave (km/s) = 7.18714 7.36936 7.27882
#
# Compressibility (1/GPa) = 0.02224791
#
# Stress axis : x y z
#
# Youngs Moduli (GPa) = 88.46433 25.21196 72.79192
#
# Poissons Ratio (x) = 0.06212 0.28194
# Poissons Ratio (y) = 0.21795 1.08401
# Poissons Ratio (z) = 0.34264 0.37545
#
# Static dielectric constant tensor:
#      x y z
#    x 3.654360 0.000000 0.000000 
#    y 0.000000 3.218230 0.000000 
#    z 0.000000 0.000000 3.293310 
# 
# 
# High freq. dielectric constant tensor:
#      x y z
#    x 1.717320 0.000000 0.000000 
#    y 0.000000 1.667470 0.000000 
#    z 0.000000 0.000000 1.699730 
# 
# From -- ./inp_files/26979.got.cif
#   From: 2010.03.12/outbox.cif.g09.slc.cpg/sg51_14_cif.got.tgz:26979.got - 2010.04.16 13:43:02.
