data_PCOD8210423
_publ_section_title
;
Structure prediction by ZEFSAII (Michael W. Deem and Ramdas Pophale) SiO2 
 PCOD8210423
Probable space group: P M M A
;
_chemical_formula_sum "Si O2"
_cell_formula_units_Z 48
_cell_length_a 9.087911
_cell_length_b 9.688960
_cell_length_c 30.907141
_cell_angle_alpha 90.000000
_cell_angle_beta 90.000000
_cell_angle_gamma 90.000000
_cell_volume 2721.448133
_symmetry_space_group_name_H-M "P M M A"
_symmetry_group_IT_number 51
_symmetry_cell_setting 'orthorhombic'
loop_
_space_group_symop_operation_xyz
x,y,z
1/2-x,-y,z
1/2+x,-y,-z
-x,y,-z
-x,-y,-z
1/2+x,y,-z
1/2-x,y,z
x,-y,z
loop_
_atom_site_type_symbol
_atom_site_label
_atom_site_fract_x
_atom_site_fract_y
_atom_site_fract_z
Si Si1 0.922868 0.340867 0.372445
Si Si2 0.583899 0.335580 0.541907
Si Si3 0.575430 0.152335 0.295464
Si Si4 0.915816 0.335801 0.041808
Si Si5 0.422441 0.659512 0.127994
Si Si6 0.419817 0.161715 0.801637
O O1 0.750000 0.318375 0.379193
O O2 0.961422 0.500000 0.364451
O O3 0.985486 0.259082 0.330941
O O4 0.002999 0.282440 0.414986
O O5 0.500000 0.275757 0.500000
O O6 0.750000 0.279178 0.541554
O O7 0.580917 0.500000 0.540687
O O8 0.750000 0.147084 0.297402
O O9 0.529468 0.198185 0.247226
O O10 0.511862 0.000000 0.305737
O O11 0.750000 0.277511 0.042174
O O12 0.915445 0.500000 0.039687
O O13 0.998017 0.285311 0.084883
O O14 0.000000 0.275341 0.000000
O O15 0.250000 0.679960 0.121310
O O16 0.462111 0.500000 0.136949
O O17 0.476258 0.749523 0.167944
O O18 0.250000 0.203212 0.809271
O O19 0.442349 0.000000 0.810875
#
# Coordination Sequence:
#
# PCOD8210423 Si02
#       6
#     8   8   8   8   8   8
#     4   9  16  26  43  68  93 116 146 184 224 266
#     4   9  16  26  41  62  89 119 148 180 220 265
#     4   8  15  29  48  68  90 118 152 188 227 274
#     4   9  16  27  45  69  97 128 160 195 236 282
#     4  10  20  32  47  71 101 130 162 200 240 282
#     4   9  18  33  52  72  94 124 163 202 240 286
#
# _framework density 17.637668000000001
#
# number of rings (size 3 to 8) (size 9 to 14) (size 15 to 20)
#    0.000    3.000    0.000    2.500    0.000    6.000 
#    0.000    2.500    0.000    4.500    0.000    0.000 
#    0.000    0.000    0.000    0.000    0.000    0.000 
#
# Total GULP energy -595106.967113 kJ/mol
# GULP energy per Si atom -12398.061815 kJ/mol
# Density = 1.759752 g / cm^3
# Si number density = 17.637668 Si / 1000 Ang^3
#
#
#
# Elastic Constant Matrix: (Units=GPa)
#
#
# Indices 1 2 3 4 5 6 
#
# 1 91.5975 31.8065 68.0865 0.0000 0.0000 0.0000
# 2 31.8065 43.8376 58.2069 0.0000 0.0000 0.0000
# 3 68.0865 58.2069 176.1973 0.0000 0.0000 0.0000
# 4 0.0000 0.0000 0.0000 1.7401 0.0000 0.0000
# 5 0.0000 0.0000 0.0000 0.0000 32.7804 0.0000
# 6 0.0000 0.0000 0.0000 0.0000 0.0000 15.9889
#
#
#
# Elastic Compliance Matrix: (Units=1/GPa)
#
#
# Indices 1 2 3 4 5 6 
#
# 1 0.016191 -0.006128 -0.004232 0.000000 0.000000 0.000000
# 2 -0.006128 0.042955 -0.011822 0.000000 0.000000 0.000000
# 3 -0.004232 -0.011822 0.011216 0.000000 0.000000 0.000000
# 4 0.000000 0.000000 0.000000 0.574691 0.000000 0.000000
# 5 0.000000 0.000000 0.000000 0.000000 0.030506 0.000000
# 6 0.000000 0.000000 0.000000 0.000000 0.000000 0.062543
#
#
# Mechanical properties :
#
#
# Convention : Reuss Voigt Hill
#
# Bulk Modulus (GPa) = 38.46510 69.75914 54.11212
# Shear Modulus (GPa) = 6.32004 20.33737 13.32871
#
# Velocity S-wave (km/s) = 1.89500 3.39936 2.75197
# Velocity P-wave (km/s) = 5.16177 7.41921 6.39095
#
# Compressibility (1/GPa) = 0.02599759
#
# Stress axis : x y z
#
# Youngs Moduli (GPa) = 61.76213 23.28014 89.15558
#
# Poissons Ratio (x) = 0.14266 0.37732
# Poissons Ratio (y) = 0.37848 1.05402
# Poissons Ratio (z) = 0.26139 0.27522
#
# Static dielectric constant tensor:
#      x y z
#    x 3.184300 0.000000 0.000000 
#    y 0.000000 2.991000 0.000000 
#    z 0.000000 0.000000 3.525840 
# 
# 
# High freq. dielectric constant tensor:
#      x y z
#    x 1.671110 0.000000 0.000000 
#    y 0.000000 1.637340 0.000000 
#    z 0.000000 0.000000 1.697730 
# 
# From -- ./inp_files/34538.got.cif
#   From: 2010.03.12/outbox.cif.g09.slc.cpg/sg51_18_cif.got.tgz:34538.got - 2010.04.16 13:43:02.
