data_PCOD8210370
_publ_section_title
;
Structure prediction by ZEFSAII (Michael W. Deem and Ramdas Pophale) SiO2 
 PCOD8210370
Probable space group: P M M A
;
_chemical_formula_sum "Si O2"
_cell_formula_units_Z 40
_cell_length_a 18.572543
_cell_length_b 9.820477
_cell_length_c 12.843349
_cell_angle_alpha 90.000000
_cell_angle_beta 90.000000
_cell_angle_gamma 90.000000
_cell_volume 2342.514239
_symmetry_space_group_name_H-M "P M M A"
_symmetry_group_IT_number 51
_symmetry_cell_setting 'orthorhombic'
loop_
_space_group_symop_operation_xyz
x,y,z
1/2-x,-y,z
1/2+x,-y,-z
-x,y,-z
-x,-y,-z
1/2+x,y,-z
1/2-x,y,z
x,-y,z
loop_
_atom_site_type_symbol
_atom_site_label
_atom_site_fract_x
_atom_site_fract_y
_atom_site_fract_z
Si Si1 0.084284 0.658686 0.498413
Si Si2 0.170102 0.661673 0.697803
Si Si3 0.833576 0.841425 0.664242
Si Si4 0.664608 0.849721 0.899253
Si Si5 0.835836 0.348440 0.074234
O O1 0.102639 0.500000 0.479705
O O2 0.115970 0.711325 0.608379
O O3 0.118480 0.746069 0.407154
O O4 0.000000 0.685377 0.500000
O O5 0.250000 0.720494 0.673865
O O6 0.174297 0.500000 0.702050
O O7 0.142414 0.710940 0.811703
O O8 0.750000 0.808573 0.644004
O O9 0.855550 0.804179 0.782492
O O10 0.849222 0.000000 0.641216
O O11 0.750000 0.853834 0.909810
O O12 0.633301 0.000000 0.921947
O O13 0.630968 0.746545 0.983815
O O14 0.750000 0.353304 0.067626
O O15 0.867361 0.500000 0.057420
#
# Coordination Sequence:
#
# PCOD8210370 Si02
#       5
#     8   8   8   8   8
#     4  10  20  32  47  68  93 122 157 194 231 273
#     4   8  14  26  44  65  90 118 146 182 228 269
#     4   9  18  32  49  69  93 121 152 186 227 274
#     4   8  14  25  41  63  91 116 138 175 226 269
#     4   8  13  22  39  63  87 111 141 176 217 267
#
# _framework density 17.075669999999999
#
# number of rings (size 3 to 8) (size 9 to 14) (size 15 to 20)
#    0.000    3.400    0.000    3.000    0.000    2.400 
#    0.000    3.000    0.000    4.800    0.000    8.400 
#    0.000    0.000    0.000    0.000    0.000    0.000 
#
# Total GULP energy -495727.835167 kJ/mol
# GULP energy per Si atom -12393.195879 kJ/mol
# Density = 1.703680 g / cm^3
# Si number density = 17.075670 Si / 1000 Ang^3
#
#
#
# Elastic Constant Matrix: (Units=GPa)
#
#
# Indices 1 2 3 4 5 6 
#
# 1 56.7604 38.4298 57.6869 0.0000 0.0000 0.0000
# 2 38.4298 73.7913 80.9004 0.0000 0.0000 0.0000
# 3 57.6869 80.9004 172.7035 0.0000 0.0000 0.0000
# 4 0.0000 0.0000 0.0000 8.4038 0.0000 0.0000
# 5 0.0000 0.0000 0.0000 0.0000 0.0577 0.0000
# 6 0.0000 0.0000 0.0000 0.0000 0.0000 13.9896
#
#
#
# Elastic Compliance Matrix: (Units=1/GPa)
#
#
# Indices 1 2 3 4 5 6 
#
# 1 0.029528 -0.009384 -0.005467 0.000000 0.000000 0.000000
# 2 -0.009384 0.030841 -0.011313 0.000000 0.000000 0.000000
# 3 -0.005467 -0.011313 0.012916 0.000000 0.000000 0.000000
# 4 0.000000 0.000000 0.000000 0.118994 0.000000 0.000000
# 5 0.000000 0.000000 0.000000 0.000000 17.322952 0.000000
# 6 0.000000 0.000000 0.000000 0.000000 0.000000 0.071481
#
#
# Mechanical properties :
#
#
# Convention : Reuss Voigt Hill
#
# Bulk Modulus (GPa) = 47.71621 73.03214 60.37417
# Shear Modulus (GPa) = 0.28335 12.90610 6.59473
#
# Velocity S-wave (km/s) = 0.40780 2.75220 1.96734
# Velocity P-wave (km/s) = 5.31285 7.27750 6.37136
#
# Compressibility (1/GPa) = 0.02095724
#
# Stress axis : x y z
#
# Youngs Moduli (GPa) = 33.86642 32.42394 77.42478
#
# Poissons Ratio (x) = 0.30426 0.42330
# Poissons Ratio (y) = 0.31780 0.87589
# Poissons Ratio (z) = 0.18516 0.36681
#
# Static dielectric constant tensor:
#      x y z
#    x 2.542120 0.000000 0.000000 
#    y 0.000000 3.212080 0.000000 
#    z 0.000000 0.000000 3.545020 
# 
# 
# High freq. dielectric constant tensor:
#      x y z
#    x 1.610040 0.000000 0.000000 
#    y 0.000000 1.639040 0.000000 
#    z 0.000000 0.000000 1.675180 
# 
# From -- ./inp_files/10659.got.cif
#   From: 2010.03.12/outbox.cif.g09.slc.cpg/sg51_6_cif.got.tgz:10659.got - 2010.04.16 13:43:02.
