data_PCOD8210525
_publ_section_title
;
Structure prediction by ZEFSAII (Michael W. Deem and Ramdas Pophale) SiO2 
 PCOD8210525
Probable space group: P M M A
;
_chemical_formula_sum "Si O2"
_cell_formula_units_Z 64
_cell_length_a 8.777989
_cell_length_b 13.979841
_cell_length_c 28.165905
_cell_angle_alpha 90.000000
_cell_angle_beta 90.000000
_cell_angle_gamma 90.000000
_cell_volume 3456.375948
_symmetry_space_group_name_H-M "P M M A"
_symmetry_group_IT_number 51
_symmetry_cell_setting 'orthorhombic'
loop_
_space_group_symop_operation_xyz
x,y,z
1/2-x,-y,z
1/2+x,-y,-z
-x,y,-z
-x,-y,-z
1/2+x,y,-z
1/2-x,y,z
x,-y,z
loop_
_atom_site_type_symbol
_atom_site_label
_atom_site_fract_x
_atom_site_fract_y
_atom_site_fract_z
Si Si1 0.929010 0.240845 0.618514
Si Si2 0.428760 0.392096 0.950308
Si Si3 0.572116 0.773385 0.279577
Si Si4 0.070307 0.391031 0.549475
Si Si5 0.571039 0.890064 0.802154
Si Si6 0.922996 0.608923 0.774188
Si Si7 0.420826 0.887335 0.547289
Si Si8 0.922160 0.719868 0.868187
O O1 0.750000 0.256377 0.616720
O O2 0.981010 0.224704 0.671866
O O3 0.009160 0.331416 0.594042
O O4 0.977625 0.144842 0.591382
O O5 0.250000 0.390452 0.956095
O O6 0.484436 0.500000 0.936577
O O7 0.474007 0.312899 0.911631
O O8 0.500000 0.360153 0.000000
O O9 0.750000 0.786109 0.289477
O O10 0.515709 0.859277 0.245667
O O11 0.540709 0.671147 0.255789
O O12 0.250000 0.380197 0.546267
O O13 0.019777 0.500000 0.558322
O O14 0.000000 0.353027 0.500000
O O15 0.750000 0.875272 0.792653
O O16 0.520854 0.821453 0.845972
O O17 0.531102 0.000000 0.814560
O O18 0.750000 0.625434 0.755824
O O19 0.973996 0.500000 0.768391
O O20 0.933316 0.637099 0.829058
O O21 0.500000 0.847401 0.500000
O O22 0.250000 0.844101 0.550461
O O23 0.413949 0.000000 0.547159
O O24 0.750000 0.730941 0.886785
#
# Coordination Sequence:
#
# PCOD8210525 Si02
#       8
#     8   8   8   8   8   8   8   8
#     4  12  24  38  57  78 105 140 175 212 257 311
#     4  10  20  32  48  74 110 150 187 223 266 315
#     4  11  23  37  53  77 108 137 171 216 264 314
#     4  10  21  38  59  82 108 138 175 217 259 307
#     4   9  19  38  61  81 104 138 179 221 267 321
#     4   9  18  34  55  77 104 140 178 214 256 310
#     4  10  21  38  59  82 107 133 164 203 248 302
#     4   9  17  31  53  80 107 137 176 220 265 313
#
# _framework density 18.516504999999999
#
# number of rings (size 3 to 8) (size 9 to 14) (size 15 to 20)
#    0.000    2.000    0.000    4.875    0.000    6.250 
#    0.000    0.000    0.000    0.375    0.000    0.000 
#    0.000    0.000    0.000    0.000    0.000    0.000 
#
# Total GULP energy -793634.223915 kJ/mol
# GULP energy per Si atom -12400.534749 kJ/mol
# Density = 1.847436 g / cm^3
# Si number density = 18.516505 Si / 1000 Ang^3
#
#
#
# Elastic Constant Matrix: (Units=GPa)
#
#
# Indices 1 2 3 4 5 6 
#
# 1 90.4766 24.9666 40.3282 0.0000 0.0000 0.0000
# 2 24.9666 97.8749 41.8191 0.0000 0.0000 0.0000
# 3 40.3282 41.8191 111.4050 0.0000 0.0000 0.0000
# 4 0.0000 0.0000 0.0000 20.2866 0.0000 0.0000
# 5 0.0000 0.0000 0.0000 0.0000 34.3639 0.0000
# 6 0.0000 0.0000 0.0000 0.0000 0.0000 26.8886
#
#
#
# Elastic Compliance Matrix: (Units=1/GPa)
#
#
# Indices 1 2 3 4 5 6 
#
# 1 0.013386 -0.001601 -0.004245 0.000000 0.000000 0.000000
# 2 -0.001601 0.012360 -0.004060 0.000000 0.000000 0.000000
# 3 -0.004245 -0.004060 0.012037 0.000000 0.000000 0.000000
# 4 0.000000 0.000000 0.000000 0.049294 0.000000 0.000000
# 5 0.000000 0.000000 0.000000 0.000000 0.029100 0.000000
# 6 0.000000 0.000000 0.000000 0.000000 0.000000 0.037190
#
#
# Mechanical properties :
#
#
# Convention : Reuss Voigt Hill
#
# Bulk Modulus (GPa) = 55.64343 57.10934 56.37639
# Shear Modulus (GPa) = 27.90630 29.15066 28.52848
#
# Velocity S-wave (km/s) = 3.88636 3.97206 3.92944
# Velocity P-wave (km/s) = 7.08903 7.20734 7.14843
#
# Compressibility (1/GPa) = 0.01797157
#
# Stress axis : x y z
#
# Youngs Moduli (GPa) = 74.70251 80.90391 83.07705
#
# Poissons Ratio (x) = 0.12953 0.35265
# Poissons Ratio (y) = 0.11960 0.33731
# Poissons Ratio (z) = 0.31710 0.32849
#
# Static dielectric constant tensor:
#      x y z
#    x 3.467620 0.000000 0.000000 
#    y 0.000000 3.455230 0.000000 
#    z 0.000000 0.000000 3.391660 
# 
# 
# High freq. dielectric constant tensor:
#      x y z
#    x 1.723700 0.000000 0.000000 
#    y 0.000000 1.719230 0.000000 
#    z 0.000000 0.000000 1.708770 
# 
# From -- ./inp_files/35003.got.cif
#   From: 2010.03.12/outbox.cif.g09.slc.cpg/sg51_18_cif.got.tgz:35003.got - 2010.04.16 13:43:02.
