data_PCOD8210790
_publ_section_title
;
Structure prediction by ZEFSAII (Michael W. Deem and Ramdas Pophale) SiO2 
 PCOD8210790
Probable space group: P M M A
;
_chemical_formula_sum "Si O2"
_cell_formula_units_Z 48
_cell_length_a 8.981131
_cell_length_b 13.613485
_cell_length_c 24.049036
_cell_angle_alpha 90.000000
_cell_angle_beta 90.000000
_cell_angle_gamma 90.000000
_cell_volume 2940.343173
_symmetry_space_group_name_H-M "P M M A"
_symmetry_group_IT_number 51
_symmetry_cell_setting 'orthorhombic'
loop_
_space_group_symop_operation_xyz
x,y,z
1/2-x,-y,z
1/2+x,-y,-z
-x,y,-z
-x,-y,-z
1/2+x,y,-z
1/2-x,y,z
x,-y,z
loop_
_atom_site_type_symbol
_atom_site_label
_atom_site_fract_x
_atom_site_fract_y
_atom_site_fract_z
Si Si1 0.574436 0.107352 0.616515
Si Si2 0.574978 0.887752 0.834954
Si Si3 0.921581 0.387275 0.337542
Si Si4 0.074102 0.221877 0.275677
Si Si5 0.573114 0.299805 0.557520
Si Si6 0.417665 0.883013 0.945763
O O1 0.750000 0.097287 0.615398
O O2 0.524955 0.143554 0.677478
O O3 0.524230 0.187142 0.570637
O O4 0.502005 0.000000 0.604285
O O5 0.750000 0.881878 0.844508
O O6 0.523793 0.820902 0.783485
O O7 0.497178 0.844922 0.889961
O O8 0.526247 0.000000 0.823104
O O9 0.750000 0.358414 0.347562
O O10 0.938271 0.500000 0.319862
O O11 0.989032 0.323729 0.286939
O O12 0.012808 0.369823 0.394128
O O13 0.250000 0.241658 0.278335
O O14 0.500000 0.333126 0.500000
O O15 0.750000 0.311485 0.554245
O O16 0.250000 0.843315 0.946187
O O17 0.423346 0.000000 0.947239
O O18 0.500000 0.839810 0.000000
#
# Coordination Sequence:
#
# PCOD8210790 Si02
#       6
#     8   8   8   8   8   8
#     4   8  14  26  44  65  89 117 146 174 207 249
#     4   9  16  26  42  65  93 124 155 185 219 260
#     4  10  21  36  52  68  87 112 141 178 225 270
#     4   9  17  29  47  69  91 116 146 181 219 261
#     4  10  20  33  50  70  91 115 143 177 215 258
#     4   9  16  25  37  55  83 121 162 198 228 257
#
# _framework density 16.324625000000001
#
# number of rings (size 3 to 8) (size 9 to 14) (size 15 to 20)
#    0.000    2.833    0.000    3.000    0.000    6.667 
#    0.000    0.000    0.000   16.000    0.000    0.000 
#    0.000    0.667    0.000    2.167    0.000    3.167 
#
# Total GULP energy -595081.721321 kJ/mol
# GULP energy per Si atom -12397.535861 kJ/mol
# Density = 1.628747 g / cm^3
# Si number density = 16.324625 Si / 1000 Ang^3
#
#
#
# Elastic Constant Matrix: (Units=GPa)
#
#
# Indices 1 2 3 4 5 6 
#
# 1 71.9154 29.7646 50.8637 0.0000 0.0000 0.0000
# 2 29.7646 70.6379 32.4774 0.0000 0.0000 0.0000
# 3 50.8637 32.4774 129.4821 0.0000 0.0000 0.0000
# 4 0.0000 0.0000 0.0000 3.9199 0.0000 0.0000
# 5 0.0000 0.0000 0.0000 0.0000 29.0297 0.0000
# 6 0.0000 0.0000 0.0000 0.0000 0.0000 18.1604
#
#
#
# Elastic Compliance Matrix: (Units=1/GPa)
#
#
# Indices 1 2 3 4 5 6 
#
# 1 0.021139 -0.005753 -0.006861 0.000000 0.000000 0.000000
# 2 -0.005753 0.017568 -0.002147 0.000000 0.000000 0.000000
# 3 -0.006861 -0.002147 0.010957 0.000000 0.000000 0.000000
# 4 0.000000 0.000000 0.000000 0.255111 0.000000 0.000000
# 5 0.000000 0.000000 0.000000 0.000000 0.034447 0.000000
# 6 0.000000 0.000000 0.000000 0.000000 0.000000 0.055065
#
#
# Mechanical properties :
#
#
# Convention : Reuss Voigt Hill
#
# Bulk Modulus (GPa) = 49.64608 55.36075 52.50341
# Shear Modulus (GPa) = 11.61384 20.81730 16.21557
#
# Velocity S-wave (km/s) = 2.67016 3.57488 3.15512
# Velocity P-wave (km/s) = 6.32330 7.14323 6.74573
#
# Compressibility (1/GPa) = 0.02014258
#
# Stress axis : x y z
#
# Youngs Moduli (GPa) = 47.30661 56.92269 91.26910
#
# Poissons Ratio (x) = 0.32746 0.62618
# Poissons Ratio (y) = 0.27214 0.19592
# Poissons Ratio (z) = 0.32456 0.12219
#
# Static dielectric constant tensor:
#      x y z
#    x 3.023430 0.000000 0.000000 
#    y 0.000000 2.982480 0.000000 
#    z 0.000000 0.000000 3.112400 
# 
# 
# High freq. dielectric constant tensor:
#      x y z
#    x 1.623210 0.000000 0.000000 
#    y 0.000000 1.594340 0.000000 
#    z 0.000000 0.000000 1.624630 
# 
# From -- ./inp_files/34649.got.cif
#   From: 2010.03.12/outbox.cif.g09.slc.cpg/sg51_18_cif.got.tgz:34649.got - 2010.04.16 13:43:02.
