data_PCOD8210654
_publ_section_title
;
Structure prediction by ZEFSAII (Michael W. Deem and Ramdas Pophale) SiO2 
 PCOD8210654
Probable space group: P M M A
;
_chemical_formula_sum "Si O2"
_cell_formula_units_Z 56
_cell_length_a 14.859679
_cell_length_b 9.266628
_cell_length_c 21.991279
_cell_angle_alpha 90.000000
_cell_angle_beta 90.000000
_cell_angle_gamma 90.000000
_cell_volume 3028.179711
_symmetry_space_group_name_H-M "P M M A"
_symmetry_group_IT_number 51
_symmetry_cell_setting 'orthorhombic'
loop_
_space_group_symop_operation_xyz
x,y,z
1/2-x,-y,z
1/2+x,-y,-z
-x,y,-z
-x,-y,-z
1/2+x,y,-z
1/2-x,y,z
x,-y,z
loop_
_atom_site_type_symbol
_atom_site_label
_atom_site_fract_x
_atom_site_fract_y
_atom_site_fract_z
Si Si1 0.750000 0.830524 0.391757
Si Si2 0.250000 0.333090 0.482609
Si Si3 0.553395 0.332276 0.560746
Si Si4 0.395154 0.665739 0.009381
Si Si5 0.441185 0.171220 0.660298
Si Si6 0.849452 0.162854 0.106203
Si Si7 0.983155 0.830624 0.206448
Si Si8 0.649084 0.164615 0.870284
O O1 0.750000 0.758098 0.456756
O O2 0.839088 0.782107 0.355251
O O3 0.750000 0.000000 0.402648
O O4 0.250000 0.500000 0.501898
O O5 0.340169 0.296249 0.444623
O O6 0.500000 0.287329 0.500000
O O7 0.537785 0.500000 0.574914
O O8 0.513576 0.239871 0.615349
O O9 0.365358 0.500000 0.009509
O O10 0.345052 0.745104 0.954944
O O11 0.500000 0.686016 0.000000
O O12 0.366063 0.733195 0.072800
O O13 0.463477 0.234481 0.727206
O O14 0.453131 0.000000 0.656764
O O15 0.750000 0.161137 0.134994
O O16 0.915499 0.234842 0.155880
O O17 0.881160 0.000000 0.089925
O O18 0.084339 0.792183 0.185639
O O19 0.965017 0.000000 0.210076
O O20 0.750000 0.182961 0.845517
O O21 0.629746 0.000000 0.890871
#
# Coordination Sequence:
#
# PCOD8210654 Si02
#       8
#     4   4   8   8   8   8   8   8
#     4  10  20  32  54  86 116 142 175 218 267 324
#     4  10  20  36  58  82 110 144 183 222 267 318
#     4  10  20  36  58  81 108 143 182 224 266 314
#     4  11  22  35  53  78 109 140 172 218 275 323
#     4  10  21  36  55  82 114 146 179 220 271 321
#     4  10  20  34  56  81 103 134 176 216 261 319
#     4   9  19  36  55  78 109 142 175 219 264 311
#     4  10  20  36  59  80 100 136 185 226 265 318
#
# _framework density 18.492957000000001
#
# number of rings (size 3 to 8) (size 9 to 14) (size 15 to 20)
#    0.000    2.000    2.857    0.857    1.000    3.714 
#    1.286    1.429    0.000    0.000    0.000    0.000 
#    0.000    0.000    0.000    0.000    0.000    0.000 
#
# Total GULP energy -694423.834927 kJ/mol
# GULP energy per Si atom -12400.425624 kJ/mol
# Density = 1.845087 g / cm^3
# Si number density = 18.492957 Si / 1000 Ang^3
#
#
#
# Elastic Constant Matrix: (Units=GPa)
#
#
# Indices 1 2 3 4 5 6 
#
# 1 148.6023 36.2718 65.5238 0.0000 0.0000 0.0000
# 2 36.2718 47.1011 37.7893 0.0000 0.0000 0.0000
# 3 65.5238 37.7893 131.4678 0.0000 0.0000 0.0000
# 4 0.0000 0.0000 0.0000 -18.6796 0.0000 0.0000
# 5 0.0000 0.0000 0.0000 0.0000 18.5409 0.0000
# 6 0.0000 0.0000 0.0000 0.0000 0.0000 16.7027
#
#
#
# Elastic Compliance Matrix: (Units=1/GPa)
#
#
# Indices 1 2 3 4 5 6 
#
# 1 0.009298 -0.004474 -0.003348 0.000000 0.000000 0.000000
# 2 -0.004474 0.029747 -0.006321 0.000000 0.000000 0.000000
# 3 -0.003348 -0.006321 0.011092 0.000000 0.000000 0.000000
# 4 0.000000 0.000000 0.000000 -0.053534 0.000000 0.000000
# 5 0.000000 0.000000 0.000000 0.000000 0.053935 0.000000
# 6 0.000000 0.000000 0.000000 0.000000 0.000000 0.059870
#
#
# Mechanical properties :
#
#
# Convention : Reuss Voigt Hill
#
# Bulk Modulus (GPa) = 45.76328 67.37123 56.56726
# Shear Modulus (GPa) = 34.25189 15.81855 25.03522
#
# Velocity S-wave (km/s) = 4.30834 2.92786 3.68335
# Velocity P-wave (km/s) = 7.03911 6.92385 6.98172
#
# Compressibility (1/GPa) = 0.02185158
#
# Stress axis : x y z
#
# Youngs Moduli (GPa) = 107.55444 33.61634 90.15552
#
# Poissons Ratio (x) = 0.15039 0.30184
# Poissons Ratio (y) = 0.48118 0.56986
# Poissons Ratio (z) = 0.36009 0.21248
#
# Static dielectric constant tensor:
#      x y z
#    x 3.630270 0.000000 0.000000 
#    y 0.000000 3.228160 0.000000 
#    z 0.000000 0.000000 3.381270 
# 
# 
# High freq. dielectric constant tensor:
#      x y z
#    x 1.737610 0.000000 0.000000 
#    y 0.000000 1.694760 0.000000 
#    z 0.000000 0.000000 1.706970 
# 
# From -- ./inp_files/33518.got.cif
#   From: 2010.03.12/outbox.cif.g09.slc.cpg/sg51_17_cif.got.tgz:33518.got - 2010.04.16 13:43:02.
