data_PCOD8210870
_publ_section_title
;
Structure prediction by ZEFSAII (Michael W. Deem and Ramdas Pophale) SiO2 
 PCOD8210870
Probable space group: P M M A
;
_chemical_formula_sum "Si O2"
_cell_formula_units_Z 48
_cell_length_a 9.038324
_cell_length_b 9.387300
_cell_length_c 31.084665
_cell_angle_alpha 90.000000
_cell_angle_beta 90.000000
_cell_angle_gamma 90.000000
_cell_volume 2637.392666
_symmetry_space_group_name_H-M "P M M A"
_symmetry_group_IT_number 51
_symmetry_cell_setting 'orthorhombic'
loop_
_space_group_symop_operation_xyz
x,y,z
1/2-x,-y,z
1/2+x,-y,-z
-x,y,-z
-x,-y,-z
1/2+x,y,-z
1/2-x,y,z
x,-y,z
loop_
_atom_site_type_symbol
_atom_site_label
_atom_site_fract_x
_atom_site_fract_y
_atom_site_fract_z
Si Si1 0.576665 0.836306 0.457014
Si Si2 0.422147 0.334072 0.625576
Si Si3 0.078800 0.331790 0.795940
Si Si4 0.923363 0.834171 0.871860
Si Si5 0.083321 0.330703 0.289502
Si Si6 0.916769 0.169414 0.041830
O O1 0.500000 0.776748 0.500000
O O2 0.750000 0.815221 0.463013
O O3 0.518168 0.747452 0.416347
O O4 0.533054 0.000000 0.449224
O O5 0.250000 0.303356 0.633665
O O6 0.453138 0.500000 0.618337
O O7 0.509706 0.273274 0.666722
O O8 0.250000 0.288199 0.797595
O O9 0.057125 0.500000 0.801193
O O10 0.991212 0.255111 0.833456
O O11 0.011779 0.276515 0.750931
O O12 0.750000 0.804505 0.874900
O O13 0.997028 0.779189 0.915875
O O14 0.957767 0.000000 0.864046
O O15 0.250000 0.271110 0.285754
O O16 0.082497 0.500000 0.290357
O O17 0.750000 0.229936 0.043030
O O18 0.914809 0.000000 0.039533
O O19 0.000000 0.231697 0.000000
#
# Coordination Sequence:
#
# PCOD8210870 Si02
#       6
#     8   8   8   8   8   8
#     4   9  18  32  48  66  91 123 155 186 225 275
#     4   9  17  30  48  69  92 118 151 192 234 275
#     4  10  20  34  53  75  99 131 169 204 242 294
#     4  10  20  33  50  74 103 132 164 205 250 293
#     4   9  17  30  49  72  96 123 157 197 239 283
#     4   9  16  27  45  69  97 129 165 204 246 293
#
# _framework density 18.199793
#
# number of rings (size 3 to 8) (size 9 to 14) (size 15 to 20)
#    0.000    2.667    0.000    2.000    0.000    7.000 
#    0.000    0.833    0.000    3.500    0.000    0.000 
#    0.000    0.000    0.000    0.000    0.000    0.000 
#
# Total GULP energy -595251.533700 kJ/mol
# GULP energy per Si atom -12401.073619 kJ/mol
# Density = 1.815837 g / cm^3
# Si number density = 18.199793 Si / 1000 Ang^3
#
#
#
# Elastic Constant Matrix: (Units=GPa)
#
#
# Indices 1 2 3 4 5 6 
#
# 1 113.0990 27.9726 76.0685 0.0000 0.0000 0.0000
# 2 27.9726 27.1426 40.6821 0.0000 0.0000 0.0000
# 3 76.0685 40.6821 183.6489 0.0000 0.0000 0.0000
# 4 0.0000 0.0000 0.0000 29.0009 0.0000 0.0000
# 5 0.0000 0.0000 0.0000 0.0000 43.3326 0.0000
# 6 0.0000 0.0000 0.0000 0.0000 0.0000 19.8015
#
#
#
# Elastic Compliance Matrix: (Units=1/GPa)
#
#
# Indices 1 2 3 4 5 6 
#
# 1 0.013375 -0.008204 -0.003722 0.000000 0.000000 0.000000
# 2 -0.008204 0.060188 -0.009935 0.000000 0.000000 0.000000
# 3 -0.003722 -0.009935 0.009188 0.000000 0.000000 0.000000
# 4 0.000000 0.000000 0.000000 0.034482 0.000000 0.000000
# 5 0.000000 0.000000 0.000000 0.000000 0.023077 0.000000
# 6 0.000000 0.000000 0.000000 0.000000 0.000000 0.050501
#
#
# Mechanical properties :
#
#
# Convention : Reuss Voigt Hill
#
# Bulk Modulus (GPa) = 25.62290 68.14855 46.88572
# Shear Modulus (GPa) = 20.19856 30.37151 25.28504
#
# Velocity S-wave (km/s) = 3.33502 4.08951 3.73138
# Velocity P-wave (km/s) = 5.37950 7.73464 6.66197
#
# Compressibility (1/GPa) = 0.03902759
#
# Stress axis : x y z
#
# Youngs Moduli (GPa) = 74.76851 16.61461 108.84076
#
# Poissons Ratio (x) = 0.13631 0.40515
# Poissons Ratio (y) = 0.61343 1.08129
# Poissons Ratio (z) = 0.27832 0.16506
#
# Static dielectric constant tensor:
#      x y z
#    x 3.550640 0.000000 0.000000 
#    y 0.000000 2.978480 0.000000 
#    z 0.000000 0.000000 3.612800 
# 
# 
# High freq. dielectric constant tensor:
#      x y z
#    x 1.715610 0.000000 0.000000 
#    y 0.000000 1.658170 0.000000 
#    z 0.000000 0.000000 1.722840 
# 
# From -- ./inp_files/34554.got.cif
#   From: 2010.03.12/outbox.cif.g09.slc.cpg/sg51_18_cif.got.tgz:34554.got - 2010.04.16 13:43:02.
