data_PCOD8210386
_publ_section_title
;
Structure prediction by ZEFSAII (Michael W. Deem and Ramdas Pophale) SiO2 
 PCOD8210386
Probable space group: P M M A
;
_chemical_formula_sum "Si O2"
_cell_formula_units_Z 64
_cell_length_a 19.788709
_cell_length_b 9.205981
_cell_length_c 17.846034
_cell_angle_alpha 90.000000
_cell_angle_beta 90.000000
_cell_angle_gamma 90.000000
_cell_volume 3251.091947
_symmetry_space_group_name_H-M "P M M A"
_symmetry_group_IT_number 51
_symmetry_cell_setting 'orthorhombic'
loop_
_space_group_symop_operation_xyz
x,y,z
1/2-x,-y,z
1/2+x,-y,-z
-x,y,-z
-x,-y,-z
1/2+x,y,-z
1/2-x,y,z
x,-y,z
loop_
_atom_site_type_symbol
_atom_site_label
_atom_site_fract_x
_atom_site_fract_y
_atom_site_fract_z
Si Si1 0.010569 0.662804 0.881182
Si Si2 0.173269 0.669882 0.363234
Si Si3 0.325399 0.831757 0.765918
Si Si4 0.964760 0.328469 0.573774
Si Si5 0.173247 0.841280 0.220042
Si Si6 0.858660 0.334833 0.925000
Si Si7 0.953709 0.330860 0.283886
Si Si8 0.366164 0.830674 0.930747
O O1 0.041351 0.500000 0.890879
O O2 0.939210 0.671035 0.921284
O O3 0.004685 0.700160 0.792640
O O4 0.056483 0.781228 0.921621
O O5 0.250000 0.716397 0.388118
O O6 0.172502 0.500000 0.344688
O O7 0.116116 0.708446 0.425684
O O8 0.144563 0.748207 0.289015
O O9 0.250000 0.795232 0.736444
O O10 0.379776 0.742055 0.718612
O O11 0.327129 0.792947 0.854260
O O12 0.343029 0.000000 0.755109
O O13 0.974367 0.500000 0.573257
O O14 0.000000 0.259808 0.500000
O O15 0.002929 0.265702 0.647262
O O16 0.250000 0.869769 0.240526
O O17 0.170951 0.752192 0.144012
O O18 0.136815 0.000000 0.212990
O O19 0.832001 0.500000 0.922816
O O20 0.832704 0.258509 0.001049
O O21 0.940586 0.500000 0.295537
O O22 0.363107 0.000000 0.950623
#
# Coordination Sequence:
#
# PCOD8210386 Si02
#       8
#     8   8   8   8   8   8   8   8
#     4   9  18  32  48  67  94 128 166 209 258 309
#     4   9  17  32  55  79 104 140 183 217 249 302
#     4   9  19  36  54  70  94 132 175 219 268 317
#     4   9  17  31  53  83 117 145 169 207 258 304
#     4  10  21  35  50  70  97 129 166 210 258 305
#     4  11  21  32  48  70  98 132 168 209 260 315
#     4   9  17  31  52  76 101 131 169 213 258 305
#     4  10  20  32  47  69  96 128 169 215 263 313
#
# _framework density 19.685694000000002
#
# number of rings (size 3 to 8) (size 9 to 14) (size 15 to 20)
#    0.000    2.500    0.000    2.250    0.000    6.500 
#    0.000    5.000    0.000    3.750    0.000    1.750 
#    0.000    0.000    0.000    0.000    0.000    0.000 
#
# Total GULP energy -793255.143330 kJ/mol
# GULP energy per Si atom -12394.611615 kJ/mol
# Density = 1.964089 g / cm^3
# Si number density = 19.685694 Si / 1000 Ang^3
#
#
#
# Elastic Constant Matrix: (Units=GPa)
#
#
# Indices 1 2 3 4 5 6 
#
# 1 91.2437 26.4178 40.2242 0.0000 0.0000 0.0000
# 2 26.4178 71.0652 31.3992 0.0000 0.0000 0.0000
# 3 40.2242 31.3992 103.8706 0.0000 0.0000 0.0000
# 4 0.0000 0.0000 0.0000 13.7173 0.0000 0.0000
# 5 0.0000 0.0000 0.0000 0.0000 11.0694 0.0000
# 6 0.0000 0.0000 0.0000 0.0000 0.0000 20.0264
#
#
#
# Elastic Compliance Matrix: (Units=1/GPa)
#
#
# Indices 1 2 3 4 5 6 
#
# 1 0.013819 -0.003200 -0.004384 0.000000 0.000000 0.000000
# 2 -0.003200 0.016982 -0.003894 0.000000 0.000000 0.000000
# 3 -0.004384 -0.003894 0.012502 0.000000 0.000000 0.000000
# 4 0.000000 0.000000 0.000000 0.072901 0.000000 0.000000
# 5 0.000000 0.000000 0.000000 0.000000 0.090339 0.000000
# 6 0.000000 0.000000 0.000000 0.000000 0.000000 0.049934
#
#
# Mechanical properties :
#
#
# Convention : Reuss Voigt Hill
#
# Bulk Modulus (GPa) = 49.14887 51.36242 50.25564
# Shear Modulus (GPa) = 17.46936 20.17184 18.82060
#
# Velocity S-wave (km/s) = 2.98218 3.20456 3.09537
# Velocity P-wave (km/s) = 6.07280 6.31191 6.19351
#
# Compressibility (1/GPa) = 0.02034635
#
# Stress axis : x y z
#
# Youngs Moduli (GPa) = 72.36496 58.88671 79.98535
#
# Poissons Ratio (x) = 0.18844 0.35066
# Poissons Ratio (y) = 0.23157 0.31148
# Poissons Ratio (z) = 0.31725 0.22932
#
# Static dielectric constant tensor:
#      x y z
#    x 3.611960 0.000000 0.000000 
#    y 0.000000 3.646130 0.000000 
#    z 0.000000 0.000000 3.584870 
# 
# 
# High freq. dielectric constant tensor:
#      x y z
#    x 1.764050 0.000000 0.000000 
#    y 0.000000 1.752910 0.000000 
#    z 0.000000 0.000000 1.747810 
# 
# From -- ./inp_files/30541.got.cif
#   From: 2010.03.12/outbox.cif.g09.slc.cpg/sg51_16_cif.got.tgz:30541.got - 2010.04.16 13:43:02.
