data_PCOD8210461
_publ_section_title
;
Structure prediction by ZEFSAII (Michael W. Deem and Ramdas Pophale) SiO2 
 PCOD8210461
Probable space group: P M M A
;
_chemical_formula_sum "Si O2"
_cell_formula_units_Z 48
_cell_length_a 9.308700
_cell_length_b 9.385143
_cell_length_c 30.987383
_cell_angle_alpha 90.000000
_cell_angle_beta 90.000000
_cell_angle_gamma 90.000000
_cell_volume 2707.165635
_symmetry_space_group_name_H-M "P M M A"
_symmetry_group_IT_number 51
_symmetry_cell_setting 'orthorhombic'
loop_
_space_group_symop_operation_xyz
x,y,z
1/2-x,-y,z
1/2+x,-y,-z
-x,y,-z
-x,-y,-z
1/2+x,y,-z
1/2-x,y,z
x,-y,z
loop_
_atom_site_type_symbol
_atom_site_label
_atom_site_fract_x
_atom_site_fract_y
_atom_site_fract_z
Si Si1 0.084636 0.831270 0.283910
Si Si2 0.585107 0.334450 0.874798
Si Si3 0.416134 0.834775 0.539695
Si Si4 0.083075 0.835184 0.041817
Si Si5 0.582254 0.333907 0.210514
Si Si6 0.410610 0.830467 0.634177
O O1 0.250000 0.784057 0.280849
O O2 0.993917 0.757004 0.247003
O O3 0.022937 0.777945 0.329903
O O4 0.067169 0.000000 0.278758
O O5 0.750000 0.294795 0.863778
O O6 0.568764 0.500000 0.885377
O O7 0.528949 0.249514 0.916357
O O8 0.486316 0.288534 0.834935
O O9 0.500000 0.758963 0.500000
O O10 0.250000 0.811436 0.530530
O O11 0.456894 0.770102 0.586892
O O12 0.458207 0.000000 0.540597
O O13 0.250000 0.807666 0.033558
O O14 0.047820 0.000000 0.049901
O O15 0.000000 0.777047 0.000000
O O16 0.750000 0.296702 0.209556
O O17 0.554822 0.500000 0.219798
O O18 0.250000 0.775786 0.646006
O O19 0.407563 0.000000 0.631720
#
# Coordination Sequence:
#
# PCOD8210461 Si02
#       6
#     8   8   8   8   8   8
#     4  10  20  32  48  71  96 124 159 197 239 287
#     4   9  18  33  51  70  94 124 156 192 235 279
#     4   8  13  20  31  49  75 110 149 186 227 275
#     4   9  18  32  49  70  97 127 157 190 229 273
#     4  10  21  36  53  73  97 126 160 198 241 288
#     4   8  14  25  39  56  83 118 153 191 235 280
#
# _framework density 17.730723000000001
#
# number of rings (size 3 to 8) (size 9 to 14) (size 15 to 20)
#    0.000    3.000    0.000    2.000    0.000    4.333 
#    0.000    5.000    0.000    0.000    0.000    0.000 
#    0.000    0.667    0.000    2.167    0.000    4.333 
#
# Total GULP energy -595033.301468 kJ/mol
# GULP energy per Si atom -12396.527114 kJ/mol
# Density = 1.769037 g / cm^3
# Si number density = 17.730723 Si / 1000 Ang^3
#
#
#
# Elastic Constant Matrix: (Units=GPa)
#
#
# Indices 1 2 3 4 5 6 
#
# 1 99.8202 30.9725 88.6865 0.0000 0.0000 0.0000
# 2 30.9725 26.9017 46.2480 0.0000 0.0000 0.0000
# 3 88.6865 46.2480 179.7022 0.0000 0.0000 0.0000
# 4 0.0000 0.0000 0.0000 -6.3682 0.0000 0.0000
# 5 0.0000 0.0000 0.0000 0.0000 41.5853 0.0000
# 6 0.0000 0.0000 0.0000 0.0000 0.0000 18.0895
#
#
#
# Elastic Compliance Matrix: (Units=1/GPa)
#
#
# Indices 1 2 3 4 5 6 
#
# 1 0.019370 -0.010523 -0.006852 0.000000 0.000000 0.000000
# 2 -0.010523 0.072386 -0.013436 0.000000 0.000000 0.000000
# 3 -0.006852 -0.013436 0.012404 0.000000 0.000000 0.000000
# 4 0.000000 0.000000 0.000000 -0.157030 0.000000 0.000000
# 5 0.000000 0.000000 0.000000 0.000000 0.024047 0.000000
# 6 0.000000 0.000000 0.000000 0.000000 0.000000 0.055281
#
#
# Mechanical properties :
#
#
# Convention : Reuss Voigt Hill
#
# Bulk Modulus (GPa) = 23.50744 70.91534 47.21139
# Shear Modulus (GPa) = 48.89601 20.02915 34.46258
#
# Velocity S-wave (km/s) = 5.25708 3.36464 4.41348
# Velocity P-wave (km/s) = 7.08067 7.42812 7.25648
#
# Compressibility (1/GPa) = 0.04253973
#
# Stress axis : x y z
#
# Youngs Moduli (GPa) = 51.62537 13.81486 80.61910
#
# Poissons Ratio (x) = 0.14537 0.55236
# Poissons Ratio (y) = 0.54324 1.08320
# Poissons Ratio (z) = 0.35371 0.18562
#
# Static dielectric constant tensor:
#      x y z
#    x 3.478450 0.000000 0.000000 
#    y 0.000000 2.892700 0.000000 
#    z 0.000000 0.000000 3.785970 
# 
# 
# High freq. dielectric constant tensor:
#      x y z
#    x 1.687030 0.000000 0.000000 
#    y 0.000000 1.637430 0.000000 
#    z 0.000000 0.000000 1.703560 
# 
# From -- ./inp_files/36157.got.cif
#   From: 2010.03.12/outbox.cif.g09.slc.cpg/sg51_19_cif.got.tgz:36157.got - 2010.04.16 13:43:02.
