data_PCOD8210421
_publ_section_title
;
Structure prediction by ZEFSAII (Michael W. Deem and Ramdas Pophale) SiO2 
 PCOD8210421
Probable space group: P M M A
;
_chemical_formula_sum "Si O2"
_cell_formula_units_Z 48
_cell_length_a 9.266227
_cell_length_b 9.458399
_cell_length_c 30.947798
_cell_angle_alpha 90.000000
_cell_angle_beta 90.000000
_cell_angle_gamma 90.000000
_cell_volume 2712.378663
_symmetry_space_group_name_H-M "P M M A"
_symmetry_group_IT_number 51
_symmetry_cell_setting 'orthorhombic'
loop_
_space_group_symop_operation_xyz
x,y,z
1/2-x,-y,z
1/2+x,-y,-z
-x,y,-z
-x,-y,-z
1/2+x,y,-z
1/2-x,y,z
x,-y,z
loop_
_atom_site_type_symbol
_atom_site_label
_atom_site_fract_x
_atom_site_fract_y
_atom_site_fract_z
Si Si1 0.918255 0.336427 0.542473
Si Si2 0.081204 0.163009 0.375702
Si Si3 0.418103 0.834803 0.802213
Si Si4 0.582096 0.334233 0.874063
Si Si5 0.413596 0.668207 0.958720
Si Si6 0.909321 0.167834 0.294237
O O1 0.750000 0.308009 0.535159
O O2 0.951868 0.500000 0.551301
O O3 0.978055 0.249357 0.583313
O O4 0.000000 0.281807 0.500000
O O5 0.250000 0.184453 0.370710
O O6 0.013153 0.226179 0.331764
O O7 0.038655 0.000000 0.382682
O O8 0.250000 0.801059 0.811207
O O9 0.520852 0.746105 0.832907
O O10 0.460919 0.786750 0.753565
O O11 0.448705 0.000000 0.809372
O O12 0.750000 0.298342 0.880405
O O13 0.557586 0.500000 0.866901
O O14 0.496090 0.279560 0.916015
O O15 0.250000 0.727751 0.958715
O O16 0.411052 0.500000 0.960630
O O17 0.500000 0.728665 0.000000
O O18 0.750000 0.228843 0.303179
O O19 0.905388 0.000000 0.295425
#
# Coordination Sequence:
#
# PCOD8210421 Si02
#       6
#     8   8   8   8   8   8
#     4   9  18  32  47  63  87 119 150 180 218 265
#     4   9  17  29  46  68  91 114 144 183 224 265
#     4   9  18  33  52  72  95 126 163 199 237 285
#     4  10  20  32  47  71 101 129 160 199 240 283
#     4   9  16  27  45  68  94 125 160 198 240 285
#     4   8  15  29  48  69  92 118 150 188 228 271
#
# _framework density 17.696643000000002
#
# number of rings (size 3 to 8) (size 9 to 14) (size 15 to 20)
#    0.000    3.000    0.000    2.000    0.000    5.000 
#    0.000    2.500    0.000    3.500    0.000    0.000 
#    0.000    0.000    0.000    0.000    0.000    0.000 
#
# Total GULP energy -595093.348713 kJ/mol
# GULP energy per Si atom -12397.778098 kJ/mol
# Density = 1.765636 g / cm^3
# Si number density = 17.696643 Si / 1000 Ang^3
#
#
#
# Elastic Constant Matrix: (Units=GPa)
#
#
# Indices 1 2 3 4 5 6 
#
# 1 101.0964 34.9235 86.3651 0.0000 0.0000 0.0000
# 2 34.9235 33.2933 47.9348 0.0000 0.0000 0.0000
# 3 86.3651 47.9348 182.2933 0.0000 0.0000 0.0000
# 4 0.0000 0.0000 0.0000 33.0571 0.0000 0.0000
# 5 0.0000 0.0000 0.0000 0.0000 41.0229 0.0000
# 6 0.0000 0.0000 0.0000 0.0000 0.0000 20.0885
#
#
#
# Elastic Compliance Matrix: (Units=1/GPa)
#
#
# Indices 1 2 3 4 5 6 
#
# 1 0.018879 -0.011145 -0.006014 0.000000 0.000000 0.000000
# 2 -0.011145 0.054915 -0.009160 0.000000 0.000000 0.000000
# 3 -0.006014 -0.009160 0.010743 0.000000 0.000000 0.000000
# 4 0.000000 0.000000 0.000000 0.030251 0.000000 0.000000
# 5 0.000000 0.000000 0.000000 0.000000 0.024377 0.000000
# 6 0.000000 0.000000 0.000000 0.000000 0.000000 0.049780
#
#
# Mechanical properties :
#
#
# Convention : Reuss Voigt Hill
#
# Bulk Modulus (GPa) = 31.34788 72.79219 52.07004
# Shear Modulus (GPa) = 19.82436 28.66433 24.24435
#
# Velocity S-wave (km/s) = 3.35062 4.02899 3.70536
# Velocity P-wave (km/s) = 5.72026 7.92883 6.91331
#
# Compressibility (1/GPa) = 0.03190008
#
# Stress axis : x y z
#
# Youngs Moduli (GPa) = 52.96916 18.20997 93.08048
#
# Poissons Ratio (x) = 0.20295 0.55975
# Poissons Ratio (y) = 0.59034 0.85261
# Poissons Ratio (z) = 0.31854 0.16680
#
# Static dielectric constant tensor:
#      x y z
#    x 3.396090 0.000000 0.000000 
#    y 0.000000 2.907450 0.000000 
#    z 0.000000 0.000000 3.572640 
# 
# 
# High freq. dielectric constant tensor:
#      x y z
#    x 1.685840 0.000000 0.000000 
#    y 0.000000 1.640310 0.000000 
#    z 0.000000 0.000000 1.699960 
# 
# From -- ./inp_files/37055.got.cif
#   From: 2010.03.12/outbox.cif.g09.slc.cpg/sg51_19_cif.got.tgz:37055.got - 2010.04.16 13:43:02.
