data_PCOD8210545
_publ_section_title
;
Structure prediction by ZEFSAII (Michael W. Deem and Ramdas Pophale) SiO2 
 PCOD8210545
Probable space group: P M M A
;
_chemical_formula_sum "Si O2"
_cell_formula_units_Z 64
_cell_length_a 9.003328
_cell_length_b 18.854281
_cell_length_c 23.779703
_cell_angle_alpha 90.000000
_cell_angle_beta 90.000000
_cell_angle_gamma 90.000000
_cell_volume 4036.634928
_symmetry_space_group_name_H-M "P M M A"
_symmetry_group_IT_number 51
_symmetry_cell_setting 'orthorhombic'
loop_
_space_group_symop_operation_xyz
x,y,z
1/2-x,-y,z
1/2+x,-y,-z
-x,y,-z
-x,-y,-z
1/2+x,y,-z
1/2-x,y,z
x,-y,z
loop_
_atom_site_type_symbol
_atom_site_label
_atom_site_fract_x
_atom_site_fract_y
_atom_site_fract_z
Si Si1 0.427257 0.780519 0.441146
Si Si2 0.924527 0.700989 0.341441
Si Si3 0.076022 0.419121 0.944060
Si Si4 0.575376 0.921662 0.742072
Si Si5 0.924971 0.646150 0.172260
Si Si6 0.921171 0.417897 0.723827
Si Si7 0.420330 0.787093 0.769622
Si Si8 0.426140 0.077354 0.384600
O O1 0.500000 0.760220 0.500000
O O2 0.250000 0.776211 0.444896
O O3 0.485743 0.724099 0.396290
O O4 0.484571 0.859480 0.424183
O O5 0.750000 0.695543 0.354581
O O6 0.957944 0.756720 0.291937
O O7 0.985154 0.624491 0.322766
O O8 0.250000 0.414584 0.953351
O O9 0.024668 0.500000 0.933334
O O10 0.026107 0.372014 0.891019
O O11 0.000000 0.388001 0.000000
O O12 0.750000 0.912751 0.742604
O O13 0.508365 0.859876 0.781028
O O14 0.512771 0.912544 0.678662
O O15 0.530552 0.000000 0.764861
O O16 0.750000 0.632682 0.182486
O O17 0.965485 0.728338 0.184048
O O18 0.013737 0.595186 0.214124
O O19 0.750000 0.393162 0.722633
O O20 0.936704 0.500000 0.708606
O O21 0.250000 0.806943 0.775155
O O22 0.250000 0.079547 0.382041
O O23 0.479100 0.000000 0.407834
#
# Coordination Sequence:
#
# PCOD8210545 Si02
#       8
#     8   8   8   8   8   8   8   8
#     4  11  21  33  50  68  90 118 150 189 227 269
#     4  10  20  34  50  68  91 118 150 184 225 277
#     4   9  17  29  45  64  91 129 167 198 228 263
#     4   9  16  27  44  64  87 118 152 182 221 274
#     4   9  18  31  46  67  96 129 160 192 229 271
#     4  10  20  32  49  74  98 119 147 186 229 272
#     4   9  17  28  44  66  91 116 148 189 228 267
#     4   8  15  28  45  64  87 117 150 183 221 266
#
# _framework density 15.854789
#
# number of rings (size 3 to 8) (size 9 to 14) (size 15 to 20)
#    0.000    2.625    1.250    3.000    0.000    4.500 
#    0.000    1.250    0.000    1.500    0.000    0.000 
#    0.000    0.500    0.000    1.125    0.000    2.000 
#
# Total GULP energy -793435.422788 kJ/mol
# GULP energy per Si atom -12397.428481 kJ/mol
# Density = 1.581870 g / cm^3
# Si number density = 15.854789 Si / 1000 Ang^3
#
#
#
# Elastic Constant Matrix: (Units=GPa)
#
#
# Indices 1 2 3 4 5 6 
#
# 1 55.7603 43.0585 33.7089 0.0000 0.0000 0.0000
# 2 43.0585 102.9605 54.8449 0.0000 0.0000 0.0000
# 3 33.7089 54.8449 101.2753 0.0000 0.0000 0.0000
# 4 0.0000 0.0000 0.0000 22.6894 0.0000 0.0000
# 5 0.0000 0.0000 0.0000 0.0000 23.1583 0.0000
# 6 0.0000 0.0000 0.0000 0.0000 0.0000 25.5903
#
#
#
# Elastic Compliance Matrix: (Units=1/GPa)
#
#
# Indices 1 2 3 4 5 6 
#
# 1 0.027668 -0.009368 -0.004136 0.000000 0.000000 0.000000
# 2 -0.009368 0.016822 -0.005992 0.000000 0.000000 0.000000
# 3 -0.004136 -0.005992 0.014496 0.000000 0.000000 0.000000
# 4 0.000000 0.000000 0.000000 0.044073 0.000000 0.000000
# 5 0.000000 0.000000 0.000000 0.000000 0.043181 0.000000
# 6 0.000000 0.000000 0.000000 0.000000 0.000000 0.039077
#
#
# Mechanical properties :
#
#
# Convention : Reuss Voigt Hill
#
# Bulk Modulus (GPa) = 50.01430 58.13562 54.07496
# Shear Modulus (GPa) = 21.64754 22.84652 22.24703
#
# Velocity S-wave (km/s) = 3.69909 3.80015 3.74996
# Velocity P-wave (km/s) = 7.06103 7.48345 7.27530
#
# Compressibility (1/GPa) = 0.01999428
#
# Stress axis : x y z
#
# Youngs Moduli (GPa) = 36.14271 59.44695 68.98671
#
# Poissons Ratio (x) = 0.55688 0.28534
# Poissons Ratio (y) = 0.33857 0.41335
# Poissons Ratio (z) = 0.14949 0.35619
#
# Static dielectric constant tensor:
#      x y z
#    x 2.927650 0.000000 0.000000 
#    y 0.000000 3.108560 0.000000 
#    z 0.000000 0.000000 2.838450 
# 
# 
# High freq. dielectric constant tensor:
#      x y z
#    x 1.605940 0.000000 0.000000 
#    y 0.000000 1.607010 0.000000 
#    z 0.000000 0.000000 1.576530 
# 
# From -- ./inp_files/32630.got.cif
#   From: 2010.03.12/outbox.cif.g09.slc.cpg/sg51_17_cif.got.tgz:32630.got - 2010.04.16 13:43:02.
