data_PCOD8210099
_publ_section_title
;
Structure prediction by ZEFSAII (Michael W. Deem and Ramdas Pophale) SiO2 
 PCOD8210099
Probable space group: P M M A
;
_chemical_formula_sum "Si O2"
_cell_formula_units_Z 56
_cell_length_a 20.919630
_cell_length_b 8.752226
_cell_length_c 15.490748
_cell_angle_alpha 90.000000
_cell_angle_beta 90.000000
_cell_angle_gamma 90.000000
_cell_volume 2836.252629
_symmetry_space_group_name_H-M "P M M A"
_symmetry_group_IT_number 51
_symmetry_cell_setting 'orthorhombic'
loop_
_space_group_symop_operation_xyz
x,y,z
1/2-x,-y,z
1/2+x,-y,-z
-x,y,-z
-x,-y,-z
1/2+x,y,-z
1/2-x,y,z
x,-y,z
loop_
_atom_site_type_symbol
_atom_site_label
_atom_site_fract_x
_atom_site_fract_y
_atom_site_fract_z
Si Si1 0.952881 0.180422 0.079850
Si Si2 0.321655 0.321554 0.965251
Si Si3 0.819095 0.679022 0.531067
Si Si4 0.488453 0.824162 0.727748
Si Si5 0.116179 0.326077 0.295833
Si Si6 0.942622 0.318729 0.437939
Si Si7 0.678198 0.832101 0.853166
O O1 0.883671 0.264118 0.087183
O O2 0.984572 0.226361 0.171614
O O3 0.941358 0.000000 0.071653
O O4 0.000000 0.233769 0.000000
O O5 0.250000 0.294343 0.922677
O O6 0.329619 0.500000 0.985775
O O7 0.325313 0.220465 0.049733
O O8 0.750000 0.752571 0.507283
O O9 0.816283 0.500000 0.513348
O O10 0.831385 0.710347 0.632097
O O11 0.876230 0.750023 0.474803
O O12 0.558414 0.790001 0.691302
O O13 0.442895 0.733306 0.661884
O O14 0.471065 0.000000 0.718910
O O15 0.090966 0.500000 0.303137
O O16 0.145141 0.298639 0.202147
O O17 0.943363 0.500000 0.441535
O O18 0.000000 0.257160 0.500000
O O19 0.750000 0.848248 0.820818
O O20 0.644469 0.000000 0.844884
#
# Coordination Sequence:
#
# PCOD8210099 Si02
#       7
#     8   8   8   8   8   8   8
#     4  10  22  40  60  84 118 157 198 246 300 360
#     4  10  21  37  58  84 112 148 198 250 298 350
#     4   9  18  33  55  82 112 147 188 236 289 340
#     4  11  23  37  57  86 115 149 194 240 296 357
#     4  11  20  33  54  81 113 147 190 240 291 347
#     4  10  19  37  60  83 112 151 196 236 280 340
#     4  10  20  33  50  76 113 154 191 230 288 357
#
# _framework density 19.744363
#
# number of rings (size 3 to 8) (size 9 to 14) (size 15 to 20)
#    0.000    1.857    1.429    3.000    0.000    5.143 
#    0.000    0.714    0.000    4.714    0.000    0.000 
#    0.000    0.000    0.000    0.000    0.000    0.000 
#
# Total GULP energy -693834.438072 kJ/mol
# GULP energy per Si atom -12389.900680 kJ/mol
# Density = 1.969942 g / cm^3
# Si number density = 19.744363 Si / 1000 Ang^3
#
#
#
# Elastic Constant Matrix: (Units=GPa)
#
#
# Indices 1 2 3 4 5 6 
#
# 1 139.8556 26.7330 47.5125 0.0000 0.0000 0.0000
# 2 26.7330 45.0888 24.5712 0.0000 0.0000 0.0000
# 3 47.5125 24.5712 96.9294 0.0000 0.0000 0.0000
# 4 0.0000 0.0000 0.0000 28.6864 0.0000 0.0000
# 5 0.0000 0.0000 0.0000 0.0000 29.8880 0.0000
# 6 0.0000 0.0000 0.0000 0.0000 0.0000 25.6638
#
#
#
# Elastic Compliance Matrix: (Units=1/GPa)
#
#
# Indices 1 2 3 4 5 6 
#
# 1 0.009008 -0.003405 -0.003552 0.000000 0.000000 0.000000
# 2 -0.003405 0.027020 -0.005181 0.000000 0.000000 0.000000
# 3 -0.003552 -0.005181 0.013371 0.000000 0.000000 0.000000
# 4 0.000000 0.000000 0.000000 0.034860 0.000000 0.000000
# 5 0.000000 0.000000 0.000000 0.000000 0.033458 0.000000
# 6 0.000000 0.000000 0.000000 0.000000 0.000000 0.038965
#
#
# Mechanical properties :
#
#
# Convention : Reuss Voigt Hill
#
# Bulk Modulus (GPa) = 39.80258 53.27857 46.54058
# Shear Modulus (GPa) = 26.40847 29.05143 27.72995
#
# Velocity S-wave (km/s) = 3.66118 3.84002 3.75166
# Velocity P-wave (km/s) = 6.17050 6.83401 6.51071
#
# Compressibility (1/GPa) = 0.02512400
#
# Stress axis : x y z
#
# Youngs Moduli (GPa) = 111.01384 37.00914 74.78704
#
# Poissons Ratio (x) = 0.12601 0.26567
# Poissons Ratio (y) = 0.37799 0.38744
# Poissons Ratio (z) = 0.39436 0.19173
#
# Static dielectric constant tensor:
#      x y z
#    x 4.189080 0.000000 0.000000 
#    y 0.000000 3.633420 0.000000 
#    z 0.000000 0.000000 3.599640 
# 
# 
# High freq. dielectric constant tensor:
#      x y z
#    x 1.776470 0.000000 0.000000 
#    y 0.000000 1.752100 0.000000 
#    z 0.000000 0.000000 1.755730 
# 
# From -- ./inp_files/25677.got.cif
#   From: 2010.03.12/outbox.cif.g09.slc.cpg/sg51_13_cif.got.tgz:25677.got - 2010.04.16 13:43:02.
