data_PCOD8210391
_publ_section_title
;
Structure prediction by ZEFSAII (Michael W. Deem and Ramdas Pophale) SiO2 
 PCOD8210391
Probable space group: P M M A
;
_chemical_formula_sum "Si O2"
_cell_formula_units_Z 48
_cell_length_a 33.230287
_cell_length_b 9.277147
_cell_length_c 9.036611
_cell_angle_alpha 90.000000
_cell_angle_beta 90.000000
_cell_angle_gamma 90.000000
_cell_volume 2785.826838
_symmetry_space_group_name_H-M "P M M A"
_symmetry_group_IT_number 51
_symmetry_cell_setting 'orthorhombic'
loop_
_space_group_symop_operation_xyz
x,y,z
1/2-x,-y,z
1/2+x,-y,-z
-x,y,-z
-x,-y,-z
1/2+x,y,-z
1/2-x,y,z
x,-y,z
loop_
_atom_site_type_symbol
_atom_site_label
_atom_site_fract_x
_atom_site_fract_y
_atom_site_fract_z
Si Si1 0.459414 0.333298 0.572294
Si Si2 0.882388 0.661729 0.632320
Si Si3 0.294947 0.665702 0.923716
Si Si4 0.914690 0.833533 0.200692
Si Si5 0.653880 0.661559 0.341826
Si Si6 0.366708 0.831584 0.077642
O O1 0.500000 0.269707 0.500000
O O2 0.465184 0.500000 0.609310
O O3 0.422691 0.305038 0.460468
O O4 0.452041 0.255028 0.730692
O O5 0.883993 0.500000 0.698854
O O6 0.843824 0.677378 0.520472
O O7 0.878493 0.776518 0.761291
O O8 0.250000 0.726253 0.949560
O O9 0.297734 0.500000 0.974555
O O10 0.326464 0.753835 0.021247
O O11 0.304195 0.678220 0.746559
O O12 0.874463 0.787813 0.284711
O O13 0.923484 0.000000 0.229172
O O14 0.905565 0.801547 0.027460
O O15 0.635680 0.500000 0.308694
O O16 0.356951 0.000000 0.084388
#
# Coordination Sequence:
#
# PCOD8210391 Si02
#       6
#     8   8   8   8   8   8
#     4   9  18  33  52  73  95 120 155 200 245 285
#     4   9  17  30  49  71  94 122 157 195 235 281
#     4   9  17  31  52  74  94 120 156 197 239 280
#     4   9  17  29  46  68  92 123 161 193 227 275
#     4   8  15  29  48  69  92 119 154 194 232 273
#     4  10  20  32  47  69  99 132 162 193 231 280
#
# _framework density 17.230072
#
# number of rings (size 3 to 8) (size 9 to 14) (size 15 to 20)
#    0.000    3.000    0.000    2.000    0.000    5.333 
#    0.000    1.667    0.000    8.000    0.000    0.000 
#    0.000    0.000    0.000    0.000    0.000    0.000 
#
# Total GULP energy -594679.510053 kJ/mol
# GULP energy per Si atom -12389.156459 kJ/mol
# Density = 1.719086 g / cm^3
# Si number density = 17.230072 Si / 1000 Ang^3
#
#
#
# Elastic Constant Matrix: (Units=GPa)
#
#
# Indices 1 2 3 4 5 6 
#
# 1 56.0523 22.0273 22.9559 0.0000 0.0000 0.0000
# 2 22.0273 62.6654 42.5372 0.0000 0.0000 0.0000
# 3 22.9559 42.5372 93.0659 0.0000 0.0000 0.0000
# 4 0.0000 0.0000 0.0000 27.7397 0.0000 0.0000
# 5 0.0000 0.0000 0.0000 0.0000 16.7638 0.0000
# 6 0.0000 0.0000 0.0000 0.0000 0.0000 17.6836
#
#
#
# Elastic Compliance Matrix: (Units=1/GPa)
#
#
# Indices 1 2 3 4 5 6 
#
# 1 0.021136 -0.005641 -0.002635 0.000000 0.000000 0.000000
# 2 -0.005641 0.024641 -0.009871 0.000000 0.000000 0.000000
# 3 -0.002635 -0.009871 0.015907 0.000000 0.000000 0.000000
# 4 0.000000 0.000000 0.000000 0.036049 0.000000 0.000000
# 5 0.000000 0.000000 0.000000 0.000000 0.059652 0.000000
# 6 0.000000 0.000000 0.000000 0.000000 0.000000 0.056550
#
#
# Mechanical properties :
#
#
# Convention : Reuss Voigt Hill
#
# Bulk Modulus (GPa) = 39.38591 42.98049 41.18320
# Shear Modulus (GPa) = 19.32785 20.72162 20.02473
#
# Velocity S-wave (km/s) = 3.35289 3.47168 3.41280
# Velocity P-wave (km/s) = 6.15610 6.40853 6.28358
#
# Compressibility (1/GPa) = 0.02538979
#
# Stress axis : x y z
#
# Youngs Moduli (GPa) = 47.31163 40.58260 62.86573
#
# Poissons Ratio (x) = 0.22891 0.16568
# Poissons Ratio (y) = 0.26687 0.62056
# Poissons Ratio (z) = 0.12469 0.40060
#
# Static dielectric constant tensor:
#      x y z
#    x 3.121430 0.000000 0.000000 
#    y 0.000000 3.187110 0.000000 
#    z 0.000000 0.000000 3.280350 
# 
# 
# High freq. dielectric constant tensor:
#      x y z
#    x 1.637010 0.000000 0.000000 
#    y 0.000000 1.666190 0.000000 
#    z 0.000000 0.000000 1.659310 
# 
# From -- ./inp_files/12812.got.cif
#   From: 2010.03.12/outbox.cif.g09.slc.cpg/sg51_7_cif.got.tgz:12812.got - 2010.04.16 13:43:02.
