data_PCOD8210905
_publ_section_title
;
Structure prediction by ZEFSAII (Michael W. Deem and Ramdas Pophale) SiO2 
 PCOD8210905
Probable space group: P M M A
;
_chemical_formula_sum "Si O2"
_cell_formula_units_Z 44
_cell_length_a 8.801748
_cell_length_b 8.191060
_cell_length_c 30.145702
_cell_angle_alpha 90.000000
_cell_angle_beta 90.000000
_cell_angle_gamma 90.000000
_cell_volume 2173.373859
_symmetry_space_group_name_H-M "P M M A"
_symmetry_group_IT_number 51
_symmetry_cell_setting 'orthorhombic'
loop_
_space_group_symop_operation_xyz
x,y,z
1/2-x,-y,z
1/2+x,-y,-z
-x,y,-z
-x,-y,-z
1/2+x,y,-z
1/2-x,y,z
x,-y,z
loop_
_atom_site_type_symbol
_atom_site_label
_atom_site_fract_x
_atom_site_fract_y
_atom_site_fract_z
Si Si1 0.572260 0.313917 0.044714
Si Si2 0.929250 0.818294 0.688653
Si Si3 0.570172 0.314315 0.596893
Si Si4 0.068686 0.000000 0.548462
Si Si5 0.423321 0.311711 0.221058
Si Si6 0.419337 0.811811 0.130245
O O1 0.750000 0.298393 0.039551
O O2 0.518058 0.500000 0.050941
O O3 0.521175 0.213559 0.087257
O O4 0.500000 0.239004 0.000000
O O5 0.750000 0.804054 0.695011
O O6 0.978803 0.699511 0.648637
O O7 0.003886 0.772862 0.736314
O O8 0.980030 0.000000 0.675185
O O9 0.750000 0.285503 0.591166
O O10 0.526520 0.500000 0.581031
O O11 0.485407 0.169827 0.570806
O O12 0.000000 0.000000 0.500000
O O13 0.250000 0.000000 0.547223
O O14 0.250000 0.250222 0.216565
O O15 0.434089 0.500000 0.231347
O O16 0.499647 0.270426 0.173508
O O17 0.250000 0.739138 0.121554
O O18 0.409117 0.000000 0.141227
#
# Coordination Sequence:
#
# PCOD8210905 Si02
#       6
#     8   8   8   4   8   8
#     4  10  21  37  57  78  99 128 169 216 270 330
#     4   9  15  26  49  82 120 155 191 237 287 340
#     4  10  20  37  63  94 127 163 206 255 308 365
#     4  12  26  44  66  90 124 164 208 258 311 368
#     4   9  16  26  44  75 112 148 186 228 275 325
#     4  10  20  33  50  75 108 143 179 220 269 323
#
# _framework density 20.245021000000001
#
# number of rings (size 3 to 8) (size 9 to 14) (size 15 to 20)
#    0.000    2.182    0.909    3.000    0.000    7.636 
#    0.000    0.000    0.000    1.091    0.000    0.000 
#    0.000    0.000    0.000    0.000    0.000    0.000 
#
# Total GULP energy -545298.420468 kJ/mol
# GULP energy per Si atom -12393.145920 kJ/mol
# Density = 2.019894 g / cm^3
# Si number density = 20.245021 Si / 1000 Ang^3
#
#
#
# Elastic Constant Matrix: (Units=GPa)
#
#
# Indices 1 2 3 4 5 6 
#
# 1 56.0237 31.4488 38.3201 0.0000 0.0000 0.0000
# 2 31.4488 103.3432 58.6887 0.0000 0.0000 0.0000
# 3 38.3201 58.6887 158.5827 0.0000 0.0000 0.0000
# 4 0.0000 0.0000 0.0000 33.0042 0.0000 0.0000
# 5 0.0000 0.0000 0.0000 0.0000 18.6979 0.0000
# 6 0.0000 0.0000 0.0000 0.0000 0.0000 20.5709
#
#
#
# Elastic Compliance Matrix: (Units=1/GPa)
#
#
# Indices 1 2 3 4 5 6 
#
# 1 0.023196 -0.004907 -0.003789 0.000000 0.000000 0.000000
# 2 -0.004907 0.013289 -0.003732 0.000000 0.000000 0.000000
# 3 -0.003789 -0.003732 0.008603 0.000000 0.000000 0.000000
# 4 0.000000 0.000000 0.000000 0.030299 0.000000 0.000000
# 5 0.000000 0.000000 0.000000 0.000000 0.053482 0.000000
# 6 0.000000 0.000000 0.000000 0.000000 0.000000 0.048612
#
#
# Mechanical properties :
#
#
# Convention : Reuss Voigt Hill
#
# Bulk Modulus (GPa) = 49.42910 63.87386 56.65148
# Shear Modulus (GPa) = 23.91404 27.08741 25.50073
#
# Velocity S-wave (km/s) = 3.44063 3.66181 3.55294
# Velocity P-wave (km/s) = 6.34448 7.03543 6.69887
#
# Compressibility (1/GPa) = 0.02023100
#
# Stress axis : x y z
#
# Youngs Moduli (GPa) = 43.11114 75.24786 116.24163
#
# Poissons Ratio (x) = 0.36924 0.44045
# Poissons Ratio (y) = 0.21155 0.43387
# Poissons Ratio (z) = 0.16335 0.28086
#
# Static dielectric constant tensor:
#      x y z
#    x 3.162640 0.000000 0.000000 
#    y 0.000000 3.720220 0.000000 
#    z 0.000000 0.000000 3.945850 
# 
# 
# High freq. dielectric constant tensor:
#      x y z
#    x 1.731620 0.000000 0.000000 
#    y 0.000000 1.796750 0.000000 
#    z 0.000000 0.000000 1.809640 
# 
# From -- ./inp_files/36825.got.cif
#   From: 2010.03.12/outbox.cif.g09.slc.cpg/sg51_19_cif.got.tgz:36825.got - 2010.04.16 13:43:02.
