data_PCOD8210156
_publ_section_title
;
Structure prediction by ZEFSAII (Michael W. Deem and Ramdas Pophale) SiO2 
 PCOD8210156
Probable space group: P M M A
;
_chemical_formula_sum "Si O2"
_cell_formula_units_Z 56
_cell_length_a 9.324598
_cell_length_b 17.233170
_cell_length_c 23.194156
_cell_angle_alpha 90.000000
_cell_angle_beta 90.000000
_cell_angle_gamma 90.000000
_cell_volume 3727.124188
_symmetry_space_group_name_H-M "P M M A"
_symmetry_group_IT_number 51
_symmetry_cell_setting 'orthorhombic'
loop_
_space_group_symop_operation_xyz
x,y,z
1/2-x,-y,z
1/2+x,-y,-z
-x,y,-z
-x,-y,-z
1/2+x,y,-z
1/2-x,y,z
x,-y,z
loop_
_atom_site_type_symbol
_atom_site_label
_atom_site_fract_x
_atom_site_fract_y
_atom_site_fract_z
Si Si1 0.089088 0.091911 0.446355
Si Si2 0.907670 0.818606 0.050358
Si Si3 0.585382 0.408486 0.942498
Si Si4 0.907162 0.686732 0.143815
Si Si5 0.090248 0.089797 0.128358
Si Si6 0.085349 0.089002 0.665804
Si Si7 0.584302 0.179799 0.220143
O O1 0.250000 0.126496 0.446899
O O2 0.000000 0.127230 0.500000
O O3 0.012722 0.115537 0.387100
O O4 0.094782 0.000000 0.452247
O O5 0.750000 0.843054 0.028413
O O6 0.896228 0.759665 0.102172
O O7 0.995083 0.893952 0.071593
O O8 0.000000 0.778290 0.000000
O O9 0.750000 0.381248 0.949666
O O10 0.574464 0.500000 0.935091
O O11 0.521475 0.373045 0.883039
O O12 0.500000 0.381720 0.000000
O O13 0.750000 0.645819 0.147960
O O14 0.948501 0.727827 0.205522
O O15 0.250000 0.124275 0.119503
O O16 0.021367 0.126484 0.184516
O O17 0.097227 0.000000 0.139819
O O18 0.250000 0.091863 0.645631
O O19 0.056234 0.154583 0.714160
O O20 0.049149 0.000000 0.686051
O O21 0.750000 0.162301 0.203553
#
# Coordination Sequence:
#
# PCOD8210156 Si02
#       7
#     8   8   8   8   8   8   8
#     4   9  16  25  37  54  77 104 135 172 212 250
#     4  10  20  32  45  59  74  94 121 152 190 236
#     4  10  20  32  47  67  87 106 128 155 191 236
#     4   9  18  31  46  63  81 102 127 155 189 231
#     4  10  20  31  42  56  73  94 123 160 199 236
#     4   9  16  26  41  59  79 105 137 173 210 244
#     4   9  18  31  45  60  78 103 134 164 198 240
#
# _framework density 15.024989
#
# number of rings (size 3 to 8) (size 9 to 14) (size 15 to 20)
#    0.000    2.571    0.000    3.429    0.000    9.143 
#    0.000    1.429    0.000    0.000    0.000    0.000 
#    0.000    0.000    0.000    0.000    0.000    0.714 
#
# Total GULP energy -693883.782067 kJ/mol
# GULP energy per Si atom -12390.781823 kJ/mol
# Density = 1.499079 g / cm^3
# Si number density = 15.024989 Si / 1000 Ang^3
#
#
#
# Elastic Constant Matrix: (Units=GPa)
#
#
# Indices 1 2 3 4 5 6 
#
# 1 117.3577 27.4860 48.7479 0.0000 0.0000 0.0000
# 2 27.4860 34.1949 23.0567 0.0000 0.0000 0.0000
# 3 48.7479 23.0567 79.0884 0.0000 0.0000 0.0000
# 4 0.0000 0.0000 0.0000 14.7755 0.0000 0.0000
# 5 0.0000 0.0000 0.0000 0.0000 23.7903 0.0000
# 6 0.0000 0.0000 0.0000 0.0000 0.0000 18.2321
#
#
#
# Elastic Compliance Matrix: (Units=1/GPa)
#
#
# Indices 1 2 3 4 5 6 
#
# 1 0.012361 -0.005973 -0.005878 0.000000 0.000000 0.000000
# 2 -0.005973 0.039285 -0.007771 0.000000 0.000000 0.000000
# 3 -0.005878 -0.007771 0.018533 0.000000 0.000000 0.000000
# 4 0.000000 0.000000 0.000000 0.067680 0.000000 0.000000
# 5 0.000000 0.000000 0.000000 0.000000 0.042034 0.000000
# 6 0.000000 0.000000 0.000000 0.000000 0.000000 0.054848
#
#
# Mechanical properties :
#
#
# Convention : Reuss Voigt Hill
#
# Bulk Modulus (GPa) = 32.32591 47.69137 40.00864
# Shear Modulus (GPa) = 17.58724 20.11627 18.85176
#
# Velocity S-wave (km/s) = 3.42502 3.66301 3.54601
# Velocity P-wave (km/s) = 6.09938 7.04985 6.59177
#
# Compressibility (1/GPa) = 0.03093494
#
# Stress axis : x y z
#
# Youngs Moduli (GPa) = 80.89686 25.45496 53.95868
#
# Poissons Ratio (x) = 0.15204 0.31717
# Poissons Ratio (y) = 0.48318 0.41933
# Poissons Ratio (z) = 0.47551 0.19782
#
# Static dielectric constant tensor:
#      x y z
#    x 3.203420 0.000000 0.000000 
#    y 0.000000 2.639320 0.000000 
#    z 0.000000 0.000000 2.925100 
# 
# 
# High freq. dielectric constant tensor:
#      x y z
#    x 1.594450 0.000000 0.000000 
#    y 0.000000 1.528040 0.000000 
#    z 0.000000 0.000000 1.554210 
# 
# From -- ./inp_files/35048.got.cif
#   From: 2010.03.12/outbox.cif.g09.slc.cpg/sg51_18_cif.got.tgz:35048.got - 2010.04.16 13:43:02.
