data_PCOD8210240
_publ_section_title
;
Structure prediction by ZEFSAII (Michael W. Deem and Ramdas Pophale) SiO2 
 PCOD8210240
Probable space group: P M M A
;
_chemical_formula_sum "Si O2"
_cell_formula_units_Z 64
_cell_length_a 9.009429
_cell_length_b 20.303216
_cell_length_c 31.035454
_cell_angle_alpha 90.000000
_cell_angle_beta 90.000000
_cell_angle_gamma 90.000000
_cell_volume 5677.017133
_symmetry_space_group_name_H-M "P M M A"
_symmetry_group_IT_number 51
_symmetry_cell_setting 'orthorhombic'
loop_
_space_group_symop_operation_xyz
x,y,z
1/2-x,-y,z
1/2+x,-y,-z
-x,y,-z
-x,-y,-z
1/2+x,y,-z
1/2-x,y,z
x,-y,z
loop_
_atom_site_type_symbol
_atom_site_label
_atom_site_fract_x
_atom_site_fract_y
_atom_site_fract_z
Si Si1 0.423441 0.428425 0.453598
Si Si2 0.420031 0.921965 0.382099
Si Si3 0.582468 0.078521 0.127067
Si Si4 0.077977 0.694036 0.545871
Si Si5 0.423001 0.839659 0.546053
Si Si6 0.082375 0.078550 0.211846
Si Si7 0.917521 0.921472 0.957643
Si Si8 0.082552 0.921600 0.703585
O O1 0.500000 0.430968 0.500000
O O2 0.250000 0.414376 0.458827
O O3 0.449452 0.500000 0.430746
O O4 0.499186 0.366627 0.427811
O O5 0.250000 0.898674 0.382421
O O6 0.505516 0.892138 0.422334
O O7 0.494309 0.896057 0.338095
O O8 0.433207 0.000000 0.385690
O O9 0.750000 0.105496 0.127356
O O10 0.498687 0.105652 0.169217
O O11 0.500521 0.105762 0.084622
O O12 0.581538 0.000000 0.127010
O O13 0.250000 0.677170 0.540555
O O14 0.055482 0.766331 0.566769
O O15 0.000000 0.697714 0.500000
O O16 0.500000 0.846377 0.500000
O O17 0.250000 0.855750 0.540052
O O18 0.250000 0.105468 0.212387
O O19 0.997336 0.106119 0.253717
O O20 0.081577 0.000000 0.211963
O O21 0.750000 0.894526 0.957568
O O22 0.918596 0.000000 0.957643
O O23 0.000000 0.894252 0.000000
O O24 0.250000 0.894107 0.701957
O O25 0.082968 0.000000 0.704778
#
# Coordination Sequence:
#
# PCOD8210240 Si02
#       8
#     8   8   8   8   8   8   8   8
#     4   9  15  21  31  48  68  88 107 124 141 160
#     4  10  20  32  44  56  67  79  96 118 145 177
#     4   9  15  21  28  38  51  66  84 104 125 150
#     4   9  16  25  37  51  66  84 104 123 142 164
#     4  10  20  32  44  56  68  83 102 122 145 172
#     4   9  15  22  32  45  59  72  85 102 125 155
#     4   9  15  21  27  34  45  62  83 105 127 149
#     4   9  16  26  39  52  64  76  88 105 132 165
#
# _framework density 11.273526
#
# number of rings (size 3 to 8) (size 9 to 14) (size 15 to 20)
#    0.000    2.750    0.000    3.750    0.000    9.250 
#    0.000    0.000    0.000    0.000    0.000    0.000 
#    0.000    0.000    0.000    0.000    0.000    0.000 
#
# Total GULP energy -793101.334344 kJ/mol
# GULP energy per Si atom -12392.208349 kJ/mol
# Density = 1.124787 g / cm^3
# Si number density = 11.273526 Si / 1000 Ang^3
#
#
#
# Elastic Constant Matrix: (Units=GPa)
#
#
# Indices 1 2 3 4 5 6 
#
# 1 113.6244 19.2518 48.3019 0.0000 0.0000 0.0000
# 2 19.2518 17.6652 15.7290 0.0000 0.0000 0.0000
# 3 48.3019 15.7290 81.6263 0.0000 0.0000 0.0000
# 4 0.0000 0.0000 0.0000 0.0126 0.0000 0.0000
# 5 0.0000 0.0000 0.0000 0.0000 21.3623 0.0000
# 6 0.0000 0.0000 0.0000 0.0000 0.0000 11.2166
#
#
#
# Elastic Compliance Matrix: (Units=1/GPa)
#
#
# Indices 1 2 3 4 5 6 
#
# 1 0.012774 -0.008680 -0.005886 0.000000 0.000000 0.000000
# 2 -0.008680 0.074231 -0.009168 0.000000 0.000000 0.000000
# 3 -0.005886 -0.009168 0.017501 0.000000 0.000000 0.000000
# 4 0.000000 0.000000 0.000000 79.065846 0.000000 0.000000
# 5 0.000000 0.000000 0.000000 0.000000 0.046811 0.000000
# 6 0.000000 0.000000 0.000000 0.000000 0.000000 0.089153
#
#
# Mechanical properties :
#
#
# Convention : Reuss Voigt Hill
#
# Bulk Modulus (GPa) = 17.53224 42.16459 29.84842
# Shear Modulus (GPa) = 0.06299 15.16052 7.61176
#
# Velocity S-wave (km/s) = 0.23664 3.67112 2.60126
# Velocity P-wave (km/s) = 3.95729 7.44661 5.96289
#
# Compressibility (1/GPa) = 0.05703777
#
# Stress axis : x y z
#
# Youngs Moduli (GPa) = 78.28459 13.47144 57.14061
#
# Poissons Ratio (x) = 0.11693 0.33635
# Poissons Ratio (y) = 0.67952 0.52384
# Poissons Ratio (z) = 0.46081 0.12350
#
# Static dielectric constant tensor:
#      x y z
#    x 2.649910 0.000000 0.000000 
#    y 0.000000 2.407850 0.000000 
#    z 0.000000 0.000000 2.308550 
# 
# 
# High freq. dielectric constant tensor:
#      x y z
#    x 1.452030 0.000000 0.000000 
#    y 0.000000 1.366370 0.000000 
#    z 0.000000 0.000000 1.404270 
# 
# From -- ./inp_files/36493.got.cif
#   From: 2010.03.12/outbox.cif.g09.slc.cpg/sg51_19_cif.got.tgz:36493.got - 2010.04.16 13:43:02.
