data_PCOD8210831
_publ_section_title
;
Structure prediction by ZEFSAII (Michael W. Deem and Ramdas Pophale) SiO2 
 PCOD8210831
Probable space group: P M M A
;
_chemical_formula_sum "Si O2"
_cell_formula_units_Z 64
_cell_length_a 9.552842
_cell_length_b 9.124053
_cell_length_c 41.383823
_cell_angle_alpha 90.000000
_cell_angle_beta 90.000000
_cell_angle_gamma 90.000000
_cell_volume 3607.040362
_symmetry_space_group_name_H-M "P M M A"
_symmetry_group_IT_number 51
_symmetry_cell_setting 'orthorhombic'
loop_
_space_group_symop_operation_xyz
x,y,z
1/2-x,-y,z
1/2+x,-y,-z
-x,y,-z
-x,-y,-z
1/2+x,y,-z
1/2-x,y,z
x,-y,z
loop_
_atom_site_type_symbol
_atom_site_label
_atom_site_fract_x
_atom_site_fract_y
_atom_site_fract_z
Si Si1 0.586941 0.672077 0.158126
Si Si2 0.094076 0.325485 0.346468
Si Si3 0.088586 0.171319 0.530366
Si Si4 0.412129 0.329248 0.969163
Si Si5 0.085105 0.830395 0.213074
Si Si6 0.910728 0.327711 0.405271
Si Si7 0.083872 0.662924 0.275893
Si Si8 0.416234 0.834949 0.905843
O O1 0.750000 0.708066 0.163994
O O2 0.560359 0.500000 0.155575
O O3 0.497572 0.736860 0.187061
O O4 0.530884 0.745302 0.125180
O O5 0.250000 0.261609 0.351897
O O6 0.098561 0.500000 0.347487
O O7 0.033376 0.279010 0.311149
O O8 0.995228 0.263548 0.374701
O O9 0.250000 0.210105 0.523731
O O10 0.032448 0.252655 0.562222
O O11 0.000000 0.229192 0.500000
O O12 0.065192 0.000000 0.535798
O O13 0.250000 0.293366 0.975812
O O14 0.434794 0.500000 0.962034
O O15 0.500000 0.276714 0.000000
O O16 0.471766 0.241832 0.938352
O O17 0.250000 0.804222 0.208174
O O18 0.034907 0.775291 0.248290
O O19 0.045019 0.000000 0.209626
O O20 0.750000 0.285927 0.399441
O O21 0.932985 0.500000 0.409047
O O22 0.250000 0.652518 0.277235
O O23 0.022986 0.500000 0.268489
O O24 0.250000 0.834014 0.906459
O O25 0.475515 0.000000 0.904015
#
# Coordination Sequence:
#
# PCOD8210831 Si02
#       8
#     8   8   8   8   8   8   8   8
#     4  10  20  34  53  75  97 125 164 205 242 285
#     4   8  14  26  45  67  89 116 151 187 221 261
#     4   9  18  32  47  62  84 115 147 178 216 264
#     4   9  17  30  48  69  93 122 157 195 234 279
#     4  10  20  33  50  73 101 131 161 196 242 291
#     4   9  17  29  45  66  91 116 143 180 226 269
#     4   8  14  27  47  67  89 121 158 191 225 270
#     4   9  17  30  49  71  95 125 159 195 238 287
#
# _framework density 17.743078000000001
#
# number of rings (size 3 to 8) (size 9 to 14) (size 15 to 20)
#    0.000    3.000    0.000    1.875    0.000    4.000 
#    0.000    1.875    0.000    5.250    0.000    0.000 
#    0.000    0.000    0.000    0.000    0.000    0.000 
#
# Total GULP energy -793471.592245 kJ/mol
# GULP energy per Si atom -12397.993629 kJ/mol
# Density = 1.770269 g / cm^3
# Si number density = 17.743078 Si / 1000 Ang^3
#
#
#
# Elastic Constant Matrix: (Units=GPa)
#
#
# Indices 1 2 3 4 5 6 
#
# 1 45.9009 29.9083 59.0444 0.0000 0.0000 0.0000
# 2 29.9083 73.2041 64.6167 0.0000 0.0000 0.0000
# 3 59.0444 64.6167 186.8980 0.0000 0.0000 0.0000
# 4 0.0000 0.0000 0.0000 14.4201 0.0000 0.0000
# 5 0.0000 0.0000 0.0000 0.0000 32.3868 0.0000
# 6 0.0000 0.0000 0.0000 0.0000 0.0000 17.6275
#
#
#
# Elastic Compliance Matrix: (Units=1/GPa)
#
#
# Indices 1 2 3 4 5 6 
#
# 1 0.039254 -0.007327 -0.009868 0.000000 0.000000 0.000000
# 2 -0.007327 0.021028 -0.004955 0.000000 0.000000 0.000000
# 3 -0.009868 -0.004955 0.010181 0.000000 0.000000 0.000000
# 4 0.000000 0.000000 0.000000 0.069347 0.000000 0.000000
# 5 0.000000 0.000000 0.000000 0.000000 0.030877 0.000000
# 6 0.000000 0.000000 0.000000 0.000000 0.000000 0.056729
#
#
# Mechanical properties :
#
#
# Convention : Reuss Voigt Hill
#
# Bulk Modulus (GPa) = 38.22299 68.12687 53.17493
# Shear Modulus (GPa) = 17.82928 23.04912 20.43920
#
# Velocity S-wave (km/s) = 3.17339 3.60814 3.39773
# Velocity P-wave (km/s) = 5.91747 7.47248 6.73997
#
# Compressibility (1/GPa) = 0.02616226
#
# Stress axis : x y z
#
# Youngs Moduli (GPa) = 25.47540 47.55551 98.22172
#
# Poissons Ratio (x) = 0.34846 0.96921
# Poissons Ratio (y) = 0.18667 0.48671
# Poissons Ratio (z) = 0.25138 0.23565
#
# Static dielectric constant tensor:
#      x y z
#    x 3.125500 0.000000 0.000000 
#    y 0.000000 3.224470 0.000000 
#    z 0.000000 0.000000 3.651830 
# 
# 
# High freq. dielectric constant tensor:
#      x y z
#    x 1.652570 0.000000 0.000000 
#    y 0.000000 1.674340 0.000000 
#    z 0.000000 0.000000 1.702740 
# 
# From -- ./inp_files/37765.got.cif
#   From: 2010.03.12/outbox.cif.g09.slc.cpg/sg51_19_cif.got.tgz:37765.got - 2010.04.16 13:43:02.
