data_PCOD8210511
_publ_section_title
;
Structure prediction by ZEFSAII (Michael W. Deem and Ramdas Pophale) SiO2 
 PCOD8210511
Probable space group: P M M A
;
_chemical_formula_sum "Si O2"
_cell_formula_units_Z 64
_cell_length_a 24.128203
_cell_length_b 13.891184
_cell_length_c 10.317908
_cell_angle_alpha 90.000000
_cell_angle_beta 90.000000
_cell_angle_gamma 90.000000
_cell_volume 3458.246079
_symmetry_space_group_name_H-M "P M M A"
_symmetry_group_IT_number 51
_symmetry_cell_setting 'orthorhombic'
loop_
_space_group_symop_operation_xyz
x,y,z
1/2-x,-y,z
1/2+x,-y,-z
-x,y,-z
-x,-y,-z
1/2+x,y,-z
1/2-x,y,z
x,-y,z
loop_
_atom_site_type_symbol
_atom_site_label
_atom_site_fract_x
_atom_site_fract_y
_atom_site_fract_z
Si Si1 0.686553 0.719632 0.599363
Si Si2 0.964762 0.794840 0.373331
Si Si3 0.117959 0.390825 0.904858
Si Si4 0.055109 0.894167 0.232686
Si Si5 0.186349 0.612733 0.659725
Si Si6 0.126764 0.106396 0.486806
Si Si7 0.105479 0.704896 0.163442
Si Si8 0.490924 0.609218 0.764076
O O1 0.750000 0.699533 0.636819
O O2 0.666813 0.658260 0.475696
O O3 0.679370 0.832191 0.562057
O O4 0.648484 0.689662 0.719843
O O5 0.902968 0.836326 0.394832
O O6 0.966066 0.680439 0.345290
O O7 0.000000 0.814371 0.500000
O O8 0.992874 0.853296 0.254053
O O9 0.137676 0.500000 0.929879
O O10 0.149805 0.347793 0.779586
O O11 0.051586 0.386009 0.884931
O O12 0.134029 0.328131 0.030288
O O13 0.083471 0.903701 0.371333
O O14 0.088966 0.817305 0.146291
O O15 0.053205 0.000000 0.165307
O O16 0.250000 0.639710 0.688081
O O17 0.176927 0.500000 0.644945
O O18 0.146266 0.000000 0.532177
O O19 0.051972 0.639770 0.192278
O O20 0.492468 0.500000 0.708825
#
# Coordination Sequence:
#
# PCOD8210511 Si02
#       8
#     8   8   8   8   8   8   8   8
#     4  10  21  36  53  76 104 132 169 219 271 315
#     4   9  16  27  46  74 104 136 175 212 248 298
#     4  10  20  34  53  75 100 135 175 210 251 310
#     4   8  15  28  46  69  98 131 166 207 255 304
#     4   9  19  36  55  74 101 138 174 210 258 314
#     4   9  16  28  48  73 101 132 167 209 255 304
#     4  10  20  33  52  76 102 134 173 216 262 312
#     4  10  20  32  48  73 107 142 172 209 260 313
#
# _framework density 18.506491
#
# number of rings (size 3 to 8) (size 9 to 14) (size 15 to 20)
#    0.000    2.625    0.000    2.625    0.000    4.500 
#    0.000    1.250    0.000    9.000    0.000    0.000 
#    0.000    0.000    0.000    0.000    0.000    0.000 
#
# Total GULP energy -793221.139365 kJ/mol
# GULP energy per Si atom -12394.080303 kJ/mol
# Density = 1.846437 g / cm^3
# Si number density = 18.506491 Si / 1000 Ang^3
#
#
#
# Elastic Constant Matrix: (Units=GPa)
#
#
# Indices 1 2 3 4 5 6 
#
# 1 74.8508 33.5335 51.5067 0.0000 0.0000 0.0000
# 2 33.5335 117.3557 48.4603 0.0000 0.0000 0.0000
# 3 51.5067 48.4603 98.2454 0.0000 0.0000 0.0000
# 4 0.0000 0.0000 0.0000 17.9108 0.0000 0.0000
# 5 0.0000 0.0000 0.0000 0.0000 19.1937 0.0000
# 6 0.0000 0.0000 0.0000 0.0000 0.0000 20.1435
#
#
#
# Elastic Compliance Matrix: (Units=1/GPa)
#
#
# Indices 1 2 3 4 5 6 
#
# 1 0.021213 -0.001845 -0.010211 0.000000 0.000000 0.000000
# 2 -0.001845 0.010861 -0.004390 0.000000 0.000000 0.000000
# 3 -0.010211 -0.004390 0.017698 0.000000 0.000000 0.000000
# 4 0.000000 0.000000 0.000000 0.055832 0.000000 0.000000
# 5 0.000000 0.000000 0.000000 0.000000 0.052100 0.000000
# 6 0.000000 0.000000 0.000000 0.000000 0.000000 0.049644
#
#
# Mechanical properties :
#
#
# Convention : Reuss Voigt Hill
#
# Bulk Modulus (GPa) = 59.24489 61.93921 60.59205
# Shear Modulus (GPa) = 20.33620 21.91304 21.12462
#
# Velocity S-wave (km/s) = 3.31851 3.44477 3.38223
# Velocity P-wave (km/s) = 6.83856 7.02591 6.93287
#
# Compressibility (1/GPa) = 0.01687909
#
# Stress axis : x y z
#
# Youngs Moduli (GPa) = 47.14070 92.07185 56.50515
#
# Poissons Ratio (x) = 0.16986 0.57699
# Poissons Ratio (y) = 0.08697 0.24806
# Poissons Ratio (z) = 0.48137 0.40421
#
# Static dielectric constant tensor:
#      x y z
#    x 3.281790 0.000000 0.000000 
#    y 0.000000 3.665160 0.000000 
#    z 0.000000 0.000000 3.185920 
# 
# 
# High freq. dielectric constant tensor:
#      x y z
#    x 1.702860 0.000000 0.000000 
#    y 0.000000 1.722130 0.000000 
#    z 0.000000 0.000000 1.689330 
# 
# From -- ./inp_files/11849.got.cif
#   From: 2010.03.12/outbox.cif.g09.slc.cpg/sg51_6_cif.got.tgz:11849.got - 2010.04.16 13:43:02.
