data_PCOD8210092
_publ_section_title
;
Structure prediction by ZEFSAII (Michael W. Deem and Ramdas Pophale) SiO2 
 PCOD8210092
Probable space group: P M M A
;
_chemical_formula_sum "Si O2"
_cell_formula_units_Z 52
_cell_length_a 8.987430
_cell_length_b 19.488316
_cell_length_c 15.001409
_cell_angle_alpha 90.000000
_cell_angle_beta 90.000000
_cell_angle_gamma 90.000000
_cell_volume 2627.494924
_symmetry_space_group_name_H-M "P M M A"
_symmetry_group_IT_number 51
_symmetry_cell_setting 'orthorhombic'
loop_
_space_group_symop_operation_xyz
x,y,z
1/2-x,-y,z
1/2+x,-y,-z
-x,y,-z
-x,-y,-z
1/2+x,y,-z
1/2-x,y,z
x,-y,z
loop_
_atom_site_type_symbol
_atom_site_label
_atom_site_fract_x
_atom_site_fract_y
_atom_site_fract_z
Si Si1 0.914613 0.420614 0.142465
Si Si2 0.581525 0.500000 0.590500
Si Si3 0.077415 0.769817 0.591914
Si Si4 0.577457 0.080147 0.907372
Si Si5 0.086455 0.378204 0.661043
Si Si6 0.927122 0.187036 0.215498
Si Si7 0.573690 0.293655 0.911449
O O1 0.750000 0.420239 0.097573
O O2 0.969476 0.500000 0.152774
O O3 0.899769 0.378147 0.233448
O O4 0.032307 0.375129 0.087549
O O5 0.750000 0.500000 0.568034
O O6 0.500000 0.500000 0.500000
O O7 0.540773 0.567482 0.643470
O O8 0.250000 0.774496 0.571618
O O9 0.031231 0.692840 0.619199
O O10 0.036353 0.816319 0.678155
O O11 0.000000 0.793761 0.500000
O O12 0.750000 0.102768 0.911594
O O13 0.493213 0.118242 0.827405
O O14 0.561271 0.000000 0.887778
O O15 0.500000 0.100369 0.000000
O O16 0.250000 0.397664 0.621193
O O17 0.750000 0.192683 0.200327
O O18 0.006585 0.253394 0.172863
O O19 0.750000 0.284647 0.913405
O O20 0.500000 0.260518 0.000000
#
# Coordination Sequence:
#
# PCOD8210092 Si02
#       7
#     8   4   8   8   8   8   8
#     4  10  20  38  61  80 107 146 188 240 302 361
#     4  12  24  34  48  74 103 136 183 236 296 360
#     4  10  22  38  59  84 114 150 192 241 292 349
#     4  10  21  38  62  96 134 168 201 239 286 343
#     4  10  19  37  57  76 104 141 182 233 299 357
#     4  11  22  40  63  89 123 161 200 243 295 347
#     4  12  25  40  60  85 115 151 196 246 297 355
#
# _framework density 19.790713
#
# number of rings (size 3 to 8) (size 9 to 14) (size 15 to 20)
#    0.000    1.385    2.308    3.923    0.000    5.231 
#    0.000    0.000    0.000    0.462    0.000    0.000 
#    0.000    0.000    0.000    0.000    0.000    0.000 
#
# Total GULP energy -644478.357450 kJ/mol
# GULP energy per Si atom -12393.814566 kJ/mol
# Density = 1.974567 g / cm^3
# Si number density = 19.790713 Si / 1000 Ang^3
#
#
#
# Elastic Constant Matrix: (Units=GPa)
#
#
# Indices 1 2 3 4 5 6 
#
# 1 139.5404 45.0548 62.2071 0.0000 0.0000 0.0000
# 2 45.0548 85.0246 45.6288 0.0000 0.0000 0.0000
# 3 62.2071 45.6288 126.6043 0.0000 0.0000 0.0000
# 4 0.0000 0.0000 0.0000 37.3045 0.0000 0.0000
# 5 0.0000 0.0000 0.0000 0.0000 33.9261 0.0000
# 6 0.0000 0.0000 0.0000 0.0000 0.0000 29.5210
#
#
#
# Elastic Compliance Matrix: (Units=1/GPa)
#
#
# Indices 1 2 3 4 5 6 
#
# 1 0.009852 -0.003252 -0.003669 0.000000 0.000000 0.000000
# 2 -0.003252 0.015655 -0.004044 0.000000 0.000000 0.000000
# 3 -0.003669 -0.004044 0.011159 0.000000 0.000000 0.000000
# 4 0.000000 0.000000 0.000000 0.026806 0.000000 0.000000
# 5 0.000000 0.000000 0.000000 0.000000 0.029476 0.000000
# 6 0.000000 0.000000 0.000000 0.000000 0.000000 0.033874
#
#
# Mechanical properties :
#
#
# Convention : Reuss Voigt Hill
#
# Bulk Modulus (GPa) = 67.86144 72.99451 70.42798
# Shear Modulus (GPa) = 32.53865 33.36891 32.95378
#
# Velocity S-wave (km/s) = 4.05919 4.11066 4.08501
# Velocity P-wave (km/s) = 7.50556 7.71319 7.61008
#
# Compressibility (1/GPa) = 0.01473591
#
# Stress axis : x y z
#
# Youngs Moduli (GPa) = 101.50412 63.87825 89.61461
#
# Poissons Ratio (x) = 0.20771 0.32878
# Poissons Ratio (y) = 0.33005 0.36243
# Poissons Ratio (z) = 0.37240 0.25835
#
# Static dielectric constant tensor:
#      x y z
#    x 3.557680 0.000000 0.000000 
#    y 0.000000 3.451500 0.000000 
#    z 0.000000 0.000000 3.639560 
# 
# 
# High freq. dielectric constant tensor:
#      x y z
#    x 1.774810 0.000000 0.000000 
#    y 0.000000 1.753140 0.000000 
#    z 0.000000 0.000000 1.771160 
# 
# From -- ./inp_files/21628.got.cif
#   From: 2010.03.12/outbox.cif.g09.slc.cpg/sg51_11_cif.got.tgz:21628.got - 2010.04.16 13:43:02.
