data_PCOD8210137
_publ_section_title
;
Structure prediction by ZEFSAII (Michael W. Deem and Ramdas Pophale) SiO2 
 PCOD8210137
Probable space group: P M M A
;
_chemical_formula_sum "Si O2"
_cell_formula_units_Z 64
_cell_length_a 9.294508
_cell_length_b 15.173637
_cell_length_c 29.421393
_cell_angle_alpha 90.000000
_cell_angle_beta 90.000000
_cell_angle_gamma 90.000000
_cell_volume 4149.342907
_symmetry_space_group_name_H-M "P M M A"
_symmetry_group_IT_number 51
_symmetry_cell_setting 'orthorhombic'
loop_
_space_group_symop_operation_xyz
x,y,z
1/2-x,-y,z
1/2+x,-y,-z
-x,y,-z
-x,-y,-z
1/2+x,y,-z
1/2-x,y,z
x,-y,z
loop_
_atom_site_type_symbol
_atom_site_label
_atom_site_fract_x
_atom_site_fract_y
_atom_site_fract_z
Si Si1 0.588307 0.394852 0.956844
Si Si2 0.914999 0.735756 0.605360
Si Si3 0.909881 0.604873 0.127689
Si Si4 0.913605 0.262033 0.713239
Si Si5 0.917710 0.602687 0.454171
Si Si6 0.911756 0.097521 0.395452
Si Si7 0.418556 0.398616 0.771136
Si Si8 0.411296 0.096947 0.712561
O O1 0.750000 0.358280 0.959961
O O2 0.587295 0.500000 0.956667
O O3 0.517690 0.357806 0.910466
O O4 0.500000 0.358857 0.000000
O O5 0.750000 0.727845 0.589136
O O6 0.927064 0.731334 0.659324
O O7 0.009602 0.655472 0.586804
O O8 0.978817 0.828194 0.586179
O O9 0.750000 0.641389 0.117312
O O10 0.905008 0.500000 0.126185
O O11 0.960163 0.634241 0.178019
O O12 0.750000 0.263168 0.729545
O O13 0.994047 0.344979 0.734100
O O14 0.982983 0.171427 0.731983
O O15 0.750000 0.627593 0.458823
O O16 0.937664 0.500000 0.443188
O O17 0.000000 0.629264 0.500000
O O18 0.750000 0.118505 0.412749
O O19 0.913452 0.098254 0.341459
O O20 0.959708 0.000000 0.412759
O O21 0.250000 0.385064 0.762657
O O22 0.462022 0.500000 0.764746
O O23 0.250000 0.116816 0.730021
O O24 0.461378 0.000000 0.729671
#
# Coordination Sequence:
#
# PCOD8210137 Si02
#       8
#     8   8   8   8   8   8   8   8
#     4   9  15  21  31  48  68  90 119 160 208 252
#     4  10  20  32  47  69  95 119 142 171 207 247
#     4   8  14  25  38  50  66  92 129 171 212 251
#     4  10  20  30  42  64  91 116 142 175 212 247
#     4  10  21  37  56  74  90 111 140 174 212 253
#     4   8  14  26  45  68  92 117 144 172 202 239
#     4   9  18  31  44  56  75 109 149 184 216 252
#     4   8  14  26  44  63  83 109 140 173 208 247
#
# _framework density 15.42413
#
# number of rings (size 3 to 8) (size 9 to 14) (size 15 to 20)
#    0.000    3.000    0.000    3.000    0.000    5.500 
#    0.000    6.250    0.000    0.375    0.000    0.000 
#    0.000    0.000    0.000    0.000    0.000    0.625 
#
# Total GULP energy -793313.013042 kJ/mol
# GULP energy per Si atom -12395.515829 kJ/mol
# Density = 1.538902 g / cm^3
# Si number density = 15.424130 Si / 1000 Ang^3
#
#
#
# Elastic Constant Matrix: (Units=GPa)
#
#
# Indices 1 2 3 4 5 6 
#
# 1 112.5264 54.9945 36.6870 0.0000 0.0000 0.0000
# 2 54.9945 74.7768 29.2606 0.0000 0.0000 0.0000
# 3 36.6870 29.2606 36.4077 0.0000 0.0000 0.0000
# 4 0.0000 0.0000 0.0000 0.8216 0.0000 0.0000
# 5 0.0000 0.0000 0.0000 0.0000 25.4311 0.0000
# 6 0.0000 0.0000 0.0000 0.0000 0.0000 21.4508
#
#
#
# Elastic Compliance Matrix: (Units=1/GPa)
#
#
# Indices 1 2 3 4 5 6 
#
# 1 0.015908 -0.007916 -0.009667 0.000000 0.000000 0.000000
# 2 -0.007916 0.023448 -0.010868 0.000000 0.000000 0.000000
# 3 -0.009667 -0.010868 0.045942 0.000000 0.000000 0.000000
# 4 0.000000 0.000000 0.000000 1.217083 0.000000 0.000000
# 5 0.000000 0.000000 0.000000 0.000000 0.039322 0.000000
# 6 0.000000 0.000000 0.000000 0.000000 0.000000 0.046618
#
#
# Mechanical properties :
#
#
# Convention : Reuss Voigt Hill
#
# Bulk Modulus (GPa) = 35.21734 51.73278 43.47506
# Shear Modulus (GPa) = 3.43716 16.39196 9.91456
#
# Velocity S-wave (km/s) = 1.49441 3.26352 2.53809
# Velocity P-wave (km/s) = 5.08526 6.91475 6.06933
#
# Compressibility (1/GPa) = 0.02839510
#
# Stress axis : x y z
#
# Youngs Moduli (GPa) = 62.86326 42.64792 21.76635
#
# Poissons Ratio (x) = 0.33761 0.21042
# Poissons Ratio (y) = 0.49765 0.23655
# Poissons Ratio (z) = 0.60772 0.46349
#
# Static dielectric constant tensor:
#      x y z
#    x 3.157150 0.000000 0.000000 
#    y 0.000000 2.866430 0.000000 
#    z 0.000000 0.000000 2.781440 
# 
# 
# High freq. dielectric constant tensor:
#      x y z
#    x 1.602610 0.000000 0.000000 
#    y 0.000000 1.560390 0.000000 
#    z 0.000000 0.000000 1.561970 
# 
# From -- ./inp_files/37558.got.cif
#   From: 2010.03.12/outbox.cif.g09.slc.cpg/sg51_19_cif.got.tgz:37558.got - 2010.04.16 13:43:02.
