data_PCOD8210186
_publ_section_title
;
Structure prediction by ZEFSAII (Michael W. Deem and Ramdas Pophale) SiO2 
 PCOD8210186
Probable space group: P M M A
;
_chemical_formula_sum "Si O2"
_cell_formula_units_Z 56
_cell_length_a 9.346507
_cell_length_b 19.136099
_cell_length_c 18.588019
_cell_angle_alpha 90.000000
_cell_angle_beta 90.000000
_cell_angle_gamma 90.000000
_cell_volume 3324.572839
_symmetry_space_group_name_H-M "P M M A"
_symmetry_group_IT_number 51
_symmetry_cell_setting 'orthorhombic'
loop_
_space_group_symop_operation_xyz
x,y,z
1/2-x,-y,z
1/2+x,-y,-z
-x,y,-z
-x,-y,-z
1/2+x,y,-z
1/2-x,y,z
x,-y,z
loop_
_atom_site_type_symbol
_atom_site_label
_atom_site_fract_x
_atom_site_fract_y
_atom_site_fract_z
Si Si1 0.580937 0.648679 0.427126
Si Si2 0.914757 0.289836 0.786587
Si Si3 0.917140 0.785417 0.928673
Si Si4 0.914008 0.420899 0.698887
Si Si5 0.914460 0.777999 0.338398
Si Si6 0.584964 0.075883 0.298290
Si Si7 0.415901 0.922150 0.152765
O O1 0.500000 0.630028 0.500000
O O2 0.750000 0.636069 0.436638
O O3 0.521144 0.597731 0.365650
O O4 0.543497 0.729210 0.406003
O O5 0.750000 0.269947 0.776100
O O6 0.960884 0.271450 0.867844
O O7 0.943860 0.371338 0.767937
O O8 0.999011 0.240977 0.732291
O O9 0.750000 0.782471 0.945751
O O10 0.963975 0.863618 0.904493
O O11 0.000000 0.763878 0.000000
O O12 0.750000 0.411276 0.672214
O O13 0.943519 0.500000 0.723748
O O14 0.750000 0.763995 0.319671
O O15 0.944312 0.860514 0.354727
O O16 0.750000 0.075996 0.275603
O O17 0.498145 0.089996 0.226415
O O18 0.543269 0.000000 0.332465
O O19 0.250000 0.912339 0.171275
O O20 0.447169 0.000000 0.121502
#
# Coordination Sequence:
#
# PCOD8210186 Si02
#       7
#     8   8   8   8   8   8   8
#     4  10  20  33  49  72 101 131 158 186 221 267
#     4   9  17  31  49  69  92 118 153 192 230 275
#     4  10  20  31  44  64  90 123 158 194 234 275
#     4   9  18  33  54  77  98 122 151 185 227 274
#     4   9  17  29  47  69  92 120 156 194 232 271
#     4   9  16  26  43  67  91 116 150 193 238 279
#     4   9  17  29  43  61  88 120 153 191 235 279
#
# _framework density 16.844270000000002
#
# number of rings (size 3 to 8) (size 9 to 14) (size 15 to 20)
#    0.000    2.714    1.429    0.429    0.000    2.571 
#    0.000    0.000    0.000    0.857    0.000    0.000 
#    0.000    0.000    0.000    0.000    0.000    0.429 
#
# Total GULP energy -693997.868352 kJ/mol
# GULP energy per Si atom -12392.819078 kJ/mol
# Density = 1.680593 g / cm^3
# Si number density = 16.844270 Si / 1000 Ang^3
#
#
#
# Elastic Constant Matrix: (Units=GPa)
#
#
# Indices 1 2 3 4 5 6 
#
# 1 45.3014 31.1080 27.7523 0.0000 0.0000 0.0000
# 2 31.1080 128.6568 47.1692 0.0000 0.0000 0.0000
# 3 27.7523 47.1692 70.4549 0.0000 0.0000 0.0000
# 4 0.0000 0.0000 0.0000 16.5836 0.0000 0.0000
# 5 0.0000 0.0000 0.0000 0.0000 21.8624 0.0000
# 6 0.0000 0.0000 0.0000 0.0000 0.0000 19.0821
#
#
#
# Elastic Compliance Matrix: (Units=1/GPa)
#
#
# Indices 1 2 3 4 5 6 
#
# 1 0.030532 -0.003940 -0.009389 0.000000 0.000000 0.000000
# 2 -0.003940 0.010810 -0.005685 0.000000 0.000000 0.000000
# 3 -0.009389 -0.005685 0.021698 0.000000 0.000000 0.000000
# 4 0.000000 0.000000 0.000000 0.060301 0.000000 0.000000
# 5 0.000000 0.000000 0.000000 0.000000 0.045741 0.000000
# 6 0.000000 0.000000 0.000000 0.000000 0.000000 0.052405
#
#
# Mechanical properties :
#
#
# Convention : Reuss Voigt Hill
#
# Bulk Modulus (GPa) = 39.98144 50.71910 45.35027
# Shear Modulus (GPa) = 18.66721 20.73120 19.69920
#
# Velocity S-wave (km/s) = 3.33261 3.51202 3.42349
# Velocity P-wave (km/s) = 6.21256 6.82801 6.52754
#
# Compressibility (1/GPa) = 0.02501161
#
# Stress axis : x y z
#
# Youngs Moduli (GPa) = 32.75303 92.51071 46.08794
#
# Poissons Ratio (x) = 0.36450 0.43270
# Poissons Ratio (y) = 0.12905 0.26201
# Poissons Ratio (z) = 0.30750 0.52592
#
# Static dielectric constant tensor:
#      x y z
#    x 3.429840 0.000000 0.000000 
#    y 0.000000 3.542600 0.000000 
#    z 0.000000 0.000000 2.875960 
# 
# 
# High freq. dielectric constant tensor:
#      x y z
#    x 1.652560 0.000000 0.000000 
#    y 0.000000 1.658850 0.000000 
#    z 0.000000 0.000000 1.609990 
# 
# From -- ./inp_files/28202.got.cif
#   From: 2010.03.12/outbox.cif.g09.slc.cpg/sg51_15_cif.got.tgz:28202.got - 2010.04.16 13:43:02.
