data_PCOD8210068
_publ_section_title
;
Structure prediction by ZEFSAII (Michael W. Deem and Ramdas Pophale) SiO2 
 PCOD8210068
Probable space group: P M M A
;
_chemical_formula_sum "Si O2"
_cell_formula_units_Z 64
_cell_length_a 19.642154
_cell_length_b 18.740371
_cell_length_c 9.145658
_cell_angle_alpha 90.000000
_cell_angle_beta 90.000000
_cell_angle_gamma 90.000000
_cell_volume 3366.528171
_symmetry_space_group_name_H-M "P M M A"
_symmetry_group_IT_number 51
_symmetry_cell_setting 'orthorhombic'
loop_
_space_group_symop_operation_xyz
x,y,z
1/2-x,-y,z
1/2+x,-y,-z
-x,y,-z
-x,-y,-z
1/2+x,y,-z
1/2-x,y,z
x,-y,z
loop_
_atom_site_type_symbol
_atom_site_label
_atom_site_fract_x
_atom_site_fract_y
_atom_site_fract_z
Si Si1 0.327688 0.804776 0.074712
Si Si2 0.170664 0.422728 0.503085
Si Si3 0.927454 0.579143 0.929136
Si Si4 0.671605 0.917565 0.691395
Si Si5 0.326224 0.382552 0.812569
Si Si6 0.389390 0.691465 0.291364
Si Si7 0.077231 0.181620 0.490589
Si Si8 0.672617 0.782977 0.240343
O O1 0.250000 0.789295 0.041890
O O2 0.359957 0.811444 0.913078
O O3 0.340820 0.879988 0.153065
O O4 0.348985 0.737549 0.172624
O O5 0.250000 0.420831 0.530038
O O6 0.147594 0.500000 0.437096
O O7 0.139075 0.416722 0.666919
O O8 0.156810 0.356645 0.396555
O O9 0.908530 0.500000 0.870290
O O10 0.870833 0.602408 0.045272
O O11 0.935518 0.635356 0.796547
O O12 0.000000 0.577411 0.000000
O O13 0.750000 0.906622 0.641143
O O14 0.621859 0.881649 0.576230
O O15 0.652852 0.000000 0.708323
O O16 0.250000 0.412152 0.844530
O O17 0.321760 0.300400 0.775413
O O18 0.430127 0.747029 0.392093
O O19 0.115425 0.197484 0.641495
O O20 0.000000 0.152873 0.500000
O O21 0.750000 0.812593 0.277135
#
# Coordination Sequence:
#
# PCOD8210068 Si02
#       8
#     8   8   8   8   8   8   8   8
#     4   9  18  33  58  87 111 143 187 236 286 338
#     4  10  20  33  52  79 109 142 184 239 298 351
#     4  11  25  40  54  76 110 153 198 248 301 355
#     4   9  19  39  65  92 123 156 188 229 285 345
#     4  10  20  37  59  79 105 143 187 240 297 350
#     4  11  21  34  53  75 110 148 192 242 291 348
#     4  11  24  37  58  89 119 157 198 238 286 342
#     4  10  19  36  60  85 114 148 192 242 289 338
#
# _framework density 19.010681999999999
#
# number of rings (size 3 to 8) (size 9 to 14) (size 15 to 20)
#    0.000    1.875    2.500    1.500    1.750    2.500 
#    0.000    2.500    0.000    6.000    0.000    0.000 
#    0.000    0.000    0.000    0.000    0.000    0.000 
#
# Total GULP energy -792889.428538 kJ/mol
# GULP energy per Si atom -12388.897321 kJ/mol
# Density = 1.896741 g / cm^3
# Si number density = 19.010682 Si / 1000 Ang^3
#
#
#
# Elastic Constant Matrix: (Units=GPa)
#
#
# Indices 1 2 3 4 5 6 
#
# 1 77.8664 35.6037 47.2609 0.0000 0.0000 0.0000
# 2 35.6037 121.6579 48.4398 0.0000 0.0000 0.0000
# 3 47.2609 48.4398 120.2809 0.0000 0.0000 0.0000
# 4 0.0000 0.0000 0.0000 23.1729 0.0000 0.0000
# 5 0.0000 0.0000 0.0000 0.0000 3.9831 0.0000
# 6 0.0000 0.0000 0.0000 0.0000 0.0000 24.2683
#
#
#
# Elastic Compliance Matrix: (Units=1/GPa)
#
#
# Indices 1 2 3 4 5 6 
#
# 1 0.017665 -0.002866 -0.005787 0.000000 0.000000 0.000000
# 2 -0.002866 0.010254 -0.003004 0.000000 0.000000 0.000000
# 3 -0.005787 -0.003004 0.011797 0.000000 0.000000 0.000000
# 4 0.000000 0.000000 0.000000 0.043154 0.000000 0.000000
# 5 0.000000 0.000000 0.000000 0.000000 0.251058 0.000000
# 6 0.000000 0.000000 0.000000 0.000000 0.000000 0.041206
#
#
# Mechanical properties :
#
#
# Convention : Reuss Voigt Hill
#
# Bulk Modulus (GPa) = 60.95956 64.71266 62.83611
# Shear Modulus (GPa) = 12.37882 22.85160 17.61521
#
# Velocity S-wave (km/s) = 2.55453 3.47081 3.04730
# Velocity P-wave (km/s) = 6.39034 7.08351 6.74583
#
# Compressibility (1/GPa) = 0.01640432
#
# Stress axis : x y z
#
# Youngs Moduli (GPa) = 56.60854 97.51943 84.76484
#
# Poissons Ratio (x) = 0.27945 0.49053
# Poissons Ratio (y) = 0.16222 0.25461
# Poissons Ratio (z) = 0.32759 0.29292
#
# Static dielectric constant tensor:
#      x y z
#    x 4.948820 0.000000 0.000000 
#    y 0.000000 3.546050 0.000000 
#    z 0.000000 0.000000 3.823050 
# 
# 
# High freq. dielectric constant tensor:
#      x y z
#    x 1.714670 0.000000 0.000000 
#    y 0.000000 1.735650 0.000000 
#    z 0.000000 0.000000 1.750930 
# 
# From -- ./inp_files/11208.got.cif
#   From: 2010.03.12/outbox.cif.g09.slc.cpg/sg51_6_cif.got.tgz:11208.got - 2010.04.16 13:43:02.
