data_PCOD8210331
_publ_section_title
;
Structure prediction by ZEFSAII (Michael W. Deem and Ramdas Pophale) SiO2 
 PCOD8210331
Probable space group: P M M A
;
_chemical_formula_sum "Si O2"
_cell_formula_units_Z 40
_cell_length_a 19.674167
_cell_length_b 9.077457
_cell_length_c 14.320363
_cell_angle_alpha 90.000000
_cell_angle_beta 90.000000
_cell_angle_gamma 90.000000
_cell_volume 2557.493748
_symmetry_space_group_name_H-M "P M M A"
_symmetry_group_IT_number 51
_symmetry_cell_setting 'orthorhombic'
loop_
_space_group_symop_operation_xyz
x,y,z
1/2-x,-y,z
1/2+x,-y,-z
-x,y,-z
-x,-y,-z
1/2+x,y,-z
1/2-x,y,z
x,-y,z
loop_
_atom_site_type_symbol
_atom_site_label
_atom_site_fract_x
_atom_site_fract_y
_atom_site_fract_z
Si Si1 0.078955 0.666467 0.754340
Si Si2 0.170472 0.830103 0.900249
Si Si3 0.503379 0.826353 0.392673
Si Si4 0.328100 0.672362 0.089414
Si Si5 0.429541 0.333848 0.246240
O O1 0.105130 0.500000 0.738211
O O2 0.132792 0.752899 0.815463
O O3 0.069720 0.748634 0.653980
O O4 0.004183 0.666008 0.803633
O O5 0.250000 0.807767 0.883176
O O6 0.149575 0.000000 0.903500
O O7 0.147991 0.757055 0.997276
O O8 0.500000 0.779032 0.500000
O O9 0.435011 0.767538 0.339533
O O10 0.509347 0.000000 0.380143
O O11 0.250000 0.707307 0.113745
O O12 0.340288 0.500000 0.071669
O O13 0.373634 0.730660 0.175309
O O14 0.409389 0.500000 0.276130
#
# Coordination Sequence:
#
# PCOD8210331 Si02
#       5
#     8   8   8   8   8
#     4   9  18  31  48  70  93 120 155 195 231 271
#     4  10  20  32  46  67  96 127 157 189 227 273
#     4   9  17  30  49  71  93 118 150 189 237 284
#     4   9  17  31  49  67  93 128 159 186 222 270
#     4   8  17  30  46  71  94 119 154 193 231 268
#
# _framework density 15.640312
#
# number of rings (size 3 to 8) (size 9 to 14) (size 15 to 20)
#    1.200    1.800    0.000    1.200    0.000    4.400 
#    0.000    4.000    0.000    1.200    0.000    5.600 
#    0.000    0.000    0.000    0.000    0.000    0.000 
#
# Total GULP energy -495628.879745 kJ/mol
# GULP energy per Si atom -12390.721994 kJ/mol
# Density = 1.560471 g / cm^3
# Si number density = 15.640312 Si / 1000 Ang^3
#
#
#
# Elastic Constant Matrix: (Units=GPa)
#
#
# Indices 1 2 3 4 5 6 
#
# 1 44.1556 35.6286 52.1936 0.0000 0.0000 0.0000
# 2 35.6286 94.3186 73.0990 0.0000 0.0000 0.0000
# 3 52.1936 73.0990 142.5995 0.0000 0.0000 0.0000
# 4 0.0000 0.0000 0.0000 29.8071 0.0000 0.0000
# 5 0.0000 0.0000 0.0000 0.0000 8.6103 0.0000
# 6 0.0000 0.0000 0.0000 0.0000 0.0000 20.5600
#
#
#
# Elastic Compliance Matrix: (Units=1/GPa)
#
#
# Indices 1 2 3 4 5 6 
#
# 1 0.042253 -0.006595 -0.012084 0.000000 0.000000 0.000000
# 2 -0.006595 0.018621 -0.007131 0.000000 0.000000 0.000000
# 3 -0.012084 -0.007131 0.015091 0.000000 0.000000 0.000000
# 4 0.000000 0.000000 0.000000 0.033549 0.000000 0.000000
# 5 0.000000 0.000000 0.000000 0.000000 0.116140 0.000000
# 6 0.000000 0.000000 0.000000 0.000000 0.000000 0.048638
#
#
# Mechanical properties :
#
#
# Convention : Reuss Voigt Hill
#
# Bulk Modulus (GPa) = 41.07944 66.99066 54.03505
# Shear Modulus (GPa) = 14.96881 19.80567 17.38724
#
# Velocity S-wave (km/s) = 3.09700 3.56240 3.33782
# Velocity P-wave (km/s) = 6.25386 7.73602 7.03408
#
# Compressibility (1/GPa) = 0.02434308
#
# Stress axis : x y z
#
# Youngs Moduli (GPa) = 23.66693 53.70394 66.26317
#
# Poissons Ratio (x) = 0.35419 0.80075
# Poissons Ratio (y) = 0.15609 0.47254
# Poissons Ratio (z) = 0.28600 0.38298
#
# Static dielectric constant tensor:
#      x y z
#    x 2.825020 0.000000 0.000000 
#    y 0.000000 3.034990 0.000000 
#    z 0.000000 0.000000 2.844750 
# 
# 
# High freq. dielectric constant tensor:
#      x y z
#    x 1.577680 0.000000 0.000000 
#    y 0.000000 1.611760 0.000000 
#    z 0.000000 0.000000 1.584630 
# 
# From -- ./inp_files/25410.got.cif
#   From: 2010.03.12/outbox.cif.g09.slc.cpg/sg51_13_cif.got.tgz:25410.got - 2010.04.16 13:43:02.
