data_PCOD8210686
_publ_section_title
;
Structure prediction by ZEFSAII (Michael W. Deem and Ramdas Pophale) SiO2 
 PCOD8210686
Probable space group: P M M A
;
_chemical_formula_sum "Si O2"
_cell_formula_units_Z 44
_cell_length_a 9.502922
_cell_length_b 7.583880
_cell_length_c 34.033937
_cell_angle_alpha 90.000000
_cell_angle_beta 90.000000
_cell_angle_gamma 90.000000
_cell_volume 2452.792490
_symmetry_space_group_name_H-M "P M M A"
_symmetry_group_IT_number 51
_symmetry_cell_setting 'orthorhombic'
loop_
_space_group_symop_operation_xyz
x,y,z
1/2-x,-y,z
1/2+x,-y,-z
-x,y,-z
-x,-y,-z
1/2+x,y,-z
1/2-x,y,z
x,-y,z
loop_
_atom_site_type_symbol
_atom_site_label
_atom_site_fract_x
_atom_site_fract_y
_atom_site_fract_z
Si Si1 0.582507 0.500000 0.459703
Si Si2 0.416506 0.500000 0.096946
Si Si3 0.405903 0.208955 0.683865
Si Si4 0.082766 0.804395 0.597867
Si Si5 0.916668 0.500000 0.815825
Si Si6 0.413700 0.201147 0.038519
Si Si7 0.414918 0.202494 0.242945
O O1 0.750000 0.500000 0.466892
O O2 0.500000 0.500000 0.500000
O O3 0.531607 0.328315 0.435737
O O4 0.250000 0.500000 0.100727
O O5 0.484255 0.500000 0.140535
O O6 0.466197 0.324964 0.073953
O O7 0.250000 0.289192 0.691112
O O8 0.466010 0.265357 0.640974
O O9 0.509440 0.275166 0.717942
O O10 0.396348 0.000000 0.684303
O O11 0.250000 0.813018 0.598999
O O12 0.021478 0.000000 0.588770
O O13 0.750000 0.500000 0.819124
O O14 0.966139 0.676662 0.793248
O O15 0.250000 0.232797 0.029030
O O16 0.443067 0.000000 0.051194
O O17 0.500000 0.253343 0.000000
O O18 0.250000 0.223073 0.250528
O O19 0.455329 0.000000 0.233297
#
# Coordination Sequence:
#
# PCOD8210686 Si02
#       7
#     4   4   8   8   4   8   8
#     4  10  20  33  48  66  89 117 148 179 213 257
#     4   9  17  29  45  65  89 117 151 187 214 248
#     4   8  14  27  48  70  89 112 145 183 220 258
#     4   8  15  29  48  68  89 114 145 180 217 258
#     4   9  18  30  43  63  90 120 154 184 212 253
#     4   9  17  29  47  70  91 112 142 181 225 268
#     4   9  17  29  45  65  90 118 145 178 221 261
#
# _framework density 17.938737
#
# number of rings (size 3 to 8) (size 9 to 14) (size 15 to 20)
#    0.000    3.273    0.000    1.364    0.000    1.818 
#    0.000    5.909    0.000    3.273    0.000    5.091 
#    0.000    0.000    0.000    0.000    0.000    0.000 
#
# Total GULP energy -545352.573765 kJ/mol
# GULP energy per Si atom -12394.376676 kJ/mol
# Density = 1.789791 g / cm^3
# Si number density = 17.938737 Si / 1000 Ang^3
#
#
#
# Elastic Constant Matrix: (Units=GPa)
#
#
# Indices 1 2 3 4 5 6 
#
# 1 32.5549 26.0507 43.7237 0.0000 0.0000 0.0000
# 2 26.0507 112.8710 90.8277 0.0000 0.0000 0.0000
# 3 43.7237 90.8277 190.8033 0.0000 0.0000 0.0000
# 4 0.0000 0.0000 0.0000 29.9970 0.0000 0.0000
# 5 0.0000 0.0000 0.0000 0.0000 25.5851 0.0000
# 6 0.0000 0.0000 0.0000 0.0000 0.0000 11.5145
#
#
#
# Elastic Compliance Matrix: (Units=1/GPa)
#
#
# Indices 1 2 3 4 5 6 
#
# 1 0.045164 -0.003397 -0.008733 0.000000 0.000000 0.000000
# 2 -0.003397 0.014616 -0.006179 0.000000 0.000000 0.000000
# 3 -0.008733 -0.006179 0.010184 0.000000 0.000000 0.000000
# 4 0.000000 0.000000 0.000000 0.033337 0.000000 0.000000
# 5 0.000000 0.000000 0.000000 0.000000 0.039085 0.000000
# 6 0.000000 0.000000 0.000000 0.000000 0.000000 0.086847
#
#
# Mechanical properties :
#
#
# Convention : Reuss Voigt Hill
#
# Bulk Modulus (GPa) = 29.98814 73.04817 51.51815
# Shear Modulus (GPa) = 18.05277 25.12778 21.59028
#
# Velocity S-wave (km/s) = 3.17575 3.74673 3.47299
# Velocity P-wave (km/s) = 5.49550 7.71535 6.69803
#
# Compressibility (1/GPa) = 0.03334652
#
# Stress axis : x y z
#
# Youngs Moduli (GPa) = 22.14147 68.41739 98.19627
#
# Poissons Ratio (x) = 0.23239 0.85752
# Poissons Ratio (y) = 0.07521 0.60679
# Poissons Ratio (z) = 0.19335 0.42277
#
# Static dielectric constant tensor:
#      x y z
#    x 3.349240 0.000000 0.000000 
#    y 0.000000 3.534860 0.000000 
#    z 0.000000 0.000000 3.588950 
# 
# 
# High freq. dielectric constant tensor:
#      x y z
#    x 1.646120 0.000000 0.000000 
#    y 0.000000 1.701070 0.000000 
#    z 0.000000 0.000000 1.694420 
# 
# From -- ./inp_files/36865.got.cif
#   From: 2010.03.12/outbox.cif.g09.slc.cpg/sg51_19_cif.got.tgz:36865.got - 2010.04.16 13:43:02.
