data_PCOD8210548
_publ_section_title
;
Structure prediction by ZEFSAII (Michael W. Deem and Ramdas Pophale) SiO2 
 PCOD8210548
Probable space group: P M M A
;
_chemical_formula_sum "Si O2"
_cell_formula_units_Z 56
_cell_length_a 8.696616
_cell_length_b 22.755829
_cell_length_c 14.637153
_cell_angle_alpha 90.000000
_cell_angle_beta 90.000000
_cell_angle_gamma 90.000000
_cell_volume 2896.673647
_symmetry_space_group_name_H-M "P M M A"
_symmetry_group_IT_number 51
_symmetry_cell_setting 'orthorhombic'
loop_
_space_group_symop_operation_xyz
x,y,z
1/2-x,-y,z
1/2+x,-y,-z
-x,y,-z
-x,-y,-z
1/2+x,y,-z
1/2-x,y,z
x,-y,z
loop_
_atom_site_type_symbol
_atom_site_label
_atom_site_fract_x
_atom_site_fract_y
_atom_site_fract_z
Si Si1 0.568735 0.842793 0.268350
Si Si2 0.067733 0.212505 0.098488
Si Si3 0.073855 0.566258 0.217305
Si Si4 0.430540 0.663172 0.903465
Si Si5 0.569051 0.258706 0.404713
Si Si6 0.426852 0.617135 0.407380
Si Si7 0.071910 0.068922 0.404500
O O1 0.750000 0.846573 0.253787
O O2 0.487178 0.836806 0.170127
O O3 0.518137 0.786611 0.327345
O O4 0.511436 0.901209 0.318792
O O5 0.250000 0.213979 0.092550
O O6 0.006778 0.276326 0.130645
O O7 0.000000 0.195804 0.000000
O O8 0.250000 0.581261 0.191451
O O9 0.031894 0.500000 0.187730
O O10 0.050285 0.570697 0.326318
O O11 0.961307 0.611113 0.167361
O O12 0.250000 0.673838 0.912933
O O13 0.500000 0.643549 0.000000
O O14 0.500000 0.236359 0.500000
O O15 0.750000 0.262175 0.414359
O O16 0.506016 0.322276 0.377443
O O17 0.500000 0.591002 0.500000
O O18 0.250000 0.630732 0.427345
O O19 0.250000 0.086127 0.404951
O O20 0.000000 0.091078 0.500000
O O21 0.045072 0.000000 0.392518
#
# Coordination Sequence:
#
# PCOD8210548 Si02
#       7
#     8   8   8   8   8   8   8
#     4  11  22  35  55  84 115 148 188 232 279 330
#     4  11  22  38  60  85 114 146 181 224 275 330
#     4  10  22  39  56  76 103 136 177 223 270 323
#     4  11  22  38  60  84 110 140 175 217 271 331
#     4  10  20  32  49  75 107 139 173 217 266 322
#     4  10  20  34  53  74 100 136 174 216 266 319
#     4  10  21  37  57  83 117 158 201 241 281 326
#
# _framework density 19.332521
#
# number of rings (size 3 to 8) (size 9 to 14) (size 15 to 20)
#    0.000    1.571    0.000    7.286    0.000    8.571 
#    0.000    0.000    0.000    0.429    0.000    0.000 
#    0.000    0.000    0.000    0.000    0.000    0.000 
#
# Total GULP energy -694638.387381 kJ/mol
# GULP energy per Si atom -12404.256918 kJ/mol
# Density = 1.928852 g / cm^3
# Si number density = 19.332521 Si / 1000 Ang^3
#
#
#
# Elastic Constant Matrix: (Units=GPa)
#
#
# Indices 1 2 3 4 5 6 
#
# 1 123.7827 38.1224 48.5617 0.0000 0.0000 0.0000
# 2 38.1224 60.6538 48.4991 0.0000 0.0000 0.0000
# 3 48.5617 48.4991 108.6230 0.0000 0.0000 0.0000
# 4 0.0000 0.0000 0.0000 26.7780 0.0000 0.0000
# 5 0.0000 0.0000 0.0000 0.0000 34.4695 0.0000
# 6 0.0000 0.0000 0.0000 0.0000 0.0000 22.4884
#
#
#
# Elastic Compliance Matrix: (Units=1/GPa)
#
#
# Indices 1 2 3 4 5 6 
#
# 1 0.010511 -0.004431 -0.002721 0.000000 0.000000 0.000000
# 2 -0.004431 0.027509 -0.010302 0.000000 0.000000 0.000000
# 3 -0.002721 -0.010302 0.015022 0.000000 0.000000 0.000000
# 4 0.000000 0.000000 0.000000 0.037344 0.000000 0.000000
# 5 0.000000 0.000000 0.000000 0.000000 0.029011 0.000000
# 6 0.000000 0.000000 0.000000 0.000000 0.000000 0.044467
#
#
# Mechanical properties :
#
#
# Convention : Reuss Voigt Hill
#
# Bulk Modulus (GPa) = 55.14011 62.60286 58.87148
# Shear Modulus (GPa) = 24.41216 27.27227 25.84221
#
# Velocity S-wave (km/s) = 3.55738 3.75999 3.66009
# Velocity P-wave (km/s) = 6.74219 7.16258 6.95556
#
# Compressibility (1/GPa) = 0.01813562
#
# Stress axis : x y z
#
# Youngs Moduli (GPa) = 95.14208 36.35151 66.56856
#
# Poissons Ratio (x) = 0.16106 0.18111
# Poissons Ratio (y) = 0.42155 0.68577
# Poissons Ratio (z) = 0.25885 0.37448
#
# Static dielectric constant tensor:
#      x y z
#    x 3.621600 0.000000 0.000000 
#    y 0.000000 3.342490 0.000000 
#    z 0.000000 0.000000 3.563220 
# 
# 
# High freq. dielectric constant tensor:
#      x y z
#    x 1.767510 0.000000 0.000000 
#    y 0.000000 1.733510 0.000000 
#    z 0.000000 0.000000 1.756060 
# 
# From -- ./inp_files/21704.got.cif
#   From: 2010.03.12/outbox.cif.g09.slc.cpg/sg51_11_cif.got.tgz:21704.got - 2010.04.16 13:43:02.
