data_PCOD8210561
_publ_section_title
;
Structure prediction by ZEFSAII (Michael W. Deem and Ramdas Pophale) SiO2 
 PCOD8210561
Probable space group: P M M A
;
_chemical_formula_sum "Si O2"
_cell_formula_units_Z 64
_cell_length_a 9.030478
_cell_length_b 15.645827
_cell_length_c 22.892416
_cell_angle_alpha 90.000000
_cell_angle_beta 90.000000
_cell_angle_gamma 90.000000
_cell_volume 3234.453352
_symmetry_space_group_name_H-M "P M M A"
_symmetry_group_IT_number 51
_symmetry_cell_setting 'orthorhombic'
loop_
_space_group_symop_operation_xyz
x,y,z
1/2-x,-y,z
1/2+x,-y,-z
-x,y,-z
-x,-y,-z
1/2+x,y,-z
1/2-x,y,z
x,-y,z
loop_
_atom_site_type_symbol
_atom_site_label
_atom_site_fract_x
_atom_site_fract_y
_atom_site_fract_z
Si Si1 0.422742 0.692402 0.681754
Si Si2 0.927543 0.234529 0.059600
Si Si3 0.079619 0.149676 0.270399
Si Si4 0.425345 0.400805 0.104839
Si Si5 0.591182 0.597681 0.766556
Si Si6 0.581699 0.094957 0.602950
Si Si7 0.423409 0.903035 0.142402
Si Si8 0.076071 0.252299 0.557581
O O1 0.250000 0.702204 0.680145
O O2 0.487748 0.763395 0.724983
O O3 0.474742 0.606108 0.713276
O O4 0.481143 0.696679 0.614990
O O5 0.750000 0.233814 0.056559
O O6 0.983389 0.332729 0.066636
O O7 0.980599 0.168324 0.109387
O O8 0.000000 0.199573 0.000000
O O9 0.250000 0.175143 0.268833
O O10 0.043683 0.093680 0.327924
O O11 0.035890 0.100511 0.211406
O O12 0.250000 0.391264 0.093123
O O13 0.474305 0.500000 0.092101
O O14 0.465609 0.369432 0.170674
O O15 0.750000 0.640908 0.750174
O O16 0.621003 0.500000 0.777670
O O17 0.750000 0.127089 0.592882
O O18 0.470911 0.153964 0.566194
O O19 0.559846 0.000000 0.578617
O O20 0.250000 0.883357 0.132386
O O21 0.461192 0.000000 0.121376
O O22 0.250000 0.258612 0.549095
O O23 0.000000 0.291938 0.500000
#
# Coordination Sequence:
#
# PCOD8210561 Si02
#       8
#     8   8   8   8   8   8   8   8
#     4  10  20  32  49  76 107 137 170 214 265 311
#     4  12  26  42  60  82 111 148 190 233 276 326
#     4   9  17  31  53  79 106 137 172 210 258 318
#     4   9  19  38  63  90 120 150 180 218 265 321
#     4   9  18  33  55  83 112 141 170 200 244 307
#     4   9  17  30  49  73 100 130 165 205 251 306
#     4  10  21  38  60  84 111 145 186 233 281 327
#     4  10  21  35  49  67  93 129 174 217 258 304
#
# _framework density 19.786960000000001
#
# number of rings (size 3 to 8) (size 9 to 14) (size 15 to 20)
#    0.000    2.250    0.000    3.750    0.000    8.750 
#    0.000    1.250    0.000    2.625    0.000    0.000 
#    0.000    0.000    0.000    0.000    0.000    0.000 
#
# Total GULP energy -793131.729990 kJ/mol
# GULP energy per Si atom -12392.683281 kJ/mol
# Density = 1.974192 g / cm^3
# Si number density = 19.786960 Si / 1000 Ang^3
#
#
#
# Elastic Constant Matrix: (Units=GPa)
#
#
# Indices 1 2 3 4 5 6 
#
# 1 73.5677 24.1100 37.8989 0.0000 0.0000 0.0000
# 2 24.1100 53.9200 21.4130 0.0000 0.0000 0.0000
# 3 37.8989 21.4130 88.2674 0.0000 0.0000 0.0000
# 4 0.0000 0.0000 0.0000 16.4333 0.0000 0.0000
# 5 0.0000 0.0000 0.0000 0.0000 30.9387 0.0000
# 6 0.0000 0.0000 0.0000 0.0000 0.0000 23.0470
#
#
#
# Elastic Compliance Matrix: (Units=1/GPa)
#
#
# Indices 1 2 3 4 5 6 
#
# 1 0.018965 -0.005806 -0.006734 0.000000 0.000000 0.000000
# 2 -0.005806 0.022300 -0.002917 0.000000 0.000000 0.000000
# 3 -0.006734 -0.002917 0.014928 0.000000 0.000000 0.000000
# 4 0.000000 0.000000 0.000000 0.060852 0.000000 0.000000
# 5 0.000000 0.000000 0.000000 0.000000 0.032322 0.000000
# 6 0.000000 0.000000 0.000000 0.000000 0.000000 0.043390
#
#
# Mechanical properties :
#
#
# Convention : Reuss Voigt Hill
#
# Bulk Modulus (GPa) = 39.55814 42.51098 41.03456
# Shear Modulus (GPa) = 21.54262 22.90603 22.22432
#
# Velocity S-wave (km/s) = 3.30317 3.40609 3.35502
# Velocity P-wave (km/s) = 5.88076 6.08273 5.98260
#
# Compressibility (1/GPa) = 0.02527925
#
# Stress axis : x y z
#
# Youngs Moduli (GPa) = 52.72912 44.84220 66.98625
#
# Poissons Ratio (x) = 0.26034 0.45112
# Poissons Ratio (y) = 0.30612 0.19541
# Poissons Ratio (z) = 0.35510 0.13081
#
# Static dielectric constant tensor:
#      x y z
#    x 3.483090 0.000000 0.000000 
#    y 0.000000 3.610150 0.000000 
#    z 0.000000 0.000000 3.799680 
# 
# 
# High freq. dielectric constant tensor:
#      x y z
#    x 1.759750 0.000000 0.000000 
#    y 0.000000 1.755660 0.000000 
#    z 0.000000 0.000000 1.776630 
# 
# From -- ./inp_files/34879.got.cif
#   From: 2010.03.12/outbox.cif.g09.slc.cpg/sg51_18_cif.got.tgz:34879.got - 2010.04.16 13:43:02.
