data_PCOD8210444
_publ_section_title
;
Structure prediction by ZEFSAII (Michael W. Deem and Ramdas Pophale) SiO2 
 PCOD8210444
Probable space group: P M M A
;
_chemical_formula_sum "Si O2"
_cell_formula_units_Z 56
_cell_length_a 8.809628
_cell_length_b 14.113493
_cell_length_c 25.852052
_cell_angle_alpha 90.000000
_cell_angle_beta 90.000000
_cell_angle_gamma 90.000000
_cell_volume 3214.305142
_symmetry_space_group_name_H-M "P M M A"
_symmetry_group_IT_number 51
_symmetry_cell_setting 'orthorhombic'
loop_
_space_group_symop_operation_xyz
x,y,z
1/2-x,-y,z
1/2+x,-y,-z
-x,y,-z
-x,-y,-z
1/2+x,y,-z
1/2-x,y,z
x,-y,z
loop_
_atom_site_type_symbol
_atom_site_label
_atom_site_fract_x
_atom_site_fract_y
_atom_site_fract_z
Si Si1 0.428038 0.220390 0.250368
Si Si2 0.073926 0.109968 0.147303
Si Si3 0.420895 0.887345 0.448552
Si Si4 0.572453 0.607405 0.903285
Si Si5 0.925513 0.607244 0.206182
Si Si6 0.571530 0.785422 0.052478
Si Si7 0.425362 0.888558 0.656642
O O1 0.250000 0.239093 0.252261
O O2 0.476434 0.160887 0.199967
O O3 0.515115 0.321147 0.250029
O O4 0.475829 0.163266 0.300605
O O5 0.250000 0.128407 0.135217
O O6 0.976875 0.150049 0.100284
O O7 0.037214 0.000000 0.154199
O O8 0.500000 0.845824 0.500000
O O9 0.250000 0.847295 0.444675
O O10 0.517076 0.853407 0.399178
O O11 0.418024 0.000000 0.451356
O O12 0.750000 0.628479 0.907510
O O13 0.532135 0.500000 0.919359
O O14 0.523118 0.627706 0.844787
O O15 0.483708 0.677161 0.941234
O O16 0.750000 0.626133 0.193169
O O17 0.950507 0.500000 0.226044
O O18 0.750000 0.787144 0.047087
O O19 0.500000 0.827643 0.000000
O O20 0.250000 0.861116 0.662671
O O21 0.451864 0.000000 0.663190
#
# Coordination Sequence:
#
# PCOD8210444 Si02
#       7
#     8   8   8   8   8   8   8
#     4  11  21  34  55  79 106 138 172 211 257 306
#     4  10  22  40  59  78 102 133 170 210 254 304
#     4   9  16  27  44  66  96 136 181 224 266 310
#     4  10  20  36  58  82 107 133 162 198 245 303
#     4  10  20  34  54  80 107 135 167 203 248 303
#     4  12  25  40  59  79 103 132 166 208 254 304
#     4  10  20  32  47  71 105 143 183 224 263 305
#
# _framework density 17.422117
#
# number of rings (size 3 to 8) (size 9 to 14) (size 15 to 20)
#    0.000    1.714    1.429    3.857    0.000    6.286 
#    0.000    0.000    0.000    0.000    0.000    0.000 
#    0.000    0.571    0.000    2.143    0.000    3.286 
#
# Total GULP energy -694616.511755 kJ/mol
# GULP energy per Si atom -12403.866281 kJ/mol
# Density = 1.738246 g / cm^3
# Si number density = 17.422117 Si / 1000 Ang^3
#
#
#
# Elastic Constant Matrix: (Units=GPa)
#
#
# Indices 1 2 3 4 5 6 
#
# 1 94.1345 37.0993 41.6453 0.0000 0.0000 0.0000
# 2 37.0993 71.5136 37.6605 0.0000 0.0000 0.0000
# 3 41.6453 37.6605 110.7147 0.0000 0.0000 0.0000
# 4 0.0000 0.0000 0.0000 10.7656 0.0000 0.0000
# 5 0.0000 0.0000 0.0000 0.0000 33.5257 0.0000
# 6 0.0000 0.0000 0.0000 0.0000 0.0000 26.6630
#
#
#
# Elastic Compliance Matrix: (Units=1/GPa)
#
#
# Indices 1 2 3 4 5 6 
#
# 1 0.014386 -0.005620 -0.003500 0.000000 0.000000 0.000000
# 2 -0.005620 0.019231 -0.004427 0.000000 0.000000 0.000000
# 3 -0.003500 -0.004427 0.011855 0.000000 0.000000 0.000000
# 4 0.000000 0.000000 0.000000 0.092888 0.000000 0.000000
# 5 0.000000 0.000000 0.000000 0.000000 0.029828 0.000000
# 6 0.000000 0.000000 0.000000 0.000000 0.000000 0.037505
#
#
# Mechanical properties :
#
#
# Convention : Reuss Voigt Hill
#
# Bulk Modulus (GPa) = 54.41595 56.57476 55.49536
# Shear Modulus (GPa) = 20.92812 24.85473 22.89143
#
# Velocity S-wave (km/s) = 3.46965 3.78116 3.62875
# Velocity P-wave (km/s) = 6.88135 7.18376 7.03418
#
# Compressibility (1/GPa) = 0.01837697
#
# Stress axis : x y z
#
# Youngs Moduli (GPa) = 69.51037 52.00072 84.35534
#
# Poissons Ratio (x) = 0.29226 0.29521
# Poissons Ratio (y) = 0.39067 0.37347
# Poissons Ratio (z) = 0.24326 0.23023
#
# Static dielectric constant tensor:
#      x y z
#    x 3.344870 0.000000 0.000000 
#    y 0.000000 3.175740 0.000000 
#    z 0.000000 0.000000 3.193640 
# 
# 
# High freq. dielectric constant tensor:
#      x y z
#    x 1.690350 0.000000 0.000000 
#    y 0.000000 1.650810 0.000000 
#    z 0.000000 0.000000 1.662160 
# 
# From -- ./inp_files/31947.got.cif
#   From: 2010.03.12/outbox.cif.g09.slc.cpg/sg51_16_cif.got.tgz:31947.got - 2010.04.16 13:43:02.
