data_PCOD8210620
_publ_section_title
;
Structure prediction by ZEFSAII (Michael W. Deem and Ramdas Pophale) SiO2 
 PCOD8210620
Probable space group: P M M A
;
_chemical_formula_sum "Si O2"
_cell_formula_units_Z 48
_cell_length_a 9.641861
_cell_length_b 15.673569
_cell_length_c 16.073879
_cell_angle_alpha 90.000000
_cell_angle_beta 90.000000
_cell_angle_gamma 90.000000
_cell_volume 2429.122749
_symmetry_space_group_name_H-M "P M M A"
_symmetry_group_IT_number 51
_symmetry_cell_setting 'orthorhombic'
loop_
_space_group_symop_operation_xyz
x,y,z
1/2-x,-y,z
1/2+x,-y,-z
-x,y,-z
-x,-y,-z
1/2+x,y,-z
1/2-x,y,z
x,-y,z
loop_
_atom_site_type_symbol
_atom_site_label
_atom_site_fract_x
_atom_site_fract_y
_atom_site_fract_z
Si Si1 0.989535 0.694013 0.366634
Si Si2 0.250000 0.594183 0.548443
Si Si3 0.409695 0.866517 0.424718
Si Si4 0.250000 0.406336 0.351596
Si Si5 0.088456 0.403588 0.918199
Si Si6 0.904595 0.246207 0.195894
Si Si7 0.589327 0.095173 0.762142
O O1 0.063460 0.765446 0.422649
O O2 0.110875 0.640324 0.321626
O O3 0.891143 0.638952 0.424708
O O4 0.897485 0.733615 0.293567
O O5 0.250000 0.500000 0.588320
O O6 0.250000 0.589403 0.450512
O O7 0.500000 0.907197 0.500000
O O8 0.250000 0.885613 0.445469
O O9 0.452421 0.905587 0.335510
O O10 0.250000 0.500000 0.311646
O O11 0.250000 0.394222 0.940621
O O12 0.059535 0.500000 0.883431
O O13 0.043037 0.330819 0.852424
O O14 0.000000 0.386652 0.000000
O O15 0.750000 0.221026 0.166227
O O16 0.004120 0.163967 0.183089
O O17 0.750000 0.120892 0.770158
O O18 0.561196 0.000000 0.797416
#
# Coordination Sequence:
#
# PCOD8210620 Si02
#       7
#     8   4   8   4   8   8   8
#     4  11  21  35  49  70 100 136 184 233 279 328
#     4  11  22  34  48  64  92 138 184 231 284 328
#     4  10  20  32  51  72  98 135 179 231 287 339
#     4  11  22  34  46  66  96 136 186 237 280 320
#     4   9  19  37  60  88 121 152 182 218 265 323
#     4  10  21  37  58  84 112 146 184 223 274 330
#     4   9  20  38  57  79 110 145 184 233 287 338
#
# _framework density 19.76022
#
# number of rings (size 3 to 8) (size 9 to 14) (size 15 to 20)
#    0.000    2.000    1.667    2.000    2.333    4.667 
#    0.000    0.000    0.000    0.500    0.000    0.000 
#    0.000    0.000    0.000    0.000    0.000    0.000 
#
# Total GULP energy -595036.358592 kJ/mol
# GULP energy per Si atom -12396.590804 kJ/mol
# Density = 1.971524 g / cm^3
# Si number density = 19.760220 Si / 1000 Ang^3
#
#
#
# Elastic Constant Matrix: (Units=GPa)
#
#
# Indices 1 2 3 4 5 6 
#
# 1 93.3077 49.3028 21.9245 0.0000 0.0000 0.0000
# 2 49.3028 133.5912 28.0977 0.0000 0.0000 0.0000
# 3 21.9245 28.0977 48.0867 0.0000 0.0000 0.0000
# 4 0.0000 0.0000 0.0000 10.4270 0.0000 0.0000
# 5 0.0000 0.0000 0.0000 0.0000 28.0558 0.0000
# 6 0.0000 0.0000 0.0000 0.0000 0.0000 17.5814
#
#
#
# Elastic Compliance Matrix: (Units=1/GPa)
#
#
# Indices 1 2 3 4 5 6 
#
# 1 0.013899 -0.004329 -0.003808 0.000000 0.000000 0.000000
# 2 -0.004329 0.009882 -0.003801 0.000000 0.000000 0.000000
# 3 -0.003808 -0.003801 0.024753 0.000000 0.000000 0.000000
# 4 0.000000 0.000000 0.000000 0.095905 0.000000 0.000000
# 5 0.000000 0.000000 0.000000 0.000000 0.035643 0.000000
# 6 0.000000 0.000000 0.000000 0.000000 0.000000 0.056878
#
#
# Mechanical properties :
#
#
# Convention : Reuss Voigt Hill
#
# Bulk Modulus (GPa) = 40.55199 52.62617 46.58908
# Shear Modulus (GPa) = 18.58355 22.92356 20.75355
#
# Velocity S-wave (km/s) = 3.07001 3.40970 3.24430
# Velocity P-wave (km/s) = 5.75614 6.49551 6.13697
#
# Compressibility (1/GPa) = 0.02465970
#
# Stress axis : x y z
#
# Youngs Moduli (GPa) = 71.94656 101.18914 40.39946
#
# Poissons Ratio (x) = 0.43802 0.15383
# Poissons Ratio (y) = 0.31144 0.15355
# Poissons Ratio (z) = 0.27396 0.38461
#
# Static dielectric constant tensor:
#      x y z
#    x 3.640630 0.000000 0.000000 
#    y 0.000000 3.819010 0.000000 
#    z 0.000000 0.000000 3.135300 
# 
# 
# High freq. dielectric constant tensor:
#      x y z
#    x 1.776730 0.000000 0.000000 
#    y 0.000000 1.778220 0.000000 
#    z 0.000000 0.000000 1.722300 
# 
# From -- ./inp_files/27665.got.cif
#   From: 2010.03.12/outbox.cif.g09.slc.cpg/sg51_14_cif.got.tgz:27665.got - 2010.04.16 13:43:02.
