data_PCOD8210064
_publ_section_title
;
Structure prediction by ZEFSAII (Michael W. Deem and Ramdas Pophale) SiO2 
 PCOD8210064
Probable space group: P M M A
;
_chemical_formula_sum "Si O2"
_cell_formula_units_Z 48
_cell_length_a 18.830893
_cell_length_b 8.782981
_cell_length_c 14.882405
_cell_angle_alpha 90.000000
_cell_angle_beta 90.000000
_cell_angle_gamma 90.000000
_cell_volume 2461.421433
_symmetry_space_group_name_H-M "P M M A"
_symmetry_group_IT_number 51
_symmetry_cell_setting 'orthorhombic'
loop_
_space_group_symop_operation_xyz
x,y,z
1/2-x,-y,z
1/2+x,-y,-z
-x,y,-z
-x,-y,-z
1/2+x,y,-z
1/2-x,y,z
x,-y,z
loop_
_atom_site_type_symbol
_atom_site_label
_atom_site_fract_x
_atom_site_fract_y
_atom_site_fract_z
Si Si1 0.095583 0.178792 0.051029
Si Si2 0.669578 0.326373 0.795893
Si Si3 0.330571 0.820455 0.535021
Si Si4 0.424951 0.677843 0.677348
Si Si5 0.047914 0.679222 0.880601
Si Si6 0.417636 0.320576 0.374116
O O1 0.160804 0.224795 0.114883
O O2 0.024728 0.231605 0.101953
O O3 0.094136 0.000000 0.033530
O O4 0.104330 0.264611 0.955322
O O5 0.750000 0.313785 0.762245
O O6 0.648514 0.500000 0.818993
O O7 0.620281 0.262494 0.716451
O O8 0.250000 0.758308 0.523846
O O9 0.361120 0.768646 0.631077
O O10 0.381957 0.757581 0.458687
O O11 0.330818 0.000000 0.529989
O O12 0.411596 0.500000 0.663424
O O13 0.423535 0.721180 0.782312
O O14 0.499795 0.724619 0.631945
O O15 0.033283 0.500000 0.889253
O O16 0.407426 0.500000 0.384648
#
# Coordination Sequence:
#
# PCOD8210064 Si02
#       6
#     8   8   8   8   8   8
#     4  11  21  33  53  84 119 151 186 230 285 343
#     4  10  20  36  58  83 115 156 197 238 287 342
#     4  11  25  41  56  81 119 157 190 230 288 350
#     4  10  21  38  63  90 112 143 193 245 287 334
#     4  10  19  36  60  83 111 146 190 238 280 333
#     4  10  20  38  62  88 113 144 192 244 289 338
#
# _framework density 19.500927999999998
#
# number of rings (size 3 to 8) (size 9 to 14) (size 15 to 20)
#    0.000    1.667    1.667    4.500    0.000    7.000 
#    0.000    0.833    0.000    1.000    0.000    0.000 
#    0.000    0.000    0.000    0.000    0.000    0.000 
#
# Total GULP energy -595309.148683 kJ/mol
# GULP energy per Si atom -12402.273931 kJ/mol
# Density = 1.945654 g / cm^3
# Si number density = 19.500928 Si / 1000 Ang^3
#
#
#
# Elastic Constant Matrix: (Units=GPa)
#
#
# Indices 1 2 3 4 5 6 
#
# 1 67.1827 19.7170 39.0456 0.0000 0.0000 0.0000
# 2 19.7170 57.0608 33.0442 0.0000 0.0000 0.0000
# 3 39.0456 33.0442 132.2509 0.0000 0.0000 0.0000
# 4 0.0000 0.0000 0.0000 4.6798 0.0000 0.0000
# 5 0.0000 0.0000 0.0000 0.0000 21.5846 0.0000
# 6 0.0000 0.0000 0.0000 0.0000 0.0000 24.1120
#
#
#
# Elastic Compliance Matrix: (Units=1/GPa)
#
#
# Indices 1 2 3 4 5 6 
#
# 1 0.018649 -0.003806 -0.004555 0.000000 0.000000 0.000000
# 2 -0.003806 0.021267 -0.004190 0.000000 0.000000 0.000000
# 3 -0.004555 -0.004190 0.009953 0.000000 0.000000 0.000000
# 4 0.000000 0.000000 0.000000 0.213682 0.000000 0.000000
# 5 0.000000 0.000000 0.000000 0.000000 0.046329 0.000000
# 6 0.000000 0.000000 0.000000 0.000000 0.000000 0.041473
#
#
# Mechanical properties :
#
#
# Convention : Reuss Voigt Hill
#
# Bulk Modulus (GPa) = 40.37682 48.90088 44.63885
# Shear Modulus (GPa) = 12.99675 21.05447 17.02561
#
# Velocity S-wave (km/s) = 2.58441 3.28939 2.95798
# Velocity P-wave (km/s) = 5.44569 6.28947 5.88273
#
# Compressibility (1/GPa) = 0.02476668
#
# Stress axis : x y z
#
# Youngs Moduli (GPa) = 53.62183 47.02161 100.47150
#
# Poissons Ratio (x) = 0.17898 0.45764
# Poissons Ratio (y) = 0.20410 0.42097
# Poissons Ratio (z) = 0.24424 0.19702
#
# Static dielectric constant tensor:
#      x y z
#    x 3.527740 0.000000 0.000000 
#    y 0.000000 3.476250 0.000000 
#    z 0.000000 0.000000 3.828060 
# 
# 
# High freq. dielectric constant tensor:
#      x y z
#    x 1.744250 0.000000 0.000000 
#    y 0.000000 1.752520 0.000000 
#    z 0.000000 0.000000 1.773020 
# 
# From -- ./inp_files/24755.got.cif
#   From: 2010.03.12/outbox.cif.g09.slc.cpg/sg51_13_cif.got.tgz:24755.got - 2010.04.16 13:43:02.
