data_PCOD8210375
_publ_section_title
;
Structure prediction by ZEFSAII (Michael W. Deem and Ramdas Pophale) SiO2 
 PCOD8210375
Probable space group: P M M A
;
_chemical_formula_sum "Si O2"
_cell_formula_units_Z 52
_cell_length_a 8.883934
_cell_length_b 15.112120
_cell_length_c 23.060529
_cell_angle_alpha 90.000000
_cell_angle_beta 90.000000
_cell_angle_gamma 90.000000
_cell_volume 3095.993089
_symmetry_space_group_name_H-M "P M M A"
_symmetry_group_IT_number 51
_symmetry_cell_setting 'orthorhombic'
loop_
_space_group_symop_operation_xyz
x,y,z
1/2-x,-y,z
1/2+x,-y,-z
-x,y,-z
-x,-y,-z
1/2+x,y,-z
1/2-x,y,z
x,-y,z
loop_
_atom_site_type_symbol
_atom_site_label
_atom_site_fract_x
_atom_site_fract_y
_atom_site_fract_z
Si Si1 0.572507 0.602553 0.823687
Si Si2 0.418253 0.603902 0.943660
Si Si3 0.922497 0.500000 0.439545
Si Si4 0.077847 0.902599 0.675951
Si Si5 0.078090 0.845784 0.440144
Si Si6 0.921239 0.660598 0.613205
Si Si7 0.426629 0.721577 0.727506
O O1 0.750000 0.618209 0.817563
O O2 0.531903 0.500000 0.807507
O O3 0.521824 0.624946 0.888595
O O4 0.482191 0.673535 0.785363
O O5 0.250000 0.644609 0.936311
O O6 0.402284 0.500000 0.952652
O O7 0.500000 0.645867 0.000000
O O8 0.750000 0.500000 0.453107
O O9 0.000000 0.500000 0.500000
O O10 0.964214 0.585567 0.403919
O O11 0.250000 0.893102 0.656698
O O12 0.043105 0.828251 0.725319
O O13 0.986498 0.893580 0.616414
O O14 0.043947 0.000000 0.702716
O O15 0.250000 0.874558 0.445370
O O16 0.060197 0.740691 0.431762
O O17 0.000000 0.875251 0.500000
O O18 0.750000 0.625876 0.613866
O O19 0.968540 0.684795 0.677417
O O20 0.250000 0.700758 0.718195
#
# Coordination Sequence:
#
# PCOD8210375 Si02
#       7
#     8   8   4   8   8   8   8
#     4  10  20  32  47  69 100 138 174 207 241 280
#     4   9  16  27  44  67  97 133 172 210 245 282
#     4  12  24  36  50  68  88 116 155 196 237 284
#     4   9  19  36  55  73  94 121 153 193 243 296
#     4  10  20  33  51  72  93 118 147 185 234 290
#     4  10  21  36  51  67  90 120 154 194 239 285
#     4  10  20  34  52  73  97 125 160 201 243 289
#
# _framework density 16.795904
#
# number of rings (size 3 to 8) (size 9 to 14) (size 15 to 20)
#    0.000    2.154    0.000    3.462    1.077    7.077 
#    0.000    0.000    0.000    0.000    0.000    0.000 
#    0.000    0.615    0.000    1.692    0.000    2.462 
#
# Total GULP energy -644545.593646 kJ/mol
# GULP energy per Si atom -12395.107570 kJ/mol
# Density = 1.675768 g / cm^3
# Si number density = 16.795904 Si / 1000 Ang^3
#
#
#
# Elastic Constant Matrix: (Units=GPa)
#
#
# Indices 1 2 3 4 5 6 
#
# 1 98.5932 38.0904 29.9088 0.0000 0.0000 0.0000
# 2 38.0904 90.4460 39.7499 0.0000 0.0000 0.0000
# 3 29.9088 39.7499 83.6816 0.0000 0.0000 0.0000
# 4 0.0000 0.0000 0.0000 2.0740 0.0000 0.0000
# 5 0.0000 0.0000 0.0000 0.0000 31.7573 0.0000
# 6 0.0000 0.0000 0.0000 0.0000 0.0000 17.9953
#
#
#
# Elastic Compliance Matrix: (Units=1/GPa)
#
#
# Indices 1 2 3 4 5 6 
#
# 1 0.012510 -0.004175 -0.002488 0.000000 0.000000 0.000000
# 2 -0.004175 0.015367 -0.005807 0.000000 0.000000 0.000000
# 3 -0.002488 -0.005807 0.015598 0.000000 0.000000 0.000000
# 4 0.000000 0.000000 0.000000 0.482154 0.000000 0.000000
# 5 0.000000 0.000000 0.000000 0.000000 0.031489 0.000000
# 6 0.000000 0.000000 0.000000 0.000000 0.000000 0.055570
#
#
# Mechanical properties :
#
#
# Convention : Reuss Voigt Hill
#
# Bulk Modulus (GPa) = 53.95438 54.24655 54.10046
# Shear Modulus (GPa) = 7.76631 21.36345 14.56488
#
# Velocity S-wave (km/s) = 2.15266 3.57030 2.94797
# Velocity P-wave (km/s) = 6.19451 7.02593 6.62328
#
# Compressibility (1/GPa) = 0.01853418
#
# Stress axis : x y z
#
# Youngs Moduli (GPa) = 79.93286 65.07528 64.11143
#
# Poissons Ratio (x) = 0.27170 0.15952
# Poissons Ratio (y) = 0.33373 0.37231
# Poissons Ratio (z) = 0.19889 0.37790
#
# Static dielectric constant tensor:
#      x y z
#    x 3.318040 0.000000 0.000000 
#    y 0.000000 3.196350 0.000000 
#    z 0.000000 0.000000 2.947660 
# 
# 
# High freq. dielectric constant tensor:
#      x y z
#    x 1.667870 0.000000 0.000000 
#    y 0.000000 1.623510 0.000000 
#    z 0.000000 0.000000 1.629200 
# 
# From -- ./inp_files/31787.got.cif
#   From: 2010.03.12/outbox.cif.g09.slc.cpg/sg51_16_cif.got.tgz:31787.got - 2010.04.16 13:43:02.
