data_PCOD8210593
_publ_section_title
;
Structure prediction by ZEFSAII (Michael W. Deem and Ramdas Pophale) SiO2 
 PCOD8210593
Probable space group: P M M A
;
_chemical_formula_sum "Si O2"
_cell_formula_units_Z 40
_cell_length_a 9.210091
_cell_length_b 10.154866
_cell_length_c 23.725140
_cell_angle_alpha 90.000000
_cell_angle_beta 90.000000
_cell_angle_gamma 90.000000
_cell_volume 2218.946862
_symmetry_space_group_name_H-M "P M M A"
_symmetry_group_IT_number 51
_symmetry_cell_setting 'orthorhombic'
loop_
_space_group_symop_operation_xyz
x,y,z
1/2-x,-y,z
1/2+x,-y,-z
-x,y,-z
-x,-y,-z
1/2+x,y,-z
1/2-x,y,z
x,-y,z
loop_
_atom_site_type_symbol
_atom_site_label
_atom_site_fract_x
_atom_site_fract_y
_atom_site_fract_z
Si Si1 0.420177 0.349159 0.941999
Si Si2 0.582150 0.152735 0.860985
Si Si3 0.578762 0.500000 0.440680
Si Si4 0.079512 0.000000 0.558786
Si Si5 0.420232 0.249970 0.630152
Si Si6 0.918363 0.148655 0.731466
O O1 0.250000 0.324598 0.950462
O O2 0.451315 0.500000 0.923285
O O3 0.479222 0.248946 0.895649
O O4 0.500000 0.316692 0.000000
O O5 0.750000 0.178661 0.876544
O O6 0.553240 0.187777 0.795956
O O7 0.543115 0.000000 0.873273
O O8 0.750000 0.500000 0.451983
O O9 0.500000 0.500000 0.500000
O O10 0.527579 0.375613 0.404629
O O11 0.029083 0.874351 0.593977
O O12 0.000000 0.000000 0.500000
O O13 0.250000 0.000000 0.547055
O O14 0.250000 0.251610 0.641141
O O15 0.495391 0.248371 0.691239
O O16 0.750000 0.159149 0.716798
O O17 0.974168 0.000000 0.721007
#
# Coordination Sequence:
#
# PCOD8210593 Si02
#       6
#     8   8   4   4   8   8
#     4  10  21  37  57  82 112 148 188 227 271 321
#     4   9  19  36  57  82 112 145 183 227 272 320
#     4  10  22  38  54  74 104 138 171 214 265 316
#     4  10  20  32  50  76 100 128 171 214 257 310
#     4  10  20  35  53  75 104 137 172 213 263 315
#     4   9  18  34  56  81 107 137 176 220 264 311
#
# _framework density 18.026568999999999
#
# number of rings (size 3 to 8) (size 9 to 14) (size 15 to 20)
#    0.000    2.400    1.000    2.400    0.000    4.400 
#    1.800    2.000    0.000    0.000    0.000    0.000 
#    0.000    0.000    0.000    0.000    0.000    0.000 
#
# Total GULP energy -496054.297988 kJ/mol
# GULP energy per Si atom -12401.357450 kJ/mol
# Density = 1.798554 g / cm^3
# Si number density = 18.026569 Si / 1000 Ang^3
#
#
#
# Elastic Constant Matrix: (Units=GPa)
#
#
# Indices 1 2 3 4 5 6 
#
# 1 73.1483 51.5646 65.8760 0.0000 0.0000 0.0000
# 2 51.5646 125.1000 74.5175 0.0000 0.0000 0.0000
# 3 65.8760 74.5175 127.4684 0.0000 0.0000 0.0000
# 4 0.0000 0.0000 0.0000 41.4977 0.0000 0.0000
# 5 0.0000 0.0000 0.0000 0.0000 41.7386 0.0000
# 6 0.0000 0.0000 0.0000 0.0000 0.0000 19.7225
#
#
#
# Elastic Compliance Matrix: (Units=1/GPa)
#
#
# Indices 1 2 3 4 5 6 
#
# 1 0.027017 -0.004325 -0.011434 0.000000 0.000000 0.000000
# 2 -0.004325 0.012957 -0.005339 0.000000 0.000000 0.000000
# 3 -0.011434 -0.005339 0.016875 0.000000 0.000000 0.000000
# 4 0.000000 0.000000 0.000000 0.024098 0.000000 0.000000
# 5 0.000000 0.000000 0.000000 0.000000 0.023959 0.000000
# 6 0.000000 0.000000 0.000000 0.000000 0.000000 0.050704
#
#
# Mechanical properties :
#
#
# Convention : Reuss Voigt Hill
#
# Bulk Modulus (GPa) = 68.24783 78.84811 73.54797
# Shear Modulus (GPa) = 24.66818 29.50898 27.08858
#
# Velocity S-wave (km/s) = 3.70325 4.05034 3.88068
# Velocity P-wave (km/s) = 7.49848 8.10608 7.80819
#
# Compressibility (1/GPa) = 0.01465248
#
# Stress axis : x y z
#
# Youngs Moduli (GPa) = 37.01360 77.17959 59.25782
#
# Poissons Ratio (x) = 0.33383 0.67755
# Poissons Ratio (y) = 0.16010 0.31639
# Poissons Ratio (z) = 0.42321 0.41207
#
# Static dielectric constant tensor:
#      x y z
#    x 3.175310 0.000000 0.000000 
#    y 0.000000 3.369460 0.000000 
#    z 0.000000 0.000000 3.292990 
# 
# 
# High freq. dielectric constant tensor:
#      x y z
#    x 1.694390 0.000000 0.000000 
#    y 0.000000 1.696300 0.000000 
#    z 0.000000 0.000000 1.704370 
# 
# From -- ./inp_files/36087.got.cif
#   From: 2010.03.12/outbox.cif.g09.slc.cpg/sg51_19_cif.got.tgz:36087.got - 2010.04.16 13:43:02.
