data_PCOD8210377
_publ_section_title
;
Structure prediction by ZEFSAII (Michael W. Deem and Ramdas Pophale) SiO2 
 PCOD8210377
Probable space group: P M M A
;
_chemical_formula_sum "Si O2"
_cell_formula_units_Z 48
_cell_length_a 18.694018
_cell_length_b 8.743141
_cell_length_c 16.571912
_cell_angle_alpha 90.000000
_cell_angle_beta 90.000000
_cell_angle_gamma 90.000000
_cell_volume 2708.586798
_symmetry_space_group_name_H-M "P M M A"
_symmetry_group_IT_number 51
_symmetry_cell_setting 'orthorhombic'
loop_
_space_group_symop_operation_xyz
x,y,z
1/2-x,-y,z
1/2+x,-y,-z
-x,y,-z
-x,-y,-z
1/2+x,y,-z
1/2-x,y,z
x,-y,z
loop_
_atom_site_type_symbol
_atom_site_label
_atom_site_fract_x
_atom_site_fract_y
_atom_site_fract_z
Si Si1 0.458548 0.677942 0.259753
Si Si2 0.168373 0.179751 0.661572
Si Si3 0.965513 0.682244 0.416864
Si Si4 0.330154 0.682888 0.158577
Si Si5 0.830287 0.318952 0.019443
Si Si6 0.104464 0.678849 0.818249
O O1 0.445122 0.500000 0.272378
O O2 0.482388 0.746702 0.346085
O O3 0.385498 0.752028 0.224517
O O4 0.520793 0.708791 0.195119
O O5 0.250000 0.224219 0.638898
O O6 0.114726 0.254890 0.596064
O O7 0.152070 0.236568 0.751738
O O8 0.156875 0.000000 0.658628
O O9 0.960249 0.500000 0.413954
O O10 0.000000 0.741112 0.500000
O O11 0.250000 0.739031 0.180166
O O12 0.332858 0.500000 0.158791
O O13 0.352960 0.742802 0.069186
O O14 0.750000 0.265698 0.038127
O O15 0.835682 0.500000 0.017441
O O16 0.879011 0.255281 0.092351
O O17 0.123315 0.500000 0.811027
#
# Coordination Sequence:
#
# PCOD8210377 Si02
#       6
#     8   8   8   8   8   8
#     4   8  14  24  38  58  83 112 144 176 217 267
#     4  10  20  32  47  69  95 121 150 182 218 266
#     4   9  18  33  51  70  92 116 146 187 231 276
#     4   8  13  21  33  53  85 117 142 177 223 265
#     4   8  13  20  32  54  83 114 146 178 216 261
#     4   9  16  26  42  63  88 117 147 182 221 260
#
# _framework density 17.721419000000001
#
# number of rings (size 3 to 8) (size 9 to 14) (size 15 to 20)
#    0.000    3.333    0.000    3.000    0.000    3.000 
#    0.000    4.167    0.000    3.000    0.000    9.333 
#    0.000   11.333    0.000    0.000    0.000    0.000 
#
# Total GULP energy -594727.975780 kJ/mol
# GULP energy per Si atom -12390.166162 kJ/mol
# Density = 1.768108 g / cm^3
# Si number density = 17.721419 Si / 1000 Ang^3
#
#
#
# Elastic Constant Matrix: (Units=GPa)
#
#
# Indices 1 2 3 4 5 6 
#
# 1 135.6338 23.3260 92.2167 0.0000 0.0000 0.0000
# 2 23.3260 19.8574 15.7716 0.0000 0.0000 0.0000
# 3 92.2167 15.7716 130.6162 0.0000 0.0000 0.0000
# 4 0.0000 0.0000 0.0000 5.5363 0.0000 0.0000
# 5 0.0000 0.0000 0.0000 0.0000 30.9682 0.0000
# 6 0.0000 0.0000 0.0000 0.0000 0.0000 13.1300
#
#
#
# Elastic Compliance Matrix: (Units=1/GPa)
#
#
# Indices 1 2 3 4 5 6 
#
# 1 0.016064 -0.010909 -0.010024 0.000000 0.000000 0.000000
# 2 -0.010909 0.063109 0.000081 0.000000 0.000000 0.000000
# 3 -0.010024 0.000081 0.014724 0.000000 0.000000 0.000000
# 4 0.000000 0.000000 0.000000 0.180626 0.000000 0.000000
# 5 0.000000 0.000000 0.000000 0.000000 0.032291 0.000000
# 6 0.000000 0.000000 0.000000 0.000000 0.000000 0.076162
#
#
# Mechanical properties :
#
#
# Convention : Reuss Voigt Hill
#
# Bulk Modulus (GPa) = 19.15957 60.97065 40.06511
# Shear Modulus (GPa) = 11.31026 20.24645 15.77835
#
# Velocity S-wave (km/s) = 2.52905 3.38373 2.98712
# Velocity P-wave (km/s) = 4.40036 7.05308 5.87831
#
# Compressibility (1/GPa) = 0.05219323
#
# Stress axis : x y z
#
# Youngs Moduli (GPa) = 62.24934 15.84570 67.91815
#
# Poissons Ratio (x) = 0.17285 0.68085
# Poissons Ratio (y) = 0.67905 -0.00553
# Poissons Ratio (z) = 0.62402 -0.00129
#
# Static dielectric constant tensor:
#      x y z
#    x 3.494320 0.000000 0.000000 
#    y 0.000000 2.743880 0.000000 
#    z 0.000000 0.000000 3.623480 
# 
# 
# High freq. dielectric constant tensor:
#      x y z
#    x 1.686560 0.000000 0.000000 
#    y 0.000000 1.627850 0.000000 
#    z 0.000000 0.000000 1.682200 
# 
# From -- ./inp_files/30048.got.cif
#   From: 2010.03.12/outbox.cif.g09.slc.cpg/sg51_16_cif.got.tgz:30048.got - 2010.04.16 13:43:02.
