data_PCOD8210453
_publ_section_title
;
Structure prediction by ZEFSAII (Michael W. Deem and Ramdas Pophale) SiO2 
 PCOD8210453
Probable space group: P M M A
;
_chemical_formula_sum "Si O2"
_cell_formula_units_Z 52
_cell_length_a 9.345835
_cell_length_b 10.602715
_cell_length_c 29.475156
_cell_angle_alpha 90.000000
_cell_angle_beta 90.000000
_cell_angle_gamma 90.000000
_cell_volume 2920.729313
_symmetry_space_group_name_H-M "P M M A"
_symmetry_group_IT_number 51
_symmetry_cell_setting 'orthorhombic'
loop_
_space_group_symop_operation_xyz
x,y,z
1/2-x,-y,z
1/2+x,-y,-z
-x,y,-z
-x,-y,-z
1/2+x,y,-z
1/2-x,y,z
x,-y,z
loop_
_atom_site_type_symbol
_atom_site_label
_atom_site_fract_x
_atom_site_fract_y
_atom_site_fract_z
Si Si1 0.912858 0.849650 0.043675
Si Si2 0.082649 0.854534 0.780776
Si Si3 0.911173 0.851439 0.870823
Si Si4 0.906761 0.145287 0.539808
Si Si5 0.581986 0.356627 0.291636
Si Si6 0.586001 0.707439 0.618806
Si Si7 0.088368 0.500000 0.454743
O O1 0.750000 0.797217 0.042673
O O2 0.995872 0.795545 0.087657
O O3 0.908615 0.000000 0.044672
O O4 0.000000 0.800963 0.000000
O O5 0.250000 0.840697 0.792491
O O6 0.033381 0.751679 0.743634
O O7 0.991554 0.817261 0.824598
O O8 0.050324 0.000000 0.765216
O O9 0.750000 0.794096 0.870738
O O10 0.900540 0.000000 0.876925
O O11 0.750000 0.208732 0.535836
O O12 0.954827 0.161484 0.593034
O O13 0.000000 0.210983 0.500000
O O14 0.898602 0.000000 0.528580
O O15 0.750000 0.350398 0.298292
O O16 0.536731 0.500000 0.276654
O O17 0.513573 0.321569 0.339224
O O18 0.750000 0.698749 0.636161
O O19 0.551617 0.617708 0.576765
O O20 0.250000 0.500000 0.470641
O O21 0.000000 0.500000 0.500000
#
# Coordination Sequence:
#
# PCOD8210453 Si02
#       7
#     8   8   8   8   8   8   4
#     4   9  15  22  34  55  87 128 169 207 250 299
#     4   9  18  33  51  70  94 125 161 201 245 291
#     4   9  16  26  41  63  91 123 162 206 249 295
#     4   9  18  32  49  70  96 124 153 186 225 271
#     4  10  21  36  53  73  97 125 159 199 242 288
#     4  10  20  34  50  69  94 122 151 184 228 278
#     4  10  20  32  48  70  92 116 146 180 217 264
#
# _framework density 17.803771999999999
#
# number of rings (size 3 to 8) (size 9 to 14) (size 15 to 20)
#    0.000    2.615    0.769    1.385    0.000    6.154 
#    0.000    0.000    0.000    0.000    0.000    0.000 
#    0.000    0.615    0.000    1.692    0.000    3.077 
#
# Total GULP energy -644205.718597 kJ/mol
# GULP energy per Si atom -12388.571511 kJ/mol
# Density = 1.776325 g / cm^3
# Si number density = 17.803772 Si / 1000 Ang^3
#
#
#
# Elastic Constant Matrix: (Units=GPa)
#
#
# Indices 1 2 3 4 5 6 
#
# 1 93.5772 29.7616 76.7650 0.0000 0.0000 0.0000
# 2 29.7616 53.6329 50.3466 0.0000 0.0000 0.0000
# 3 76.7650 50.3466 154.4124 0.0000 0.0000 0.0000
# 4 0.0000 0.0000 0.0000 18.9522 0.0000 0.0000
# 5 0.0000 0.0000 0.0000 0.0000 38.7362 0.0000
# 6 0.0000 0.0000 0.0000 0.0000 0.0000 13.4427
#
#
#
# Elastic Compliance Matrix: (Units=1/GPa)
#
#
# Indices 1 2 3 4 5 6 
#
# 1 0.018244 -0.002320 -0.008314 0.000000 0.000000 0.000000
# 2 -0.002320 0.027164 -0.007704 0.000000 0.000000 0.000000
# 3 -0.008314 -0.007704 0.013121 0.000000 0.000000 0.000000
# 4 0.000000 0.000000 0.000000 0.052764 0.000000 0.000000
# 5 0.000000 0.000000 0.000000 0.000000 0.025816 0.000000
# 6 0.000000 0.000000 0.000000 0.000000 0.000000 0.074390
#
#
# Mechanical properties :
#
#
# Convention : Reuss Voigt Hill
#
# Bulk Modulus (GPa) = 45.75555 68.37431 57.06493
# Shear Modulus (GPa) = 19.57265 23.87616 21.72440
#
# Velocity S-wave (km/s) = 3.31925 3.66604 3.49695
# Velocity P-wave (km/s) = 6.35968 7.51050 6.95892
#
# Compressibility (1/GPa) = 0.02185527
#
# Stress axis : x y z
#
# Youngs Moduli (GPa) = 54.81234 36.81312 76.21364
#
# Poissons Ratio (x) = 0.08540 0.63361
# Poissons Ratio (y) = 0.12715 0.58713
# Poissons Ratio (z) = 0.45569 0.28360
#
# Static dielectric constant tensor:
#      x y z
#    x 3.542850 0.000000 0.000000 
#    y 0.000000 3.212290 0.000000 
#    z 0.000000 0.000000 3.348170 
# 
# 
# High freq. dielectric constant tensor:
#      x y z
#    x 1.693150 0.000000 0.000000 
#    y 0.000000 1.653250 0.000000 
#    z 0.000000 0.000000 1.690520 
# 
# From -- ./inp_files/36197.got.cif
#   From: 2010.03.12/outbox.cif.g09.slc.cpg/sg51_19_cif.got.tgz:36197.got - 2010.04.16 13:43:02.
