data_PCOD8210601
_publ_section_title
;
Structure prediction by ZEFSAII (Michael W. Deem and Ramdas Pophale) SiO2 
 PCOD8210601
Probable space group: P M M A
;
_chemical_formula_sum "Si O2"
_cell_formula_units_Z 56
_cell_length_a 14.838523
_cell_length_b 23.615653
_cell_length_c 8.909234
_cell_angle_alpha 90.000000
_cell_angle_beta 90.000000
_cell_angle_gamma 90.000000
_cell_volume 3121.986342
_symmetry_space_group_name_H-M "P M M A"
_symmetry_group_IT_number 51
_symmetry_cell_setting 'orthorhombic'
loop_
_space_group_symop_operation_xyz
x,y,z
1/2-x,-y,z
1/2+x,-y,-z
-x,y,-z
-x,-y,-z
1/2+x,y,-z
1/2-x,y,z
x,-y,z
loop_
_atom_site_type_symbol
_atom_site_label
_atom_site_fract_x
_atom_site_fract_y
_atom_site_fract_z
Si Si1 0.513130 0.937784 0.826295
Si Si2 0.648105 0.065008 0.381683
Si Si3 0.646022 0.137501 0.668085
Si Si4 0.650345 0.343762 0.392311
Si Si5 0.588832 0.562475 0.596828
Si Si6 0.517040 0.647836 0.823529
Si Si7 0.145086 0.731265 0.330673
O O1 0.417689 0.920361 0.754549
O O2 0.589138 0.891337 0.798648
O O3 0.543004 0.000000 0.765962
O O4 0.500000 0.940543 0.000000
O O5 0.750000 0.077594 0.328331
O O6 0.619088 0.106680 0.514513
O O7 0.638498 0.000000 0.435855
O O8 0.750000 0.128151 0.706428
O O9 0.620747 0.203074 0.660968
O O10 0.750000 0.334438 0.322948
O O11 0.655654 0.400413 0.494729
O O12 0.579427 0.345012 0.257437
O O13 0.622957 0.293089 0.504359
O O14 0.500000 0.556458 0.500000
O O15 0.629842 0.500000 0.629458
O O16 0.567535 0.592664 0.756134
O O17 0.581101 0.702052 0.793958
O O18 0.500000 0.639819 0.000000
O O19 0.250000 0.720901 0.288322
#
# Coordination Sequence:
#
# PCOD8210601 Si02
#       7
#     8   8   8   8   8   8   8
#     4  10  21  34  49  73 104 135 162 193 243 306
#     4   9  18  33  52  73  96 124 162 207 251 296
#     4  10  20  34  54  76  96 124 166 214 256 294
#     4   9  18  33  52  73  99 133 173 211 248 297
#     4   8  15  30  51  73  98 131 170 207 242 285
#     4  10  20  32  50  77 107 137 166 204 256 304
#     4   9  19  36  54  72  96 129 171 214 253 297
#
# _framework density 17.9373
#
# number of rings (size 3 to 8) (size 9 to 14) (size 15 to 20)
#    0.000    2.714    0.000    2.143    0.000    6.571 
#    0.000    1.429    0.000    3.429    0.000    4.000 
#    0.000    0.000    0.000    0.000    0.000    0.000 
#
# Total GULP energy -694200.987827 kJ/mol
# GULP energy per Si atom -12396.446211 kJ/mol
# Density = 1.789647 g / cm^3
# Si number density = 17.937300 Si / 1000 Ang^3
#
#
#
# Elastic Constant Matrix: (Units=GPa)
#
#
# Indices 1 2 3 4 5 6 
#
# 1 73.8218 43.2990 44.1830 0.0000 0.0000 0.0000
# 2 43.2990 127.3235 44.3545 0.0000 0.0000 0.0000
# 3 44.1830 44.3545 101.2072 0.0000 0.0000 0.0000
# 4 0.0000 0.0000 0.0000 -15.4445 0.0000 0.0000
# 5 0.0000 0.0000 0.0000 0.0000 12.8144 0.0000
# 6 0.0000 0.0000 0.0000 0.0000 0.0000 59.6695
#
#
#
# Elastic Compliance Matrix: (Units=1/GPa)
#
#
# Indices 1 2 3 4 5 6 
#
# 1 0.020316 -0.004507 -0.006894 0.000000 0.000000 0.000000
# 2 -0.004507 0.010269 -0.002533 0.000000 0.000000 0.000000
# 3 -0.006894 -0.002533 0.014000 0.000000 0.000000 0.000000
# 4 0.000000 0.000000 0.000000 -0.064748 0.000000 0.000000
# 5 0.000000 0.000000 0.000000 0.000000 0.078037 0.000000
# 6 0.000000 0.000000 0.000000 0.000000 0.000000 0.016759
#
#
# Mechanical properties :
#
#
# Convention : Reuss Voigt Hill
#
# Bulk Modulus (GPa) = 59.81736 62.89172 61.35454
# Shear Modulus (GPa) = 46.26498 22.77564 34.52031
#
# Velocity S-wave (km/s) = 5.08415 3.56720 4.39167
# Velocity P-wave (km/s) = 8.23925 7.21836 7.74564
#
# Compressibility (1/GPa) = 0.01671756
#
# Stress axis : x y z
#
# Youngs Moduli (GPa) = 49.22291 97.37918 71.42741
#
# Poissons Ratio (x) = 0.43892 0.49240
# Poissons Ratio (y) = 0.22186 0.18091
# Poissons Ratio (z) = 0.33933 0.24664
#
# Static dielectric constant tensor:
#      x y z
#    x 3.405830 0.000000 0.000000 
#    y 0.000000 3.676740 0.000000 
#    z 0.000000 0.000000 3.013390 
# 
# 
# High freq. dielectric constant tensor:
#      x y z
#    x 1.701420 0.000000 0.000000 
#    y 0.000000 1.697880 0.000000 
#    z 0.000000 0.000000 1.667930 
# 
# From -- ./inp_files/8478.got.cif
#   From: 2010.03.12/outbox.cif.g09.slc.cpg/sg51_5_cif.got.tgz:8478.got - 2010.04.16 13:43:02.
