data_PCOD8210506
_publ_section_title
;
Structure prediction by ZEFSAII (Michael W. Deem and Ramdas Pophale) SiO2 
 PCOD8210506
Probable space group: P M M A
;
_chemical_formula_sum "Si O2"
_cell_formula_units_Z 56
_cell_length_a 8.845668
_cell_length_b 19.295773
_cell_length_c 18.693483
_cell_angle_alpha 90.000000
_cell_angle_beta 90.000000
_cell_angle_gamma 90.000000
_cell_volume 3190.678485
_symmetry_space_group_name_H-M "P M M A"
_symmetry_group_IT_number 51
_symmetry_cell_setting 'orthorhombic'
loop_
_space_group_symop_operation_xyz
x,y,z
1/2-x,-y,z
1/2+x,-y,-z
-x,y,-z
-x,-y,-z
1/2+x,y,-z
1/2-x,y,z
x,-y,z
loop_
_atom_site_type_symbol
_atom_site_label
_atom_site_fract_x
_atom_site_fract_y
_atom_site_fract_z
Si Si1 0.575950 0.358010 0.793341
Si Si2 0.927135 0.925927 0.713236
Si Si3 0.415450 0.920801 0.565924
Si Si4 0.072770 0.421459 0.927663
Si Si5 0.425779 0.578684 0.355786
Si Si6 0.071014 0.708394 0.575920
Si Si7 0.928036 0.777045 0.710997
O O1 0.750000 0.364004 0.816379
O O2 0.473445 0.375209 0.860671
O O3 0.539146 0.409745 0.728074
O O4 0.532256 0.280272 0.769808
O O5 0.750000 0.934114 0.719745
O O6 0.976551 0.851729 0.747175
O O7 0.972316 0.915698 0.631773
O O8 0.998335 0.000000 0.743105
O O9 0.500000 0.882713 0.500000
O O10 0.250000 0.885984 0.580571
O O11 0.385820 0.000000 0.545174
O O12 0.250000 0.418329 0.937119
O O13 0.015305 0.500000 0.914963
O O14 0.000000 0.390971 0.000000
O O15 0.250000 0.594745 0.370321
O O16 0.468492 0.500000 0.375835
O O17 0.523114 0.629922 0.404423
O O18 0.250000 0.711642 0.570546
O O19 0.000000 0.729375 0.500000
O O20 0.015233 0.762389 0.636652
O O21 0.750000 0.775471 0.692863
#
# Coordination Sequence:
#
# PCOD8210506 Si02
#       7
#     8   8   8   8   8   8   8
#     4   9  17  31  50  70  96 129 159 188 225 271
#     4   9  17  30  48  67  86 110 143 185 230 277
#     4   9  16  25  37  54  77 104 134 171 219 275
#     4  10  20  32  48  73 104 135 165 195 224 257
#     4   9  18  33  52  72  94 122 156 194 238 285
#     4  11  22  35  50  66  87 117 155 200 247 292
#     4   9  19  35  51  68  92 122 156 193 237 289
#
# _framework density 17.551126
#
# number of rings (size 3 to 8) (size 9 to 14) (size 15 to 20)
#    0.000    2.571    0.000    3.429    0.000    7.143 
#    0.000    0.000    0.000    0.000    0.000    0.000 
#    0.000    0.571    0.000    1.000    0.000    1.429 
#
# Total GULP energy -693850.497551 kJ/mol
# GULP energy per Si atom -12390.187456 kJ/mol
# Density = 1.751118 g / cm^3
# Si number density = 17.551126 Si / 1000 Ang^3
#
#
#
# Elastic Constant Matrix: (Units=GPa)
#
#
# Indices 1 2 3 4 5 6 
#
# 1 55.7961 29.0074 30.1351 0.0000 0.0000 0.0000
# 2 29.0074 127.5136 27.8987 0.0000 0.0000 0.0000
# 3 30.1351 27.8987 71.0138 0.0000 0.0000 0.0000
# 4 0.0000 0.0000 0.0000 21.2021 0.0000 0.0000
# 5 0.0000 0.0000 0.0000 0.0000 26.3497 0.0000
# 6 0.0000 0.0000 0.0000 0.0000 0.0000 14.6892
#
#
#
# Elastic Compliance Matrix: (Units=1/GPa)
#
#
# Indices 1 2 3 4 5 6 
#
# 1 0.024704 -0.003639 -0.009054 0.000000 0.000000 0.000000
# 2 -0.003639 0.009116 -0.002037 0.000000 0.000000 0.000000
# 3 -0.009054 -0.002037 0.018724 0.000000 0.000000 0.000000
# 4 0.000000 0.000000 0.000000 0.047165 0.000000 0.000000
# 5 0.000000 0.000000 0.000000 0.000000 0.037951 0.000000
# 6 0.000000 0.000000 0.000000 0.000000 0.000000 0.068077
#
#
# Mechanical properties :
#
#
# Convention : Reuss Voigt Hill
#
# Bulk Modulus (GPa) = 43.31910 47.60067 45.45989
# Shear Modulus (GPa) = 20.58533 23.60037 22.09285
#
# Velocity S-wave (km/s) = 3.42845 3.67094 3.55177
# Velocity P-wave (km/s) = 6.35670 6.71921 6.54047
#
# Compressibility (1/GPa) = 0.02308451
#
# Stress axis : x y z
#
# Youngs Moduli (GPa) = 40.47913 109.69979 53.40727
#
# Poissons Ratio (x) = 0.39919 0.48353
# Poissons Ratio (y) = 0.14730 0.10879
# Poissons Ratio (z) = 0.36649 0.22346
#
# Static dielectric constant tensor:
#      x y z
#    x 3.274860 0.000000 0.000000 
#    y 0.000000 3.768990 0.000000 
#    z 0.000000 0.000000 2.865390 
# 
# 
# High freq. dielectric constant tensor:
#      x y z
#    x 1.678810 0.000000 0.000000 
#    y 0.000000 1.688670 0.000000 
#    z 0.000000 0.000000 1.627620 
# 
# From -- ./inp_files/28258.got.cif
#   From: 2010.03.12/outbox.cif.g09.slc.cpg/sg51_15_cif.got.tgz:28258.got - 2010.04.16 13:43:02.
