data_PCOD8210459
_publ_section_title
;
Structure prediction by ZEFSAII (Michael W. Deem and Ramdas Pophale) SiO2 
 PCOD8210459
Probable space group: P M M A
;
_chemical_formula_sum "Si O2"
_cell_formula_units_Z 64
_cell_length_a 34.045702
_cell_length_b 9.586490
_cell_length_c 11.145947
_cell_angle_alpha 90.000000
_cell_angle_beta 90.000000
_cell_angle_gamma 90.000000
_cell_volume 3637.800603
_symmetry_space_group_name_H-M "P M M A"
_symmetry_group_IT_number 51
_symmetry_cell_setting 'orthorhombic'
loop_
_space_group_symop_operation_xyz
x,y,z
1/2-x,-y,z
1/2+x,-y,-z
-x,y,-z
-x,-y,-z
1/2+x,y,-z
1/2-x,y,z
x,-y,z
loop_
_atom_site_type_symbol
_atom_site_label
_atom_site_fract_x
_atom_site_fract_y
_atom_site_fract_z
Si Si1 0.625382 0.335173 0.146881
Si Si2 0.060530 0.840504 0.726940
Si Si3 0.292551 0.665435 0.477642
Si Si4 0.408877 0.337316 0.108109
Si Si5 0.567624 0.842301 0.544299
Si Si6 0.793528 0.334552 0.253179
Si Si7 0.475041 0.161135 0.215228
Si Si8 0.131789 0.663165 0.350696
O O1 0.621612 0.500000 0.168808
O O2 0.596084 0.259946 0.238479
O O3 0.670366 0.283366 0.169023
O O4 0.613142 0.292751 0.012757
O O5 0.049314 0.821861 0.587066
O O6 0.021057 0.801980 0.801092
O O7 0.072942 0.000000 0.753397
O O8 0.250000 0.722669 0.436289
O O9 0.291801 0.500000 0.482256
O O10 0.302076 0.720119 0.611887
O O11 0.324273 0.716188 0.380108
O O12 0.419601 0.500000 0.109221
O O13 0.449530 0.253407 0.123277
O O14 0.378860 0.297256 0.214526
O O15 0.535938 0.805489 0.646684
O O16 0.604162 0.739402 0.554773
O O17 0.582770 0.000000 0.561967
O O18 0.750000 0.280143 0.210244
O O19 0.792484 0.500000 0.251507
O O20 0.467143 0.000000 0.183991
O O21 0.126994 0.500000 0.374290
#
# Coordination Sequence:
#
# PCOD8210459 Si02
#       8
#     8   8   8   8   8   8   8   8
#     4  10  20  33  48  67  93 125 159 192 227 265
#     4  10  20  32  48  71  95 118 150 192 231 272
#     4   8  13  22  40  67  93 114 141 181 227 273
#     4   9  19  33  46  64  92 123 156 195 230 260
#     4   9  17  30  48  69  92 116 145 186 234 278
#     4   8  14  26  45  68  92 118 149 184 223 270
#     4   9  18  33  51  68  89 121 155 186 228 279
#     4   9  16  28  46  66  90 120 152 185 224 271
#
# _framework density 17.593048
#
# number of rings (size 3 to 8) (size 9 to 14) (size 15 to 20)
#    0.000    3.000    0.000    1.875    0.000    4.500 
#    0.000    3.125    0.000    8.250    0.000    3.500 
#    0.000    3.000    0.000    0.000    0.000    0.000 
#
# Total GULP energy -793192.934501 kJ/mol
# GULP energy per Si atom -12393.639602 kJ/mol
# Density = 1.755301 g / cm^3
# Si number density = 17.593048 Si / 1000 Ang^3
#
#
#
# Elastic Constant Matrix: (Units=GPa)
#
#
# Indices 1 2 3 4 5 6 
#
# 1 133.3023 34.0660 39.7127 0.0000 0.0000 0.0000
# 2 34.0660 31.0330 20.0890 0.0000 0.0000 0.0000
# 3 39.7127 20.0890 58.0604 0.0000 0.0000 0.0000
# 4 0.0000 0.0000 0.0000 19.6719 0.0000 0.0000
# 5 0.0000 0.0000 0.0000 0.0000 25.1348 0.0000
# 6 0.0000 0.0000 0.0000 0.0000 0.0000 2.9973
#
#
#
# Elastic Compliance Matrix: (Units=1/GPa)
#
#
# Indices 1 2 3 4 5 6 
#
# 1 0.011238 -0.009485 -0.004405 0.000000 0.000000 0.000000
# 2 -0.009485 0.049530 -0.010650 0.000000 0.000000 0.000000
# 3 -0.004405 -0.010650 0.023921 0.000000 0.000000 0.000000
# 4 0.000000 0.000000 0.000000 0.050834 0.000000 0.000000
# 5 0.000000 0.000000 0.000000 0.000000 0.039785 0.000000
# 6 0.000000 0.000000 0.000000 0.000000 0.000000 0.333633
#
#
# Mechanical properties :
#
#
# Convention : Reuss Voigt Hill
#
# Bulk Modulus (GPa) = 28.08219 45.57012 36.82615
# Shear Modulus (GPa) = 8.77363 18.12935 13.45149
#
# Velocity S-wave (km/s) = 2.23558 3.21360 2.76812
# Velocity P-wave (km/s) = 4.76030 6.30303 5.58519
#
# Compressibility (1/GPa) = 0.03560976
#
# Stress axis : x y z
#
# Youngs Moduli (GPa) = 88.98465 20.18995 41.80397
#
# Poissons Ratio (x) = 0.19150 0.18414
# Poissons Ratio (y) = 0.84400 0.44520
# Poissons Ratio (z) = 0.39196 0.21502
#
# Static dielectric constant tensor:
#      x y z
#    x 3.671940 0.000000 0.000000 
#    y 0.000000 2.985370 0.000000 
#    z 0.000000 0.000000 3.222530 
# 
# 
# High freq. dielectric constant tensor:
#      x y z
#    x 1.685480 0.000000 0.000000 
#    y 0.000000 1.646520 0.000000 
#    z 0.000000 0.000000 1.670980 
# 
# From -- ./inp_files/13187.got.cif
#   From: 2010.03.12/outbox.cif.g09.slc.cpg/sg51_7_cif.got.tgz:13187.got - 2010.04.16 13:43:02.
