data_PCOD8210070
_publ_section_title
;
Structure prediction by ZEFSAII (Michael W. Deem and Ramdas Pophale) SiO2 
 PCOD8210070
Probable space group: P M M A
;
_chemical_formula_sum "Si O2"
_cell_formula_units_Z 48
_cell_length_a 17.279143
_cell_length_b 10.254405
_cell_length_c 14.032744
_cell_angle_alpha 90.000000
_cell_angle_beta 90.000000
_cell_angle_gamma 90.000000
_cell_volume 2486.424447
_symmetry_space_group_name_H-M "P M M A"
_symmetry_group_IT_number 51
_symmetry_cell_setting 'orthorhombic'
loop_
_space_group_symop_operation_xyz
x,y,z
1/2-x,-y,z
1/2+x,-y,-z
-x,y,-z
-x,-y,-z
1/2+x,y,-z
1/2-x,y,z
x,-y,z
loop_
_atom_site_type_symbol
_atom_site_label
_atom_site_fract_x
_atom_site_fract_y
_atom_site_fract_z
Si Si1 0.906676 0.255227 0.322734
Si Si2 0.842031 0.745222 0.892328
Si Si3 0.842822 0.000000 0.222036
Si Si4 0.839820 0.500000 0.219533
Si Si5 0.658338 0.000000 0.002312
Si Si6 0.421818 0.346262 0.294639
Si Si7 0.342088 0.500000 0.989358
Si Si8 0.660156 0.650037 0.507331
O O1 0.860244 0.371772 0.275833
O O2 0.886068 0.256154 0.435010
O O3 0.997319 0.275318 0.310296
O O4 0.878824 0.123671 0.274086
O O5 0.750000 0.745281 0.880140
O O6 0.879250 0.730554 0.789105
O O7 0.872216 0.627005 0.956655
O O8 0.872530 0.874648 0.945060
O O9 0.750000 0.000000 0.230730
O O10 0.870405 0.000000 0.111739
O O11 0.750000 0.500000 0.201131
O O12 0.880078 0.500000 0.115618
O O13 0.750000 0.000000 0.003724
O O14 0.432844 0.500000 0.271924
O O15 0.369679 0.324993 0.386938
O O16 0.250000 0.500000 0.986092
O O17 0.750000 0.685962 0.503622
O O18 0.645565 0.500000 0.477583
#
# Coordination Sequence:
#
# PCOD8210070 Si02
#       8
#     8   8   4   4   4   8   4   8
#     4  12  23  39  60  90 123 157 195 248 309 357
#     4  10  19  36  60  86 118 159 207 249 293 354
#     4  11  24  43  65  87 120 163 206 248 298 363
#     4  11  20  35  59  85 112 147 200 250 294 349
#     4   9  20  39  62  87 116 159 209 254 296 345
#     4  11  22  38  59  91 127 159 195 251 313 362
#     4   9  18  31  54  83 110 147 199 256 292 335
#     4  10  20  37  64  92 119 157 203 247 296 359
#
# _framework density 19.304831
#
# number of rings (size 3 to 8) (size 9 to 14) (size 15 to 20)
#    0.000    1.500    2.500    3.500    0.000    5.333 
#    0.000    7.500    0.000    1.000    0.000    0.000 
#    0.000    0.000    0.000    0.000    0.000    0.000 
#
# Total GULP energy -595282.633137 kJ/mol
# GULP energy per Si atom -12401.721524 kJ/mol
# Density = 1.926089 g / cm^3
# Si number density = 19.304831 Si / 1000 Ang^3
#
#
#
# Elastic Constant Matrix: (Units=GPa)
#
#
# Indices 1 2 3 4 5 6 
#
# 1 47.8912 20.6084 14.4300 0.0000 0.0000 0.0000
# 2 20.6084 141.5081 57.2417 0.0000 0.0000 0.0000
# 3 14.4300 57.2417 121.3953 0.0000 0.0000 0.0000
# 4 0.0000 0.0000 0.0000 68.1128 0.0000 0.0000
# 5 0.0000 0.0000 0.0000 0.0000 0.4802 0.0000
# 6 0.0000 0.0000 0.0000 0.0000 0.0000 22.9280
#
#
#
# Elastic Compliance Matrix: (Units=1/GPa)
#
#
# Indices 1 2 3 4 5 6 
#
# 1 0.022466 -0.002708 -0.001394 0.000000 0.000000 0.000000
# 2 -0.002708 0.009059 -0.003950 0.000000 0.000000 0.000000
# 3 -0.001394 -0.003950 0.010266 0.000000 0.000000 0.000000
# 4 0.000000 0.000000 0.000000 0.014682 0.000000 0.000000
# 5 0.000000 0.000000 0.000000 0.000000 2.082528 0.000000
# 6 0.000000 0.000000 0.000000 0.000000 0.000000 0.043615
#
#
# Mechanical properties :
#
#
# Convention : Reuss Voigt Hill
#
# Bulk Modulus (GPa) = 38.92899 55.03943 46.98421
# Shear Modulus (GPa) = 2.26523 32.87183 17.56853
#
# Velocity S-wave (km/s) = 1.08441 4.13095 3.01999
# Velocity P-wave (km/s) = 4.66660 7.16419 6.04577
#
# Compressibility (1/GPa) = 0.02568780
#
# Stress axis : x y z
#
# Youngs Moduli (GPa) = 44.51192 110.39014 97.41321
#
# Poissons Ratio (x) = 0.29895 0.13575
# Poissons Ratio (y) = 0.12054 0.38474
# Poissons Ratio (z) = 0.06203 0.43600
#
# Static dielectric constant tensor:
#      x y z
#    x 3.426420 0.000000 0.000000 
#    y 0.000000 3.442850 0.000000 
#    z 0.000000 0.000000 3.785470 
# 
# 
# High freq. dielectric constant tensor:
#      x y z
#    x 1.741290 0.000000 0.000000 
#    y 0.000000 1.740990 0.000000 
#    z 0.000000 0.000000 1.772510 
# 
# From -- ./inp_files/25018.got.cif
#   From: 2010.03.12/outbox.cif.g09.slc.cpg/sg51_13_cif.got.tgz:25018.got - 2010.04.16 13:43:02.
