data_PCOD8210263
_publ_section_title
;
Structure prediction by ZEFSAII (Michael W. Deem and Ramdas Pophale) SiO2 
 PCOD8210263
Probable space group: P M M A
;
_chemical_formula_sum "Si O2"
_cell_formula_units_Z 48
_cell_length_a 9.017857
_cell_length_b 13.466161
_cell_length_c 24.952181
_cell_angle_alpha 90.000000
_cell_angle_beta 90.000000
_cell_angle_gamma 90.000000
_cell_volume 3030.090912
_symmetry_space_group_name_H-M "P M M A"
_symmetry_group_IT_number 51
_symmetry_cell_setting 'orthorhombic'
loop_
_space_group_symop_operation_xyz
x,y,z
1/2-x,-y,z
1/2+x,-y,-z
-x,y,-z
-x,-y,-z
1/2+x,y,-z
1/2-x,y,z
x,-y,z
loop_
_atom_site_type_symbol
_atom_site_label
_atom_site_fract_x
_atom_site_fract_y
_atom_site_fract_z
Si Si1 0.076986 0.386623 0.264077
Si Si2 0.423753 0.726285 0.369915
Si Si3 0.083872 0.617909 0.843223
Si Si4 0.913009 0.614077 0.451052
Si Si5 0.582966 0.381534 0.947396
Si Si6 0.074649 0.886907 0.556609
O O1 0.250000 0.388716 0.251355
O O2 0.026758 0.500000 0.280011
O O3 0.041036 0.302216 0.308468
O O4 0.993825 0.347890 0.211426
O O5 0.250000 0.742371 0.379409
O O6 0.483794 0.628340 0.399718
O O7 0.511994 0.820461 0.394143
O O8 0.250000 0.660752 0.844074
O O9 0.084771 0.500000 0.846580
O O10 0.996977 0.661275 0.894471
O O11 0.750000 0.664312 0.444431
O O12 0.889835 0.500000 0.463298
O O13 0.000000 0.666418 0.500000
O O14 0.750000 0.340898 0.948257
O O15 0.581018 0.500000 0.946937
O O16 0.500000 0.340836 0.000000
O O17 0.250000 0.871476 0.551381
O O18 0.000000 0.857355 0.500000
O O19 0.034763 0.000000 0.571328
#
# Coordination Sequence:
#
# PCOD8210263 Si02
#       6
#     8   8   8   8   8   8
#     4   9  18  31  44  59  82 113 145 174 206 245
#     4  11  21  32  48  67  87 110 137 170 207 250
#     4   9  16  25  37  53  74 102 137 176 214 248
#     4  10  20  32  45  61  83 110 138 168 202 241
#     4   9  15  22  33  49  70  97 132 175 218 255
#     4  10  21  37  55  72  89 108 132 166 209 257
#
# _framework density 15.841108
#
# number of rings (size 3 to 8) (size 9 to 14) (size 15 to 20)
#    0.000    2.333    0.000    3.500    0.000    8.000 
#    0.000    1.667    0.000    0.000    0.000    0.000 
#    0.000    0.000    0.000    0.000    0.000    0.833 
#
# Total GULP energy -594798.451921 kJ/mol
# GULP energy per Si atom -12391.634415 kJ/mol
# Density = 1.580505 g / cm^3
# Si number density = 15.841108 Si / 1000 Ang^3
#
#
#
# Elastic Constant Matrix: (Units=GPa)
#
#
# Indices 1 2 3 4 5 6 
#
# 1 110.5331 25.8033 82.0718 0.0000 0.0000 0.0000
# 2 25.8033 54.5902 31.7071 0.0000 0.0000 0.0000
# 3 82.0718 31.7071 139.1035 0.0000 0.0000 0.0000
# 4 0.0000 0.0000 0.0000 10.7167 0.0000 0.0000
# 5 0.0000 0.0000 0.0000 0.0000 32.6373 0.0000
# 6 0.0000 0.0000 0.0000 0.0000 0.0000 15.0039
#
#
#
# Elastic Compliance Matrix: (Units=1/GPa)
#
#
# Indices 1 2 3 4 5 6 
#
# 1 0.016381 -0.002454 -0.009105 0.000000 0.000000 0.000000
# 2 -0.002454 0.021481 -0.003448 0.000000 0.000000 0.000000
# 3 -0.009105 -0.003448 0.013347 0.000000 0.000000 0.000000
# 4 0.000000 0.000000 0.000000 0.093313 0.000000 0.000000
# 5 0.000000 0.000000 0.000000 0.000000 0.030640 0.000000
# 6 0.000000 0.000000 0.000000 0.000000 0.000000 0.066649
#
#
# Mechanical properties :
#
#
# Convention : Reuss Voigt Hill
#
# Bulk Modulus (GPa) = 47.18485 64.82123 56.00304
# Shear Modulus (GPa) = 17.92814 22.64788 20.28801
#
# Velocity S-wave (km/s) = 3.36780 3.78523 3.58260
# Velocity P-wave (km/s) = 6.70625 7.75322 7.24866
#
# Compressibility (1/GPa) = 0.02119324
#
# Stress axis : x y z
#
# Youngs Moduli (GPa) = 61.04717 46.55223 74.92248
#
# Poissons Ratio (x) = 0.11425 0.68219
# Poissons Ratio (y) = 0.14982 0.25837
# Poissons Ratio (z) = 0.55586 0.16053
#
# Static dielectric constant tensor:
#      x y z
#    x 3.329510 0.000000 0.000000 
#    y 0.000000 2.603600 0.000000 
#    z 0.000000 0.000000 3.065630 
# 
# 
# High freq. dielectric constant tensor:
#      x y z
#    x 1.630570 0.000000 0.000000 
#    y 0.000000 1.546880 0.000000 
#    z 0.000000 0.000000 1.605830 
# 
# From -- ./inp_files/34633.got.cif
#   From: 2010.03.12/outbox.cif.g09.slc.cpg/sg51_18_cif.got.tgz:34633.got - 2010.04.16 13:43:02.
