data_PCOD8210869
_publ_section_title
;
Structure prediction by ZEFSAII (Michael W. Deem and Ramdas Pophale) SiO2 
 PCOD8210869
Probable space group: P M M A
;
_chemical_formula_sum "Si O2"
_cell_formula_units_Z 64
_cell_length_a 18.743872
_cell_length_b 9.441325
_cell_length_c 20.374033
_cell_angle_alpha 90.000000
_cell_angle_beta 90.000000
_cell_angle_gamma 90.000000
_cell_volume 3605.531239
_symmetry_space_group_name_H-M "P M M A"
_symmetry_group_IT_number 51
_symmetry_cell_setting 'orthorhombic'
loop_
_space_group_symop_operation_xyz
x,y,z
1/2-x,-y,z
1/2+x,-y,-z
-x,y,-z
-x,-y,-z
1/2+x,y,-z
1/2-x,y,z
x,-y,z
loop_
_atom_site_type_symbol
_atom_site_label
_atom_site_fract_x
_atom_site_fract_y
_atom_site_fract_z
Si Si1 0.083616 0.665898 0.822343
Si Si2 0.834982 0.159703 0.431364
Si Si3 0.419228 0.333027 0.181907
Si Si4 0.666868 0.336141 0.306584
Si Si5 0.670575 0.668479 0.695783
Si Si6 0.831571 0.163024 0.921332
Si Si7 0.665019 0.341739 0.551604
Si Si8 0.331106 0.163408 0.926585
O O1 0.093852 0.500000 0.833701
O O2 0.124762 0.715885 0.757330
O O3 0.114637 0.743249 0.885439
O O4 0.001602 0.708718 0.814347
O O5 0.750000 0.160199 0.433582
O O6 0.861523 0.244086 0.367431
O O7 0.865891 0.236886 0.496177
O O8 0.864863 0.000000 0.429023
O O9 0.407976 0.500000 0.174882
O O10 0.382292 0.274288 0.248226
O O11 0.384425 0.261203 0.119017
O O12 0.750000 0.309838 0.293163
O O13 0.651337 0.500000 0.322785
O O14 0.750000 0.729335 0.709491
O O15 0.673645 0.500000 0.695994
O O16 0.642535 0.716462 0.623735
O O17 0.750000 0.204424 0.905365
O O18 0.845358 0.000000 0.902978
O O19 0.848206 0.189609 0.997417
O O20 0.750000 0.348053 0.548235
O O21 0.634483 0.500000 0.539216
O O22 0.250000 0.208996 0.910793
O O23 0.342461 0.000000 0.908216
#
# Coordination Sequence:
#
# PCOD8210869 Si02
#       8
#     8   8   8   8   8   8   8   8
#     4  10  21  34  49  73 103 131 161 201 245 289
#     4   9  16  25  40  66  95 117 145 193 245 286
#     4  10  20  33  50  74 103 132 163 200 242 289
#     4   9  17  30  47  65  89 124 161 195 236 287
#     4   8  14  26  46  70  94 123 160 198 235 280
#     4   9  19  36  55  75  99 127 162 202 242 287
#     4   8  13  23  41  64  89 118 152 190 234 283
#     4   9  19  36  56  75  96 126 164 203 242 288
#
# _framework density 17.750503999999999
#
# number of rings (size 3 to 8) (size 9 to 14) (size 15 to 20)
#    0.000    3.000    0.000    2.625    0.000    5.000 
#    0.000    5.625    0.000    3.000    0.000    5.250 
#    0.000    0.000    0.000    0.000    0.000    0.000 
#
# Total GULP energy -793503.930172 kJ/mol
# GULP energy per Si atom -12398.498909 kJ/mol
# Density = 1.771010 g / cm^3
# Si number density = 17.750504 Si / 1000 Ang^3
#
#
#
# Elastic Constant Matrix: (Units=GPa)
#
#
# Indices 1 2 3 4 5 6 
#
# 1 80.2904 39.2449 65.2333 0.0000 0.0000 0.0000
# 2 39.2449 65.1337 58.5789 0.0000 0.0000 0.0000
# 3 65.2333 58.5789 134.2405 0.0000 0.0000 0.0000
# 4 0.0000 0.0000 0.0000 9.8587 0.0000 0.0000
# 5 0.0000 0.0000 0.0000 0.0000 4.0346 0.0000
# 6 0.0000 0.0000 0.0000 0.0000 0.0000 19.4504
#
#
#
# Elastic Compliance Matrix: (Units=1/GPa)
#
#
# Indices 1 2 3 4 5 6 
#
# 1 0.021904 -0.005966 -0.008040 0.000000 0.000000 0.000000
# 2 -0.005966 0.026896 -0.008837 0.000000 0.000000 0.000000
# 3 -0.008040 -0.008837 0.015213 0.000000 0.000000 0.000000
# 4 0.000000 0.000000 0.000000 0.101434 0.000000 0.000000
# 5 0.000000 0.000000 0.000000 0.000000 0.247855 0.000000
# 6 0.000000 0.000000 0.000000 0.000000 0.000000 0.051413
#
#
# Mechanical properties :
#
#
# Convention : Reuss Voigt Hill
#
# Bulk Modulus (GPa) = 54.57240 67.30878 60.94059
# Shear Modulus (GPa) = 9.68036 14.44257 12.06147
#
# Velocity S-wave (km/s) = 2.33782 2.85554 2.60955
# Velocity P-wave (km/s) = 6.17237 6.99098 6.59439
#
# Compressibility (1/GPa) = 0.01832428
#
# Stress axis : x y z
#
# Youngs Moduli (GPa) = 45.65462 37.18034 65.73382
#
# Poissons Ratio (x) = 0.22183 0.52852
# Poissons Ratio (y) = 0.27239 0.58091
# Poissons Ratio (z) = 0.36708 0.32858
#
# Static dielectric constant tensor:
#      x y z
#    x 3.051260 0.000000 0.000000 
#    y 0.000000 3.171770 0.000000 
#    z 0.000000 0.000000 3.484190 
# 
# 
# High freq. dielectric constant tensor:
#      x y z
#    x 1.654570 0.000000 0.000000 
#    y 0.000000 1.669540 0.000000 
#    z 0.000000 0.000000 1.700640 
# 
# From -- ./inp_files/33777.got.cif
#   From: 2010.03.12/outbox.cif.g09.slc.cpg/sg51_17_cif.got.tgz:33777.got - 2010.04.16 13:43:02.
