data_PCOD8210590
_publ_section_title
;
Structure prediction by ZEFSAII (Michael W. Deem and Ramdas Pophale) SiO2 
 PCOD8210590
Probable space group: P M M A
;
_chemical_formula_sum "Si O2"
_cell_formula_units_Z 44
_cell_length_a 26.584921
_cell_length_b 9.763222
_cell_length_c 8.655614
_cell_angle_alpha 90.000000
_cell_angle_beta 90.000000
_cell_angle_gamma 90.000000
_cell_volume 2246.603439
_symmetry_space_group_name_H-M "P M M A"
_symmetry_group_IT_number 51
_symmetry_cell_setting 'orthorhombic'
loop_
_space_group_symop_operation_xyz
x,y,z
1/2-x,-y,z
1/2+x,-y,-z
-x,y,-z
-x,-y,-z
1/2+x,y,-z
1/2-x,y,z
x,-y,z
loop_
_atom_site_type_symbol
_atom_site_label
_atom_site_fract_x
_atom_site_fract_y
_atom_site_fract_z
Si Si1 0.694259 0.155810 0.666583
Si Si2 0.151931 0.345661 0.090628
Si Si3 0.000000 0.228165 0.000000
Si Si4 0.601063 0.152324 0.134348
Si Si5 0.595341 0.157915 0.486168
Si Si6 0.050019 0.648936 0.279271
O O1 0.750000 0.170213 0.592207
O O2 0.692307 0.258618 0.812200
O O3 0.652422 0.193220 0.538634
O O4 0.685265 0.000000 0.725683
O O5 0.171762 0.500000 0.053128
O O6 0.102233 0.354709 0.190557
O O7 0.140001 0.263247 0.933221
O O8 0.050118 0.140197 0.968171
O O9 0.993160 0.317852 0.845194
O O10 0.589198 0.198907 0.308364
O O11 0.625425 0.000000 0.133746
O O12 0.553576 0.242018 0.582100
O O13 0.582500 0.000000 0.515494
O O14 0.038320 0.500000 0.351170
#
# Coordination Sequence:
#
# PCOD8210590 Si02
#       6
#     8   8   4   8   8   8
#     4   9  17  32  55  78  98 125 162 201 245 301
#     4   9  18  32  51  74 100 130 162 200 246 295
#     4  10  20  32  50  74  98 134 180 220 254 300
#     4  10  20  34  51  72 101 136 173 213 256 302
#     4   9  19  34  51  73 102 132 164 208 259 306
#     4   9  18  33  51  71  98 131 168 209 253 300
#
# _framework density 19.58512
#
# number of rings (size 3 to 8) (size 9 to 14) (size 15 to 20)
#    0.000    2.727    0.000    1.091    0.000    7.636 
#    0.000    3.636    0.000    3.273    0.000    0.000 
#    0.000    0.000    0.000    0.000    0.000    0.000 
#
# Total GULP energy -545368.237908 kJ/mol
# GULP energy per Si atom -12394.732680 kJ/mol
# Density = 1.954054 g / cm^3
# Si number density = 19.585120 Si / 1000 Ang^3
#
#
#
# Elastic Constant Matrix: (Units=GPa)
#
#
# Indices 1 2 3 4 5 6 
#
# 1 48.2261 16.2368 16.5924 0.0000 0.0000 0.0000
# 2 16.2368 120.0198 55.8652 0.0000 0.0000 0.0000
# 3 16.5924 55.8652 115.0359 0.0000 0.0000 0.0000
# 4 0.0000 0.0000 0.0000 17.3391 0.0000 0.0000
# 5 0.0000 0.0000 0.0000 0.0000 22.8872 0.0000
# 6 0.0000 0.0000 0.0000 0.0000 0.0000 13.5198
#
#
#
# Elastic Compliance Matrix: (Units=1/GPa)
#
#
# Indices 1 2 3 4 5 6 
#
# 1 0.022167 -0.001952 -0.002249 0.000000 0.000000 0.000000
# 2 -0.001952 0.010937 -0.005030 0.000000 0.000000 0.000000
# 3 -0.002249 -0.005030 0.011460 0.000000 0.000000 0.000000
# 4 0.000000 0.000000 0.000000 0.057673 0.000000 0.000000
# 5 0.000000 0.000000 0.000000 0.000000 0.043693 0.000000
# 6 0.000000 0.000000 0.000000 0.000000 0.000000 0.073966
#
#
# Mechanical properties :
#
#
# Convention : Reuss Voigt Hill
#
# Bulk Modulus (GPa) = 38.31161 51.18564 44.74862
# Shear Modulus (GPa) = 20.23814 23.72172 21.97993
#
# Velocity S-wave (km/s) = 3.21805 3.48402 3.35367
# Velocity P-wave (km/s) = 5.78030 6.50970 6.15581
#
# Compressibility (1/GPa) = 0.02610175
#
# Stress axis : x y z
#
# Youngs Moduli (GPa) = 45.11270 91.43032 87.25921
#
# Poissons Ratio (x) = 0.17845 0.19628
# Poissons Ratio (y) = 0.08805 0.43891
# Poissons Ratio (z) = 0.10148 0.45989
#
# Static dielectric constant tensor:
#      x y z
#    x 3.341600 0.000000 0.000000 
#    y 0.000000 3.830750 0.000000 
#    z 0.000000 0.000000 3.458870 
# 
# 
# High freq. dielectric constant tensor:
#      x y z
#    x 1.736880 0.000000 0.000000 
#    y 0.000000 1.766810 0.000000 
#    z 0.000000 0.000000 1.749510 
# 
# From -- ./inp_files/12632.got.cif
#   From: 2010.03.12/outbox.cif.g09.slc.cpg/sg51_7_cif.got.tgz:12632.got - 2010.04.16 13:43:02.
