data_PCOD8210229
_publ_section_title
;
Structure prediction by ZEFSAII (Michael W. Deem and Ramdas Pophale) SiO2 
 PCOD8210229
Probable space group: P M M A
;
_chemical_formula_sum "Si O2"
_cell_formula_units_Z 48
_cell_length_a 9.299525
_cell_length_b 7.847076
_cell_length_c 34.431460
_cell_angle_alpha 90.000000
_cell_angle_beta 90.000000
_cell_angle_gamma 90.000000
_cell_volume 2512.604097
_symmetry_space_group_name_H-M "P M M A"
_symmetry_group_IT_number 51
_symmetry_cell_setting 'orthorhombic'
loop_
_space_group_symop_operation_xyz
x,y,z
1/2-x,-y,z
1/2+x,-y,-z
-x,y,-z
-x,-y,-z
1/2+x,y,-z
1/2-x,y,z
x,-y,z
loop_
_atom_site_type_symbol
_atom_site_label
_atom_site_fract_x
_atom_site_fract_y
_atom_site_fract_z
Si Si1 0.917074 0.692936 0.539124
Si Si2 0.081380 0.000000 0.405344
Si Si3 0.578347 0.309295 0.271646
Si Si4 0.914465 0.194373 0.105804
Si Si5 0.421040 0.000000 0.675280
Si Si6 0.089986 0.300183 0.812973
Si Si7 0.408227 0.304552 0.034738
O O1 0.750000 0.711971 0.529439
O O2 0.953420 0.500000 0.553417
O O3 0.000000 0.737894 0.500000
O O4 0.963424 0.829183 0.571541
O O5 0.250000 0.000000 0.395768
O O6 0.991559 0.000000 0.366416
O O7 0.750000 0.309889 0.268800
O O8 0.525916 0.500000 0.283994
O O9 0.524486 0.169301 0.302347
O O10 0.514977 0.260647 0.228772
O O11 0.750000 0.264512 0.105213
O O12 0.983987 0.216168 0.149119
O O13 0.010277 0.296779 0.075605
O O14 0.918917 0.000000 0.093007
O O15 0.250000 0.000000 0.670913
O O16 0.250000 0.223069 0.810982
O O17 0.093198 0.500000 0.819705
O O18 0.250000 0.217181 0.037512
O O19 0.386026 0.500000 0.023799
O O20 0.500000 0.216010 0.000000
#
# Coordination Sequence:
#
# PCOD8210229 Si02
#       7
#     8   4   8   8   4   8   8
#     4   9  18  33  53  76 101 132 170 212 258 306
#     4  10  21  35  49  70 104 140 170 205 255 312
#     4   8  15  28  46  71 101 130 163 209 262 303
#     4  10  20  31  48  77 106 130 158 194 240 295
#     4  10  20  31  49  74  99 132 175 219 254 294
#     4   8  14  26  46  71  98 127 158 197 244 290
#     4  10  21  37  56  74  94 126 165 202 241 287
#
# _framework density 19.103686
#
# number of rings (size 3 to 8) (size 9 to 14) (size 15 to 20)
#    0.000    2.833    0.000    2.250    1.167    3.667 
#    0.000    0.000    0.000    1.000    0.000    2.333 
#    0.000    0.000    0.000    0.000    0.000    0.000 
#
# Total GULP energy -594830.304671 kJ/mol
# GULP energy per Si atom -12392.298014 kJ/mol
# Density = 1.906020 g / cm^3
# Si number density = 19.103686 Si / 1000 Ang^3
#
#
#
# Elastic Constant Matrix: (Units=GPa)
#
#
# Indices 1 2 3 4 5 6 
#
# 1 58.1508 28.3218 52.8108 0.0000 0.0000 0.0000
# 2 28.3218 92.0614 71.6057 0.0000 0.0000 0.0000
# 3 52.8108 71.6057 166.9940 0.0000 0.0000 0.0000
# 4 0.0000 0.0000 0.0000 12.4032 0.0000 0.0000
# 5 0.0000 0.0000 0.0000 0.0000 24.6749 0.0000
# 6 0.0000 0.0000 0.0000 0.0000 0.0000 11.0741
#
#
#
# Elastic Compliance Matrix: (Units=1/GPa)
#
#
# Indices 1 2 3 4 5 6 
#
# 1 0.024435 -0.002261 -0.006758 0.000000 0.000000 0.000000
# 2 -0.002261 0.016507 -0.006363 0.000000 0.000000 0.000000
# 3 -0.006758 -0.006363 0.010854 0.000000 0.000000 0.000000
# 4 0.000000 0.000000 0.000000 0.080624 0.000000 0.000000
# 5 0.000000 0.000000 0.000000 0.000000 0.040527 0.000000
# 6 0.000000 0.000000 0.000000 0.000000 0.000000 0.090301
#
#
# Mechanical properties :
#
#
# Convention : Reuss Voigt Hill
#
# Bulk Modulus (GPa) = 47.54613 69.18696 58.36655
# Shear Modulus (GPa) = 16.61000 20.59496 18.60248
#
# Velocity S-wave (km/s) = 2.95187 3.28695 3.12390
# Velocity P-wave (km/s) = 6.04653 7.12043 6.60534
#
# Compressibility (1/GPa) = 0.02103220
#
# Stress axis : x y z
#
# Youngs Moduli (GPa) = 40.92446 60.57993 92.13269
#
# Poissons Ratio (x) = 0.13696 0.62264
# Poissons Ratio (y) = 0.09252 0.58625
# Poissons Ratio (z) = 0.27657 0.38548
#
# Static dielectric constant tensor:
#      x y z
#    x 3.170820 0.000000 0.000000 
#    y 0.000000 3.592360 0.000000 
#    z 0.000000 0.000000 3.529730 
# 
# 
# High freq. dielectric constant tensor:
#      x y z
#    x 1.692370 0.000000 0.000000 
#    y 0.000000 1.745690 0.000000 
#    z 0.000000 0.000000 1.747040 
# 
# From -- ./inp_files/37220.got.cif
#   From: 2010.03.12/outbox.cif.g09.slc.cpg/sg51_19_cif.got.tgz:37220.got - 2010.04.16 13:43:02.
