data_PCOD8210937
_publ_section_title
;
Structure prediction by ZEFSAII (Michael W. Deem and Ramdas Pophale) SiO2 
 PCOD8210937
Probable space group: P M M A
;
_chemical_formula_sum "Si O2"
_cell_formula_units_Z 48
_cell_length_a 9.370425
_cell_length_b 9.161084
_cell_length_c 31.048650
_cell_angle_alpha 90.000000
_cell_angle_beta 90.000000
_cell_angle_gamma 90.000000
_cell_volume 2665.317041
_symmetry_space_group_name_H-M "P M M A"
_symmetry_group_IT_number 51
_symmetry_cell_setting 'orthorhombic'
loop_
_space_group_symop_operation_xyz
x,y,z
1/2-x,-y,z
1/2+x,-y,-z
-x,y,-z
-x,-y,-z
1/2+x,y,-z
1/2-x,y,z
x,-y,z
loop_
_atom_site_type_symbol
_atom_site_label
_atom_site_fract_x
_atom_site_fract_y
_atom_site_fract_z
Si Si1 0.088439 0.326239 0.959492
Si Si2 0.580058 0.837377 0.367001
Si Si3 0.914877 0.829292 0.789852
Si Si4 0.591757 0.173921 0.460972
Si Si5 0.085286 0.669351 0.123177
Si Si6 0.419042 0.333018 0.715805
O O1 0.250000 0.265157 0.960727
O O2 0.089378 0.500000 0.961428
O O3 0.011386 0.273302 0.916001
O O4 0.000000 0.263298 0.000000
O O5 0.750000 0.842741 0.368911
O O6 0.525744 0.783143 0.414117
O O7 0.526154 0.727659 0.330151
O O8 0.521288 0.000000 0.356668
O O9 0.750000 0.794990 0.779894
O O10 0.960339 0.760720 0.835261
O O11 0.010423 0.759571 0.753189
O O12 0.946066 0.000000 0.791739
O O13 0.500000 0.241112 0.500000
O O14 0.750000 0.239395 0.465905
O O15 0.596912 0.000000 0.463887
O O16 0.250000 0.695553 0.110677
O O17 0.056312 0.500000 0.133215
O O18 0.250000 0.316035 0.719962
O O19 0.467867 0.500000 0.719621
#
# Coordination Sequence:
#
# PCOD8210937 Si02
#       6
#     8   8   8   8   8   8
#     4   9  16  26  43  69  99 128 159 196 236 278
#     4   8  14  26  44  65  91 123 156 192 237 285
#     4  10  21  36  53  73  98 129 163 199 244 296
#     4   8  13  22  38  60  85 114 149 189 232 276
#     4   9  17  30  48  69  95 127 160 195 237 283
#     4  10  20  33  51  74  97 124 161 202 243 289
#
# _framework density 18.009114
#
# number of rings (size 3 to 8) (size 9 to 14) (size 15 to 20)
#    0.000    3.000    0.000    2.500    0.000    4.667 
#    0.000    2.500    0.000    4.000    0.000    0.000 
#    0.000    0.000    0.000    0.000    0.000    0.000 
#
# Total GULP energy -595051.111072 kJ/mol
# GULP energy per Si atom -12396.898147 kJ/mol
# Density = 1.796812 g / cm^3
# Si number density = 18.009114 Si / 1000 Ang^3
#
#
#
# Elastic Constant Matrix: (Units=GPa)
#
#
# Indices 1 2 3 4 5 6 
#
# 1 69.3488 26.4476 67.7722 0.0000 0.0000 0.0000
# 2 26.4476 60.0498 57.2978 0.0000 0.0000 0.0000
# 3 67.7722 57.2978 177.7562 0.0000 0.0000 0.0000
# 4 0.0000 0.0000 0.0000 25.8361 0.0000 0.0000
# 5 0.0000 0.0000 0.0000 0.0000 34.7481 0.0000
# 6 0.0000 0.0000 0.0000 0.0000 0.0000 15.7946
#
#
#
# Elastic Compliance Matrix: (Units=1/GPa)
#
#
# Indices 1 2 3 4 5 6 
#
# 1 0.023256 -0.002574 -0.008037 0.000000 0.000000 0.000000
# 2 -0.002574 0.024335 -0.006863 0.000000 0.000000 0.000000
# 3 -0.008037 -0.006863 0.010902 0.000000 0.000000 0.000000
# 4 0.000000 0.000000 0.000000 0.038706 0.000000 0.000000
# 5 0.000000 0.000000 0.000000 0.000000 0.028779 0.000000
# 6 0.000000 0.000000 0.000000 0.000000 0.000000 0.063313
#
#
# Mechanical properties :
#
#
# Convention : Reuss Voigt Hill
#
# Bulk Modulus (GPa) = 42.47119 67.79889 55.13504
# Shear Modulus (GPa) = 21.54386 25.65156 23.59771
#
# Velocity S-wave (km/s) = 3.46247 3.77817 3.62376
# Velocity P-wave (km/s) = 6.29439 7.53402 6.94193
#
# Compressibility (1/GPa) = 0.02354537
#
# Stress axis : x y z
#
# Youngs Moduli (GPa) = 43.00031 41.09366 91.72635
#
# Poissons Ratio (x) = 0.10577 0.73720
# Poissons Ratio (y) = 0.11068 0.62949
# Poissons Ratio (z) = 0.34559 0.28201
#
# Static dielectric constant tensor:
#      x y z
#    x 3.266820 0.000000 0.000000 
#    y 0.000000 3.049710 0.000000 
#    z 0.000000 0.000000 3.661740 
# 
# 
# High freq. dielectric constant tensor:
#      x y z
#    x 1.676410 0.000000 0.000000 
#    y 0.000000 1.659520 0.000000 
#    z 0.000000 0.000000 1.715830 
# 
# From -- ./inp_files/36996.got.cif
#   From: 2010.03.12/outbox.cif.g09.slc.cpg/sg51_19_cif.got.tgz:36996.got - 2010.04.16 13:43:02.
