data_PCOD8210469
_publ_section_title
;
Structure prediction by ZEFSAII (Michael W. Deem and Ramdas Pophale) SiO2 
 PCOD8210469
Probable space group: P M M A
;
_chemical_formula_sum "Si O2"
_cell_formula_units_Z 40
_cell_length_a 8.923223
_cell_length_b 18.364540
_cell_length_c 13.789744
_cell_angle_alpha 90.000000
_cell_angle_beta 90.000000
_cell_angle_gamma 90.000000
_cell_volume 2259.737563
_symmetry_space_group_name_H-M "P M M A"
_symmetry_group_IT_number 51
_symmetry_cell_setting 'orthorhombic'
loop_
_space_group_symop_operation_xyz
x,y,z
1/2-x,-y,z
1/2+x,-y,-z
-x,y,-z
-x,-y,-z
1/2+x,y,-z
1/2-x,y,z
x,-y,z
loop_
_atom_site_type_symbol
_atom_site_label
_atom_site_fract_x
_atom_site_fract_y
_atom_site_fract_z
Si Si1 0.926755 0.782188 0.103627
Si Si2 0.576590 0.585035 0.399441
Si Si3 0.575737 0.841814 0.602813
Si Si4 0.073897 0.298676 0.274334
Si Si5 0.577067 0.081789 0.228375
O O1 0.750000 0.770986 0.095924
O O2 0.969718 0.862428 0.143507
O O3 0.994776 0.720728 0.173402
O O4 0.000000 0.772219 0.000000
O O5 0.500000 0.607931 0.500000
O O6 0.750000 0.607751 0.404971
O O7 0.556292 0.500000 0.378893
O O8 0.495260 0.625973 0.311657
O O9 0.500000 0.850793 0.500000
O O10 0.750000 0.853389 0.588741
O O11 0.537055 0.762872 0.646294
O O12 0.517018 0.904070 0.674754
O O13 0.250000 0.307382 0.256475
O O14 0.750000 0.093063 0.255742
O O15 0.544397 0.000000 0.191208
#
# Coordination Sequence:
#
# PCOD8210469 Si02
#       5
#     8   8   8   8   8
#     4  10  20  35  55  77 101 129 165 209 256 305
#     4  10  20  33  51  78 111 144 175 206 244 292
#     4  10  20  32  48  71  98 131 169 207 248 296
#     4  10  20  34  53  76 102 133 171 212 253 298
#     4   9  19  35  52  71  97 129 165 206 252 301
#
# _framework density 17.701170999999999
#
# number of rings (size 3 to 8) (size 9 to 14) (size 15 to 20)
#    0.000    2.200    0.000    3.000    0.000    7.200 
#    0.000    0.000    0.000    0.600    0.000    0.000 
#    0.000    0.000    0.000    0.000    0.000    0.000 
#
# Total GULP energy -496161.760330 kJ/mol
# GULP energy per Si atom -12404.044008 kJ/mol
# Density = 1.766088 g / cm^3
# Si number density = 17.701171 Si / 1000 Ang^3
#
#
#
# Elastic Constant Matrix: (Units=GPa)
#
#
# Indices 1 2 3 4 5 6 
#
# 1 99.4800 45.8999 66.7791 0.0000 0.0000 0.0000
# 2 45.8999 79.9520 57.0639 0.0000 0.0000 0.0000
# 3 66.7791 57.0639 146.7625 0.0000 0.0000 0.0000
# 4 0.0000 0.0000 0.0000 52.3232 0.0000 0.0000
# 5 0.0000 0.0000 0.0000 0.0000 32.9982 0.0000
# 6 0.0000 0.0000 0.0000 0.0000 0.0000 26.4947
#
#
#
# Elastic Compliance Matrix: (Units=1/GPa)
#
#
# Indices 1 2 3 4 5 6 
#
# 1 0.016073 -0.005547 -0.005157 0.000000 0.000000 0.000000
# 2 -0.005547 0.019226 -0.004951 0.000000 0.000000 0.000000
# 3 -0.005157 -0.004951 0.011085 0.000000 0.000000 0.000000
# 4 0.000000 0.000000 0.000000 0.019112 0.000000 0.000000
# 5 0.000000 0.000000 0.000000 0.000000 0.030305 0.000000
# 6 0.000000 0.000000 0.000000 0.000000 0.000000 0.037743
#
#
# Mechanical properties :
#
#
# Convention : Reuss Voigt Hill
#
# Bulk Modulus (GPa) = 66.33885 73.96448 70.15166
# Shear Modulus (GPa) = 29.43252 32.79332 31.11292
#
# Velocity S-wave (km/s) = 4.08210 4.30886 4.19701
# Velocity P-wave (km/s) = 7.73153 8.16277 7.95007
#
# Compressibility (1/GPa) = 0.01507412
#
# Stress axis : x y z
#
# Youngs Moduli (GPa) = 62.21473 52.01294 90.20906
#
# Poissons Ratio (x) = 0.28852 0.46519
# Poissons Ratio (y) = 0.34511 0.44666
# Poissons Ratio (z) = 0.32083 0.25754
#
# Static dielectric constant tensor:
#      x y z
#    x 3.442010 0.000000 0.000000 
#    y 0.000000 3.263430 0.000000 
#    z 0.000000 0.000000 3.161670 
# 
# 
# High freq. dielectric constant tensor:
#      x y z
#    x 1.701120 0.000000 0.000000 
#    y 0.000000 1.676020 0.000000 
#    z 0.000000 0.000000 1.675210 
# 
# From -- ./inp_files/13997.got.cif
#   From: 2010.03.12/outbox.cif.g09.slc.cpg/sg51_7_cif.got.tgz:13997.got - 2010.04.16 13:43:02.
