data_PCOD8210069
_publ_section_title
;
Structure prediction by ZEFSAII (Michael W. Deem and Ramdas Pophale) SiO2 
 PCOD8210069
Probable space group: P M M A
;
_chemical_formula_sum "Si O2"
_cell_formula_units_Z 40
_cell_length_a 25.742888
_cell_length_b 8.353396
_cell_length_c 9.140730
_cell_angle_alpha 90.000000
_cell_angle_beta 90.000000
_cell_angle_gamma 90.000000
_cell_volume 1965.627494
_symmetry_space_group_name_H-M "P M M A"
_symmetry_group_IT_number 51
_symmetry_cell_setting 'orthorhombic'
loop_
_space_group_symop_operation_xyz
x,y,z
1/2-x,-y,z
1/2+x,-y,-z
-x,y,-z
-x,-y,-z
1/2+x,y,-z
1/2-x,y,z
x,-y,z
loop_
_atom_site_type_symbol
_atom_site_label
_atom_site_fract_x
_atom_site_fract_y
_atom_site_fract_z
Si Si1 0.947803 0.686387 0.332283
Si Si2 0.750000 0.187377 0.668825
Si Si3 0.750000 0.690881 0.344999
Si Si4 0.149625 0.688475 0.169709
Si Si5 0.057367 0.184234 0.354233
Si Si6 0.348362 0.689816 0.839046
O O1 0.957153 0.500000 0.303142
O O2 0.932335 0.710346 0.501631
O O3 0.901742 0.755127 0.230983
O O4 0.000192 0.780100 0.290293
O O5 0.750000 0.217230 0.497029
O O6 0.699670 0.269241 0.736516
O O7 0.750000 0.000000 0.703048
O O8 0.750000 0.500000 0.370181
O O9 0.700025 0.751583 0.255485
O O10 0.139998 0.500000 0.174293
O O11 0.099248 0.775788 0.231928
O O12 0.157449 0.751653 0.004658
O O13 0.061282 0.000000 0.399623
O O14 0.348375 0.500000 0.835560
#
# Coordination Sequence:
#
# PCOD8210069 Si02
#       6
#     8   4   4   8   8   8
#     4  10  19  36  60  86 113 152 199 242 284 338
#     4  12  25  40  58  88 120 150 187 232 282 342
#     4  10  19  38  64  88 112 148 191 236 286 340
#     4  11  22  40  62  85 113 151 191 235 284 339
#     4  11  22  37  56  85 119 153 191 238 287 340
#     4   9  20  36  60  88 113 143 193 245 284 330
#
# _framework density 20.349736
#
# number of rings (size 3 to 8) (size 9 to 14) (size 15 to 20)
#    0.000    1.600    0.000    6.900    0.000    4.000 
#    0.000   12.000    0.000    0.000    0.000    0.000 
#    0.000    0.000    0.000    0.000    0.000    0.000 
#
# Total GULP energy -496176.227588 kJ/mol
# GULP energy per Si atom -12404.405690 kJ/mol
# Density = 2.030342 g / cm^3
# Si number density = 20.349736 Si / 1000 Ang^3
#
#
#
# Elastic Constant Matrix: (Units=GPa)
#
#
# Indices 1 2 3 4 5 6 
#
# 1 159.5616 16.8706 85.3418 0.0000 0.0000 0.0000
# 2 16.8706 52.9182 2.4409 0.0000 0.0000 0.0000
# 3 85.3418 2.4409 129.5151 0.0000 0.0000 0.0000
# 4 0.0000 0.0000 0.0000 1.4258 0.0000 0.0000
# 5 0.0000 0.0000 0.0000 0.0000 30.3713 0.0000
# 6 0.0000 0.0000 0.0000 0.0000 0.0000 -0.0628
#
#
#
# Elastic Compliance Matrix: (Units=1/GPa)
#
#
# Indices 1 2 3 4 5 6 
#
# 1 0.010109 -0.002918 -0.006606 0.000000 0.000000 0.000000
# 2 -0.002918 0.019756 0.001551 0.000000 0.000000 0.000000
# 3 -0.006606 0.001551 0.012045 0.000000 0.000000 0.000000
# 4 0.000000 0.000000 0.000000 0.701351 0.000000 0.000000
# 5 0.000000 0.000000 0.000000 0.000000 0.032926 0.000000
# 6 0.000000 0.000000 0.000000 0.000000 0.000000-15.935661
#
#
# Mechanical properties :
#
#
# Convention : Reuss Voigt Hill
#
# Bulk Modulus (GPa) = 38.51742 61.25571 49.88657
# Shear Modulus (GPa) = -0.33036 22.16965 10.91965
#
# Velocity S-wave (km/s) = -0.40335 3.30424 2.31897
# Velocity P-wave (km/s) = 4.33035 6.68761 5.63365
#
# Compressibility (1/GPa) = 0.02596228
#
# Stress axis : x y z
#
# Youngs Moduli (GPa) = 98.92141 50.61786 83.02254
#
# Poissons Ratio (x) = 0.14771 0.54846
# Poissons Ratio (y) = 0.28866 -0.12873
# Poissons Ratio (z) = 0.65349 -0.07848
#
# Static dielectric constant tensor:
#      x y z
#    x 3.909380 0.000000 0.000000 
#    y 0.000000 3.481070 0.000000 
#    z 0.000000 0.000000 3.775570 
# 
# 
# High freq. dielectric constant tensor:
#      x y z
#    x 1.813080 0.000000 0.000000 
#    y 0.000000 1.780830 0.000000 
#    z 0.000000 0.000000 1.796360 
# 
# From -- ./inp_files/12174.got.cif
#   From: 2010.03.12/outbox.cif.g09.slc.cpg/sg51_7_cif.got.tgz:12174.got - 2010.04.16 13:43:02.
