data_PCOD8210133
_publ_section_title
;
Structure prediction by ZEFSAII (Michael W. Deem and Ramdas Pophale) SiO2 
 PCOD8210133
Probable space group: P M M A
;
_chemical_formula_sum "Si O2"
_cell_formula_units_Z 52
_cell_length_a 9.053681
_cell_length_b 15.658172
_cell_length_c 20.500728
_cell_angle_alpha 90.000000
_cell_angle_beta 90.000000
_cell_angle_gamma 90.000000
_cell_volume 2906.267138
_symmetry_space_group_name_H-M "P M M A"
_symmetry_group_IT_number 51
_symmetry_cell_setting 'orthorhombic'
loop_
_space_group_symop_operation_xyz
x,y,z
1/2-x,-y,z
1/2+x,-y,-z
-x,y,-z
-x,-y,-z
1/2+x,y,-z
1/2-x,y,z
x,-y,z
loop_
_atom_site_type_symbol
_atom_site_label
_atom_site_fract_x
_atom_site_fract_y
_atom_site_fract_z
Si Si1 0.422782 0.097628 0.068746
Si Si2 0.583747 0.899340 0.563053
Si Si3 0.423902 0.592624 0.804299
Si Si4 0.573795 0.782371 0.173703
Si Si5 0.918042 0.182351 0.693625
Si Si6 0.580261 0.500000 0.566683
Si Si7 0.084531 0.375932 0.324794
O O1 0.250000 0.118958 0.062482
O O2 0.498206 0.162514 0.118126
O O3 0.446712 0.000000 0.092480
O O4 0.500000 0.112480 0.000000
O O5 0.500000 0.859862 0.500000
O O6 0.750000 0.863409 0.560493
O O7 0.516355 0.874606 0.634156
O O8 0.579377 0.000000 0.557599
O O9 0.250000 0.596685 0.805237
O O10 0.474201 0.500000 0.836755
O O11 0.479979 0.682560 0.836304
O O12 0.475245 0.590813 0.730239
O O13 0.750000 0.790457 0.169465
O O14 0.520828 0.822040 0.242529
O O15 0.750000 0.154576 0.712765
O O16 0.921118 0.276092 0.664453
O O17 0.750000 0.500000 0.549539
O O18 0.500000 0.500000 0.500000
O O19 0.534068 0.583545 0.607312
O O20 0.250000 0.406157 0.305657
#
# Coordination Sequence:
#
# PCOD8210133 Si02
#       7
#     8   8   8   8   8   4   8
#     4  10  21  38  60  84 112 147 181 213 255 308
#     4   9  18  32  48  65  87 119 160 204 252 308
#     4   9  17  30  50  74 101 134 170 209 255 303
#     4  10  20  33  52  82 113 139 174 219 262 308
#     4   9  18  32  49  69  96 129 165 209 260 310
#     4  10  20  30  40  58  84 116 155 202 255 310
#     4   9  17  30  45  62  86 118 158 203 250 301
#
# _framework density 17.892368000000001
#
# number of rings (size 3 to 8) (size 9 to 14) (size 15 to 20)
#    0.000    2.615    0.769    0.923    0.000    4.000 
#    0.000    1.538    0.000    0.462    0.000    0.000 
#    0.000    0.000    0.000    0.000    0.000    0.000 
#
# Total GULP energy -644234.758382 kJ/mol
# GULP energy per Si atom -12389.129969 kJ/mol
# Density = 1.785164 g / cm^3
# Si number density = 17.892368 Si / 1000 Ang^3
#
#
#
# Elastic Constant Matrix: (Units=GPa)
#
#
# Indices 1 2 3 4 5 6 
#
# 1 56.7571 43.1058 49.6898 0.0000 0.0000 0.0000
# 2 43.1058 83.7618 65.4773 0.0000 0.0000 0.0000
# 3 49.6898 65.4773 110.8006 0.0000 0.0000 0.0000
# 4 0.0000 0.0000 0.0000 -1.8336 0.0000 0.0000
# 5 0.0000 0.0000 0.0000 0.0000 34.0230 0.0000
# 6 0.0000 0.0000 0.0000 0.0000 0.0000 22.2429
#
#
#
# Elastic Compliance Matrix: (Units=1/GPa)
#
#
# Indices 1 2 3 4 5 6 
#
# 1 0.033022 -0.010069 -0.008859 0.000000 0.000000 0.000000
# 2 -0.010069 0.025259 -0.010411 0.000000 0.000000 0.000000
# 3 -0.008859 -0.010411 0.019150 0.000000 0.000000 0.000000
# 4 0.000000 0.000000 0.000000 -0.545382 0.000000 0.000000
# 5 0.000000 0.000000 0.000000 0.000000 0.029392 0.000000
# 6 0.000000 0.000000 0.000000 0.000000 0.000000 0.044958
#
#
# Mechanical properties :
#
#
# Convention : Reuss Voigt Hill
#
# Bulk Modulus (GPa) = 53.32345 63.09613 58.20979
# Shear Modulus (GPa) = -15.21267 17.08957 0.93845
#
# Velocity S-wave (km/s) = -2.91904 3.09387 0.72501
# Velocity P-wave (km/s) = 4.30186 6.93567 5.77103
#
# Compressibility (1/GPa) = 0.01875348
#
# Stress axis : x y z
#
# Youngs Moduli (GPa) = 30.28321 39.59046 52.21799
#
# Poissons Ratio (x) = 0.39862 0.46259
# Poissons Ratio (y) = 0.30491 0.54365
# Poissons Ratio (z) = 0.26828 0.41218
#
# Static dielectric constant tensor:
#      x y z
#    x 3.370340 0.000000 0.000000 
#    y 0.000000 3.239310 0.000000 
#    z 0.000000 0.000000 3.151180 
# 
# 
# High freq. dielectric constant tensor:
#      x y z
#    x 1.688240 0.000000 0.000000 
#    y 0.000000 1.702430 0.000000 
#    z 0.000000 0.000000 1.671120 
# 
# From -- ./inp_files/27928.got.cif
#   From: 2010.03.12/outbox.cif.g09.slc.cpg/sg51_14_cif.got.tgz:27928.got - 2010.04.16 13:43:02.
