data_PCOD8210046
_publ_section_title
;
Structure prediction by ZEFSAII (Michael W. Deem and Ramdas Pophale) SiO2 
 PCOD8210046
Probable space group: P M M A
;
_chemical_formula_sum "Si O2"
_cell_formula_units_Z 48
_cell_length_a 9.517703
_cell_length_b 9.244386
_cell_length_c 29.656510
_cell_angle_alpha 90.000000
_cell_angle_beta 90.000000
_cell_angle_gamma 90.000000
_cell_volume 2609.337533
_symmetry_space_group_name_H-M "P M M A"
_symmetry_group_IT_number 51
_symmetry_cell_setting 'orthorhombic'
loop_
_space_group_symop_operation_xyz
x,y,z
1/2-x,-y,z
1/2+x,-y,-z
-x,y,-z
-x,-y,-z
1/2+x,y,-z
1/2-x,y,z
x,-y,z
loop_
_atom_site_type_symbol
_atom_site_label
_atom_site_fract_x
_atom_site_fract_y
_atom_site_fract_z
Si Si1 0.018001 0.335008 0.399018
Si Si2 0.910936 0.828080 0.957635
Si Si3 0.750000 0.339704 0.458418
Si Si4 0.414373 0.330121 0.204271
Si Si5 0.750000 0.170252 0.549173
Si Si6 0.913184 0.828918 0.128917
Si Si7 0.595378 0.669844 0.696629
O O1 0.076614 0.500000 0.401512
O O2 0.116502 0.224298 0.424206
O O3 0.997689 0.289688 0.346265
O O4 0.875443 0.317903 0.424662
O O5 0.750000 0.767340 0.957668
O O6 0.995439 0.775363 0.913678
O O7 0.904888 0.000000 0.959711
O O8 0.000000 0.767790 0.000000
O O9 0.750000 0.500000 0.480493
O O10 0.750000 0.224888 0.497968
O O11 0.250000 0.294625 0.194673
O O12 0.442112 0.500000 0.197974
O O13 0.518835 0.244319 0.172251
O O14 0.456634 0.273194 0.254688
O O15 0.750000 0.000000 0.547013
O O16 0.750000 0.782114 0.123155
O O17 0.924303 0.000000 0.134559
O O18 0.750000 0.732731 0.685451
O O19 0.606737 0.500000 0.703026
#
# Coordination Sequence:
#
# PCOD8210046 Si02
#       7
#     8   8   4   8   4   8   8
#     4  10  19  36  59  80 103 132 171 219 261 303
#     4   9  16  27  46  72 101 135 178 226 271 310
#     4  10  22  36  54  82 106 132 172 216 263 308
#     4   9  18  33  54  79 103 131 170 215 264 316
#     4  12  24  36  54  78 106 142 178 206 251 314
#     4  10  20  33  49  73 107 143 178 215 259 312
#     4   8  14  29  55  80  99 125 165 214 261 302
#
# _framework density 18.395475000000001
#
# number of rings (size 3 to 8) (size 9 to 14) (size 15 to 20)
#    0.000    2.500    0.833    3.250    0.000    6.000 
#    1.500    0.833    0.000    0.500    0.000    0.000 
#    0.000    0.000    0.000    0.000    0.000    0.000 
#
# Total GULP energy -594798.914519 kJ/mol
# GULP energy per Si atom -12391.644052 kJ/mol
# Density = 1.835361 g / cm^3
# Si number density = 18.395475 Si / 1000 Ang^3
#
#
#
# Elastic Constant Matrix: (Units=GPa)
#
#
# Indices 1 2 3 4 5 6 
#
# 1 128.9366 43.5652 80.1105 0.0000 0.0000 0.0000
# 2 43.5652 54.4019 47.0697 0.0000 0.0000 0.0000
# 3 80.1105 47.0697 176.8956 0.0000 0.0000 0.0000
# 4 0.0000 0.0000 0.0000 39.5019 0.0000 0.0000
# 5 0.0000 0.0000 0.0000 0.0000 89.8676 0.0000
# 6 0.0000 0.0000 0.0000 0.0000 0.0000 11.8793
#
#
#
# Elastic Compliance Matrix: (Units=1/GPa)
#
#
# Indices 1 2 3 4 5 6 
#
# 1 0.012371 -0.006572 -0.003853 0.000000 0.000000 0.000000
# 2 -0.006572 0.027371 -0.004307 0.000000 0.000000 0.000000
# 3 -0.003853 -0.004307 0.008544 0.000000 0.000000 0.000000
# 4 0.000000 0.000000 0.000000 0.025315 0.000000 0.000000
# 5 0.000000 0.000000 0.000000 0.000000 0.011127 0.000000
# 6 0.000000 0.000000 0.000000 0.000000 0.000000 0.084180
#
#
# Mechanical properties :
#
#
# Convention : Reuss Voigt Hill
#
# Bulk Modulus (GPa) = 53.13256 77.96943 65.55100
# Shear Modulus (GPa) = 24.43232 40.88233 32.65733
#
# Velocity S-wave (km/s) = 3.64836 4.71936 4.21799
# Velocity P-wave (km/s) = 6.83327 8.49551 7.70932
#
# Compressibility (1/GPa) = 0.01882085
#
# Stress axis : x y z
#
# Youngs Moduli (GPa) = 80.83653 36.53489 117.03958
#
# Poissons Ratio (x) = 0.24012 0.45101
# Poissons Ratio (y) = 0.53129 0.50405
# Poissons Ratio (z) = 0.31150 0.15734
#
# Static dielectric constant tensor:
#      x y z
#    x 3.392690 0.000000 0.000000 
#    y 0.000000 2.987110 0.000000 
#    z 0.000000 0.000000 3.718510 
# 
# 
# High freq. dielectric constant tensor:
#      x y z
#    x 1.711030 0.000000 0.000000 
#    y 0.000000 1.665120 0.000000 
#    z 0.000000 0.000000 1.735820 
# 
# From -- ./inp_files/37119.got.cif
#   From: 2010.03.12/outbox.cif.g09.slc.cpg/sg51_19_cif.got.tgz:37119.got - 2010.04.16 13:43:02.
