data_PCOD8210719
_publ_section_title
;
Structure prediction by ZEFSAII (Michael W. Deem and Ramdas Pophale) SiO2 
 PCOD8210719
Probable space group: P M M A
;
_chemical_formula_sum "Si O2"
_cell_formula_units_Z 64
_cell_length_a 9.162798
_cell_length_b 14.403524
_cell_length_c 25.907425
_cell_angle_alpha 90.000000
_cell_angle_beta 90.000000
_cell_angle_gamma 90.000000
_cell_volume 3419.173371
_symmetry_space_group_name_H-M "P M M A"
_symmetry_group_IT_number 51
_symmetry_cell_setting 'orthorhombic'
loop_
_space_group_symop_operation_xyz
x,y,z
1/2-x,-y,z
1/2+x,-y,-z
-x,y,-z
-x,-y,-z
1/2+x,y,-z
1/2-x,y,z
x,-y,z
loop_
_atom_site_type_symbol
_atom_site_label
_atom_site_fract_x
_atom_site_fract_y
_atom_site_fract_z
Si Si1 0.418281 0.103743 0.691753
Si Si2 0.917523 0.610331 0.735709
Si Si3 0.577965 0.712777 0.949262
Si Si4 0.909966 0.890372 0.790187
Si Si5 0.920289 0.393050 0.553064
Si Si6 0.920183 0.708035 0.355756
Si Si7 0.923160 0.898557 0.902405
Si Si8 0.422590 0.397377 0.149564
O O1 0.250000 0.096612 0.705591
O O2 0.493206 0.145197 0.742988
O O3 0.445335 0.180117 0.647123
O O4 0.475862 0.000000 0.675516
O O5 0.750000 0.636352 0.722315
O O6 0.937489 0.500000 0.732318
O O7 0.960205 0.644667 0.793829
O O8 0.026518 0.659137 0.696361
O O9 0.750000 0.697898 0.955345
O O10 0.534470 0.821680 0.944567
O O11 0.516270 0.663629 0.897745
O O12 0.500000 0.671884 0.000000
O O13 0.750000 0.843373 0.784866
O O14 0.981887 0.866542 0.845868
O O15 0.894788 0.000000 0.786306
O O16 0.750000 0.371056 0.546708
O O17 0.946049 0.500000 0.568939
O O18 0.000000 0.369252 0.500000
O O19 0.986995 0.327746 0.596448
O O20 0.750000 0.684363 0.363778
O O21 0.750000 0.905287 0.896205
O O22 0.986261 0.000000 0.918756
O O23 0.250000 0.403953 0.145006
O O24 0.491081 0.500000 0.144153
#
# Coordination Sequence:
#
# PCOD8210719 Si02
#       8
#     8   8   8   8   8   8   8   8
#     4   9  19  34  48  68 105 147 180 213 258 306
#     4   9  18  33  53  77 104 134 169 209 256 315
#     4  10  20  33  49  68  90 120 157 201 249 299
#     4   8  14  26  46  70  91 117 161 210 250 295
#     4  10  21  38  60  85 114 148 184 223 265 309
#     4  11  22  33  51  81 113 147 181 217 261 308
#     4   8  15  28  46  68  92 118 152 196 246 299
#     4   8  16  32  52  71  92 122 160 200 246 302
#
# _framework density 18.717974999999999
#
# number of rings (size 3 to 8) (size 9 to 14) (size 15 to 20)
#    0.000    2.875    0.000    2.625    1.750    4.000 
#    0.000    1.250    0.000    1.875    0.000    0.000 
#    0.000    0.000    0.000    0.000    0.000    0.000 
#
# Total GULP energy -793132.347123 kJ/mol
# GULP energy per Si atom -12392.692924 kJ/mol
# Density = 1.867537 g / cm^3
# Si number density = 18.717975 Si / 1000 Ang^3
#
#
#
# Elastic Constant Matrix: (Units=GPa)
#
#
# Indices 1 2 3 4 5 6 
#
# 1 61.4878 30.8031 47.4262 0.0000 0.0000 0.0000
# 2 30.8031 60.8773 50.7010 0.0000 0.0000 0.0000
# 3 47.4262 50.7010 123.0142 0.0000 0.0000 0.0000
# 4 0.0000 0.0000 0.0000 27.5825 0.0000 0.0000
# 5 0.0000 0.0000 0.0000 0.0000 28.3686 0.0000
# 6 0.0000 0.0000 0.0000 0.0000 0.0000 18.0697
#
#
#
# Elastic Compliance Matrix: (Units=1/GPa)
#
#
# Indices 1 2 3 4 5 6 
#
# 1 0.024979 -0.007032 -0.006732 0.000000 0.000000 0.000000
# 2 -0.007032 0.026992 -0.008414 0.000000 0.000000 0.000000
# 3 -0.006732 -0.008414 0.014192 0.000000 0.000000 0.000000
# 4 0.000000 0.000000 0.000000 0.036255 0.000000 0.000000
# 5 0.000000 0.000000 0.000000 0.000000 0.035250 0.000000
# 6 0.000000 0.000000 0.000000 0.000000 0.000000 0.055341
#
#
# Mechanical properties :
#
#
# Convention : Reuss Voigt Hill
#
# Bulk Modulus (GPa) = 45.85632 55.91554 50.88593
# Shear Modulus (GPa) = 20.43870 22.56741 21.50305
#
# Velocity S-wave (km/s) = 3.30802 3.47602 3.39306
# Velocity P-wave (km/s) = 6.25639 6.78585 6.52649
#
# Compressibility (1/GPa) = 0.02180725
#
# Stress axis : x y z
#
# Youngs Moduli (GPa) = 40.03433 37.04792 70.46148
#
# Poissons Ratio (x) = 0.26054 0.47432
# Poissons Ratio (y) = 0.28154 0.59284
# Poissons Ratio (z) = 0.26950 0.31171
#
# Static dielectric constant tensor:
#      x y z
#    x 3.203980 0.000000 0.000000 
#    y 0.000000 3.677880 0.000000 
#    z 0.000000 0.000000 3.434860 
# 
# 
# High freq. dielectric constant tensor:
#      x y z
#    x 1.693770 0.000000 0.000000 
#    y 0.000000 1.729740 0.000000 
#    z 0.000000 0.000000 1.716660 
# 
# From -- ./inp_files/34833.got.cif
#   From: 2010.03.12/outbox.cif.g09.slc.cpg/sg51_18_cif.got.tgz:34833.got - 2010.04.16 13:43:02.
