data_PCOD8210420
_publ_section_title
;
Structure prediction by ZEFSAII (Michael W. Deem and Ramdas Pophale) SiO2 
 PCOD8210420
Probable space group: P M M A
;
_chemical_formula_sum "Si O2"
_cell_formula_units_Z 56
_cell_length_a 19.250913
_cell_length_b 9.279664
_cell_length_c 17.975020
_cell_angle_alpha 90.000000
_cell_angle_beta 90.000000
_cell_angle_gamma 90.000000
_cell_volume 3211.093601
_symmetry_space_group_name_H-M "P M M A"
_symmetry_group_IT_number 51
_symmetry_cell_setting 'orthorhombic'
loop_
_space_group_symop_operation_xyz
x,y,z
1/2-x,-y,z
1/2+x,-y,-z
-x,y,-z
-x,-y,-z
1/2+x,y,-z
1/2-x,y,z
x,-y,z
loop_
_atom_site_type_symbol
_atom_site_label
_atom_site_fract_x
_atom_site_fract_y
_atom_site_fract_z
Si Si1 0.076401 0.669372 0.154219
Si Si2 0.831226 0.664438 0.582828
Si Si3 0.917146 0.339416 0.007525
Si Si4 0.566068 0.834589 0.140723
Si Si5 0.576243 0.837989 0.304319
Si Si6 0.327204 0.669255 0.586392
Si Si7 0.086077 0.168646 0.295784
O O1 0.071024 0.500000 0.171535
O O2 0.115423 0.749444 0.222161
O O3 0.000396 0.734958 0.148178
O O4 0.114937 0.695607 0.074475
O O5 0.750000 0.682631 0.598958
O O6 0.854149 0.500000 0.599223
O O7 0.848494 0.706440 0.497937
O O8 0.873507 0.774772 0.632906
O O9 0.895132 0.500000 0.032192
O O10 0.889509 0.227675 0.070667
O O11 0.000000 0.328675 0.000000
O O12 0.606058 0.824050 0.219731
O O13 0.544809 0.000000 0.124704
O O14 0.617291 0.733420 0.357777
O O15 0.495121 0.797247 0.306420
O O16 0.586847 0.000000 0.333449
O O17 0.250000 0.730761 0.603144
O O18 0.326794 0.500000 0.598003
O O19 0.099865 0.000000 0.285388
#
# Coordination Sequence:
#
# PCOD8210420 Si02
#       7
#     8   8   8   8   8   8   8
#     4   9  16  26  40  60  89 123 157 192 232 275
#     4   9  19  36  54  71  93 121 155 194 235 281
#     4   8  14  23  36  57  85 119 157 191 226 272
#     4   9  16  25  38  60  91 123 155 191 231 275
#     4   9  19  32  45  68 100 129 156 190 234 280
#     4   9  19  35  53  72  92 118 157 199 234 276
#     4  10  20  32  47  71 100 126 157 194 232 279
#
# _framework density 17.439541999999999
#
# number of rings (size 3 to 8) (size 9 to 14) (size 15 to 20)
#    0.000    3.000    0.000    3.857    0.000    8.286 
#    0.000    4.286    0.000    0.000    0.000    1.000 
#    0.000    5.714    0.000    0.000    0.000    0.000 
#
# Total GULP energy -693910.849946 kJ/mol
# GULP energy per Si atom -12391.265178 kJ/mol
# Density = 1.739985 g / cm^3
# Si number density = 17.439542 Si / 1000 Ang^3
#
#
#
# Elastic Constant Matrix: (Units=GPa)
#
#
# Indices 1 2 3 4 5 6 
#
# 1 30.5842 30.4785 42.2042 0.0000 0.0000 0.0000
# 2 30.4785 102.1967 79.0863 0.0000 0.0000 0.0000
# 3 42.2042 79.0863 143.0616 0.0000 0.0000 0.0000
# 4 0.0000 0.0000 0.0000 32.4681 0.0000 0.0000
# 5 0.0000 0.0000 0.0000 0.0000 -5.6688 0.0000
# 6 0.0000 0.0000 0.0000 0.0000 0.0000 16.7278
#
#
#
# Elastic Compliance Matrix: (Units=1/GPa)
#
#
# Indices 1 2 3 4 5 6 
#
# 1 0.057937 -0.007082 -0.013177 0.000000 0.000000 0.000000
# 2 -0.007082 0.017966 -0.007843 0.000000 0.000000 0.000000
# 3 -0.013177 -0.007843 0.015213 0.000000 0.000000 0.000000
# 4 0.000000 0.000000 0.000000 0.030799 0.000000 0.000000
# 5 0.000000 0.000000 0.000000 0.000000 -0.176404 0.000000
# 6 0.000000 0.000000 0.000000 0.000000 0.000000 0.059781
#
#
# Mechanical properties :
#
#
# Convention : Reuss Voigt Hill
#
# Bulk Modulus (GPa) = 28.64224 64.37559 46.50892
# Shear Modulus (GPa) = 68.36784 16.97700 42.67242
#
# Velocity S-wave (km/s) = 6.26800 3.12344 4.95196
# Velocity P-wave (km/s) = 8.29718 7.07118 7.70859
#
# Compressibility (1/GPa) = 0.03491347
#
# Stress axis : x y z
#
# Youngs Moduli (GPa) = 17.26002 55.65955 65.73328
#
# Poissons Ratio (x) = 0.39416 0.86618
# Poissons Ratio (y) = 0.12223 0.51554
# Poissons Ratio (z) = 0.22744 0.43653
#
# Static dielectric constant tensor:
#      x y z
#    x 2.724690 0.000000 0.000000 
#    y 0.000000 3.311510 0.000000 
#    z 0.000000 0.000000 3.945470 
# 
# 
# High freq. dielectric constant tensor:
#      x y z
#    x 1.606810 0.000000 0.000000 
#    y 0.000000 1.681990 0.000000 
#    z 0.000000 0.000000 1.695870 
# 
# From -- ./inp_files/30438.got.cif
#   From: 2010.03.12/outbox.cif.g09.slc.cpg/sg51_16_cif.got.tgz:30438.got - 2010.04.16 13:43:02.
