data_PCOD8210114
_publ_section_title
;
Structure prediction by ZEFSAII (Michael W. Deem and Ramdas Pophale) SiO2 
 PCOD8210114
Probable space group: P M M A
;
_chemical_formula_sum "Si O2"
_cell_formula_units_Z 48
_cell_length_a 17.456197
_cell_length_b 14.975397
_cell_length_c 9.190889
_cell_angle_alpha 90.000000
_cell_angle_beta 90.000000
_cell_angle_gamma 90.000000
_cell_volume 2402.622279
_symmetry_space_group_name_H-M "P M M A"
_symmetry_group_IT_number 51
_symmetry_cell_setting 'orthorhombic'
loop_
_space_group_symop_operation_xyz
x,y,z
1/2-x,-y,z
1/2+x,-y,-z
-x,y,-z
-x,-y,-z
1/2+x,y,-z
1/2-x,y,z
x,-y,z
loop_
_atom_site_type_symbol
_atom_site_label
_atom_site_fract_x
_atom_site_fract_y
_atom_site_fract_z
Si Si1 0.840656 0.500000 0.751742
Si Si2 0.336226 0.846287 0.776037
Si Si3 0.416710 0.357008 0.053075
Si Si4 0.417164 0.000000 0.294488
Si Si5 0.661824 0.356814 0.247642
Si Si6 0.912170 0.500000 0.446500
Si Si7 0.580436 0.847363 0.933087
Si Si8 0.911336 0.000000 0.393620
O O1 0.750000 0.500000 0.785594
O O2 0.883127 0.586730 0.814465
O O3 0.853301 0.500000 0.579682
O O4 0.250000 0.876664 0.754068
O O5 0.350995 0.746887 0.716364
O O6 0.388640 0.909644 0.684151
O O7 0.353977 0.856460 0.946727
O O8 0.424310 0.256090 0.114465
O O9 0.500000 0.390885 0.000000
O O10 0.357893 0.370883 0.921189
O O11 0.399422 0.910887 0.202334
O O12 0.498403 0.000000 0.372996
O O13 0.370193 0.000000 0.446263
O O14 0.750000 0.386190 0.272020
O O15 0.604795 0.412704 0.349395
O O16 0.000000 0.500000 0.500000
O O17 0.500000 0.880009 0.000000
#
# Coordination Sequence:
#
# PCOD8210114 Si02
#       8
#     4   8   8   4   8   4   8   4
#     4  12  24  38  58  88 122 156 190 240 302 354
#     4  10  21  38  61  87 117 157 202 246 295 356
#     4  10  21  37  62  91 120 152 197 251 293 345
#     4  11  22  36  58  87 120 154 199 243 303 352
#     4  10  21  40  63  87 117 161 202 240 299 366
#     4  12  25  42  61  88 120 156 200 250 293 356
#     4  10  19  37  63  89 117 150 199 250 296 341
#     4  11  22  37  55  88 121 162 198 240 296 362
#
# _framework density 19.978171
#
# number of rings (size 3 to 8) (size 9 to 14) (size 15 to 20)
#    0.000    1.500    1.667    4.000    0.000    2.000 
#    3.000    1.667    0.000    0.000    0.000    0.000 
#    0.000    0.000    0.000    0.000    0.000    0.000 
#
# Total GULP energy -595124.320815 kJ/mol
# GULP energy per Si atom -12398.423350 kJ/mol
# Density = 1.993270 g / cm^3
# Si number density = 19.978171 Si / 1000 Ang^3
#
#
#
# Elastic Constant Matrix: (Units=GPa)
#
#
# Indices 1 2 3 4 5 6 
#
# 1 71.9351 27.9003 9.0022 0.0000 0.0000 0.0000
# 2 27.9003 104.8528 47.9478 0.0000 0.0000 0.0000
# 3 9.0022 47.9478 88.4811 0.0000 0.0000 0.0000
# 4 0.0000 0.0000 0.0000 44.5563 0.0000 0.0000
# 5 0.0000 0.0000 0.0000 0.0000 27.8291 0.0000
# 6 0.0000 0.0000 0.0000 0.0000 0.0000 19.1634
#
#
#
# Elastic Compliance Matrix: (Units=1/GPa)
#
#
# Indices 1 2 3 4 5 6 
#
# 1 0.015552 -0.004540 0.000878 0.000000 0.000000 0.000000
# 2 -0.004540 0.014004 -0.007127 0.000000 0.000000 0.000000
# 3 0.000878 -0.007127 0.015075 0.000000 0.000000 0.000000
# 4 0.000000 0.000000 0.000000 0.022444 0.000000 0.000000
# 5 0.000000 0.000000 0.000000 0.000000 0.035934 0.000000
# 6 0.000000 0.000000 0.000000 0.000000 0.000000 0.052183
#
#
# Mechanical properties :
#
#
# Convention : Reuss Voigt Hill
#
# Bulk Modulus (GPa) = 43.37775 48.32996 45.85385
# Shear Modulus (GPa) = 27.10711 30.33768 28.72239
#
# Velocity S-wave (km/s) = 3.68752 3.90107 3.79580
# Velocity P-wave (km/s) = 6.31586 6.67346 6.49712
#
# Compressibility (1/GPa) = 0.02305329
#
# Stress axis : x y z
#
# Youngs Moduli (GPa) = 64.29909 71.40706 66.33654
#
# Poissons Ratio (x) = 0.32417 -0.05823
# Poissons Ratio (y) = 0.29190 0.47278
# Poissons Ratio (z) = -0.05644 0.50892
#
# Static dielectric constant tensor:
#      x y z
#    x 3.689950 0.000000 0.000000 
#    y 0.000000 3.771800 0.000000 
#    z 0.000000 0.000000 3.605360 
# 
# 
# High freq. dielectric constant tensor:
#      x y z
#    x 1.780430 0.000000 0.000000 
#    y 0.000000 1.791590 0.000000 
#    z 0.000000 0.000000 1.772870 
# 
# From -- ./inp_files/9749.got.cif
#   From: 2010.03.12/outbox.cif.g09.slc.cpg/sg51_5_cif.got.tgz:9749.got - 2010.04.16 13:43:02.
