data_PCOD8210544
_publ_section_title
;
Structure prediction by ZEFSAII (Michael W. Deem and Ramdas Pophale) SiO2 
 PCOD8210544
Probable space group: P M M A
;
_chemical_formula_sum "Si O2"
_cell_formula_units_Z 32
_cell_length_a 10.044167
_cell_length_b 19.091392
_cell_length_c 9.465530
_cell_angle_alpha 90.000000
_cell_angle_beta 90.000000
_cell_angle_gamma 90.000000
_cell_volume 1815.082862
_symmetry_space_group_name_H-M "P M M A"
_symmetry_group_IT_number 51
_symmetry_cell_setting 'orthorhombic'
loop_
_space_group_symop_operation_xyz
x,y,z
1/2-x,-y,z
1/2+x,-y,-z
-x,y,-z
-x,-y,-z
1/2+x,y,-z
1/2-x,y,z
x,-y,z
loop_
_atom_site_type_symbol
_atom_site_label
_atom_site_fract_x
_atom_site_fract_y
_atom_site_fract_z
Si Si1 0.092812 0.688594 0.366029
Si Si2 0.250000 0.080742 0.676371
Si Si3 0.400826 0.419486 0.120712
Si Si4 0.250000 0.922482 0.338860
Si Si5 0.504662 0.837137 0.668215
O O1 0.250000 0.700301 0.407778
O O2 0.076314 0.623430 0.262958
O O3 0.033146 0.757075 0.285873
O O4 0.000000 0.671764 0.500000
O O5 0.250000 0.077758 0.507966
O O6 0.373730 0.126673 0.732778
O O7 0.250000 0.000000 0.733836
O O8 0.250000 0.410028 0.065258
O O9 0.431977 0.500000 0.157818
O O10 0.500000 0.391779 0.000000
O O11 0.377127 0.884683 0.274581
O O12 0.250000 0.000000 0.278271
O O13 0.500000 0.837598 0.500000
#
# Coordination Sequence:
#
# PCOD8210544 Si02
#       5
#     8   4   8   4   8
#     4  10  20  32  49  74 105 137 167 204 249 299
#     4   9  16  24  36  56  86 125 166 202 241 289
#     4   9  19  37  57  77 102 131 166 208 249 293
#     4   9  14  22  36  54  82 123 162 194 237 289
#     4   9  16  25  37  58  90 126 160 201 241 290
#
# _framework density 17.630047999999999
#
# number of rings (size 3 to 8) (size 9 to 14) (size 15 to 20)
#    0.000    2.750    1.250    0.750    5.250    4.500 
#    0.000    0.000    0.000    0.000    0.000    0.000 
#    0.000    6.000    0.000    0.000    0.000    0.000 
#
# Total GULP energy -396555.125722 kJ/mol
# GULP energy per Si atom -12392.347679 kJ/mol
# Density = 1.758992 g / cm^3
# Si number density = 17.630048 Si / 1000 Ang^3
#
#
#
# Elastic Constant Matrix: (Units=GPa)
#
#
# Indices 1 2 3 4 5 6 
#
# 1 153.6478 66.4974 39.4392 0.0000 0.0000 0.0000
# 2 66.4974 110.3487 36.5685 0.0000 0.0000 0.0000
# 3 39.4392 36.5685 38.4301 0.0000 0.0000 0.0000
# 4 0.0000 0.0000 0.0000 1.5648 0.0000 0.0000
# 5 0.0000 0.0000 0.0000 0.0000 15.2008 0.0000
# 6 0.0000 0.0000 0.0000 0.0000 0.0000 30.6602
#
#
#
# Elastic Compliance Matrix: (Units=1/GPa)
#
#
# Indices 1 2 3 4 5 6 
#
# 1 0.009798 -0.003757 -0.006480 0.000000 0.000000 0.000000
# 2 -0.003757 0.014676 -0.010110 0.000000 0.000000 0.000000
# 3 -0.006480 -0.010110 0.042292 0.000000 0.000000 0.000000
# 4 0.000000 0.000000 0.000000 0.639071 0.000000 0.000000
# 5 0.000000 0.000000 0.000000 0.000000 0.065786 0.000000
# 6 0.000000 0.000000 0.000000 0.000000 0.000000 0.032616
#
#
# Mechanical properties :
#
#
# Convention : Reuss Voigt Hill
#
# Bulk Modulus (GPa) = 38.35528 65.27077 51.81302
# Shear Modulus (GPa) = 5.85739 20.14659 13.00199
#
# Velocity S-wave (km/s) = 1.82472 3.38411 2.71862
# Velocity P-wave (km/s) = 5.12273 7.23688 6.26956
#
# Compressibility (1/GPa) = 0.02607203
#
# Stress axis : x y z
#
# Youngs Moduli (GPa) = 102.06560 68.13652 23.64510
#
# Poissons Ratio (x) = 0.25597 0.15322
# Poissons Ratio (y) = 0.38343 0.23906
# Poissons Ratio (z) = 0.66140 0.68887
#
# Static dielectric constant tensor:
#      x y z
#    x 3.660870 0.000000 0.000000 
#    y 0.000000 3.521870 0.000000 
#    z 0.000000 0.000000 2.568530 
# 
# 
# High freq. dielectric constant tensor:
#      x y z
#    x 1.702030 0.000000 0.000000 
#    y 0.000000 1.699700 0.000000 
#    z 0.000000 0.000000 1.603800 
# 
# From -- ./inp_files/13926.got.cif
#   From: 2010.03.12/outbox.cif.g09.slc.cpg/sg51_7_cif.got.tgz:13926.got - 2010.04.16 13:43:02.
