data_PCOD8210322
_publ_section_title
;
Structure prediction by ZEFSAII (Michael W. Deem and Ramdas Pophale) SiO2 
 PCOD8210322
Probable space group: P M M A
;
_chemical_formula_sum "Si O2"
_cell_formula_units_Z 40
_cell_length_a 21.432496
_cell_length_b 9.568291
_cell_length_c 11.645807
_cell_angle_alpha 90.000000
_cell_angle_beta 90.000000
_cell_angle_gamma 90.000000
_cell_volume 2388.233109
_symmetry_space_group_name_H-M "P M M A"
_symmetry_group_IT_number 51
_symmetry_cell_setting 'orthorhombic'
loop_
_space_group_symop_operation_xyz
x,y,z
1/2-x,-y,z
1/2+x,-y,-z
-x,y,-z
-x,-y,-z
1/2+x,y,-z
1/2-x,y,z
x,-y,z
loop_
_atom_site_type_symbol
_atom_site_label
_atom_site_fract_x
_atom_site_fract_y
_atom_site_fract_z
Si Si1 0.085895 0.164363 0.551239
Si Si2 0.178070 0.841920 0.735268
Si Si3 0.678914 0.338796 0.047317
Si Si4 0.036838 0.834583 0.318749
Si Si5 0.445143 0.662572 0.089046
O O1 0.147702 0.213973 0.617243
O O2 0.085929 0.214933 0.418346
O O3 0.028899 0.216199 0.629836
O O4 0.078974 0.000000 0.542910
O O5 0.250000 0.834045 0.710086
O O6 0.158621 0.747393 0.841516
O O7 0.155928 0.000000 0.762886
O O8 0.750000 0.298010 0.005573
O O9 0.677567 0.500000 0.082702
O O10 0.625370 0.306429 0.954700
O O11 0.049144 0.753093 0.202552
O O12 0.039935 0.000000 0.292321
O O13 0.453031 0.500000 0.119289
O O14 0.500000 0.706977 0.000000
#
# Coordination Sequence:
#
# PCOD8210322 Si02
#       5
#     8   8   8   8   8
#     4   8  15  29  46  65  90 116 142 177 223 266
#     4   9  16  27  46  69  89 111 144 185 222 257
#     4   9  18  32  47  63  89 123 150 176 219 269
#     4   9  17  30  48  66  87 118 150 178 214 265
#     4  10  20  32  46  67  93 117 146 187 227 258
#
# _framework density 16.748784000000001
#
# number of rings (size 3 to 8) (size 9 to 14) (size 15 to 20)
#    0.000    3.000    0.000    2.400    0.000    1.200 
#    0.000    4.000    0.000    1.200    0.000    0.000 
#    0.000    0.000    0.000    0.000    0.000    0.000 
#
# Total GULP energy -495547.994295 kJ/mol
# GULP energy per Si atom -12388.699857 kJ/mol
# Density = 1.671066 g / cm^3
# Si number density = 16.748784 Si / 1000 Ang^3
#
#
#
# Elastic Constant Matrix: (Units=GPa)
#
#
# Indices 1 2 3 4 5 6 
#
# 1 71.3401 35.4540 67.9972 0.0000 0.0000 0.0000
# 2 35.4540 49.6108 66.5717 0.0000 0.0000 0.0000
# 3 67.9972 66.5717 163.3016 0.0000 0.0000 0.0000
# 4 0.0000 0.0000 0.0000 -46.8932 0.0000 0.0000
# 5 0.0000 0.0000 0.0000 0.0000 29.4570 0.0000
# 6 0.0000 0.0000 0.0000 0.0000 0.0000 16.8513
#
#
#
# Elastic Compliance Matrix: (Units=1/GPa)
#
#
# Indices 1 2 3 4 5 6 
#
# 1 0.024774 -0.008526 -0.006840 0.000000 0.000000 0.000000
# 2 -0.008526 0.047434 -0.015787 0.000000 0.000000 0.000000
# 3 -0.006840 -0.015787 0.015407 0.000000 0.000000 0.000000
# 4 0.000000 0.000000 0.000000 -0.021325 0.000000 0.000000
# 5 0.000000 0.000000 0.000000 0.000000 0.033948 0.000000
# 6 0.000000 0.000000 0.000000 0.000000 0.000000 0.059342
#
#
# Mechanical properties :
#
#
# Convention : Reuss Voigt Hill
#
# Bulk Modulus (GPa) = 39.51074 69.36647 54.43860
# Shear Modulus (GPa) = 21.70865 7.49834 14.60349
#
# Velocity S-wave (km/s) = 3.60409 2.11817 2.95602
# Velocity P-wave (km/s) = 6.40006 6.89115 6.65014
#
# Compressibility (1/GPa) = 0.02530958
#
# Stress axis : x y z
#
# Youngs Moduli (GPa) = 40.36485 21.08187 64.90445
#
# Poissons Ratio (x) = 0.17975 0.44393
# Poissons Ratio (y) = 0.34417 1.02463
# Poissons Ratio (z) = 0.27609 0.33281
#
# Static dielectric constant tensor:
#      x y z
#    x 3.423570 0.000000 0.000000 
#    y 0.000000 3.034400 0.000000 
#    z 0.000000 0.000000 3.221970 
# 
# 
# High freq. dielectric constant tensor:
#      x y z
#    x 1.648730 0.000000 0.000000 
#    y 0.000000 1.624280 0.000000 
#    z 0.000000 0.000000 1.642610 
# 
# From -- ./inp_files/10626.got.cif
#   From: 2010.03.12/outbox.cif.g09.slc.cpg/sg51_6_cif.got.tgz:10626.got - 2010.04.16 13:43:02.
