data_PCOD8210254
_publ_section_title
;
Structure prediction by ZEFSAII (Michael W. Deem and Ramdas Pophale) SiO2 
 PCOD8210254
Probable space group: P M M A
;
_chemical_formula_sum "Si O2"
_cell_formula_units_Z 44
_cell_length_a 8.860662
_cell_length_b 23.574090
_cell_length_c 14.259997
_cell_angle_alpha 90.000000
_cell_angle_beta 90.000000
_cell_angle_gamma 90.000000
_cell_volume 2978.657313
_symmetry_space_group_name_H-M "P M M A"
_symmetry_group_IT_number 51
_symmetry_cell_setting 'orthorhombic'
loop_
_space_group_symop_operation_xyz
x,y,z
1/2-x,-y,z
1/2+x,-y,-z
-x,y,-z
-x,-y,-z
1/2+x,y,-z
1/2-x,y,z
x,-y,z
loop_
_atom_site_type_symbol
_atom_site_label
_atom_site_fract_x
_atom_site_fract_y
_atom_site_fract_z
Si Si1 0.076236 0.831511 0.600333
Si Si2 0.426115 0.294227 0.601865
Si Si3 0.573556 0.938526 0.602116
Si Si4 0.427486 0.565544 0.902736
Si Si5 0.570956 0.391705 0.719335
Si Si6 0.572220 0.500000 0.601150
O O1 0.250000 0.846572 0.588800
O O2 0.053908 0.769239 0.645481
O O3 0.000000 0.827859 0.500000
O O4 0.998408 0.884183 0.657627
O O5 0.500000 0.300755 0.500000
O O6 0.250000 0.310163 0.592816
O O7 0.509961 0.334528 0.674055
O O8 0.500000 0.939652 0.500000
O O9 0.750000 0.928374 0.592397
O O10 0.541025 0.000000 0.651295
O O11 0.250000 0.575846 0.906713
O O12 0.468017 0.500000 0.883446
O O13 0.499965 0.603525 0.821925
O O14 0.500000 0.585794 0.000000
O O15 0.750000 0.389576 0.728000
O O16 0.516623 0.444660 0.656690
O O17 0.750000 0.500000 0.588889
O O18 0.500000 0.500000 0.500000
#
# Coordination Sequence:
#
# PCOD8210254 Si02
#       6
#     8   8   8   8   8   4
#     4   9  16  25  37  51  71  99 133 172 208 246
#     4  10  20  32  44  61  83 111 147 181 215 255
#     4   9  15  21  31  48  69  93 125 166 208 247
#     4  10  20  34  53  73  91 111 133 166 209 256
#     4  11  21  34  49  66  87 112 141 175 213 257
#     4  10  22  34  45  62  85 110 139 174 210 250
#
# _framework density 14.771756999999999
#
# number of rings (size 3 to 8) (size 9 to 14) (size 15 to 20)
#    0.000    2.182    0.909    4.364    0.000    6.909 
#    0.000    0.000    0.000    0.000    0.000    0.000 
#    0.000    0.000    0.000    0.000    0.000    0.909 
#
# Total GULP energy -545286.315006 kJ/mol
# GULP energy per Si atom -12392.870796 kJ/mol
# Density = 1.473814 g / cm^3
# Si number density = 14.771757 Si / 1000 Ang^3
#
#
#
# Elastic Constant Matrix: (Units=GPa)
#
#
# Indices 1 2 3 4 5 6 
#
# 1 89.6402 50.5694 33.6243 0.0000 0.0000 0.0000
# 2 50.5694 119.7762 41.8035 0.0000 0.0000 0.0000
# 3 33.6243 41.8035 73.7778 0.0000 0.0000 0.0000
# 4 0.0000 0.0000 0.0000 3.6639 0.0000 0.0000
# 5 0.0000 0.0000 0.0000 0.0000 21.2837 0.0000
# 6 0.0000 0.0000 0.0000 0.0000 0.0000 27.4222
#
#
#
# Elastic Compliance Matrix: (Units=1/GPa)
#
#
# Indices 1 2 3 4 5 6 
#
# 1 0.015630 -0.005127 -0.004219 0.000000 0.000000 0.000000
# 2 -0.005127 0.012089 -0.004513 0.000000 0.000000 0.000000
# 3 -0.004219 -0.004513 0.018034 0.000000 0.000000 0.000000
# 4 0.000000 0.000000 0.000000 0.272936 0.000000 0.000000
# 5 0.000000 0.000000 0.000000 0.000000 0.046984 0.000000
# 6 0.000000 0.000000 0.000000 0.000000 0.000000 0.036467
#
#
# Mechanical properties :
#
#
# Convention : Reuss Voigt Hill
#
# Bulk Modulus (GPa) = 55.44451 59.46538 57.45494
# Shear Modulus (GPa) = 11.47133 20.95375 16.21254
#
# Velocity S-wave (km/s) = 2.78973 3.77039 3.31650
# Velocity P-wave (km/s) = 6.92765 7.70051 7.32429
#
# Compressibility (1/GPa) = 0.01803605
#
# Stress axis : x y z
#
# Youngs Moduli (GPa) = 63.97819 82.72315 55.45085
#
# Poissons Ratio (x) = 0.42410 0.23393
# Poissons Ratio (y) = 0.32800 0.25025
# Poissons Ratio (z) = 0.26990 0.37333
#
# Static dielectric constant tensor:
#      x y z
#    x 3.022850 0.000000 0.000000 
#    y 0.000000 3.777880 0.000000 
#    z 0.000000 0.000000 2.433570 
# 
# 
# High freq. dielectric constant tensor:
#      x y z
#    x 1.587840 0.000000 0.000000 
#    y 0.000000 1.576140 0.000000 
#    z 0.000000 0.000000 1.501030 
# 
# From -- ./inp_files/14431.got.cif
#   From: 2010.03.12/outbox.cif.g09.slc.cpg/sg51_8_cif.got.tgz:14431.got - 2010.04.16 13:43:02.
