data_PCOD8210775
_publ_section_title
;
Structure prediction by ZEFSAII (Michael W. Deem and Ramdas Pophale) SiO2 
 PCOD8210775
Probable space group: P M M A
;
_chemical_formula_sum "Si O2"
_cell_formula_units_Z 56
_cell_length_a 9.084416
_cell_length_b 15.139316
_cell_length_c 19.714315
_cell_angle_alpha 90.000000
_cell_angle_beta 90.000000
_cell_angle_gamma 90.000000
_cell_volume 2711.346105
_symmetry_space_group_name_H-M "P M M A"
_symmetry_group_IT_number 51
_symmetry_cell_setting 'orthorhombic'
loop_
_space_group_symop_operation_xyz
x,y,z
1/2-x,-y,z
1/2+x,-y,-z
-x,y,-z
-x,-y,-z
1/2+x,y,-z
1/2-x,y,z
x,-y,z
loop_
_atom_site_type_symbol
_atom_site_label
_atom_site_fract_x
_atom_site_fract_y
_atom_site_fract_z
Si Si1 0.585434 0.102175 0.686729
Si Si2 0.409793 0.841684 0.561595
Si Si3 0.414178 0.396970 0.708529
Si Si4 0.422082 0.101877 0.158362
Si Si5 0.926438 0.250733 0.072390
Si Si6 0.921778 0.395759 0.840897
Si Si7 0.910588 0.361872 0.438489
O O1 0.750000 0.138588 0.677309
O O2 0.482341 0.153847 0.635263
O O3 0.533211 0.117465 0.763503
O O4 0.578837 0.000000 0.667645
O O5 0.500000 0.887700 0.500000
O O6 0.250000 0.887809 0.564483
O O7 0.391580 0.739895 0.543605
O O8 0.250000 0.353610 0.714625
O O9 0.399138 0.500000 0.718854
O O10 0.521689 0.361572 0.767436
O O11 0.486714 0.375679 0.635135
O O12 0.250000 0.124389 0.146846
O O13 0.525883 0.165593 0.115550
O O14 0.452084 0.000000 0.137894
O O15 0.750000 0.254717 0.067084
O O16 0.986486 0.342372 0.103220
O O17 0.000000 0.238503 0.000000
O O18 0.750000 0.372189 0.846708
O O19 0.949004 0.500000 0.852427
O O20 0.750000 0.407671 0.435013
O O21 0.000000 0.407696 0.500000
#
# Coordination Sequence:
#
# PCOD8210775 Si02
#       7
#     8   8   8   8   8   8   8
#     4   9  19  36  57  81 109 143 184 232 289 347
#     4  10  20  33  49  72 105 144 190 239 289 344
#     4   9  18  34  55  80 112 149 189 237 294 351
#     4   9  20  41  66  93 127 163 201 248 300 355
#     4  12  26  43  66  95 127 162 203 244 293 357
#     4  10  22  41  64  92 125 160 202 250 300 358
#     4   9  19  33  48  72 106 144 189 237 288 342
#
# _framework density 20.653946999999999
#
# number of rings (size 3 to 8) (size 9 to 14) (size 15 to 20)
#    0.000    2.286    0.000    3.000    2.000    4.286 
#    0.000    1.429    0.000    0.000    0.000    0.000 
#    0.000    0.000    0.000    0.000    0.000    0.000 
#
# Total GULP energy -694180.517341 kJ/mol
# GULP energy per Si atom -12396.080667 kJ/mol
# Density = 2.060694 g / cm^3
# Si number density = 20.653947 Si / 1000 Ang^3
#
#
#
# Elastic Constant Matrix: (Units=GPa)
#
#
# Indices 1 2 3 4 5 6 
#
# 1 142.0900 41.0705 75.7251 0.0000 0.0000 0.0000
# 2 41.0705 58.6426 36.0833 0.0000 0.0000 0.0000
# 3 75.7251 36.0833 135.4273 0.0000 0.0000 0.0000
# 4 0.0000 0.0000 0.0000 -145.3437 0.0000 0.0000
# 5 0.0000 0.0000 0.0000 0.0000 36.4494 0.0000
# 6 0.0000 0.0000 0.0000 0.0000 0.0000 25.0753
#
#
#
# Elastic Compliance Matrix: (Units=1/GPa)
#
#
# Indices 1 2 3 4 5 6 
#
# 1 0.011008 -0.004691 -0.004905 0.000000 0.000000 0.000000
# 2 -0.004691 0.022396 -0.003344 0.000000 0.000000 0.000000
# 3 -0.004905 -0.003344 0.011018 0.000000 0.000000 0.000000
# 4 0.000000 0.000000 0.000000 -0.006880 0.000000 0.000000
# 5 0.000000 0.000000 0.000000 0.000000 0.027435 0.000000
# 6 0.000000 0.000000 0.000000 0.000000 0.000000 0.039880
#
#
# Mechanical properties :
#
#
# Convention : Reuss Voigt Hill
#
# Bulk Modulus (GPa) = 53.93609 71.32420 62.63014
# Shear Modulus (GPa) = 36.51843 -4.54507 15.98668
#
# Velocity S-wave (km/s) = 4.20945 -1.48504 2.78515
# Velocity P-wave (km/s) = 7.05669 5.62738 6.38217
#
# Compressibility (1/GPa) = 0.01854046
#
# Stress axis : x y z
#
# Youngs Moduli (GPa) = 90.84339 44.65182 90.76225
#
# Poissons Ratio (x) = 0.20947 0.44521
# Poissons Ratio (y) = 0.42617 0.30350
# Poissons Ratio (z) = 0.44561 0.14931
#
# Static dielectric constant tensor:
#      x y z
#    x 3.995470 0.000000 0.000000 
#    y 0.000000 3.516780 0.000000 
#    z 0.000000 0.000000 3.810580 
# 
# 
# High freq. dielectric constant tensor:
#      x y z
#    x 1.805350 0.000000 0.000000 
#    y 0.000000 1.797580 0.000000 
#    z 0.000000 0.000000 1.813280 
# 
# From -- ./inp_files/31996.got.cif
#   From: 2010.03.12/outbox.cif.g09.slc.cpg/sg51_16_cif.got.tgz:31996.got - 2010.04.16 13:43:02.
