data_PCOD8210148
_publ_section_title
;
Structure prediction by ZEFSAII (Michael W. Deem and Ramdas Pophale) SiO2 
 PCOD8210148
Probable space group: P M M A
;
_chemical_formula_sum "Si O2"
_cell_formula_units_Z 64
_cell_length_a 9.050996
_cell_length_b 15.286589
_cell_length_c 29.930749
_cell_angle_alpha 90.000000
_cell_angle_beta 90.000000
_cell_angle_gamma 90.000000
_cell_volume 4141.184188
_symmetry_space_group_name_H-M "P M M A"
_symmetry_group_IT_number 51
_symmetry_cell_setting 'orthorhombic'
loop_
_space_group_symop_operation_xyz
x,y,z
1/2-x,-y,z
1/2+x,-y,-z
-x,y,-z
-x,-y,-z
1/2+x,y,-z
1/2-x,y,z
x,-y,z
loop_
_atom_site_type_symbol
_atom_site_label
_atom_site_fract_x
_atom_site_fract_y
_atom_site_fract_z
Si Si1 0.077753 0.398283 0.954517
Si Si2 0.916584 0.395849 0.630839
Si Si3 0.078145 0.903769 0.886886
Si Si4 0.583691 0.720135 0.785447
Si Si5 0.422133 0.399308 0.719343
Si Si6 0.579476 0.732370 0.891198
Si Si7 0.916762 0.604338 0.456232
Si Si8 0.582816 0.093249 0.796109
O O1 0.250000 0.377258 0.958531
O O2 0.047628 0.500000 0.945288
O O3 0.008837 0.346539 0.913324
O O4 0.000000 0.367500 0.000000
O O5 0.750000 0.359981 0.629800
O O6 0.919907 0.500000 0.629673
O O7 0.994383 0.362087 0.675869
O O8 0.002238 0.358579 0.587761
O O9 0.250000 0.880439 0.891375
O O10 0.983919 0.825507 0.909290
O O11 0.036680 0.908841 0.835029
O O12 0.045006 0.000000 0.908653
O O13 0.750000 0.688255 0.774751
O O14 0.469647 0.654581 0.762772
O O15 0.555012 0.722620 0.838304
O O16 0.556661 0.819487 0.766357
O O17 0.250000 0.387361 0.710696
O O18 0.463390 0.500000 0.728196
O O19 0.750000 0.726290 0.904751
O O20 0.750000 0.639993 0.456748
O O21 0.918333 0.500000 0.455975
O O22 0.000000 0.640212 0.500000
O O23 0.750000 0.101727 0.816565
O O24 0.569821 0.000000 0.769292
#
# Coordination Sequence:
#
# PCOD8210148 Si02
#       8
#     8   8   8   8   8   8   8   8
#     4  10  21  37  56  75  94 116 143 176 214 256
#     4   9  16  26  39  52  68  95 132 172 213 255
#     4   9  16  26  43  68  95 120 145 173 206 246
#     4   9  18  30  44  64  87 112 142 174 208 246
#     4  10  20  31  41  54  76 109 146 181 215 251
#     4  10  20  33  50  71  94 119 146 177 212 251
#     4   9  15  22  33  50  71  93 122 164 211 254
#     4   8  14  26  43  62  85 111 138 170 210 255
#
# _framework density 15.454516999999999
#
# number of rings (size 3 to 8) (size 9 to 14) (size 15 to 20)
#    0.000    2.750    0.000    3.000    0.000    8.250 
#    0.000    2.500    0.000    0.375    0.000    0.000 
#    0.000    0.000    0.000    0.000    0.000    0.625 
#
# Total GULP energy -793170.591856 kJ/mol
# GULP energy per Si atom -12393.290498 kJ/mol
# Density = 1.541934 g / cm^3
# Si number density = 15.454517 Si / 1000 Ang^3
#
#
#
# Elastic Constant Matrix: (Units=GPa)
#
#
# Indices 1 2 3 4 5 6 
#
# 1 103.3850 44.1293 39.6218 0.0000 0.0000 0.0000
# 2 44.1293 71.0178 37.0691 0.0000 0.0000 0.0000
# 3 39.6218 37.0691 59.7277 0.0000 0.0000 0.0000
# 4 0.0000 0.0000 0.0000 0.9769 0.0000 0.0000
# 5 0.0000 0.0000 0.0000 0.0000 28.2167 0.0000
# 6 0.0000 0.0000 0.0000 0.0000 0.0000 21.3539
#
#
#
# Elastic Compliance Matrix: (Units=1/GPa)
#
#
# Indices 1 2 3 4 5 6 
#
# 1 0.014461 -0.005885 -0.005941 0.000000 0.000000 0.000000
# 2 -0.005885 0.023223 -0.010509 0.000000 0.000000 0.000000
# 3 -0.005941 -0.010509 0.027206 0.000000 0.000000 0.000000
# 4 0.000000 0.000000 0.000000 1.023605 0.000000 0.000000
# 5 0.000000 0.000000 0.000000 0.000000 0.035440 0.000000
# 6 0.000000 0.000000 0.000000 0.000000 0.000000 0.046830
#
#
# Mechanical properties :
#
#
# Convention : Reuss Voigt Hill
#
# Bulk Modulus (GPa) = 49.45474 52.86345 51.15909
# Shear Modulus (GPa) = 4.09106 17.66351 10.87729
#
# Velocity S-wave (km/s) = 1.62878 3.38440 2.65585
# Velocity P-wave (km/s) = 5.96715 7.03934 6.52530
#
# Compressibility (1/GPa) = 0.02022051
#
# Stress axis : x y z
#
# Youngs Moduli (GPa) = 69.14950 43.06000 36.75658
#
# Poissons Ratio (x) = 0.25342 0.21836
# Poissons Ratio (y) = 0.40696 0.38628
# Poissons Ratio (z) = 0.41080 0.45253
#
# Static dielectric constant tensor:
#      x y z
#    x 3.100260 0.000000 0.000000 
#    y 0.000000 2.974910 0.000000 
#    z 0.000000 0.000000 2.728370 
# 
# 
# High freq. dielectric constant tensor:
#      x y z
#    x 1.611110 0.000000 0.000000 
#    y 0.000000 1.565870 0.000000 
#    z 0.000000 0.000000 1.557670 
# 
# From -- ./inp_files/37651.got.cif
#   From: 2010.03.12/outbox.cif.g09.slc.cpg/sg51_19_cif.got.tgz:37651.got - 2010.04.16 13:43:02.
