data_PCOD8210214
_publ_section_title
;
Structure prediction by ZEFSAII (Michael W. Deem and Ramdas Pophale) SiO2 
 PCOD8210214
Probable space group: P M M A
;
_chemical_formula_sum "Si O2"
_cell_formula_units_Z 64
_cell_length_a 17.576143
_cell_length_b 9.158384
_cell_length_c 23.077835
_cell_angle_alpha 90.000000
_cell_angle_beta 90.000000
_cell_angle_gamma 90.000000
_cell_volume 3714.817564
_symmetry_space_group_name_H-M "P M M A"
_symmetry_group_IT_number 51
_symmetry_cell_setting 'orthorhombic'
loop_
_space_group_symop_operation_xyz
x,y,z
1/2-x,-y,z
1/2+x,-y,-z
-x,y,-z
-x,-y,-z
1/2+x,y,-z
1/2-x,y,z
x,-y,z
loop_
_atom_site_type_symbol
_atom_site_label
_atom_site_fract_x
_atom_site_fract_y
_atom_site_fract_z
Si Si1 0.949559 0.327481 0.874622
Si Si2 0.922710 0.338462 0.535379
Si Si3 0.338915 0.827526 0.559058
Si Si4 0.968933 0.326761 0.368902
Si Si5 0.033704 0.328840 0.761666
Si Si6 0.334941 0.166835 0.818757
Si Si7 0.663363 0.829027 0.947229
Si Si8 0.582155 0.832463 0.064991
O O1 0.944378 0.500000 0.879673
O O2 0.869165 0.256163 0.891379
O O3 0.971072 0.277030 0.809023
O O4 0.010912 0.269229 0.920753
O O5 0.885206 0.500000 0.539920
O O6 0.862528 0.230165 0.505100
O O7 0.000000 0.349342 0.500000
O O8 0.952765 0.281368 0.597913
O O9 0.250000 0.789675 0.570785
O O10 0.392851 0.752831 0.607295
O O11 0.352445 0.000000 0.560751
O O12 0.954171 0.500000 0.375305
O O13 0.986852 0.278914 0.303129
O O14 0.042958 0.500000 0.765623
O O15 0.114793 0.262678 0.776562
O O16 0.250000 0.221911 0.809178
O O17 0.354005 0.187213 0.886200
O O18 0.345523 0.000000 0.799939
O O19 0.750000 0.781105 0.955516
O O20 0.656035 0.000000 0.935594
O O21 0.617930 0.781685 0.004607
O O22 0.553642 0.000000 0.061883
#
# Coordination Sequence:
#
# PCOD8210214 Si02
#       8
#     8   8   8   8   8   8   8   8
#     4  10  20  33  49  70  96 124 154 192 238 284
#     4   8  15  29  49  70  90 117 155 192 222 257
#     4  10  20  31  45  71 105 131 149 178 225 276
#     4   9  18  33  51  69  90 121 162 199 226 261
#     4   9  19  34  49  66  91 124 159 193 230 272
#     4   9  17  29  45  66  93 123 155 192 231 273
#     4  10  20  33  50  71  93 119 154 195 238 286
#     4   9  17  31  50  69  91 122 157 191 232 283
#
# _framework density 17.228301999999999
#
# number of rings (size 3 to 8) (size 9 to 14) (size 15 to 20)
#    0.000    2.750    0.000    2.250    0.000    8.750 
#    0.000    2.500    0.000    3.000    0.000    5.250 
#    0.000    0.000    0.000    0.000    0.000    0.000 
#
# Total GULP energy -793299.287166 kJ/mol
# GULP energy per Si atom -12395.301362 kJ/mol
# Density = 1.718909 g / cm^3
# Si number density = 17.228302 Si / 1000 Ang^3
#
#
#
# Elastic Constant Matrix: (Units=GPa)
#
#
# Indices 1 2 3 4 5 6 
#
# 1 64.5773 34.8785 53.8095 0.0000 0.0000 0.0000
# 2 34.8785 41.9957 44.1660 0.0000 0.0000 0.0000
# 3 53.8095 44.1660 127.2622 0.0000 0.0000 0.0000
# 4 0.0000 0.0000 0.0000 21.8331 0.0000 0.0000
# 5 0.0000 0.0000 0.0000 0.0000 15.0689 0.0000
# 6 0.0000 0.0000 0.0000 0.0000 0.0000 10.4348
#
#
#
# Elastic Compliance Matrix: (Units=1/GPa)
#
#
# Indices 1 2 3 4 5 6 
#
# 1 0.031270 -0.019000 -0.006628 0.000000 0.000000 0.000000
# 2 -0.019000 0.049043 -0.008986 0.000000 0.000000 0.000000
# 3 -0.006628 -0.008986 0.013779 0.000000 0.000000 0.000000
# 4 0.000000 0.000000 0.000000 0.045802 0.000000 0.000000
# 5 0.000000 0.000000 0.000000 0.000000 0.066362 0.000000
# 6 0.000000 0.000000 0.000000 0.000000 0.000000 0.095833
#
#
# Mechanical properties :
#
#
# Convention : Reuss Voigt Hill
#
# Bulk Modulus (GPa) = 40.22041 55.50479 47.86260
# Shear Modulus (GPa) = 13.17156 16.19946 14.68551
#
# Velocity S-wave (km/s) = 2.76801 3.06973 2.92277
# Velocity P-wave (km/s) = 5.79759 6.69712 6.26353
#
# Compressibility (1/GPa) = 0.02486300
#
# Stress axis : x y z
#
# Youngs Moduli (GPa) = 31.97942 20.39019 72.57477
#
# Poissons Ratio (x) = 0.38742 0.48101
# Poissons Ratio (y) = 0.60762 0.65219
# Poissons Ratio (z) = 0.21195 0.18324
#
# Static dielectric constant tensor:
#      x y z
#    x 3.256540 0.000000 0.000000 
#    y 0.000000 3.157840 0.000000 
#    z 0.000000 0.000000 3.640980 
# 
# 
# High freq. dielectric constant tensor:
#      x y z
#    x 1.648380 0.000000 0.000000 
#    y 0.000000 1.660080 0.000000 
#    z 0.000000 0.000000 1.662070 
# 
# From -- ./inp_files/35911.got.cif
#   From: 2010.03.12/outbox.cif.g09.slc.cpg/sg51_18_cif.got.tgz:35911.got - 2010.04.16 13:43:02.
