data_PCOD8210693
_publ_section_title
;
Structure prediction by ZEFSAII (Michael W. Deem and Ramdas Pophale) SiO2 
 PCOD8210693
Probable space group: P M M A
;
_chemical_formula_sum "Si O2"
_cell_formula_units_Z 64
_cell_length_a 15.208566
_cell_length_b 9.014288
_cell_length_c 22.885568
_cell_angle_alpha 90.000000
_cell_angle_beta 90.000000
_cell_angle_gamma 90.000000
_cell_volume 3137.483076
_symmetry_space_group_name_H-M "P M M A"
_symmetry_group_IT_number 51
_symmetry_cell_setting 'orthorhombic'
loop_
_space_group_symop_operation_xyz
x,y,z
1/2-x,-y,z
1/2+x,-y,-z
-x,y,-z
-x,-y,-z
1/2+x,y,-z
1/2-x,y,z
x,-y,z
loop_
_atom_site_type_symbol
_atom_site_label
_atom_site_fract_x
_atom_site_fract_y
_atom_site_fract_z
Si Si1 0.849824 0.828543 0.087568
Si Si2 0.625523 0.163572 0.406170
Si Si3 0.481517 0.324812 0.133786
Si Si4 0.897569 0.665037 0.515982
Si Si5 0.850442 0.830051 0.950901
Si Si6 0.985627 0.176028 0.749445
Si Si7 0.424891 0.163083 0.374655
Si Si8 0.846608 0.330655 0.291833
O O1 0.750000 0.783714 0.104859
O O2 0.918823 0.728717 0.122625
O O3 0.867155 0.000000 0.103073
O O4 0.864241 0.801660 0.019108
O O5 0.651130 0.230566 0.469193
O O6 0.522136 0.147329 0.399321
O O7 0.663446 0.273466 0.357799
O O8 0.668368 0.000000 0.400570
O O9 0.481948 0.500000 0.140207
O O10 0.416360 0.278501 0.082180
O O11 0.444197 0.252089 0.193445
O O12 0.858240 0.500000 0.513058
O O13 0.875746 0.725463 0.581408
O O14 0.000000 0.661433 0.500000
O O15 0.750000 0.794588 0.932971
O O16 0.873583 0.000000 0.935238
O O17 0.086407 0.229689 0.744387
O O18 0.929167 0.224113 0.692185
O O19 0.985716 0.000000 0.756055
O O20 0.379869 0.000000 0.375378
O O21 0.750000 0.320875 0.262308
O O22 0.881053 0.500000 0.292630
#
# Coordination Sequence:
#
# PCOD8210693 Si02
#       8
#     8   8   8   8   8   8   8   8
#     4   9  19  37  60  84 112 150 193 232 272 325
#     4   9  16  26  41  61  86 117 156 199 241 295
#     4  12  24  35  53  83 118 152 185 229 283 334
#     4   9  15  22  37  61  87 114 143 184 242 300
#     4   9  19  38  63  87 111 143 185 231 278 331
#     4  10  21  36  52  69  95 135 181 223 260 310
#     4   8  15  27  42  61  85 115 153 199 248 295
#     4  10  20  33  48  67  95 130 169 218 273 324
#
# _framework density 20.398516000000001
#
# number of rings (size 3 to 8) (size 9 to 14) (size 15 to 20)
#    0.000    2.500    0.000    4.500    0.000    9.000 
#    0.000    1.250    0.000    0.000    0.000    0.875 
#    0.000    1.000    0.000    0.000    0.000    0.000 
#
# Total GULP energy -793341.921386 kJ/mol
# GULP energy per Si atom -12395.967522 kJ/mol
# Density = 2.035209 g / cm^3
# Si number density = 20.398516 Si / 1000 Ang^3
#
#
#
# Elastic Constant Matrix: (Units=GPa)
#
#
# Indices 1 2 3 4 5 6 
#
# 1 34.3890 12.4200 9.1151 0.0000 0.0000 0.0000
# 2 12.4200 119.3961 41.1853 0.0000 0.0000 0.0000
# 3 9.1151 41.1853 89.7263 0.0000 0.0000 0.0000
# 4 0.0000 0.0000 0.0000 29.3701 0.0000 0.0000
# 5 0.0000 0.0000 0.0000 0.0000 -2.6411 0.0000
# 6 0.0000 0.0000 0.0000 0.0000 0.0000 13.7182
#
#
#
# Elastic Compliance Matrix: (Units=1/GPa)
#
#
# Indices 1 2 3 4 5 6 
#
# 1 0.030499 -0.002500 -0.001951 0.000000 0.000000 0.000000
# 2 -0.002500 0.010156 -0.004408 0.000000 0.000000 0.000000
# 3 -0.001951 -0.004408 0.013366 0.000000 0.000000 0.000000
# 4 0.000000 0.000000 0.000000 0.034048 0.000000 0.000000
# 5 0.000000 0.000000 0.000000 0.000000 -0.378630 0.000000
# 6 0.000000 0.000000 0.000000 0.000000 0.000000 0.072896
#
#
# Mechanical properties :
#
#
# Convention : Reuss Voigt Hill
#
# Bulk Modulus (GPa) = 27.54473 40.99470 34.26972
# Shear Modulus (GPa) = -26.61748 20.14218 -3.23765
#
# Velocity S-wave (km/s) = -3.61622 3.14575 -1.26121
# Velocity P-wave (km/s) = 1.97572 5.77364 3.83611
#
# Compressibility (1/GPa) = 0.03630458
#
# Stress axis : x y z
#
# Youngs Moduli (GPa) = 32.78803 98.46452 74.81437
#
# Poissons Ratio (x) = 0.24612 0.14596
# Poissons Ratio (y) = 0.08196 0.32976
# Poissons Ratio (z) = 0.06397 0.43401
#
# Static dielectric constant tensor:
#      x y z
#    x 3.391060 0.000000 0.000000 
#    y 0.000000 3.774640 0.000000 
#    z 0.000000 0.000000 3.787700 
# 
# 
# High freq. dielectric constant tensor:
#      x y z
#    x 1.761230 0.000000 0.000000 
#    y 0.000000 1.798170 0.000000 
#    z 0.000000 0.000000 1.797300 
# 
# From -- ./inp_files/33927.got.cif
#   From: 2010.03.12/outbox.cif.g09.slc.cpg/sg51_17_cif.got.tgz:33927.got - 2010.04.16 13:43:02.
