data_PCOD8210266
_publ_section_title
;
Structure prediction by ZEFSAII (Michael W. Deem and Ramdas Pophale) SiO2 
 PCOD8210266
Probable space group: P M M A
;
_chemical_formula_sum "Si O2"
_cell_formula_units_Z 40
_cell_length_a 8.977103
_cell_length_b 13.477736
_cell_length_c 19.746069
_cell_angle_alpha 90.000000
_cell_angle_beta 90.000000
_cell_angle_gamma 90.000000
_cell_volume 2389.097114
_symmetry_space_group_name_H-M "P M M A"
_symmetry_group_IT_number 51
_symmetry_cell_setting 'orthorhombic'
loop_
_space_group_symop_operation_xyz
x,y,z
1/2-x,-y,z
1/2+x,-y,-z
-x,y,-z
-x,-y,-z
1/2+x,y,-z
1/2-x,y,z
x,-y,z
loop_
_atom_site_type_symbol
_atom_site_label
_atom_site_fract_x
_atom_site_fract_y
_atom_site_fract_z
Si Si1 0.075495 0.113079 0.701763
Si Si2 0.426107 0.387112 0.071593
Si Si3 0.416640 0.882129 0.434436
Si Si4 0.575348 0.226764 0.165304
Si Si5 0.086225 0.885924 0.062227
O O1 0.250000 0.109995 0.688373
O O2 0.036433 0.197525 0.757452
O O3 0.997538 0.152083 0.633927
O O4 0.022336 0.000000 0.721083
O O5 0.250000 0.372966 0.065023
O O6 0.468226 0.500000 0.089723
O O7 0.487348 0.320649 0.134103
O O8 0.500000 0.356547 0.000000
O O9 0.500000 0.837427 0.500000
O O10 0.250000 0.839284 0.433703
O O11 0.416075 0.000000 0.438880
O O12 0.750000 0.244037 0.155095
O O13 0.518301 0.128801 0.126759
O O14 0.250000 0.835823 0.070899
O O15 0.109373 0.000000 0.047160
O O16 0.000000 0.833882 0.000000
#
# Coordination Sequence:
#
# PCOD8210266 Si02
#       5
#     8   8   8   8   8
#     4   9  18  31  45  64  93 127 159 189 223 265
#     4  10  21  37  55  72  90 114 148 192 239 286
#     4   9  16  26  42  63  88 121 159 195 227 260
#     4  11  21  32  48  68  92 120 149 186 232 279
#     4  10  20  32  45  61  84 116 153 189 222 262
#
# _framework density 16.742726999999999
#
# number of rings (size 3 to 8) (size 9 to 14) (size 15 to 20)
#    0.000    2.200    0.000    3.600    0.000    7.200 
#    0.000    2.000    0.000    0.000    0.000    0.000 
#    0.000    0.800    0.000    2.600    0.000    3.800 
#
# Total GULP energy -495625.108309 kJ/mol
# GULP energy per Si atom -12390.627708 kJ/mol
# Density = 1.670462 g / cm^3
# Si number density = 16.742727 Si / 1000 Ang^3
#
#
#
# Elastic Constant Matrix: (Units=GPa)
#
#
# Indices 1 2 3 4 5 6 
#
# 1 84.7612 31.1607 74.1754 0.0000 0.0000 0.0000
# 2 31.1607 71.3428 41.4109 0.0000 0.0000 0.0000
# 3 74.1754 41.4109 142.9025 0.0000 0.0000 0.0000
# 4 0.0000 0.0000 0.0000 17.9267 0.0000 0.0000
# 5 0.0000 0.0000 0.0000 0.0000 32.6988 0.0000
# 6 0.0000 0.0000 0.0000 0.0000 0.0000 18.8286
#
#
#
# Elastic Compliance Matrix: (Units=1/GPa)
#
#
# Indices 1 2 3 4 5 6 
#
# 1 0.022379 -0.003645 -0.010560 0.000000 0.000000 0.000000
# 2 -0.003645 0.017445 -0.003163 0.000000 0.000000 0.000000
# 3 -0.010560 -0.003163 0.013396 0.000000 0.000000 0.000000
# 4 0.000000 0.000000 0.000000 0.055783 0.000000 0.000000
# 5 0.000000 0.000000 0.000000 0.000000 0.030582 0.000000
# 6 0.000000 0.000000 0.000000 0.000000 0.000000 0.053111
#
#
# Mechanical properties :
#
#
# Convention : Reuss Voigt Hill
#
# Bulk Modulus (GPa) = 54.10297 65.83339 59.96818
# Shear Modulus (GPa) = 21.40484 24.04148 22.72316
#
# Velocity S-wave (km/s) = 3.57943 3.79348 3.68801
# Velocity P-wave (km/s) = 7.03332 7.65463 7.35054
#
# Compressibility (1/GPa) = 0.01848327
#
# Stress axis : x y z
#
# Youngs Moduli (GPa) = 44.68513 57.32291 74.65139
#
# Poissons Ratio (x) = 0.20895 0.78830
# Poissons Ratio (y) = 0.16288 0.23614
# Poissons Ratio (z) = 0.47186 0.18133
#
# Static dielectric constant tensor:
#      x y z
#    x 3.450700 0.000000 0.000000 
#    y 0.000000 2.884460 0.000000 
#    z 0.000000 0.000000 3.158880 
# 
# 
# High freq. dielectric constant tensor:
#      x y z
#    x 1.664630 0.000000 0.000000 
#    y 0.000000 1.604460 0.000000 
#    z 0.000000 0.000000 1.637120 
# 
# From -- ./inp_files/27205.got.cif
#   From: 2010.03.12/outbox.cif.g09.slc.cpg/sg51_14_cif.got.tgz:27205.got - 2010.04.16 13:43:02.
