data_PCOD8210015
_publ_section_title
;
Structure prediction by ZEFSAII (Michael W. Deem and Ramdas Pophale) SiO2 
 PCOD8210015
Probable space group: P M M A
;
_chemical_formula_sum "Si O2"
_cell_formula_units_Z 64
_cell_length_a 8.686760
_cell_length_b 15.226412
_cell_length_c 23.712247
_cell_angle_alpha 90.000000
_cell_angle_beta 90.000000
_cell_angle_gamma 90.000000
_cell_volume 3136.375913
_symmetry_space_group_name_H-M "P M M A"
_symmetry_group_IT_number 51
_symmetry_cell_setting 'orthorhombic'
loop_
_space_group_symop_operation_xyz
x,y,z
1/2-x,-y,z
1/2+x,-y,-z
-x,y,-z
-x,-y,-z
1/2+x,y,-z
1/2-x,y,z
x,-y,z
loop_
_atom_site_type_symbol
_atom_site_label
_atom_site_fract_x
_atom_site_fract_y
_atom_site_fract_z
Si Si1 0.074147 0.900115 0.140351
Si Si2 0.430498 0.760295 0.939532
Si Si3 0.073403 0.854018 0.744714
Si Si4 0.072409 0.352521 0.747140
Si Si5 0.069036 0.253542 0.560302
Si Si6 0.073551 0.401132 0.365263
Si Si7 0.573607 0.098995 0.628890
Si Si8 0.932845 0.597364 0.129707
O O1 0.250000 0.869614 0.133064
O O2 0.966038 0.839616 0.102465
O O3 0.028802 0.893315 0.205547
O O4 0.052818 0.000000 0.119984
O O5 0.250000 0.752659 0.946445
O O6 0.499023 0.669181 0.914131
O O7 0.500000 0.780242 0.000000
O O8 0.250000 0.879210 0.756177
O O9 0.051280 0.750632 0.740538
O O10 0.020339 0.896501 0.686620
O O11 0.250000 0.380732 0.740086
O O12 0.005970 0.382180 0.807630
O O13 0.971312 0.400790 0.700363
O O14 0.250000 0.239977 0.555869
O O15 0.000000 0.277405 0.500000
O O16 0.035784 0.334787 0.601449
O O17 0.995699 0.163615 0.582405
O O18 0.250000 0.370981 0.372317
O O19 0.050847 0.500000 0.388575
O O20 0.750000 0.125411 0.640641
O O21 0.561103 0.000000 0.605041
O O22 0.750000 0.604897 0.131077
O O23 0.986913 0.500000 0.110821
#
# Coordination Sequence:
#
# PCOD8210015 Si02
#       8
#     8   8   8   8   8   8   8   8
#     4  11  24  41  62  89 121 160 203 250 307 365
#     4  11  23  41  62  87 118 156 204 252 305 362
#     4  11  21  36  62  96 128 163 203 248 305 365
#     4  10  19  35  61  92 124 163 204 246 303 365
#     4  12  26  45  68  92 122 163 210 260 313 367
#     4  11  24  41  63  94 130 166 205 253 309 368
#     4  11  24  42  65  94 128 166 207 254 308 366
#     4   9  18  35  60  88 120 157 197 242 294 356
#
# _framework density 20.405716999999999
#
# number of rings (size 3 to 8) (size 9 to 14) (size 15 to 20)
#    0.000    1.250    2.500    3.750    0.000    6.500 
#    0.000    0.000    0.000    1.875    0.000    0.000 
#    0.000    0.000    0.000    0.000    0.000    0.000 
#
# Total GULP energy -793907.491702 kJ/mol
# GULP energy per Si atom -12404.804558 kJ/mol
# Density = 2.035927 g / cm^3
# Si number density = 20.405717 Si / 1000 Ang^3
#
#
#
# Elastic Constant Matrix: (Units=GPa)
#
#
# Indices 1 2 3 4 5 6 
#
# 1 67.3263 36.0647 9.0787 0.0000 0.0000 0.0000
# 2 36.0647 103.1254 20.4937 0.0000 0.0000 0.0000
# 3 9.0787 20.4937 79.2112 0.0000 0.0000 0.0000
# 4 0.0000 0.0000 0.0000 11.5085 0.0000 0.0000
# 5 0.0000 0.0000 0.0000 0.0000 31.2963 0.0000
# 6 0.0000 0.0000 0.0000 0.0000 0.0000 25.1933
#
#
#
# Elastic Compliance Matrix: (Units=1/GPa)
#
#
# Indices 1 2 3 4 5 6 
#
# 1 0.018293 -0.006305 -0.000465 0.000000 0.000000 0.000000
# 2 -0.006305 0.012396 -0.002484 0.000000 0.000000 0.000000
# 3 -0.000465 -0.002484 0.013321 0.000000 0.000000 0.000000
# 4 0.000000 0.000000 0.000000 0.086892 0.000000 0.000000
# 5 0.000000 0.000000 0.000000 0.000000 0.031953 0.000000
# 6 0.000000 0.000000 0.000000 0.000000 0.000000 0.039693
#
#
# Mechanical properties :
#
#
# Convention : Reuss Voigt Hill
#
# Bulk Modulus (GPa) = 39.21589 42.32632 40.77111
# Shear Modulus (GPa) = 21.78110 25.86802 23.82456
#
# Velocity S-wave (km/s) = 3.27066 3.56432 3.42064
# Velocity P-wave (km/s) = 5.78988 6.14220 5.96864
#
# Compressibility (1/GPa) = 0.02549987
#
# Stress axis : x y z
#
# Youngs Moduli (GPa) = 54.66526 80.67393 75.07181
#
# Poissons Ratio (x) = 0.50864 0.03494
# Poissons Ratio (y) = 0.34466 0.18651
# Poissons Ratio (z) = 0.02544 0.20042
#
# Static dielectric constant tensor:
#      x y z
#    x 3.641560 0.000000 0.000000 
#    y 0.000000 3.873210 0.000000 
#    z 0.000000 0.000000 3.661340 
# 
# 
# High freq. dielectric constant tensor:
#      x y z
#    x 1.792540 0.000000 0.000000 
#    y 0.000000 1.812910 0.000000 
#    z 0.000000 0.000000 1.793170 
# 
# From -- ./inp_files/34888.got.cif
#   From: 2010.03.12/outbox.cif.g09.slc.cpg/sg51_18_cif.got.tgz:34888.got - 2010.04.16 13:43:02.
