data_PCOD8210093
_publ_section_title
;
Structure prediction by ZEFSAII (Michael W. Deem and Ramdas Pophale) SiO2 
 PCOD8210093
Probable space group: P M M A
;
_chemical_formula_sum "Si O2"
_cell_formula_units_Z 40
_cell_length_a 8.683843
_cell_length_b 11.898510
_cell_length_c 20.428433
_cell_angle_alpha 90.000000
_cell_angle_beta 90.000000
_cell_angle_gamma 90.000000
_cell_volume 2110.763606
_symmetry_space_group_name_H-M "P M M A"
_symmetry_group_IT_number 51
_symmetry_cell_setting 'orthorhombic'
loop_
_space_group_symop_operation_xyz
x,y,z
1/2-x,-y,z
1/2+x,-y,-z
-x,y,-z
-x,-y,-z
1/2+x,y,-z
1/2-x,y,z
x,-y,z
loop_
_atom_site_type_symbol
_atom_site_label
_atom_site_fract_x
_atom_site_fract_y
_atom_site_fract_z
Si Si1 0.568315 0.767610 0.569263
Si Si2 0.570177 0.629772 0.070158
Si Si3 0.932395 0.769473 0.813547
Si Si4 0.432005 0.000000 0.369609
Si Si5 0.066656 0.625823 0.309044
Si Si6 0.568199 0.000000 0.225687
O O1 0.500000 0.731864 0.500000
O O2 0.750000 0.762596 0.564247
O O3 0.513787 0.892262 0.589205
O O4 0.506602 0.680607 0.623580
O O5 0.750000 0.658976 0.070331
O O6 0.540720 0.500000 0.088450
O O7 0.480820 0.706391 0.121140
O O8 0.500000 0.658326 0.000000
O O9 0.750000 0.781936 0.810591
O O10 0.995316 0.698934 0.751506
O O11 0.006788 0.891976 0.812887
O O12 0.512027 0.000000 0.299906
O O13 0.250000 0.000000 0.356522
O O14 0.250000 0.623992 0.307913
O O15 0.999464 0.500000 0.303641
O O16 0.750000 0.000000 0.224194
#
# Coordination Sequence:
#
# PCOD8210093 Si02
#       6
#     8   8   8   4   8   4
#     4  10  20  34  53  77 109 144 187 236 288 346
#     4  10  21  38  61  92 128 162 198 239 283 333
#     4  11  21  38  62  86 116 154 197 240 289 347
#     4  10  19  37  57  77 105 145 190 237 291 349
#     4   9  18  33  55  81 109 145 188 232 282 343
#     4  12  24  37  58  87 117 147 188 241 297 351
#
# _framework density 18.950489000000001
#
# number of rings (size 3 to 8) (size 9 to 14) (size 15 to 20)
#    0.000    1.800    2.000    3.000    0.000    3.200 
#    0.000    0.500    0.000    2.400    0.000    0.000 
#    0.000    0.000    0.000    0.000    0.000    0.000 
#
# Total GULP energy -496138.204700 kJ/mol
# GULP energy per Si atom -12403.455118 kJ/mol
# Density = 1.890736 g / cm^3
# Si number density = 18.950489 Si / 1000 Ang^3
#
#
#
# Elastic Constant Matrix: (Units=GPa)
#
#
# Indices 1 2 3 4 5 6 
#
# 1 50.0060 24.9319 24.3598 0.0000 0.0000 0.0000
# 2 24.9319 139.8183 63.2137 0.0000 0.0000 0.0000
# 3 24.3598 63.2137 126.8306 0.0000 0.0000 0.0000
# 4 0.0000 0.0000 0.0000 42.7608 0.0000 0.0000
# 5 0.0000 0.0000 0.0000 0.0000 35.1716 0.0000
# 6 0.0000 0.0000 0.0000 0.0000 0.0000 13.4918
#
#
#
# Elastic Compliance Matrix: (Units=1/GPa)
#
#
# Indices 1 2 3 4 5 6 
#
# 1 0.022822 -0.002695 -0.003040 0.000000 0.000000 0.000000
# 2 -0.002695 0.009551 -0.004243 0.000000 0.000000 0.000000
# 3 -0.003040 -0.004243 0.010583 0.000000 0.000000 0.000000
# 4 0.000000 0.000000 0.000000 0.023386 0.000000 0.000000
# 5 0.000000 0.000000 0.000000 0.000000 0.028432 0.000000
# 6 0.000000 0.000000 0.000000 0.000000 0.000000 0.074119
#
#
# Mechanical properties :
#
#
# Convention : Reuss Voigt Hill
#
# Bulk Modulus (GPa) = 43.47739 60.18507 51.83123
# Shear Modulus (GPa) = 25.44327 31.89481 28.66904
#
# Velocity S-wave (km/s) = 3.66815 4.10696 3.89374
# Velocity P-wave (km/s) = 6.39788 7.37005 6.90110
#
# Compressibility (1/GPa) = 0.02300046
#
# Stress axis : x y z
#
# Youngs Moduli (GPa) = 43.81688 104.70260 94.49120
#
# Poissons Ratio (x) = 0.28218 0.28726
# Poissons Ratio (y) = 0.11809 0.40089
# Poissons Ratio (z) = 0.13321 0.44421
#
# Static dielectric constant tensor:
#      x y z
#    x 3.279690 0.000000 0.000000 
#    y 0.000000 3.777310 0.000000 
#    z 0.000000 0.000000 3.544960 
# 
# 
# High freq. dielectric constant tensor:
#      x y z
#    x 1.719750 0.000000 0.000000 
#    y 0.000000 1.744510 0.000000 
#    z 0.000000 0.000000 1.742640 
# 
# From -- ./inp_files/31393.got.cif
#   From: 2010.03.12/outbox.cif.g09.slc.cpg/sg51_16_cif.got.tgz:31393.got - 2010.04.16 13:43:02.
