data_PCOD8210959
_publ_section_title
;
Structure prediction by ZEFSAII (Michael W. Deem and Ramdas Pophale) SiO2 
 PCOD8210959
Probable space group: P M M A
;
_chemical_formula_sum "Si O2"
_cell_formula_units_Z 52
_cell_length_a 9.800134
_cell_length_b 20.989654
_cell_length_c 14.341190
_cell_angle_alpha 90.000000
_cell_angle_beta 90.000000
_cell_angle_gamma 90.000000
_cell_volume 2950.003173
_symmetry_space_group_name_H-M "P M M A"
_symmetry_group_IT_number 51
_symmetry_cell_setting 'orthorhombic'
loop_
_space_group_symop_operation_xyz
x,y,z
1/2-x,-y,z
1/2+x,-y,-z
-x,y,-z
-x,-y,-z
1/2+x,y,-z
1/2-x,y,z
x,-y,z
loop_
_atom_site_type_symbol
_atom_site_label
_atom_site_fract_x
_atom_site_fract_y
_atom_site_fract_z
Si Si1 0.903846 0.619053 0.919082
Si Si2 0.592762 0.227129 0.716783
Si Si3 0.401862 0.000000 0.585467
Si Si4 0.100212 0.769619 0.075147
Si Si5 0.589107 0.138098 0.406389
Si Si6 0.026764 0.375471 0.287291
Si Si7 0.250000 0.426048 0.423002
Si Si8 0.750000 0.423440 0.366079
O O1 0.750000 0.598157 0.942597
O O2 0.921741 0.694452 0.918993
O O3 0.940815 0.595184 0.814959
O O4 0.000000 0.588946 0.000000
O O5 0.750000 0.216703 0.682627
O O6 0.577171 0.201977 0.822361
O O7 0.479843 0.188892 0.660497
O O8 0.555896 0.300793 0.709248
O O9 0.500000 0.000000 0.500000
O O10 0.423175 0.066924 0.640744
O O11 0.250000 0.000000 0.543048
O O12 0.250000 0.786002 0.038383
O O13 0.000000 0.801462 0.000000
O O14 0.500000 0.139922 0.500000
O O15 0.750000 0.155135 0.423684
O O16 0.116304 0.407212 0.367214
O O17 0.873708 0.392625 0.310525
O O18 0.250000 0.500000 0.438661
O O19 0.250000 0.397095 0.527575
O O20 0.750000 0.500000 0.359565
#
# Coordination Sequence:
#
# PCOD8210959 Si02
#       8
#     8   8   4   8   8   8   4   4
#     4   9  17  31  54  81 105 135 168 206 264 327
#     4  10  20  35  51  78 112 138 171 215 264 318
#     4   8  16  32  50  70  99 138 185 222 253 300
#     4   8  15  28  46  70 101 133 165 206 252 305
#     4  10  20  33  51  75 106 145 182 219 260 307
#     4  11  21  39  58  80 110 139 171 224 277 319
#     4  11  22  42  63  75  95 140 187 221 265 319
#     4  11  26  40  57  83 103 132 187 233 261 313
#
# _framework density 17.627099000000001
#
# number of rings (size 3 to 8) (size 9 to 14) (size 15 to 20)
#    0.000    2.308    1.538    2.308    2.154    3.692 
#    2.769    0.000    0.000    2.769    0.000    0.538 
#    0.000    0.000    0.000    0.000    0.000    0.000 
#
# Total GULP energy -644288.693881 kJ/mol
# GULP energy per Si atom -12390.167190 kJ/mol
# Density = 1.758698 g / cm^3
# Si number density = 17.627099 Si / 1000 Ang^3
#
#
#
# Elastic Constant Matrix: (Units=GPa)
#
#
# Indices 1 2 3 4 5 6 
#
# 1 136.0929 19.0703 51.8928 0.0000 0.0000 0.0000
# 2 19.0703 35.0879 15.8932 0.0000 0.0000 0.0000
# 3 51.8928 15.8932 92.3417 0.0000 0.0000 0.0000
# 4 0.0000 0.0000 0.0000 -6.8479 0.0000 0.0000
# 5 0.0000 0.0000 0.0000 0.0000 38.1722 0.0000
# 6 0.0000 0.0000 0.0000 0.0000 0.0000 21.4486
#
#
#
# Elastic Compliance Matrix: (Units=1/GPa)
#
#
# Indices 1 2 3 4 5 6 
#
# 1 0.009638 -0.003021 -0.004896 0.000000 0.000000 0.000000
# 2 -0.003021 0.031856 -0.003785 0.000000 0.000000 0.000000
# 3 -0.004896 -0.003785 0.014233 0.000000 0.000000 0.000000
# 4 0.000000 0.000000 0.000000 -0.146030 0.000000 0.000000
# 5 0.000000 0.000000 0.000000 0.000000 0.026197 0.000000
# 6 0.000000 0.000000 0.000000 0.000000 0.000000 0.046623
#
#
# Mechanical properties :
#
#
# Convention : Reuss Voigt Hill
#
# Bulk Modulus (GPa) = 30.93864 48.58170 39.76017
# Shear Modulus (GPa) = 299.46944 22.33231 160.90087
#
# Velocity S-wave (km/s) = 13.04838 3.56326 9.56444
# Velocity P-wave (km/s) = 15.63981 6.67456 12.02400
#
# Compressibility (1/GPa) = 0.03232204
#
# Stress axis : x y z
#
# Youngs Moduli (GPa) = 103.75355 31.39109 70.26162
#
# Poissons Ratio (x) = 0.09482 0.34403
# Poissons Ratio (y) = 0.31339 0.26597
# Poissons Ratio (z) = 0.50803 0.11883
#
# Static dielectric constant tensor:
#      x y z
#    x 3.520040 0.000000 0.000000 
#    y 0.000000 3.210010 0.000000 
#    z 0.000000 0.000000 3.494740 
# 
# 
# High freq. dielectric constant tensor:
#      x y z
#    x 1.701580 0.000000 0.000000 
#    y 0.000000 1.648510 0.000000 
#    z 0.000000 0.000000 1.675360 
# 
# From -- ./inp_files/21677.got.cif
#   From: 2010.03.12/outbox.cif.g09.slc.cpg/sg51_11_cif.got.tgz:21677.got - 2010.04.16 13:43:02.
