data_PCOD8210772
_publ_section_title
;
Structure prediction by ZEFSAII (Michael W. Deem and Ramdas Pophale) SiO2 
 PCOD8210772
Probable space group: P M M A
;
_chemical_formula_sum "Si O2"
_cell_formula_units_Z 64
_cell_length_a 8.844357
_cell_length_b 14.077215
_cell_length_c 28.521352
_cell_angle_alpha 90.000000
_cell_angle_beta 90.000000
_cell_angle_gamma 90.000000
_cell_volume 3551.019986
_symmetry_space_group_name_H-M "P M M A"
_symmetry_group_IT_number 51
_symmetry_cell_setting 'orthorhombic'
loop_
_space_group_symop_operation_xyz
x,y,z
1/2-x,-y,z
1/2+x,-y,-z
-x,y,-z
-x,-y,-z
1/2+x,y,-z
1/2-x,y,z
x,-y,z
loop_
_atom_site_type_symbol
_atom_site_label
_atom_site_fract_x
_atom_site_fract_y
_atom_site_fract_z
Si Si1 0.927830 0.108104 0.951419
Si Si2 0.578321 0.887644 0.778645
Si Si3 0.071544 0.393187 0.279685
Si Si4 0.075040 0.393608 0.815027
Si Si5 0.070172 0.727075 0.367839
Si Si6 0.573209 0.110098 0.318406
Si Si7 0.425368 0.790910 0.865756
Si Si8 0.427260 0.608779 0.549942
O O1 0.750000 0.115936 0.956287
O O2 0.981518 0.177842 0.910835
O O3 0.977773 0.000000 0.939747
O O4 0.000000 0.142454 0.000000
O O5 0.750000 0.848847 0.781537
O O6 0.508172 0.855825 0.729218
O O7 0.478069 0.847379 0.820285
O O8 0.575467 0.000000 0.783539
O O9 0.250000 0.390821 0.278205
O O10 0.009743 0.500000 0.286169
O O11 0.011373 0.332667 0.323209
O O12 0.011076 0.352413 0.230462
O O13 0.250000 0.395289 0.801743
O O14 0.018394 0.500000 0.828731
O O15 0.044944 0.321776 0.858055
O O16 0.250000 0.732479 0.371264
O O17 0.999741 0.832071 0.361707
O O18 0.006196 0.679394 0.414179
O O19 0.750000 0.131463 0.313822
O O20 0.541492 0.000000 0.328615
O O21 0.250000 0.813090 0.874342
O O22 0.500000 0.630265 0.500000
O O23 0.250000 0.629960 0.547552
O O24 0.459367 0.500000 0.565063
#
# Coordination Sequence:
#
# PCOD8210772 Si02
#       8
#     8   8   8   8   8   8   8   8
#     4  10  21  37  56  78 104 131 159 197 247 302
#     4  10  20  33  49  72 104 139 173 210 254 305
#     4   9  18  31  47  71 103 136 169 206 249 297
#     4   9  19  34  49  68  98 135 172 209 248 290
#     4  11  21  33  53  78 105 138 175 215 259 311
#     4  10  21  36  52  72 102 139 178 220 262 305
#     4  11  21  32  51  76 101 133 171 210 252 299
#     4  10  21  37  57  81 109 139 171 210 257 309
#
# _framework density 18.022988999999999
#
# number of rings (size 3 to 8) (size 9 to 14) (size 15 to 20)
#    0.000    2.000    0.000    3.750    0.000    9.000 
#    0.000    1.250    0.000    0.750    0.000    0.000 
#    0.000    0.000    0.000    0.000    0.000    0.000 
#
# Total GULP energy -793769.275477 kJ/mol
# GULP energy per Si atom -12402.644929 kJ/mol
# Density = 1.798197 g / cm^3
# Si number density = 18.022989 Si / 1000 Ang^3
#
#
#
# Elastic Constant Matrix: (Units=GPa)
#
#
# Indices 1 2 3 4 5 6 
#
# 1 68.2802 36.8800 35.6349 0.0000 0.0000 0.0000
# 2 36.8800 70.7957 62.3437 0.0000 0.0000 0.0000
# 3 35.6349 62.3437 102.6801 0.0000 0.0000 0.0000
# 4 0.0000 0.0000 0.0000 30.2722 0.0000 0.0000
# 5 0.0000 0.0000 0.0000 0.0000 35.7116 0.0000
# 6 0.0000 0.0000 0.0000 0.0000 0.0000 26.7785
#
#
#
# Elastic Compliance Matrix: (Units=1/GPa)
#
#
# Indices 1 2 3 4 5 6 
#
# 1 0.020467 -0.009471 -0.001353 0.000000 0.000000 0.000000
# 2 -0.009471 0.034738 -0.017805 0.000000 0.000000 0.000000
# 3 -0.001353 -0.017805 0.021019 0.000000 0.000000 0.000000
# 4 0.000000 0.000000 0.000000 0.033034 0.000000 0.000000
# 5 0.000000 0.000000 0.000000 0.000000 0.028002 0.000000
# 6 0.000000 0.000000 0.000000 0.000000 0.000000 0.037343
#
#
# Mechanical properties :
#
#
# Convention : Reuss Voigt Hill
#
# Bulk Modulus (GPa) = 52.72257 56.83036 54.77647
# Shear Modulus (GPa) = 20.99234 25.67897 23.33566
#
# Velocity S-wave (km/s) = 3.41655 3.77873 3.60220
# Velocity P-wave (km/s) = 6.69927 7.11611 6.91083
#
# Compressibility (1/GPa) = 0.01896721
#
# Stress axis : x y z
#
# Youngs Moduli (GPa) = 48.85938 28.78685 47.57606
#
# Poissons Ratio (x) = 0.27263 0.06436
# Poissons Ratio (y) = 0.46273 0.84709
# Poissons Ratio (z) = 0.06609 0.51255
#
# Static dielectric constant tensor:
#      x y z
#    x 3.425010 0.000000 0.000000 
#    y 0.000000 3.527430 0.000000 
#    z 0.000000 0.000000 3.207620 
# 
# 
# High freq. dielectric constant tensor:
#      x y z
#    x 1.710480 0.000000 0.000000 
#    y 0.000000 1.699250 0.000000 
#    z 0.000000 0.000000 1.679910 
# 
# From -- ./inp_files/34895.got.cif
#   From: 2010.03.12/outbox.cif.g09.slc.cpg/sg51_18_cif.got.tgz:34895.got - 2010.04.16 13:43:02.
