data_PCOD8210758
_publ_section_title
;
Structure prediction by ZEFSAII (Michael W. Deem and Ramdas Pophale) SiO2 
 PCOD8210758
Probable space group: P M M A
;
_chemical_formula_sum "Si O2"
_cell_formula_units_Z 48
_cell_length_a 9.089229
_cell_length_b 13.344988
_cell_length_c 19.601670
_cell_angle_alpha 90.000000
_cell_angle_beta 90.000000
_cell_angle_gamma 90.000000
_cell_volume 2377.597342
_symmetry_space_group_name_H-M "P M M A"
_symmetry_group_IT_number 51
_symmetry_cell_setting 'orthorhombic'
loop_
_space_group_symop_operation_xyz
x,y,z
1/2-x,-y,z
1/2+x,-y,-z
-x,y,-z
-x,-y,-z
1/2+x,y,-z
1/2-x,y,z
x,-y,z
loop_
_atom_site_type_symbol
_atom_site_label
_atom_site_fract_x
_atom_site_fract_y
_atom_site_fract_z
Si Si1 0.077341 0.885074 0.571727
Si Si2 0.086385 0.119273 0.065383
Si Si3 0.411812 0.115280 0.808167
Si Si4 0.578802 0.613938 0.795871
Si Si5 0.076889 0.211633 0.306072
Si Si6 0.584458 0.381040 0.066816
O O1 0.250000 0.862652 0.565226
O O2 0.000000 0.867503 0.500000
O O3 0.005249 0.803252 0.622191
O O4 0.050982 0.000000 0.596532
O O5 0.250000 0.164609 0.065755
O O6 0.997085 0.165886 0.128707
O O7 0.094366 0.000000 0.068172
O O8 0.000000 0.157972 0.000000
O O9 0.250000 0.164864 0.797968
O O10 0.513040 0.124727 0.741947
O O11 0.389480 0.000000 0.825224
O O12 0.750000 0.622977 0.813384
O O13 0.535514 0.500000 0.776768
O O14 0.538514 0.682042 0.729902
O O15 0.493033 0.652572 0.862642
O O16 0.250000 0.197194 0.316899
O O17 0.750000 0.338498 0.066323
O O18 0.584282 0.500000 0.063162
O O19 0.500000 0.338081 0.000000
#
# Coordination Sequence:
#
# PCOD8210758 Si02
#       6
#     8   8   8   8   8   8
#     4  10  21  38  61  89 120 151 180 213 257 311
#     4   9  16  27  44  65  91 127 171 216 261 310
#     4  10  20  33  49  71 101 136 172 212 260 313
#     4   9  19  36  55  76 106 144 185 229 277 327
#     4  11  22  35  55  82 110 141 177 218 265 317
#     4   9  16  27  47  74 102 135 177 227 283 337
#
# _framework density 20.188448999999999
#
# number of rings (size 3 to 8) (size 9 to 14) (size 15 to 20)
#    0.000    2.333    0.000    3.000    0.000    9.333 
#    0.000    0.833    0.000    4.500    0.000    0.000 
#    0.000    0.000    0.000    0.000    0.000    0.000 
#
# Total GULP energy -595072.710673 kJ/mol
# GULP energy per Si atom -12397.348139 kJ/mol
# Density = 2.014250 g / cm^3
# Si number density = 20.188449 Si / 1000 Ang^3
#
#
#
# Elastic Constant Matrix: (Units=GPa)
#
#
# Indices 1 2 3 4 5 6 
#
# 1 162.4104 50.6797 84.4474 0.0000 0.0000 0.0000
# 2 50.6797 66.6034 42.1603 0.0000 0.0000 0.0000
# 3 84.4474 42.1603 152.6934 0.0000 0.0000 0.0000
# 4 0.0000 0.0000 0.0000 46.9057 0.0000 0.0000
# 5 0.0000 0.0000 0.0000 0.0000 42.8535 0.0000
# 6 0.0000 0.0000 0.0000 0.0000 0.0000 474.3642
#
#
#
# Elastic Compliance Matrix: (Units=1/GPa)
#
#
# Indices 1 2 3 4 5 6 
#
# 1 0.009796 -0.004877 -0.004071 0.000000 0.000000 0.000000
# 2 -0.004877 0.020622 -0.002997 0.000000 0.000000 0.000000
# 3 -0.004071 -0.002997 0.009628 0.000000 0.000000 0.000000
# 4 0.000000 0.000000 0.000000 0.021319 0.000000 0.000000
# 5 0.000000 0.000000 0.000000 0.000000 0.023335 0.000000
# 6 0.000000 0.000000 0.000000 0.000000 0.000000 0.002108
#
#
# Mechanical properties :
#
#
# Convention : Reuss Voigt Hill
#
# Bulk Modulus (GPa) = 61.89446 81.80909 71.85177
# Shear Modulus (GPa) = 43.07232 126.45267 84.76249
#
# Velocity S-wave (km/s) = 4.62401 7.92289 6.48666
# Velocity P-wave (km/s) = 7.69633 11.14930 9.57968
#
# Compressibility (1/GPa) = 0.01615654
#
# Stress axis : x y z
#
# Youngs Moduli (GPa) = 102.08415 48.49157 103.86323
#
# Poissons Ratio (x) = 0.23648 0.42283
# Poissons Ratio (y) = 0.49785 0.31126
# Poissons Ratio (z) = 0.41559 0.14532
#
# Static dielectric constant tensor:
#      x y z
#    x 3.902310 0.000000 0.000000 
#    y 0.000000 3.493810 0.000000 
#    z 0.000000 0.000000 3.706340 
# 
# 
# High freq. dielectric constant tensor:
#      x y z
#    x 1.804980 0.000000 0.000000 
#    y 0.000000 1.778320 0.000000 
#    z 0.000000 0.000000 1.771190 
# 
# From -- ./inp_files/27509.got.cif
#   From: 2010.03.12/outbox.cif.g09.slc.cpg/sg51_14_cif.got.tgz:27509.got - 2010.04.16 13:43:02.
