data_PCOD8210587
_publ_section_title
;
Structure prediction by ZEFSAII (Michael W. Deem and Ramdas Pophale) SiO2 
 PCOD8210587
Probable space group: P M M A
;
_chemical_formula_sum "Si O2"
_cell_formula_units_Z 48
_cell_length_a 16.111586
_cell_length_b 9.628464
_cell_length_c 17.860382
_cell_angle_alpha 90.000000
_cell_angle_beta 90.000000
_cell_angle_gamma 90.000000
_cell_volume 2770.677948
_symmetry_space_group_name_H-M "P M M A"
_symmetry_group_IT_number 51
_symmetry_cell_setting 'orthorhombic'
loop_
_space_group_symop_operation_xyz
x,y,z
1/2-x,-y,z
1/2+x,-y,-z
-x,y,-z
-x,-y,-z
1/2+x,y,-z
1/2-x,y,z
x,-y,z
loop_
_atom_site_type_symbol
_atom_site_label
_atom_site_fract_x
_atom_site_fract_y
_atom_site_fract_z
Si Si1 0.750000 0.166522 0.940207
Si Si2 0.844878 0.159117 0.340751
Si Si3 0.056453 0.840052 0.805369
Si Si4 0.250000 0.340539 0.210024
Si Si5 0.073923 0.659408 0.272633
Si Si6 0.524789 0.661741 0.417657
Si Si7 0.912221 0.163643 0.028946
O O1 0.750000 0.236534 0.859334
O O2 0.750000 0.000000 0.931416
O O3 0.832186 0.220722 0.984058
O O4 0.750000 0.201072 0.346169
O O5 0.873429 0.187493 0.256089
O O6 0.892325 0.255806 0.398573
O O7 0.860905 0.000000 0.363140
O O8 0.096553 0.794889 0.884088
O O9 0.974767 0.751156 0.787913
O O10 0.027672 0.000000 0.807847
O O11 0.250000 0.500000 0.181071
O O12 0.328806 0.311056 0.263027
O O13 0.051525 0.500000 0.255883
O O14 0.047579 0.698315 0.357708
O O15 0.500000 0.711779 0.500000
O O16 0.546477 0.500000 0.416776
O O17 0.913500 0.000000 0.017752
O O18 0.000000 0.226707 0.000000
#
# Coordination Sequence:
#
# PCOD8210587 Si02
#       7
#     4   8   8   4   8   8   8
#     4  10  20  32  50  72  97 128 162 208 249 282
#     4   9  18  31  49  74 101 132 164 195 239 294
#     4   9  17  30  50  71  97 129 164 201 240 289
#     4  10  20  34  50  68  95 130 164 200 241 292
#     4   9  18  33  51  71  96 128 163 198 243 291
#     4   9  18  34  53  75 100 126 161 203 244 289
#     4   9  17  28  44  70  98 123 157 202 248 284
#
# _framework density 17.324280999999999
#
# number of rings (size 3 to 8) (size 9 to 14) (size 15 to 20)
#    0.000    2.833    0.000    1.000    1.167    2.667 
#    1.500    0.833    0.000    3.000    0.000    0.000 
#    0.000    0.000    0.000    0.000    0.000    0.000 
#
# Total GULP energy -595144.044270 kJ/mol
# GULP energy per Si atom -12398.834256 kJ/mol
# Density = 1.728485 g / cm^3
# Si number density = 17.324281 Si / 1000 Ang^3
#
#
#
# Elastic Constant Matrix: (Units=GPa)
#
#
# Indices 1 2 3 4 5 6 
#
# 1 149.4246 45.2791 69.3226 0.0000 0.0000 0.0000
# 2 45.2791 42.6852 41.5282 0.0000 0.0000 0.0000
# 3 69.3226 41.5282 118.7832 0.0000 0.0000 0.0000
# 4 0.0000 0.0000 0.0000 24.5321 0.0000 0.0000
# 5 0.0000 0.0000 0.0000 0.0000 21.1594 0.0000
# 6 0.0000 0.0000 0.0000 0.0000 0.0000 24.6237
#
#
#
# Elastic Compliance Matrix: (Units=1/GPa)
#
#
# Indices 1 2 3 4 5 6 
#
# 1 0.010724 -0.008012 -0.003458 0.000000 0.000000 0.000000
# 2 -0.008012 0.041489 -0.009829 0.000000 0.000000 0.000000
# 3 -0.003458 -0.009829 0.013873 0.000000 0.000000 0.000000
# 4 0.000000 0.000000 0.000000 0.040763 0.000000 0.000000
# 5 0.000000 0.000000 0.000000 0.000000 0.047260 0.000000
# 6 0.000000 0.000000 0.000000 0.000000 0.000000 0.040611
#
#
# Mechanical properties :
#
#
# Convention : Reuss Voigt Hill
#
# Bulk Modulus (GPa) = 42.57403 69.23920 55.90661
# Shear Modulus (GPa) = 20.39583 24.38060 22.38821
#
# Velocity S-wave (km/s) = 3.43490 3.75548 3.59876
# Velocity P-wave (km/s) = 6.35291 7.67191 7.04335
#
# Compressibility (1/GPa) = 0.02348850
#
# Stress axis : x y z
#
# Youngs Moduli (GPa) = 93.24632 24.10273 72.08238
#
# Poissons Ratio (x) = 0.19311 0.24923
# Poissons Ratio (y) = 0.74710 0.70851
# Poissons Ratio (z) = 0.32241 0.23691
#
# Static dielectric constant tensor:
#      x y z
#    x 3.372570 0.000000 0.000000 
#    y 0.000000 3.084910 0.000000 
#    z 0.000000 0.000000 3.282820 
# 
# 
# High freq. dielectric constant tensor:
#      x y z
#    x 1.672670 0.000000 0.000000 
#    y 0.000000 1.648200 0.000000 
#    z 0.000000 0.000000 1.670240 
# 
# From -- ./inp_files/29598.got.cif
#   From: 2010.03.12/outbox.cif.g09.slc.cpg/sg51_15_cif.got.tgz:29598.got - 2010.04.16 13:43:02.
