data_PCOD8210965
_publ_section_title
;
Structure prediction by ZEFSAII (Michael W. Deem and Ramdas Pophale) SiO2 
 PCOD8210965
Probable space group: P M M A
;
_chemical_formula_sum "Si O2"
_cell_formula_units_Z 64
_cell_length_a 16.923158
_cell_length_b 9.148443
_cell_length_c 23.019539
_cell_angle_alpha 90.000000
_cell_angle_beta 90.000000
_cell_angle_gamma 90.000000
_cell_volume 3563.897605
_symmetry_space_group_name_H-M "P M M A"
_symmetry_group_IT_number 51
_symmetry_cell_setting 'orthorhombic'
loop_
_space_group_symop_operation_xyz
x,y,z
1/2-x,-y,z
1/2+x,-y,-z
-x,y,-z
-x,-y,-z
1/2+x,y,-z
1/2-x,y,z
x,-y,z
loop_
_atom_site_type_symbol
_atom_site_label
_atom_site_fract_x
_atom_site_fract_y
_atom_site_fract_z
Si Si1 0.401098 0.832066 0.929284
Si Si2 0.658066 0.330974 0.960817
Si Si3 0.003951 0.329391 0.763465
Si Si4 0.983913 0.671494 0.632079
Si Si5 0.923849 0.164260 0.459649
Si Si6 0.338925 0.668911 0.446309
Si Si7 0.932864 0.168177 0.868711
Si Si8 0.337319 0.333160 0.823889
O O1 0.490821 0.814681 0.909164
O O2 0.343611 0.768625 0.880146
O O3 0.378442 0.000000 0.940498
O O4 0.391908 0.743873 0.988456
O O5 0.750000 0.311010 0.974219
O O6 0.633888 0.500000 0.956738
O O7 0.638388 0.253413 0.899734
O O8 0.985585 0.500000 0.772031
O O9 0.096262 0.293874 0.776234
O O10 0.984279 0.277137 0.698612
O O11 0.947566 0.238792 0.805905
O O12 0.999743 0.500000 0.626712
O O13 0.899237 0.716372 0.604659
O O14 0.056077 0.751546 0.599704
O O15 0.853191 0.242522 0.494255
O O16 0.000000 0.167586 0.500000
O O17 0.897719 0.000000 0.444381
O O18 0.250000 0.700075 0.424236
O O19 0.351816 0.500000 0.461762
O O20 0.909290 0.000000 0.859826
O O21 0.250000 0.309923 0.796284
O O22 0.348532 0.500000 0.844979
#
# Coordination Sequence:
#
# PCOD8210965 Si02
#       8
#     8   8   8   8   8   8   8   8
#     4  10  20  33  51  75  99 124 157 198 247 303
#     4  11  23  36  51  73  99 127 161 202 249 300
#     4   9  18  33  52  72  97 132 171 208 245 287
#     4   9  17  31  51  73  98 131 171 208 244 290
#     4   9  17  29  47  71  98 127 157 193 240 290
#     4   9  17  30  49  73 100 130 165 206 249 291
#     4  10  21  36  53  73  98 129 165 204 247 297
#     4   9  17  30  48  70  96 126 161 201 245 294
#
# _framework density 17.957865999999999
#
# number of rings (size 3 to 8) (size 9 to 14) (size 15 to 20)
#    0.000    2.500    0.000    2.250    0.000    8.000 
#    0.000    1.250    0.000    4.500    0.000    0.000 
#    0.000    0.000    0.000    0.000    0.000    0.000 
#
# Total GULP energy -793676.959041 kJ/mol
# GULP energy per Si atom -12401.202485 kJ/mol
# Density = 1.791699 g / cm^3
# Si number density = 17.957866 Si / 1000 Ang^3
#
#
#
# Elastic Constant Matrix: (Units=GPa)
#
#
# Indices 1 2 3 4 5 6 
#
# 1 53.9593 29.0929 38.5256 0.0000 0.0000 0.0000
# 2 29.0929 95.5958 61.6994 0.0000 0.0000 0.0000
# 3 38.5256 61.6994 135.2526 0.0000 0.0000 0.0000
# 4 0.0000 0.0000 0.0000 19.5223 0.0000 0.0000
# 5 0.0000 0.0000 0.0000 0.0000 18.0774 0.0000
# 6 0.0000 0.0000 0.0000 0.0000 0.0000 16.5068
#
#
#
# Elastic Compliance Matrix: (Units=1/GPa)
#
#
# Indices 1 2 3 4 5 6 
#
# 1 0.024379 -0.004163 -0.005045 0.000000 0.000000 0.000000
# 2 -0.004163 0.015537 -0.005902 0.000000 0.000000 0.000000
# 3 -0.005045 -0.005902 0.011523 0.000000 0.000000 0.000000
# 4 0.000000 0.000000 0.000000 0.051223 0.000000 0.000000
# 5 0.000000 0.000000 0.000000 0.000000 0.055318 0.000000
# 6 0.000000 0.000000 0.000000 0.000000 0.000000 0.060581
#
#
# Mechanical properties :
#
#
# Convention : Reuss Voigt Hill
#
# Bulk Modulus (GPa) = 47.12776 60.38260 53.75518
# Shear Modulus (GPa) = 19.54242 21.18730 20.36486
#
# Velocity S-wave (km/s) = 3.30242 3.43860 3.37120
# Velocity P-wave (km/s) = 6.39076 7.03298 6.71955
#
# Compressibility (1/GPa) = 0.02121892
#
# Stress axis : x y z
#
# Youngs Moduli (GPa) = 41.01863 64.36337 86.78412
#
# Poissons Ratio (x) = 0.26796 0.43783
# Poissons Ratio (y) = 0.17077 0.51217
# Poissons Ratio (z) = 0.20694 0.37985
#
# Static dielectric constant tensor:
#      x y z
#    x 3.237250 0.000000 0.000000 
#    y 0.000000 3.420340 0.000000 
#    z 0.000000 0.000000 3.239750 
# 
# 
# High freq. dielectric constant tensor:
#      x y z
#    x 1.682870 0.000000 0.000000 
#    y 0.000000 1.700360 0.000000 
#    z 0.000000 0.000000 1.680920 
# 
# From -- ./inp_files/33887.got.cif
#   From: 2010.03.12/outbox.cif.g09.slc.cpg/sg51_17_cif.got.tgz:33887.got - 2010.04.16 13:43:02.
