data_PCOD8210482
_publ_section_title
;
Structure prediction by ZEFSAII (Michael W. Deem and Ramdas Pophale) SiO2 
 PCOD8210482
Probable space group: P M M A
;
_chemical_formula_sum "Si O2"
_cell_formula_units_Z 40
_cell_length_a 14.494126
_cell_length_b 9.184767
_cell_length_c 16.095257
_cell_angle_alpha 90.000000
_cell_angle_beta 90.000000
_cell_angle_gamma 90.000000
_cell_volume 2142.683827
_symmetry_space_group_name_H-M "P M M A"
_symmetry_group_IT_number 51
_symmetry_cell_setting 'orthorhombic'
loop_
_space_group_symop_operation_xyz
x,y,z
1/2-x,-y,z
1/2+x,-y,-z
-x,y,-z
-x,-y,-z
1/2+x,y,-z
1/2-x,y,z
x,-y,z
loop_
_atom_site_type_symbol
_atom_site_label
_atom_site_fract_x
_atom_site_fract_y
_atom_site_fract_z
Si Si1 0.012937 0.828205 0.799368
Si Si2 0.147461 0.335993 0.114228
Si Si3 0.398466 0.158730 0.964385
Si Si4 0.022234 0.327701 0.630451
Si Si5 0.353269 0.327817 0.478118
O O1 0.914969 0.762054 0.826656
O O2 0.045780 0.757229 0.714091
O O3 0.091875 0.792129 0.868057
O O4 0.999587 0.000000 0.789028
O O5 0.250000 0.334855 0.152412
O O6 0.107711 0.500000 0.111533
O O7 0.155012 0.276497 0.019493
O O8 0.349396 0.000000 0.969825
O O9 0.500000 0.142817 0.000000
O O10 0.023871 0.500000 0.646755
O O11 0.921114 0.278589 0.596592
O O12 0.101164 0.280316 0.565295
O O13 0.250000 0.259773 0.468422
O O14 0.346450 0.500000 0.476641
#
# Coordination Sequence:
#
# PCOD8210482 Si02
#       5
#     8   8   8   8   8
#     4  10  20  33  49  70  98 130 161 196 241 292
#     4  10  20  32  48  72  98 124 160 205 246 285
#     4   8  16  31  48  65  89 125 161 190 230 283
#     4   9  17  30  51  76  98 126 165 206 248 293
#     4   8  15  30  51  73  98 128 162 202 250 301
#
# _framework density 18.668175999999999
#
# number of rings (size 3 to 8) (size 9 to 14) (size 15 to 20)
#    0.000    3.000    0.000    3.600    0.000    6.800 
#    0.000    5.000    0.000    5.400    0.000    0.000 
#    0.000    0.000    0.000    0.000    0.000    0.000 
#
# Total GULP energy -495699.513264 kJ/mol
# GULP energy per Si atom -12392.487832 kJ/mol
# Density = 1.862569 g / cm^3
# Si number density = 18.668176 Si / 1000 Ang^3
#
#
#
# Elastic Constant Matrix: (Units=GPa)
#
#
# Indices 1 2 3 4 5 6 
#
# 1 56.1191 0.2968 -5.2779 0.0000 0.0000 0.0000
# 2 0.2968 65.0060 21.5213 0.0000 0.0000 0.0000
# 3 -5.2779 21.5213 92.6472 0.0000 0.0000 0.0000
# 4 0.0000 0.0000 0.0000 3.8744 0.0000 0.0000
# 5 0.0000 0.0000 0.0000 0.0000 14.9708 0.0000
# 6 0.0000 0.0000 0.0000 0.0000 0.0000 -66.9569
#
#
#
# Elastic Compliance Matrix: (Units=1/GPa)
#
#
# Indices 1 2 3 4 5 6 
#
# 1 0.017928 -0.000455 0.001127 0.000000 0.000000 0.000000
# 2 -0.000455 0.016676 -0.003900 0.000000 0.000000 0.000000
# 3 0.001127 -0.003900 0.011764 0.000000 0.000000 0.000000
# 4 0.000000 0.000000 0.000000 0.258104 0.000000 0.000000
# 5 0.000000 0.000000 0.000000 0.000000 0.066797 0.000000
# 6 0.000000 0.000000 0.000000 0.000000 0.000000 -0.014935
#
#
# Mechanical properties :
#
#
# Convention : Reuss Voigt Hill
#
# Bulk Modulus (GPa) = 25.05492 27.42807 26.24150
# Shear Modulus (GPa) = 13.29461 3.52647 8.41054
#
# Velocity S-wave (km/s) = 2.67152 1.37591 2.12487
# Velocity P-wave (km/s) = 4.79232 4.15313 4.48413
#
# Compressibility (1/GPa) = 0.03991232
#
# Stress axis : x y z
#
# Youngs Moduli (GPa) = 55.77980 59.96516 85.00719
#
# Poissons Ratio (x) = 0.02728 -0.09580
# Poissons Ratio (y) = 0.02538 0.33150
# Poissons Ratio (z) = -0.06286 0.23385
#
# Static dielectric constant tensor:
#      x y z
#    x 3.536230 0.000000 0.000000 
#    y 0.000000 3.268550 0.000000 
#    z 0.000000 0.000000 3.590830 
# 
# 
# High freq. dielectric constant tensor:
#      x y z
#    x 1.709160 0.000000 0.000000 
#    y 0.000000 1.704630 0.000000 
#    z 0.000000 0.000000 1.721920 
# 
# From -- ./inp_files/29249.got.cif
#   From: 2010.03.12/outbox.cif.g09.slc.cpg/sg51_15_cif.got.tgz:29249.got - 2010.04.16 13:43:02.
