data_PCOD8210768
_publ_section_title
;
Structure prediction by ZEFSAII (Michael W. Deem and Ramdas Pophale) SiO2 
 PCOD8210768
Probable space group: P M M A
;
_chemical_formula_sum "Si O2"
_cell_formula_units_Z 52
_cell_length_a 8.661128
_cell_length_b 15.692949
_cell_length_c 21.547939
_cell_angle_alpha 90.000000
_cell_angle_beta 90.000000
_cell_angle_gamma 90.000000
_cell_volume 2928.766563
_symmetry_space_group_name_H-M "P M M A"
_symmetry_group_IT_number 51
_symmetry_cell_setting 'orthorhombic'
loop_
_space_group_symop_operation_xyz
x,y,z
1/2-x,-y,z
1/2+x,-y,-z
-x,y,-z
-x,-y,-z
1/2+x,y,-z
1/2-x,y,z
x,-y,z
loop_
_atom_site_type_symbol
_atom_site_label
_atom_site_fract_x
_atom_site_fract_y
_atom_site_fract_z
Si Si1 0.068405 0.500000 0.718193
Si Si2 0.577694 0.904325 0.212030
Si Si3 0.070192 0.352217 0.932529
Si Si4 0.073862 0.249549 0.164947
Si Si5 0.068830 0.678049 0.298412
Si Si6 0.934494 0.000000 0.431656
Si Si7 0.069971 0.500000 0.146588
Si Si8 0.926371 0.154524 0.348368
O O1 0.250000 0.500000 0.710772
O O2 0.004493 0.585948 0.685056
O O3 0.025592 0.500000 0.790476
O O4 0.750000 0.872307 0.194535
O O5 0.447380 0.850161 0.177485
O O6 0.555205 0.897678 0.285297
O O7 0.552224 0.000000 0.190082
O O8 0.250000 0.376802 0.936737
O O9 0.041509 0.267750 0.892306
O O10 0.970548 0.420148 0.895218
O O11 0.000000 0.340832 0.000000
O O12 0.250000 0.269331 0.146773
O O13 0.024211 0.301208 0.226898
O O14 0.250000 0.670285 0.306504
O O15 0.012746 0.753821 0.344330
O O16 0.994232 0.088133 0.399353
O O17 0.000000 0.000000 0.500000
O O18 0.750000 0.000000 0.429829
O O19 0.250000 0.500000 0.164113
O O20 0.750000 0.177027 0.363472
#
# Coordination Sequence:
#
# PCOD8210768 Si02
#       8
#     4   8   8   8   8   4   4   8
#     4  12  22  33  53  78 105 143 179 215 268 325
#     4   9  16  29  51  75 100 132 170 211 256 311
#     4  12  24  38  54  71  94 129 169 210 259 317
#     4  10  20  33  49  72 101 130 164 211 263 314
#     4  10  20  33  51  75 107 140 174 223 271 313
#     4  10  20  34  54  82 118 158 191 228 265 308
#     4  12  23  37  52  72 101 129 167 213 256 311
#     4   9  17  32  51  75 108 145 185 221 260 311
#
# _framework density 17.754913999999999
#
# number of rings (size 3 to 8) (size 9 to 14) (size 15 to 20)
#    0.000    1.692    2.308    3.923    0.000    2.154 
#    0.000    0.000    0.000    0.462    0.000    0.538 
#    0.000    0.000    0.000    0.000    0.000    0.000 
#
# Total GULP energy -644575.547899 kJ/mol
# GULP energy per Si atom -12395.683613 kJ/mol
# Density = 1.771450 g / cm^3
# Si number density = 17.754914 Si / 1000 Ang^3
#
#
#
# Elastic Constant Matrix: (Units=GPa)
#
#
# Indices 1 2 3 4 5 6 
#
# 1 80.4744 45.7310 24.0916 0.0000 0.0000 0.0000
# 2 45.7310 132.4060 46.5440 0.0000 0.0000 0.0000
# 3 24.0916 46.5440 65.5984 0.0000 0.0000 0.0000
# 4 0.0000 0.0000 0.0000 20.1036 0.0000 0.0000
# 5 0.0000 0.0000 0.0000 0.0000 23.3781 0.0000
# 6 0.0000 0.0000 0.0000 0.0000 0.0000 28.2807
#
#
#
# Elastic Compliance Matrix: (Units=1/GPa)
#
#
# Indices 1 2 3 4 5 6 
#
# 1 0.015779 -0.004547 -0.002569 0.000000 0.000000 0.000000
# 2 -0.004547 0.011372 -0.006399 0.000000 0.000000 0.000000
# 3 -0.002569 -0.006399 0.020728 0.000000 0.000000 0.000000
# 4 0.000000 0.000000 0.000000 0.049742 0.000000 0.000000
# 5 0.000000 0.000000 0.000000 0.000000 0.042775 0.000000
# 6 0.000000 0.000000 0.000000 0.000000 0.000000 0.035360
#
#
# Mechanical properties :
#
#
# Convention : Reuss Voigt Hill
#
# Bulk Modulus (GPa) = 47.96202 56.80133 52.38167
# Shear Modulus (GPa) = 23.83940 25.15996 24.49968
#
# Velocity S-wave (km/s) = 3.66825 3.76848 3.71871
# Velocity P-wave (km/s) = 6.70921 7.14119 6.92857
#
# Compressibility (1/GPa) = 0.02084983
#
# Stress axis : x y z
#
# Youngs Moduli (GPa) = 63.37458 87.93206 48.24359
#
# Poissons Ratio (x) = 0.39981 0.12393
# Poissons Ratio (y) = 0.28815 0.30872
# Poissons Ratio (z) = 0.16280 0.56269
#
# Static dielectric constant tensor:
#      x y z
#    x 3.296860 0.000000 0.000000 
#    y 0.000000 3.442870 0.000000 
#    z 0.000000 0.000000 3.053900 
# 
# 
# High freq. dielectric constant tensor:
#      x y z
#    x 1.692000 0.000000 0.000000 
#    y 0.000000 1.697120 0.000000 
#    z 0.000000 0.000000 1.641680 
# 
# From -- ./inp_files/31813.got.cif
#   From: 2010.03.12/outbox.cif.g09.slc.cpg/sg51_16_cif.got.tgz:31813.got - 2010.04.16 13:43:02.
