data_PCOD8210987
_publ_section_title
;
Structure prediction by ZEFSAII (Michael W. Deem and Ramdas Pophale) SiO2 
 PCOD8210987
Probable space group: P M M A
;
_chemical_formula_sum "Si O2"
_cell_formula_units_Z 64
_cell_length_a 8.932747
_cell_length_b 17.248045
_cell_length_c 20.643786
_cell_angle_alpha 90.000000
_cell_angle_beta 90.000000
_cell_angle_gamma 90.000000
_cell_volume 3180.638113
_symmetry_space_group_name_H-M "P M M A"
_symmetry_group_IT_number 51
_symmetry_cell_setting 'orthorhombic'
loop_
_space_group_symop_operation_xyz
x,y,z
1/2-x,-y,z
1/2+x,-y,-z
-x,y,-z
-x,-y,-z
1/2+x,y,-z
1/2-x,y,z
x,-y,z
loop_
_atom_site_type_symbol
_atom_site_label
_atom_site_fract_x
_atom_site_fract_y
_atom_site_fract_z
Si Si1 0.577228 0.745869 0.064224
Si Si2 0.582013 0.084961 0.102967
Si Si3 0.076890 0.297288 0.197632
Si Si4 0.578128 0.412259 0.299209
Si Si5 0.082276 0.914332 0.651835
Si Si6 0.571967 0.626279 0.567282
Si Si7 0.581325 0.877790 0.772456
Si Si8 0.577890 0.196706 0.562496
O O1 0.750000 0.721509 0.065040
O O2 0.558058 0.839579 0.058257
O O3 0.502522 0.707667 0.127687
O O4 0.500000 0.710646 0.000000
O O5 0.750000 0.090464 0.132622
O O6 0.455288 0.090090 0.157093
O O7 0.563010 0.000000 0.067773
O O8 0.250000 0.320376 0.187133
O O9 0.063138 0.214703 0.232523
O O10 0.001260 0.359116 0.245534
O O11 0.750000 0.384810 0.308035
O O12 0.571465 0.500000 0.272835
O O13 0.496639 0.413153 0.369193
O O14 0.250000 0.882019 0.643294
O O15 0.038475 0.919283 0.726665
O O16 0.963319 0.855285 0.623034
O O17 0.069795 0.000000 0.620849
O O18 0.500000 0.593670 0.500000
O O19 0.750000 0.612148 0.565273
O O20 0.526387 0.715893 0.574695
O O21 0.750000 0.902446 0.754571
O O22 0.500000 0.160086 0.500000
O O23 0.750000 0.192280 0.548555
#
# Coordination Sequence:
#
# PCOD8210987 Si02
#       8
#     8   8   8   8   8   8   8   8
#     4  10  20  35  56  82 113 150 193 240 287 336
#     4   9  18  32  49  72 106 147 187 228 277 330
#     4  10  21  38  60  85 113 147 188 232 279 334
#     4  11  24  40  60  89 122 153 185 223 271 328
#     4  11  23  35  48  69  98 134 176 223 276 330
#     4  10  21  38  61  88 117 151 190 229 272 326
#     4  10  20  33  51  76 103 134 177 226 273 323
#     4  10  21  37  56  76  98 129 172 220 269 322
#
# _framework density 20.121748
#
# number of rings (size 3 to 8) (size 9 to 14) (size 15 to 20)
#    0.000    1.875    0.000    3.750    0.000   11.000 
#    0.000    0.000    0.000    0.375    0.000    0.000 
#    0.000    0.000    0.000    0.000    0.000    0.000 
#
# Total GULP energy -793314.510428 kJ/mol
# GULP energy per Si atom -12395.539225 kJ/mol
# Density = 2.007595 g / cm^3
# Si number density = 20.121748 Si / 1000 Ang^3
#
#
#
# Elastic Constant Matrix: (Units=GPa)
#
#
# Indices 1 2 3 4 5 6 
#
# 1 103.7870 42.5962 50.0902 0.0000 0.0000 0.0000
# 2 42.5962 69.6243 36.2715 0.0000 0.0000 0.0000
# 3 50.0902 36.2715 104.5506 0.0000 0.0000 0.0000
# 4 0.0000 0.0000 0.0000 8.1590 0.0000 0.0000
# 5 0.0000 0.0000 0.0000 0.0000 38.6686 0.0000
# 6 0.0000 0.0000 0.0000 0.0000 0.0000 19.9492
#
#
#
# Elastic Compliance Matrix: (Units=1/GPa)
#
#
# Indices 1 2 3 4 5 6 
#
# 1 0.014569 -0.006441 -0.004745 0.000000 0.000000 0.000000
# 2 -0.006441 0.020379 -0.003984 0.000000 0.000000 0.000000
# 3 -0.004745 -0.003984 0.013220 0.000000 0.000000 0.000000
# 4 0.000000 0.000000 0.000000 0.122564 0.000000 0.000000
# 5 0.000000 0.000000 0.000000 0.000000 0.025861 0.000000
# 6 0.000000 0.000000 0.000000 0.000000 0.000000 0.050127
#
#
# Mechanical properties :
#
#
# Convention : Reuss Voigt Hill
#
# Bulk Modulus (GPa) = 56.09401 59.54195 57.81798
# Shear Modulus (GPa) = 17.66761 23.28896 20.47829
#
# Velocity S-wave (km/s) = 2.96638 3.40575 3.19363
# Velocity P-wave (km/s) = 6.29844 6.71719 6.51118
#
# Compressibility (1/GPa) = 0.01782722
#
# Stress axis : x y z
#
# Youngs Moduli (GPa) = 68.63926 49.07000 75.64041
#
# Poissons Ratio (x) = 0.31607 0.35894
# Poissons Ratio (y) = 0.44211 0.30136
# Poissons Ratio (z) = 0.32572 0.19550
#
# Static dielectric constant tensor:
#      x y z
#    x 3.739520 0.000000 0.000000 
#    y 0.000000 3.553200 0.000000 
#    z 0.000000 0.000000 3.534680 
# 
# 
# High freq. dielectric constant tensor:
#      x y z
#    x 1.801360 0.000000 0.000000 
#    y 0.000000 1.769770 0.000000 
#    z 0.000000 0.000000 1.775600 
# 
# From -- ./inp_files/32331.got.cif
#   From: 2010.03.12/outbox.cif.g09.slc.cpg/sg51_17_cif.got.tgz:32331.got - 2010.04.16 13:43:02.
