data_PCOD8210257
_publ_section_title
;
Structure prediction by ZEFSAII (Michael W. Deem and Ramdas Pophale) SiO2 
 PCOD8210257
Probable space group: P M M A
;
_chemical_formula_sum "Si O2"
_cell_formula_units_Z 52
_cell_length_a 8.870598
_cell_length_b 15.528611
_cell_length_c 20.570508
_cell_angle_alpha 90.000000
_cell_angle_beta 90.000000
_cell_angle_gamma 90.000000
_cell_volume 2833.547687
_symmetry_space_group_name_H-M "P M M A"
_symmetry_group_IT_number 51
_symmetry_cell_setting 'orthorhombic'
loop_
_space_group_symop_operation_xyz
x,y,z
1/2-x,-y,z
1/2+x,-y,-z
-x,y,-z
-x,-y,-z
1/2+x,y,-z
1/2-x,y,z
x,-y,z
loop_
_atom_site_type_symbol
_atom_site_label
_atom_site_fract_x
_atom_site_fract_y
_atom_site_fract_z
Si Si1 0.570116 0.784107 0.678223
Si Si2 0.079579 0.629436 0.827837
Si Si3 0.573985 0.900995 0.430959
Si Si4 0.577849 0.175437 0.186745
Si Si5 0.417781 0.100949 0.064147
Si Si6 0.923467 0.500000 0.067229
Si Si7 0.073054 0.593488 0.302290
O O1 0.750000 0.787924 0.679736
O O2 0.507190 0.839446 0.619613
O O3 0.509450 0.826739 0.744639
O O4 0.511938 0.684223 0.667375
O O5 0.250000 0.602620 0.807622
O O6 0.069005 0.729616 0.842099
O O7 0.027661 0.584833 0.893837
O O8 0.966733 0.596465 0.773151
O O9 0.500000 0.881984 0.500000
O O10 0.750000 0.878746 0.434362
O O11 0.547597 0.000000 0.410252
O O12 0.750000 0.145736 0.199177
O O13 0.504577 0.115676 0.131981
O O14 0.250000 0.141594 0.068509
O O15 0.405122 0.000000 0.054189
O O16 0.500000 0.140535 0.000000
O O17 0.750000 0.500000 0.052656
O O18 0.000000 0.500000 0.000000
O O19 0.250000 0.593253 0.310924
O O20 0.011872 0.500000 0.330966
#
# Coordination Sequence:
#
# PCOD8210257 Si02
#       7
#     8   8   8   8   8   4   8
#     4  10  20  34  54  83 115 145 181 225 269 318
#     4   9  18  32  48  67  93 126 164 207 255 308
#     4  10  21  38  60  85 114 149 185 221 266 321
#     4  10  20  34  53  77 104 134 172 219 268 315
#     4  10  21  37  55  73  95 128 170 215 267 326
#     4  10  20  32  44  62  90 124 163 206 253 306
#     4   9  17  30  51  77 104 136 174 215 262 311
#
# _framework density 18.351554
#
# number of rings (size 3 to 8) (size 9 to 14) (size 15 to 20)
#    0.000    2.308    0.769    1.846    0.000    4.923 
#    0.000    1.538    0.000    0.462    0.000    0.000 
#    0.000    0.000    0.000    0.000    0.000    0.000 
#
# Total GULP energy -644359.824991 kJ/mol
# GULP energy per Si atom -12391.535096 kJ/mol
# Density = 1.830978 g / cm^3
# Si number density = 18.351554 Si / 1000 Ang^3
#
#
#
# Elastic Constant Matrix: (Units=GPa)
#
#
# Indices 1 2 3 4 5 6 
#
# 1 87.4875 36.7873 49.1100 0.0000 0.0000 0.0000
# 2 36.7873 78.1737 58.9179 0.0000 0.0000 0.0000
# 3 49.1100 58.9179 112.4384 0.0000 0.0000 0.0000
# 4 0.0000 0.0000 0.0000 38.3834 0.0000 0.0000
# 5 0.0000 0.0000 0.0000 0.0000 35.1977 0.0000
# 6 0.0000 0.0000 0.0000 0.0000 0.0000 20.3818
#
#
#
# Elastic Compliance Matrix: (Units=1/GPa)
#
#
# Indices 1 2 3 4 5 6 
#
# 1 0.015759 -0.003683 -0.004953 0.000000 0.000000 0.000000
# 2 -0.003683 0.022002 -0.009921 0.000000 0.000000 0.000000
# 3 -0.004953 -0.009921 0.016256 0.000000 0.000000 0.000000
# 4 0.000000 0.000000 0.000000 0.026053 0.000000 0.000000
# 5 0.000000 0.000000 0.000000 0.000000 0.028411 0.000000
# 6 0.000000 0.000000 0.000000 0.000000 0.000000 0.049063
#
#
# Mechanical properties :
#
#
# Convention : Reuss Voigt Hill
#
# Bulk Modulus (GPa) = 59.15955 63.08111 61.12033
# Shear Modulus (GPa) = 24.96350 27.67819 26.32084
#
# Velocity S-wave (km/s) = 3.69222 3.88779 3.79127
# Velocity P-wave (km/s) = 7.10517 7.38929 7.24862
#
# Compressibility (1/GPa) = 0.01690344
#
# Stress axis : x y z
#
# Youngs Moduli (GPa) = 63.45455 45.45041 61.51685
#
# Poissons Ratio (x) = 0.16738 0.30472
# Poissons Ratio (y) = 0.23369 0.61028
# Poissons Ratio (z) = 0.31432 0.45089
#
# Static dielectric constant tensor:
#      x y z
#    x 3.490730 0.000000 0.000000 
#    y 0.000000 4.464940 0.000000 
#    z 0.000000 0.000000 3.118750 
# 
# 
# High freq. dielectric constant tensor:
#      x y z
#    x 1.718520 0.000000 0.000000 
#    y 0.000000 1.717530 0.000000 
#    z 0.000000 0.000000 1.689000 
# 
# From -- ./inp_files/31700.got.cif
#   From: 2010.03.12/outbox.cif.g09.slc.cpg/sg51_16_cif.got.tgz:31700.got - 2010.04.16 13:43:02.
