data_PCOD8210770
_publ_section_title
;
Structure prediction by ZEFSAII (Michael W. Deem and Ramdas Pophale) SiO2 
 PCOD8210770
Probable space group: P M M A
;
_chemical_formula_sum "Si O2"
_cell_formula_units_Z 56
_cell_length_a 8.931048
_cell_length_b 15.441347
_cell_length_c 20.059208
_cell_angle_alpha 90.000000
_cell_angle_beta 90.000000
_cell_angle_gamma 90.000000
_cell_volume 2766.313447
_symmetry_space_group_name_H-M "P M M A"
_symmetry_group_IT_number 51
_symmetry_cell_setting 'orthorhombic'
loop_
_space_group_symop_operation_xyz
x,y,z
1/2-x,-y,z
1/2+x,-y,-z
-x,y,-z
-x,-y,-z
1/2+x,y,-z
1/2-x,y,z
x,-y,z
loop_
_atom_site_type_symbol
_atom_site_label
_atom_site_fract_x
_atom_site_fract_y
_atom_site_fract_z
Si Si1 0.076097 0.602089 0.838122
Si Si2 0.427859 0.256120 0.071872
Si Si3 0.913430 0.400603 0.708276
Si Si4 0.086244 0.899668 0.706313
Si Si5 0.071537 0.841221 0.564640
Si Si6 0.073851 0.901739 0.163145
Si Si7 0.071587 0.346011 0.435690
O O1 0.250000 0.622657 0.846631
O O2 0.043409 0.500000 0.849741
O O3 0.983791 0.657587 0.891212
O O4 0.027342 0.634782 0.764087
O O5 0.250000 0.261219 0.066416
O O6 0.480095 0.166993 0.107856
O O7 0.500000 0.253889 0.000000
O O8 0.750000 0.354123 0.714757
O O9 0.890450 0.500000 0.723597
O O10 0.976360 0.390988 0.633390
O O11 0.250000 0.854565 0.710416
O O12 0.015822 0.884686 0.633274
O O13 0.983282 0.864352 0.765832
O O14 0.104714 0.000000 0.718039
O O15 0.250000 0.842438 0.558070
O O16 0.000000 0.889963 0.500000
O O17 0.005392 0.746245 0.565992
O O18 0.250000 0.903855 0.167876
O O19 0.014806 0.000000 0.146891
O O20 0.250000 0.340954 0.443741
O O21 0.000000 0.396050 0.500000
#
# Coordination Sequence:
#
# PCOD8210770 Si02
#       7
#     8   8   8   8   8   8   8
#     4  10  22  40  62  89 120 154 194 240 288 340
#     4  11  24  41  63  92 122 155 193 232 281 341
#     4   9  19  36  56  79 108 144 185 230 283 339
#     4   9  19  35  54  78 107 141 183 230 282 336
#     4  10  20  33  49  72 103 141 183 231 281 333
#     4   9  20  39  61  87 119 153 192 236 282 337
#     4  10  20  33  50  73 104 142 184 230 280 334
#
# _framework density 20.243549999999999
#
# number of rings (size 3 to 8) (size 9 to 14) (size 15 to 20)
#    0.000    2.286    0.000    2.571    2.000    5.429 
#    0.000    0.000    0.000    0.000    0.000    0.000 
#    0.000    0.000    0.000    0.000    0.000    0.000 
#
# Total GULP energy -693933.287018 kJ/mol
# GULP energy per Si atom -12391.665840 kJ/mol
# Density = 2.019747 g / cm^3
# Si number density = 20.243550 Si / 1000 Ang^3
#
#
#
# Elastic Constant Matrix: (Units=GPa)
#
#
# Indices 1 2 3 4 5 6 
#
# 1 78.8300 38.7678 67.1936 0.0000 0.0000 0.0000
# 2 38.7678 61.9537 54.8598 0.0000 0.0000 0.0000
# 3 67.1936 54.8598 196.2795 0.0000 0.0000 0.0000
# 4 0.0000 0.0000 0.0000 26.9114 0.0000 0.0000
# 5 0.0000 0.0000 0.0000 0.0000 41.6591 0.0000
# 6 0.0000 0.0000 0.0000 0.0000 0.0000 18.3484
#
#
#
# Elastic Compliance Matrix: (Units=1/GPa)
#
#
# Indices 1 2 3 4 5 6 
#
# 1 0.021160 -0.009072 -0.004708 0.000000 0.000000 0.000000
# 2 -0.009072 0.025339 -0.003977 0.000000 0.000000 0.000000
# 3 -0.004708 -0.003977 0.007818 0.000000 0.000000 0.000000
# 4 0.000000 0.000000 0.000000 0.037159 0.000000 0.000000
# 5 0.000000 0.000000 0.000000 0.000000 0.024004 0.000000
# 6 0.000000 0.000000 0.000000 0.000000 0.000000 0.054501
#
#
# Mechanical properties :
#
#
# Convention : Reuss Voigt Hill
#
# Bulk Modulus (GPa) = 53.18081 73.18952 63.18516
# Shear Modulus (GPa) = 23.61124 29.13323 26.37224
#
# Velocity S-wave (km/s) = 3.41890 3.79771 3.61328
# Velocity P-wave (km/s) = 6.47400 7.44736 6.97767
#
# Compressibility (1/GPa) = 0.01880378
#
# Stress axis : x y z
#
# Youngs Moduli (GPa) = 47.25813 39.46458 127.90871
#
# Poissons Ratio (x) = 0.35802 0.60224
# Poissons Ratio (y) = 0.42872 0.50864
# Poissons Ratio (z) = 0.22251 0.15693
#
# Static dielectric constant tensor:
#      x y z
#    x 3.908600 0.000000 0.000000 
#    y 0.000000 3.644700 0.000000 
#    z 0.000000 0.000000 4.403880 
# 
# 
# High freq. dielectric constant tensor:
#      x y z
#    x 1.789780 0.000000 0.000000 
#    y 0.000000 1.775060 0.000000 
#    z 0.000000 0.000000 1.803470 
# 
# From -- ./inp_files/32031.got.cif
#   From: 2010.03.12/outbox.cif.g09.slc.cpg/sg51_17_cif.got.tgz:32031.got - 2010.04.16 13:43:02.
