data_PCOD8210301
_publ_section_title
;
Structure prediction by ZEFSAII (Michael W. Deem and Ramdas Pophale) SiO2 
 PCOD8210301
Probable space group: P M M A
;
_chemical_formula_sum "Si O2"
_cell_formula_units_Z 60
_cell_length_a 8.905128
_cell_length_b 20.746257
_cell_length_c 17.800019
_cell_angle_alpha 90.000000
_cell_angle_beta 90.000000
_cell_angle_gamma 90.000000
_cell_volume 3288.519229
_symmetry_space_group_name_H-M "P M M A"
_symmetry_group_IT_number 51
_symmetry_cell_setting 'orthorhombic'
loop_
_space_group_symop_operation_xyz
x,y,z
1/2-x,-y,z
1/2+x,-y,-z
-x,y,-z
-x,-y,-z
1/2+x,y,-z
1/2-x,y,z
x,-y,z
loop_
_atom_site_type_symbol
_atom_site_label
_atom_site_fract_x
_atom_site_fract_y
_atom_site_fract_z
Si Si1 0.927340 0.000000 0.080554
Si Si2 0.074424 0.072608 0.577999
Si Si3 0.426730 0.570958 0.225776
Si Si4 0.420752 0.304469 0.763113
Si Si5 0.924761 0.834087 0.287538
Si Si6 0.927540 0.753824 0.075279
Si Si7 0.426571 0.875373 0.140078
Si Si8 0.085692 0.573758 0.930417
O O1 0.981873 0.060475 0.126931
O O2 0.750000 0.000000 0.072635
O O3 0.000000 0.000000 0.000000
O O4 0.250000 0.073229 0.564845
O O5 0.028847 0.127792 0.637419
O O6 0.000000 0.092392 0.500000
O O7 0.023550 0.000000 0.603464
O O8 0.250000 0.573020 0.226616
O O9 0.480914 0.500000 0.256493
O O10 0.488312 0.633622 0.270158
O O11 0.484479 0.580942 0.142039
O O12 0.250000 0.325960 0.759323
O O13 0.449322 0.243422 0.707922
O O14 0.463930 0.288958 0.850474
O O15 0.750000 0.847696 0.265592
O O16 0.040220 0.857989 0.225669
O O17 0.750000 0.764797 0.066847
O O18 0.010253 0.822012 0.083621
O O19 0.000000 0.721864 0.000000
O O20 0.250000 0.884783 0.126755
O O21 0.250000 0.607793 0.919227
O O22 0.115476 0.500000 0.950385
O O23 0.000000 0.607244 0.000000
#
# Coordination Sequence:
#
# PCOD8210301 Si02
#       8
#     4   8   8   8   8   8   8   8
#     4  12  24  38  52  68  95 128 167 218 270 316
#     4   9  18  33  55  84 116 149 178 204 239 282
#     4  10  20  32  46  65  90 119 154 200 254 309
#     4   9  19  34  50  69  95 128 170 212 253 304
#     4   9  19  36  55  77 106 141 175 208 248 296
#     4  10  20  35  52  69  90 122 163 210 263 316
#     4  11  22  35  51  74  98 126 167 213 261 310
#     4   9  16  26  40  57  79 109 146 190 243 301
#
# _framework density 18.245294000000001
#
# number of rings (size 3 to 8) (size 9 to 14) (size 15 to 20)
#    0.000    2.267    0.000    4.200    0.933    6.133 
#    0.000    1.333    0.000    0.000    0.000    0.000 
#    0.000    0.533    0.000    1.200    0.000    2.133 
#
# Total GULP energy -743505.583281 kJ/mol
# GULP energy per Si atom -12391.759721 kJ/mol
# Density = 1.820377 g / cm^3
# Si number density = 18.245294 Si / 1000 Ang^3
#
#
#
# Elastic Constant Matrix: (Units=GPa)
#
#
# Indices 1 2 3 4 5 6 
#
# 1 85.0992 53.4828 20.6632 0.0000 0.0000 0.0000
# 2 53.4828 145.2003 37.8162 0.0000 0.0000 0.0000
# 3 20.6632 37.8162 62.8687 0.0000 0.0000 0.0000
# 4 0.0000 0.0000 0.0000 72.4076 0.0000 0.0000
# 5 0.0000 0.0000 0.0000 0.0000 23.0445 0.0000
# 6 0.0000 0.0000 0.0000 0.0000 0.0000 23.5312
#
#
#
# Elastic Compliance Matrix: (Units=1/GPa)
#
#
# Indices 1 2 3 4 5 6 
#
# 1 0.015493 -0.005194 -0.001968 0.000000 0.000000 0.000000
# 2 -0.005194 0.009908 -0.004252 0.000000 0.000000 0.000000
# 3 -0.001968 -0.004252 0.019111 0.000000 0.000000 0.000000
# 4 0.000000 0.000000 0.000000 0.013811 0.000000 0.000000
# 5 0.000000 0.000000 0.000000 0.000000 0.043394 0.000000
# 6 0.000000 0.000000 0.000000 0.000000 0.000000 0.042497
#
#
# Mechanical properties :
#
#
# Convention : Reuss Voigt Hill
#
# Bulk Modulus (GPa) = 46.11936 57.45473 51.78704
# Shear Modulus (GPa) = 28.69106 35.87705 32.28405
#
# Velocity S-wave (km/s) = 3.96980 4.43919 4.21104
# Velocity P-wave (km/s) = 6.80769 7.60485 7.21729
#
# Compressibility (1/GPa) = 0.02168287
#
# Stress axis : x y z
#
# Youngs Moduli (GPa) = 64.54414 100.93073 52.32642
#
# Poissons Ratio (x) = 0.52426 0.10297
# Poissons Ratio (y) = 0.33526 0.22251
# Poissons Ratio (z) = 0.12701 0.42920
#
# Static dielectric constant tensor:
#      x y z
#    x 4.068870 0.000000 0.000000 
#    y 0.000000 4.075950 0.000000 
#    z 0.000000 0.000000 2.942850 
# 
# 
# High freq. dielectric constant tensor:
#      x y z
#    x 1.714760 0.000000 0.000000 
#    y 0.000000 1.727710 0.000000 
#    z 0.000000 0.000000 1.646670 
# 
# From -- ./inp_files/28368.got.cif
#   From: 2010.03.12/outbox.cif.g09.slc.cpg/sg51_15_cif.got.tgz:28368.got - 2010.04.16 13:43:02.
