data_PCOD8210311
_publ_section_title
;
Structure prediction by ZEFSAII (Michael W. Deem and Ramdas Pophale) SiO2 
 PCOD8210311
Probable space group: P M M A
;
_chemical_formula_sum "Si O2"
_cell_formula_units_Z 56
_cell_length_a 8.806111
_cell_length_b 14.589830
_cell_length_c 23.297640
_cell_angle_alpha 90.000000
_cell_angle_beta 90.000000
_cell_angle_gamma 90.000000
_cell_volume 2993.272923
_symmetry_space_group_name_H-M "P M M A"
_symmetry_group_IT_number 51
_symmetry_cell_setting 'orthorhombic'
loop_
_space_group_symop_operation_xyz
x,y,z
1/2-x,-y,z
1/2+x,-y,-z
-x,y,-z
-x,-y,-z
1/2+x,y,-z
1/2-x,y,z
x,-y,z
loop_
_atom_site_type_symbol
_atom_site_label
_atom_site_fract_x
_atom_site_fract_y
_atom_site_fract_z
Si Si1 0.423500 0.106663 0.831224
Si Si2 0.069479 0.727268 0.658768
Si Si3 0.570522 0.216183 0.058765
Si Si4 0.928572 0.395805 0.561644
Si Si5 0.428582 0.894951 0.287966
Si Si6 0.430143 0.398331 0.760337
Si Si7 0.430462 0.399472 0.888135
O O1 0.250000 0.136932 0.819143
O O2 0.488886 0.157416 0.887334
O O3 0.519931 0.134914 0.775759
O O4 0.436123 0.000000 0.844478
O O5 0.250000 0.727040 0.654359
O O6 0.005481 0.673526 0.714521
O O7 0.002535 0.678282 0.603329
O O8 0.009719 0.831491 0.664388
O O9 0.750000 0.207864 0.054055
O O10 0.514684 0.321357 0.067908
O O11 0.500000 0.178070 0.000000
O O12 0.750000 0.378857 0.558287
O O13 0.965026 0.500000 0.582076
O O14 0.000000 0.377827 0.500000
O O15 0.250000 0.882443 0.293043
O O16 0.477776 0.000000 0.299898
O O17 0.250000 0.395337 0.759025
O O18 0.487197 0.500000 0.743388
O O19 0.489268 0.373891 0.824201
O O20 0.250000 0.402399 0.886238
O O21 0.493057 0.500000 0.906917
#
# Coordination Sequence:
#
# PCOD8210311 Si02
#       7
#     8   8   8   8   8   8   8
#     4   9  18  34  54  73  94 122 158 202 254 312
#     4  11  20  31  53  82 111 143 179 219 263 314
#     4  10  20  32  46  66  91 120 158 202 247 299
#     4  10  21  37  56  80 114 154 193 230 265 304
#     4  10  21  36  54  78 107 137 171 214 264 318
#     4   8  14  25  44  72 101 127 160 203 250 302
#     4   8  14  26  43  62  87 120 156 194 237 287
#
# _framework density 18.708617
#
# number of rings (size 3 to 8) (size 9 to 14) (size 15 to 20)
#    0.000    2.571    0.000    3.429    0.000    5.714 
#    0.000    0.000    0.000    0.429    0.000    4.000 
#    0.000    0.000    0.000    0.000    0.000    0.000 
#
# Total GULP energy -694238.980314 kJ/mol
# GULP energy per Si atom -12397.124648 kJ/mol
# Density = 1.866604 g / cm^3
# Si number density = 18.708617 Si / 1000 Ang^3
#
#
#
# Elastic Constant Matrix: (Units=GPa)
#
#
# Indices 1 2 3 4 5 6 
#
# 1 58.7390 40.6740 41.2943 0.0000 0.0000 0.0000
# 2 40.6740 102.4283 66.1966 0.0000 0.0000 0.0000
# 3 41.2943 66.1966 101.8049 0.0000 0.0000 0.0000
# 4 0.0000 0.0000 0.0000 30.7580 0.0000 0.0000
# 5 0.0000 0.0000 0.0000 0.0000 28.6583 0.0000
# 6 0.0000 0.0000 0.0000 0.0000 0.0000 21.8061
#
#
#
# Elastic Compliance Matrix: (Units=1/GPa)
#
#
# Indices 1 2 3 4 5 6 
#
# 1 0.025792 -0.006004 -0.006558 0.000000 0.000000 0.000000
# 2 -0.006004 0.018237 -0.009423 0.000000 0.000000 0.000000
# 3 -0.006558 -0.009423 0.018610 0.000000 0.000000 0.000000
# 4 0.000000 0.000000 0.000000 0.032512 0.000000 0.000000
# 5 0.000000 0.000000 0.000000 0.000000 0.034894 0.000000
# 6 0.000000 0.000000 0.000000 0.000000 0.000000 0.045859
#
#
# Mechanical properties :
#
#
# Convention : Reuss Voigt Hill
#
# Bulk Modulus (GPa) = 53.56338 62.14467 57.85402
# Shear Modulus (GPa) = 22.11455 23.89829 23.00642
#
# Velocity S-wave (km/s) = 3.44183 3.57794 3.51055
# Velocity P-wave (km/s) = 6.66989 7.09635 6.88642
#
# Compressibility (1/GPa) = 0.01866947
#
# Stress axis : x y z
#
# Youngs Moduli (GPa) = 38.77149 54.83456 53.73508
#
# Poissons Ratio (x) = 0.32921 0.35240
# Poissons Ratio (y) = 0.23277 0.50634
# Poissons Ratio (z) = 0.25427 0.51670
#
# Static dielectric constant tensor:
#      x y z
#    x 3.110110 0.000000 0.000000 
#    y 0.000000 3.703110 0.000000 
#    z 0.000000 0.000000 3.357130 
# 
# 
# High freq. dielectric constant tensor:
#      x y z
#    x 1.697330 0.000000 0.000000 
#    y 0.000000 1.734090 0.000000 
#    z 0.000000 0.000000 1.713730 
# 
# From -- ./inp_files/31889.got.cif
#   From: 2010.03.12/outbox.cif.g09.slc.cpg/sg51_16_cif.got.tgz:31889.got - 2010.04.16 13:43:02.
