data_PCOD8210044
_publ_section_title
;
Structure prediction by ZEFSAII (Michael W. Deem and Ramdas Pophale) SiO2 
 PCOD8210044
Probable space group: P M M A
;
_chemical_formula_sum "Si O2"
_cell_formula_units_Z 34
_cell_length_a 10.798603
_cell_length_b 11.581875
_cell_length_c 13.632809
_cell_angle_alpha 90.000000
_cell_angle_beta 90.000000
_cell_angle_gamma 90.000000
_cell_volume 1705.029112
_symmetry_space_group_name_H-M "P M M A"
_symmetry_group_IT_number 51
_symmetry_cell_setting 'orthorhombic'
loop_
_space_group_symop_operation_xyz
x,y,z
1/2-x,-y,z
1/2+x,-y,-z
-x,y,-z
-x,-y,-z
1/2+x,y,-z
1/2-x,y,z
x,-y,z
loop_
_atom_site_type_symbol
_atom_site_label
_atom_site_fract_x
_atom_site_fract_y
_atom_site_fract_z
Si Si1 0.492414 0.262230 0.106707
Si Si2 0.250000 0.251241 0.591351
Si Si3 0.750000 0.636218 0.812850
Si Si4 0.750000 0.500000 0.322731
Si Si5 0.250000 0.216717 0.361636
Si Si6 0.021342 0.134069 0.699922
Si Si7 0.617867 0.500000 0.132364
O O1 0.356439 0.294317 0.135860
O O2 0.548560 0.178863 0.189680
O O3 0.558061 0.384273 0.095339
O O4 0.500000 0.199995 0.000000
O O5 0.250000 0.387618 0.610284
O O6 0.250000 0.236171 0.475979
O O7 0.377523 0.196813 0.631486
O O8 0.750000 0.500000 0.831463
O O9 0.750000 0.660461 0.695650
O O10 0.628249 0.500000 0.252000
O O11 0.122029 0.150836 0.333008
O O12 0.052377 0.000000 0.696291
O O13 0.750000 0.500000 0.080106
#
# Coordination Sequence:
#
# PCOD8210044 Si02
#       7
#     8   4   4   2   4   8   4
#     4  11  23  37  60  89 121 160 204 249 308 366
#     4  12  23  43  68  96 118 166 208 253 310 372
#     4  10  22  37  56  88 124 155 199 244 302 376
#     4  10  22  38  64  90 136 148 192 264 320 350
#     4  10  25  42  63  93 125 162 203 255 320 359
#     4  11  24  44  64  90 126 163 211 261 301 363
#     4  10  19  36  58  85 126 155 192 256 308 359
#
# _framework density 19.941009000000001
#
# number of rings (size 3 to 8) (size 9 to 14) (size 15 to 20)
#    0.353    0.941    3.529    1.765    2.471    3.294 
#    0.000    1.176    0.000    2.824    0.000    0.000 
#    0.000    0.000    0.000    0.000    0.000    0.000 
#
# Total GULP energy -421237.195885 kJ/mol
# GULP energy per Si atom -12389.329291 kJ/mol
# Density = 1.989562 g / cm^3
# Si number density = 19.941009 Si / 1000 Ang^3
#
#
#
# Elastic Constant Matrix: (Units=GPa)
#
#
# Indices 1 2 3 4 5 6 
#
# 1 120.8816 28.0029 36.6484 0.0000 0.0000 0.0000
# 2 28.0029 112.3805 41.3483 0.0000 0.0000 0.0000
# 3 36.6484 41.3483 181.5711 0.0000 0.0000 0.0000
# 4 0.0000 0.0000 0.0000 15.2463 0.0000 0.0000
# 5 0.0000 0.0000 0.0000 0.0000 -5.4504 0.0000
# 6 0.0000 0.0000 0.0000 0.0000 0.0000 19.0668
#
#
#
# Elastic Compliance Matrix: (Units=1/GPa)
#
#
# Indices 1 2 3 4 5 6 
#
# 1 0.009113 -0.001740 -0.001443 0.000000 0.000000 0.000000
# 2 -0.001740 0.010044 -0.001936 0.000000 0.000000 0.000000
# 3 -0.001443 -0.001936 0.006240 0.000000 0.000000 0.000000
# 4 0.000000 0.000000 0.000000 0.065590 0.000000 0.000000
# 5 0.000000 0.000000 0.000000 0.000000 -0.183472 0.000000
# 6 0.000000 0.000000 0.000000 0.000000 0.000000 0.052447
#
#
# Mechanical properties :
#
#
# Convention : Reuss Voigt Hill
#
# Bulk Modulus (GPa) = 65.96859 69.64805 67.80832
# Shear Modulus (GPa) = -202.04830 26.36145 -87.84342
#
# Velocity S-wave (km/s) = -10.07685 3.63984 -6.64434
# Velocity P-wave (km/s) = 10.11123 7.25723 4.97843
#
# Compressibility (1/GPa) = 0.01515873
#
# Stress axis : x y z
#
# Youngs Moduli (GPa) = 109.73169 99.55961 160.26432
#
# Poissons Ratio (x) = 0.17321 0.23129
# Poissons Ratio (y) = 0.19091 0.31030
# Poissons Ratio (z) = 0.15837 0.19276
#
# Static dielectric constant tensor:
#      x y z
#    x 3.850290 0.000000 0.000000 
#    y 0.000000 3.489520 0.000000 
#    z 0.000000 0.000000 3.901300 
# 
# 
# High freq. dielectric constant tensor:
#      x y z
#    x 1.793400 0.000000 0.000000 
#    y 0.000000 1.767030 0.000000 
#    z 0.000000 0.000000 1.787560 
# 
# From -- ./inp_files/15211.got.cif
#   From: 2010.03.12/outbox.cif.g09.slc.cpg/sg51_8_cif.got.tgz:15211.got - 2010.04.16 13:43:02.
