data_PCOD8210821
_publ_section_title
;
Structure prediction by ZEFSAII (Michael W. Deem and Ramdas Pophale) SiO2 
 PCOD8210821
Probable space group: P M M A
;
_chemical_formula_sum "Si O2"
_cell_formula_units_Z 44
_cell_length_a 9.016294
_cell_length_b 10.583749
_cell_length_c 24.887542
_cell_angle_alpha 90.000000
_cell_angle_beta 90.000000
_cell_angle_gamma 90.000000
_cell_volume 2374.923376
_symmetry_space_group_name_H-M "P M M A"
_symmetry_group_IT_number 51
_symmetry_cell_setting 'orthorhombic'
loop_
_space_group_symop_operation_xyz
x,y,z
1/2-x,-y,z
1/2+x,-y,-z
-x,y,-z
-x,-y,-z
1/2+x,y,-z
1/2-x,y,z
x,-y,z
loop_
_atom_site_type_symbol
_atom_site_label
_atom_site_fract_x
_atom_site_fract_y
_atom_site_fract_z
Si Si1 0.076871 0.777068 0.627428
Si Si2 0.583607 0.349824 0.842708
Si Si3 0.587763 0.643310 0.548171
Si Si4 0.927910 0.000000 0.560076
Si Si5 0.917085 0.349268 0.052730
Si Si6 0.077012 0.355760 0.735520
O O1 0.250000 0.804675 0.618284
O O2 0.042467 0.749778 0.689948
O O3 0.019746 0.648343 0.599764
O O4 0.979436 0.882494 0.597132
O O5 0.750000 0.296268 0.843954
O O6 0.582694 0.500000 0.845329
O O7 0.496886 0.294952 0.894160
O O8 0.506797 0.304623 0.787903
O O9 0.500000 0.714738 0.500000
O O10 0.750000 0.707888 0.556648
O O11 0.614901 0.500000 0.531983
O O12 0.000000 0.000000 0.500000
O O13 0.750000 0.000000 0.554047
O O14 0.750000 0.297739 0.051872
O O15 0.919438 0.500000 0.053150
O O16 0.000000 0.297353 0.000000
O O17 0.250000 0.358094 0.748525
O O18 0.026525 0.500000 0.720232
#
# Coordination Sequence:
#
# PCOD8210821 Si02
#       6
#     8   8   8   4   8   8
#     4  11  22  37  56  76  98 124 157 195 237 286
#     4   9  16  25  38  58  86 120 158 198 237 278
#     4  10  20  33  50  73 100 127 154 186 227 275
#     4  12  26  44  62  78  98 124 157 196 241 292
#     4   9  15  22  33  50  76 113 158 203 242 280
#     4   9  18  32  50  72  98 128 159 193 236 285
#
# _framework density 18.526913
#
# number of rings (size 3 to 8) (size 9 to 14) (size 15 to 20)
#    0.000    2.182    0.000    4.091    0.000    7.636 
#    0.000    1.818    0.000    0.000    0.000    0.000 
#    0.000    0.000    0.000    0.818    0.000   11.091 
#
# Total GULP energy -545101.639138 kJ/mol
# GULP energy per Si atom -12388.673617 kJ/mol
# Density = 1.848475 g / cm^3
# Si number density = 18.526913 Si / 1000 Ang^3
#
#
#
# Elastic Constant Matrix: (Units=GPa)
#
#
# Indices 1 2 3 4 5 6 
#
# 1 140.7487 27.1200 101.8642 0.0000 0.0000 0.0000
# 2 27.1200 37.8345 31.6531 0.0000 0.0000 0.0000
# 3 101.8642 31.6531 173.2380 0.0000 0.0000 0.0000
# 4 0.0000 0.0000 0.0000 12.4950 0.0000 0.0000
# 5 0.0000 0.0000 0.0000 0.0000 39.8166 0.0000
# 6 0.0000 0.0000 0.0000 0.0000 0.0000 16.2496
#
#
#
# Elastic Compliance Matrix: (Units=1/GPa)
#
#
# Indices 1 2 3 4 5 6 
#
# 1 0.012724 -0.003377 -0.006864 0.000000 0.000000 0.000000
# 2 -0.003377 0.032097 -0.003879 0.000000 0.000000 0.000000
# 3 -0.006864 -0.003879 0.010517 0.000000 0.000000 0.000000
# 4 0.000000 0.000000 0.000000 0.080032 0.000000 0.000000
# 5 0.000000 0.000000 0.000000 0.000000 0.025115 0.000000
# 6 0.000000 0.000000 0.000000 0.000000 0.000000 0.061540
#
#
# Mechanical properties :
#
#
# Convention : Reuss Voigt Hill
#
# Bulk Modulus (GPa) = 36.90465 74.78843 55.84654
# Shear Modulus (GPa) = 19.28284 26.45785 22.87035
#
# Velocity S-wave (km/s) = 3.22965 3.78309 3.51727
# Velocity P-wave (km/s) = 5.81981 7.71605 6.83402
#
# Compressibility (1/GPa) = 0.02709686
#
# Stress axis : x y z
#
# Youngs Moduli (GPa) = 78.59403 31.15572 95.08103
#
# Poissons Ratio (x) = 0.10523 0.65267
# Poissons Ratio (y) = 0.26545 0.36878
# Poissons Ratio (z) = 0.53950 0.12084
#
# Static dielectric constant tensor:
#      x y z
#    x 3.757450 0.000000 0.000000 
#    y 0.000000 2.953760 0.000000 
#    z 0.000000 0.000000 3.547410 
# 
# 
# High freq. dielectric constant tensor:
#      x y z
#    x 1.738640 0.000000 0.000000 
#    y 0.000000 1.650860 0.000000 
#    z 0.000000 0.000000 1.727350 
# 
# From -- ./inp_files/34562.got.cif
#   From: 2010.03.12/outbox.cif.g09.slc.cpg/sg51_18_cif.got.tgz:34562.got - 2010.04.16 13:43:02.
