data_PCOD8210635
_publ_section_title
;
Structure prediction by ZEFSAII (Michael W. Deem and Ramdas Pophale) SiO2 
 PCOD8210635
Probable space group: P M M A
;
_chemical_formula_sum "Si O2"
_cell_formula_units_Z 48
_cell_length_a 9.215257
_cell_length_b 9.834237
_cell_length_c 29.191544
_cell_angle_alpha 90.000000
_cell_angle_beta 90.000000
_cell_angle_gamma 90.000000
_cell_volume 2645.484298
_symmetry_space_group_name_H-M "P M M A"
_symmetry_group_IT_number 51
_symmetry_cell_setting 'orthorhombic'
loop_
_space_group_symop_operation_xyz
x,y,z
1/2-x,-y,z
1/2+x,-y,-z
-x,y,-z
-x,-y,-z
1/2+x,y,-z
1/2-x,y,z
x,-y,z
loop_
_atom_site_type_symbol
_atom_site_label
_atom_site_fract_x
_atom_site_fract_y
_atom_site_fract_z
Si Si1 0.580150 0.248977 0.109063
Si Si2 0.080796 0.157413 0.195233
Si Si3 0.080257 0.156318 0.711989
Si Si4 0.419058 0.000000 0.952556
Si Si5 0.579692 0.155295 0.453314
Si Si6 0.077735 0.344670 0.628810
Si Si7 0.080722 0.500000 0.952114
O O1 0.750000 0.246645 0.121510
O O2 0.490982 0.249421 0.156087
O O3 0.533287 0.375310 0.078869
O O4 0.532007 0.125879 0.077476
O O5 0.250000 0.190325 0.198292
O O6 0.008154 0.197031 0.243081
O O7 0.050488 0.000000 0.183794
O O8 0.250000 0.175467 0.722230
O O9 0.025134 0.260045 0.673028
O O10 0.048607 0.000000 0.697080
O O11 0.250000 0.000000 0.963748
O O12 0.500000 0.000000 0.000000
O O13 0.500000 0.193314 0.500000
O O14 0.750000 0.172860 0.461318
O O15 0.521551 0.261415 0.415390
O O16 0.544197 0.000000 0.438054
O O17 0.250000 0.348500 0.628178
O O18 0.016176 0.500000 0.629213
O O19 0.250000 0.500000 0.963518
O O20 0.000000 0.500000 0.000000
#
# Coordination Sequence:
#
# PCOD8210635 Si02
#       7
#     8   8   8   4   8   8   4
#     4  10  20  36  55  77 104 136 172 209 249 300
#     4  10  20  34  54  80 105 131 167 212 259 305
#     4   9  17  31  53  75  96 128 167 207 252 303
#     4  10  20  32  52  78 104 132 166 206 249 294
#     4   9  17  30  49  73 101 133 171 212 252 298
#     4   9  17  30  49  74 101 130 169 213 253 297
#     4  10  22  38  56  78 106 138 172 208 249 300
#
# _framework density 18.144126
#
# number of rings (size 3 to 8) (size 9 to 14) (size 15 to 20)
#    0.000    2.500    0.833    1.500    0.000    4.333 
#    1.500    0.833    0.000    5.000    0.000    0.000 
#    0.000    0.000    0.000    0.000    0.000    0.000 
#
# Total GULP energy -595156.327058 kJ/mol
# GULP energy per Si atom -12399.090147 kJ/mol
# Density = 1.810283 g / cm^3
# Si number density = 18.144126 Si / 1000 Ang^3
#
#
#
# Elastic Constant Matrix: (Units=GPa)
#
#
# Indices 1 2 3 4 5 6 
#
# 1 52.5709 39.2458 63.6918 0.0000 0.0000 0.0000
# 2 39.2458 145.2865 98.6139 0.0000 0.0000 0.0000
# 3 63.6918 98.6139 181.3092 0.0000 0.0000 0.0000
# 4 0.0000 0.0000 0.0000 40.1900 0.0000 0.0000
# 5 0.0000 0.0000 0.0000 0.0000 32.8227 0.0000
# 6 0.0000 0.0000 0.0000 0.0000 0.0000 19.0155
#
#
#
# Elastic Compliance Matrix: (Units=1/GPa)
#
#
# Indices 1 2 3 4 5 6 
#
# 1 0.033372 -0.001676 -0.010811 0.000000 0.000000 0.000000
# 2 -0.001676 0.010995 -0.005391 0.000000 0.000000 0.000000
# 3 -0.010811 -0.005391 0.012246 0.000000 0.000000 0.000000
# 4 0.000000 0.000000 0.000000 0.024882 0.000000 0.000000
# 5 0.000000 0.000000 0.000000 0.000000 0.030467 0.000000
# 6 0.000000 0.000000 0.000000 0.000000 0.000000 0.052589
#
#
# Mechanical properties :
#
#
# Convention : Reuss Voigt Hill
#
# Bulk Modulus (GPa) = 47.95126 86.91884 67.43505
# Shear Modulus (GPa) = 24.12431 30.24663 27.18547
#
# Velocity S-wave (km/s) = 3.65032 4.08735 3.87500
# Velocity P-wave (km/s) = 6.65220 8.38355 7.56755
#
# Compressibility (1/GPa) = 0.02085451
#
# Stress axis : x y z
#
# Youngs Moduli (GPa) = 29.96539 90.94863 81.66116
#
# Poissons Ratio (x) = 0.15246 0.88287
# Poissons Ratio (y) = 0.05023 0.44027
# Poissons Ratio (z) = 0.32397 0.49034
#
# Static dielectric constant tensor:
#      x y z
#    x 3.072790 0.000000 0.000000 
#    y 0.000000 3.499130 0.000000 
#    z 0.000000 0.000000 3.380640 
# 
# 
# High freq. dielectric constant tensor:
#      x y z
#    x 1.678000 0.000000 0.000000 
#    y 0.000000 1.701580 0.000000 
#    z 0.000000 0.000000 1.713510 
# 
# From -- ./inp_files/37200.got.cif
#   From: 2010.03.12/outbox.cif.g09.slc.cpg/sg51_19_cif.got.tgz:37200.got - 2010.04.16 13:43:02.
