data_PCOD8210456
_publ_section_title
;
Structure prediction by ZEFSAII (Michael W. Deem and Ramdas Pophale) SiO2 
 PCOD8210456
Probable space group: P M M A
;
_chemical_formula_sum "Si O2"
_cell_formula_units_Z 64
_cell_length_a 8.758428
_cell_length_b 24.707423
_cell_length_c 14.915469
_cell_angle_alpha 90.000000
_cell_angle_beta 90.000000
_cell_angle_gamma 90.000000
_cell_volume 3227.680426
_symmetry_space_group_name_H-M "P M M A"
_symmetry_group_IT_number 51
_symmetry_cell_setting 'orthorhombic'
loop_
_space_group_symop_operation_xyz
x,y,z
1/2-x,-y,z
1/2+x,-y,-z
-x,y,-z
-x,-y,-z
1/2+x,y,-z
1/2-x,y,z
x,-y,z
loop_
_atom_site_type_symbol
_atom_site_label
_atom_site_fract_x
_atom_site_fract_y
_atom_site_fract_z
Si Si1 0.079101 0.795691 0.638453
Si Si2 0.570811 0.686715 0.593411
Si Si3 0.573965 0.939263 0.775035
Si Si4 0.425412 0.085554 0.589118
Si Si5 0.570106 0.735586 0.908950
Si Si6 0.431061 0.346536 0.773890
Si Si7 0.429822 0.560975 0.906928
Si Si8 0.926165 0.164005 0.162115
O O1 0.250000 0.771430 0.628275
O O2 0.059968 0.849618 0.580438
O O3 0.046739 0.811863 0.740022
O O4 0.960552 0.750672 0.605580
O O5 0.500000 0.665953 0.500000
O O6 0.750000 0.676524 0.592638
O O7 0.496701 0.651787 0.673551
O O8 0.750000 0.921982 0.773746
O O9 0.512884 0.937761 0.674093
O O10 0.483910 0.897982 0.839948
O O11 0.552025 0.000000 0.812995
O O12 0.500000 0.060100 0.500000
O O13 0.250000 0.067603 0.597309
O O14 0.750000 0.727709 0.908990
O O15 0.497736 0.705625 0.823930
O O16 0.524417 0.798960 0.905050
O O17 0.500000 0.710508 0.000000
O O18 0.250000 0.340920 0.770318
O O19 0.483945 0.400789 0.825625
O O20 0.250000 0.563252 0.918062
O O21 0.486519 0.500000 0.885870
O O22 0.500000 0.582221 0.000000
O O23 0.750000 0.165384 0.132908
#
# Coordination Sequence:
#
# PCOD8210456 Si02
#       8
#     8   8   8   8   8   8   8   8
#     4   9  18  33  52  74 104 140 183 230 281 338
#     4  12  24  36  54  79 112 155 201 246 293 345
#     4  10  21  36  54  75 100 135 180 227 278 339
#     4  10  20  32  48  70  98 133 175 227 282 341
#     4  12  24  38  59  88 122 157 192 231 284 349
#     4  11  22  38  59  86 124 160 198 246 291 344
#     4   9  19  36  60  90 123 161 201 243 292 345
#     4  10  20  36  58  81 110 144 182 228 280 340
#
# _framework density 19.828482000000001
#
# number of rings (size 3 to 8) (size 9 to 14) (size 15 to 20)
#    0.000    1.625    1.250    5.250    0.000    6.750 
#    0.000    0.000    0.000    0.750    0.000    0.000 
#    0.000    0.000    0.000    0.000    0.000    0.000 
#
# Total GULP energy -793731.871266 kJ/mol
# GULP energy per Si atom -12402.060489 kJ/mol
# Density = 1.978335 g / cm^3
# Si number density = 19.828482 Si / 1000 Ang^3
#
#
#
# Elastic Constant Matrix: (Units=GPa)
#
#
# Indices 1 2 3 4 5 6 
#
# 1 118.3455 36.0972 43.3111 0.0000 0.0000 0.0000
# 2 36.0972 94.3336 40.7125 0.0000 0.0000 0.0000
# 3 43.3111 40.7125 99.4063 0.0000 0.0000 0.0000
# 4 0.0000 0.0000 0.0000 12.1459 0.0000 0.0000
# 5 0.0000 0.0000 0.0000 0.0000 32.1361 0.0000
# 6 0.0000 0.0000 0.0000 0.0000 0.0000 23.2707
#
#
#
# Elastic Compliance Matrix: (Units=1/GPa)
#
#
# Indices 1 2 3 4 5 6 
#
# 1 0.010511 -0.002485 -0.003562 0.000000 0.000000 0.000000
# 2 -0.002485 0.013464 -0.004432 0.000000 0.000000 0.000000
# 3 -0.003562 -0.004432 0.013427 0.000000 0.000000 0.000000
# 4 0.000000 0.000000 0.000000 0.082332 0.000000 0.000000
# 5 0.000000 0.000000 0.000000 0.000000 0.031118 0.000000
# 6 0.000000 0.000000 0.000000 0.000000 0.000000 0.042973
#
#
# Mechanical properties :
#
#
# Convention : Reuss Voigt Hill
#
# Bulk Modulus (GPa) = 60.80886 61.36967 61.08927
# Shear Modulus (GPa) = 22.70008 26.30817 24.50413
#
# Velocity S-wave (km/s) = 3.38719 3.64646 3.51921
# Velocity P-wave (km/s) = 6.78465 6.98186 6.88396
#
# Compressibility (1/GPa) = 0.01644497
#
# Stress axis : x y z
#
# Youngs Moduli (GPa) = 95.13488 74.27128 74.47828
#
# Poissons Ratio (x) = 0.18456 0.26530
# Poissons Ratio (y) = 0.23640 0.33006
# Poissons Ratio (z) = 0.33888 0.32915
#
# Static dielectric constant tensor:
#      x y z
#    x 3.617220 0.000000 0.000000 
#    y 0.000000 3.661460 0.000000 
#    z 0.000000 0.000000 3.388850 
# 
# 
# High freq. dielectric constant tensor:
#      x y z
#    x 1.781050 0.000000 0.000000 
#    y 0.000000 1.756860 0.000000 
#    z 0.000000 0.000000 1.762520 
# 
# From -- ./inp_files/22251.got.cif
#   From: 2010.03.12/outbox.cif.g09.slc.cpg/sg51_12_cif.got.tgz:22251.got - 2010.04.16 13:43:02.
