data_PCOD8210614
_publ_section_title
;
Structure prediction by ZEFSAII (Michael W. Deem and Ramdas Pophale) SiO2 
 PCOD8210614
Probable space group: P M M A
;
_chemical_formula_sum "Si O2"
_cell_formula_units_Z 52
_cell_length_a 8.844685
_cell_length_b 14.387324
_cell_length_c 20.488055
_cell_angle_alpha 90.000000
_cell_angle_beta 90.000000
_cell_angle_gamma 90.000000
_cell_volume 2607.132632
_symmetry_space_group_name_H-M "P M M A"
_symmetry_group_IT_number 51
_symmetry_cell_setting 'orthorhombic'
loop_
_space_group_symop_operation_xyz
x,y,z
1/2-x,-y,z
1/2+x,-y,-z
-x,y,-z
-x,-y,-z
1/2+x,y,-z
1/2-x,y,z
x,-y,z
loop_
_atom_site_type_symbol
_atom_site_label
_atom_site_fract_x
_atom_site_fract_y
_atom_site_fract_z
Si Si1 0.423585 0.702328 0.064995
Si Si2 0.920096 0.899145 0.888054
Si Si3 0.572711 0.798277 0.569214
Si Si4 0.072336 0.393369 0.811146
Si Si5 0.071725 0.000000 0.430212
Si Si6 0.576313 0.896087 0.245135
Si Si7 0.925246 0.720920 0.701110
O O1 0.250000 0.672529 0.063884
O O2 0.447121 0.813823 0.062726
O O3 0.495235 0.662264 0.130582
O O4 0.500000 0.660061 0.000000
O O5 0.750000 0.889704 0.858344
O O6 0.044804 0.894578 0.831838
O O7 0.935729 0.000000 0.923946
O O8 0.500000 0.771432 0.500000
O O9 0.750000 0.802560 0.556526
O O10 0.517820 0.899736 0.599036
O O11 0.534899 0.719156 0.623467
O O12 0.250000 0.381554 0.818301
O O13 0.021734 0.500000 0.814774
O O14 0.023028 0.353490 0.740863
O O15 0.000000 0.000000 0.500000
O O16 0.250000 0.000000 0.434641
O O17 0.750000 0.865609 0.256513
O O18 0.460207 0.825526 0.277226
O O19 0.546973 0.000000 0.273451
O O20 0.750000 0.699306 0.713907
#
# Coordination Sequence:
#
# PCOD8210614 Si02
#       7
#     8   8   8   8   4   8   8
#     4  11  23  39  62  90 121 158 195 238 288 343
#     4   9  18  34  55  81 116 158 199 236 279 332
#     4   9  19  33  52  79 115 157 198 237 281 332
#     4  11  25  45  67  89 114 145 187 244 303 358
#     4   8  14  28  46  70 108 154 197 232 267 318
#     4  10  20  32  50  80 116 155 198 242 285 334
#     4  11  22  36  59  88 117 154 194 239 295 352
#
# _framework density 19.945284000000001
#
# number of rings (size 3 to 8) (size 9 to 14) (size 15 to 20)
#    0.000    2.000    1.538    1.846    1.077    4.615 
#    0.000    0.000    0.000    0.462    0.000    0.000 
#    0.000    0.000    0.000    0.000    0.000    0.000 
#
# Total GULP energy -644311.870744 kJ/mol
# GULP energy per Si atom -12390.612899 kJ/mol
# Density = 1.989989 g / cm^3
# Si number density = 19.945284 Si / 1000 Ang^3
#
#
#
# Elastic Constant Matrix: (Units=GPa)
#
#
# Indices 1 2 3 4 5 6 
#
# 1 57.6027 39.7876 33.2129 0.0000 0.0000 0.0000
# 2 39.7876 91.2561 44.4890 0.0000 0.0000 0.0000
# 3 33.2129 44.4890 100.2113 0.0000 0.0000 0.0000
# 4 0.0000 0.0000 0.0000 10.8756 0.0000 0.0000
# 5 0.0000 0.0000 0.0000 0.0000 30.8663 0.0000
# 6 0.0000 0.0000 0.0000 0.0000 0.0000 24.7407
#
#
#
# Elastic Compliance Matrix: (Units=1/GPa)
#
#
# Indices 1 2 3 4 5 6 
#
# 1 0.026438 -0.009259 -0.004652 0.000000 0.000000 0.000000
# 2 -0.009259 0.017228 -0.004580 0.000000 0.000000 0.000000
# 3 -0.004652 -0.004580 0.013554 0.000000 0.000000 0.000000
# 4 0.000000 0.000000 0.000000 0.091949 0.000000 0.000000
# 5 0.000000 0.000000 0.000000 0.000000 0.032398 0.000000
# 6 0.000000 0.000000 0.000000 0.000000 0.000000 0.040419
#
#
# Mechanical properties :
#
#
# Convention : Reuss Voigt Hill
#
# Bulk Modulus (GPa) = 49.41041 53.78324 51.59682
# Shear Modulus (GPa) = 18.81733 22.06856 20.44295
#
# Velocity S-wave (km/s) = 3.07489 3.32995 3.20496
# Velocity P-wave (km/s) = 6.11828 6.46596 6.29452
#
# Compressibility (1/GPa) = 0.02023865
#
# Stress axis : x y z
#
# Youngs Moduli (GPa) = 37.82453 58.04588 73.78053
#
# Poissons Ratio (x) = 0.53745 0.34320
# Poissons Ratio (y) = 0.35022 0.33788
# Poissons Ratio (z) = 0.17595 0.26582
#
# Static dielectric constant tensor:
#      x y z
#    x 3.570220 0.000000 0.000000 
#    y 0.000000 3.833970 0.000000 
#    z 0.000000 0.000000 3.497690 
# 
# 
# High freq. dielectric constant tensor:
#      x y z
#    x 1.781880 0.000000 0.000000 
#    y 0.000000 1.758950 0.000000 
#    z 0.000000 0.000000 1.767720 
# 
# From -- ./inp_files/31788.got.cif
#   From: 2010.03.12/outbox.cif.g09.slc.cpg/sg51_16_cif.got.tgz:31788.got - 2010.04.16 13:43:02.
