data_PCOD8210839
_publ_section_title
;
Structure prediction by ZEFSAII (Michael W. Deem and Ramdas Pophale) SiO2 
 PCOD8210839
Probable space group: P M M A
;
_chemical_formula_sum "Si O2"
_cell_formula_units_Z 56
_cell_length_a 8.998786
_cell_length_b 18.792977
_cell_length_c 18.818531
_cell_angle_alpha 90.000000
_cell_angle_beta 90.000000
_cell_angle_gamma 90.000000
_cell_volume 3182.476644
_symmetry_space_group_name_H-M "P M M A"
_symmetry_group_IT_number 51
_symmetry_cell_setting 'orthorhombic'
loop_
_space_group_symop_operation_xyz
x,y,z
1/2-x,-y,z
1/2+x,-y,-z
-x,y,-z
-x,-y,-z
1/2+x,y,-z
1/2-x,y,z
x,-y,z
loop_
_atom_site_type_symbol
_atom_site_label
_atom_site_fract_x
_atom_site_fract_y
_atom_site_fract_z
Si Si1 0.920466 0.838821 0.428296
Si Si2 0.422483 0.918623 0.711028
Si Si3 0.923587 0.574241 0.925226
Si Si4 0.425044 0.790454 0.220162
Si Si5 0.073192 0.296779 0.659512
Si Si6 0.075960 0.582500 0.425372
Si Si7 0.423168 0.271767 0.074533
O O1 0.750000 0.835113 0.447491
O O2 0.955327 0.899893 0.370876
O O3 0.972437 0.762189 0.398921
O O4 0.000000 0.860344 0.500000
O O5 0.250000 0.903236 0.728145
O O6 0.523262 0.869791 0.760955
O O7 0.465735 0.000000 0.725287
O O8 0.750000 0.575754 0.938755
O O9 0.964655 0.500000 0.882219
O O10 0.970960 0.650353 0.892547
O O11 0.000000 0.569145 0.000000
O O12 0.250000 0.781387 0.233833
O O13 0.510223 0.729955 0.265116
O O14 0.465963 0.782675 0.136877
O O15 0.250000 0.306034 0.665746
O O16 0.997905 0.371106 0.637195
O O17 0.250000 0.600037 0.431250
O O18 0.048663 0.500000 0.406203
O O19 0.000000 0.602171 0.500000
O O20 0.250000 0.269257 0.057773
O O21 0.500000 0.252221 0.000000
#
# Coordination Sequence:
#
# PCOD8210839 Si02
#       7
#     8   8   8   8   8   8   8
#     4   9  18  30  46  71  99 127 159 196 238 284
#     4   9  19  36  54  72  98 132 166 198 239 296
#     4   8  13  23  40  62  89 120 151 182 220 268
#     4  10  20  34  52  76 103 128 162 207 252 301
#     4  10  20  34  51  70  97 135 175 213 254 300
#     4  10  20  33  50  73 101 135 176 222 269 311
#     4   9  18  31  49  74 101 129 162 203 248 295
#
# _framework density 17.596357999999999
#
# number of rings (size 3 to 8) (size 9 to 14) (size 15 to 20)
#    0.000    2.714    0.000    2.571    0.000    6.571 
#    0.000    0.714    0.000    3.000    0.000    2.000 
#    0.000    0.000    0.000    0.000    0.000    0.000 
#
# Total GULP energy -693871.232327 kJ/mol
# GULP energy per Si atom -12390.557720 kJ/mol
# Density = 1.755631 g / cm^3
# Si number density = 17.596358 Si / 1000 Ang^3
#
#
#
# Elastic Constant Matrix: (Units=GPa)
#
#
# Indices 1 2 3 4 5 6 
#
# 1 69.8607 43.7347 45.2803 0.0000 0.0000 0.0000
# 2 43.7347 97.1317 51.8089 0.0000 0.0000 0.0000
# 3 45.2803 51.8089 101.0439 0.0000 0.0000 0.0000
# 4 0.0000 0.0000 0.0000 16.4918 0.0000 0.0000
# 5 0.0000 0.0000 0.0000 0.0000 26.5109 0.0000
# 6 0.0000 0.0000 0.0000 0.0000 0.0000 27.4546
#
#
#
# Elastic Compliance Matrix: (Units=1/GPa)
#
#
# Indices 1 2 3 4 5 6 
#
# 1 0.022934 -0.006668 -0.006858 0.000000 0.000000 0.000000
# 2 -0.006668 0.016110 -0.005272 0.000000 0.000000 0.000000
# 3 -0.006858 -0.005272 0.015673 0.000000 0.000000 0.000000
# 4 0.000000 0.000000 0.000000 0.060636 0.000000 0.000000
# 5 0.000000 0.000000 0.000000 0.000000 0.037720 0.000000
# 6 0.000000 0.000000 0.000000 0.000000 0.000000 0.036424
#
#
# Mechanical properties :
#
#
# Convention : Reuss Voigt Hill
#
# Bulk Modulus (GPa) = 58.41072 61.07604 59.74338
# Shear Modulus (GPa) = 21.47766 22.57228 22.02497
#
# Velocity S-wave (km/s) = 3.49746 3.58548 3.54174
# Velocity P-wave (km/s) = 7.04106 7.20595 7.12398
#
# Compressibility (1/GPa) = 0.01712015
#
# Stress axis : x y z
#
# Youngs Moduli (GPa) = 43.60381 62.07458 63.80355
#
# Poissons Ratio (x) = 0.41392 0.43758
# Poissons Ratio (y) = 0.29076 0.33636
# Poissons Ratio (z) = 0.29904 0.32725
#
# Static dielectric constant tensor:
#      x y z
#    x 3.271890 0.000000 0.000000 
#    y 0.000000 3.639920 0.000000 
#    z 0.000000 0.000000 3.032980 
# 
# 
# High freq. dielectric constant tensor:
#      x y z
#    x 1.685120 0.000000 0.000000 
#    y 0.000000 1.681610 0.000000 
#    z 0.000000 0.000000 1.652470 
# 
# From -- ./inp_files/32212.got.cif
#   From: 2010.03.12/outbox.cif.g09.slc.cpg/sg51_17_cif.got.tgz:32212.got - 2010.04.16 13:43:02.
