data_PCOD8210726
_publ_section_title
;
Structure prediction by ZEFSAII (Michael W. Deem and Ramdas Pophale) SiO2 
 PCOD8210726
Probable space group: P M M A
;
_chemical_formula_sum "Si O2"
_cell_formula_units_Z 48
_cell_length_a 18.390641
_cell_length_b 9.341226
_cell_length_c 15.995017
_cell_angle_alpha 90.000000
_cell_angle_beta 90.000000
_cell_angle_gamma 90.000000
_cell_volume 2747.802107
_symmetry_space_group_name_H-M "P M M A"
_symmetry_group_IT_number 51
_symmetry_cell_setting 'orthorhombic'
loop_
_space_group_symop_operation_xyz
x,y,z
1/2-x,-y,z
1/2+x,-y,-z
-x,y,-z
-x,-y,-z
1/2+x,y,-z
1/2-x,y,z
x,-y,z
loop_
_atom_site_type_symbol
_atom_site_label
_atom_site_fract_x
_atom_site_fract_y
_atom_site_fract_z
Si Si1 0.333174 0.333394 0.838356
Si Si2 0.834891 0.665086 0.675416
Si Si3 0.169980 0.330724 0.511805
Si Si4 0.040583 0.833935 0.917514
Si Si5 0.957972 0.833660 0.748690
Si Si6 0.916162 0.667324 0.329734
O O1 0.250000 0.281021 0.848084
O O2 0.340206 0.500000 0.859415
O O3 0.383889 0.249526 0.903893
O O4 0.358234 0.302011 0.743645
O O5 0.750000 0.693401 0.689281
O O6 0.853949 0.500000 0.693071
O O7 0.858139 0.708342 0.580849
O O8 0.878250 0.764916 0.739915
O O9 0.250000 0.263462 0.525969
O O10 0.176596 0.500000 0.520450
O O11 0.116270 0.273165 0.583270
O O12 0.985105 0.805648 0.842213
O O13 0.060893 0.000000 0.926353
O O14 0.000000 0.776475 0.000000
O O15 0.010610 0.755359 0.683487
O O16 0.954974 0.000000 0.726664
O O17 0.936004 0.500000 0.334247
#
# Coordination Sequence:
#
# PCOD8210726 Si02
#       6
#     8   8   8   8   8   8
#     4   9  17  29  48  76 104 125 149 187 236 284
#     4   9  18  33  51  69  91 122 161 199 230 266
#     4   8  14  26  46  70  93 122 162 199 225 257
#     4   9  19  36  54  70  91 123 161 195 229 277
#     4  10  20  33  49  69  93 120 152 192 237 282
#     4   9  16  28  48  71  96 126 157 189 226 271
#
# _framework density 17.468508
#
# number of rings (size 3 to 8) (size 9 to 14) (size 15 to 20)
#    0.000    3.000    0.000    2.000    0.000    4.333 
#    0.000    5.000    0.000    7.500    0.000    0.000 
#    0.000    0.000    0.000    0.000    0.000    0.000 
#
# Total GULP energy -595138.215713 kJ/mol
# GULP energy per Si atom -12398.712827 kJ/mol
# Density = 1.742875 g / cm^3
# Si number density = 17.468508 Si / 1000 Ang^3
#
#
#
# Elastic Constant Matrix: (Units=GPa)
#
#
# Indices 1 2 3 4 5 6 
#
# 1 118.2326 57.7635 56.8912 0.0000 0.0000 0.0000
# 2 57.7635 64.0234 37.8830 0.0000 0.0000 0.0000
# 3 56.8912 37.8830 70.7173 0.0000 0.0000 0.0000
# 4 0.0000 0.0000 0.0000 21.5540 0.0000 0.0000
# 5 0.0000 0.0000 0.0000 0.0000 27.5639 0.0000
# 6 0.0000 0.0000 0.0000 0.0000 0.0000 18.5835
#
#
#
# Elastic Compliance Matrix: (Units=1/GPa)
#
#
# Indices 1 2 3 4 5 6 
#
# 1 0.018038 -0.011256 -0.008482 0.000000 0.000000 0.000000
# 2 -0.011256 0.029891 -0.006958 0.000000 0.000000 0.000000
# 3 -0.008482 -0.006958 0.024692 0.000000 0.000000 0.000000
# 4 0.000000 0.000000 0.000000 0.046395 0.000000 0.000000
# 5 0.000000 0.000000 0.000000 0.000000 0.036279 0.000000
# 6 0.000000 0.000000 0.000000 0.000000 0.000000 0.053811
#
#
# Mechanical properties :
#
#
# Convention : Reuss Voigt Hill
#
# Bulk Modulus (GPa) = 52.00015 62.00541 57.00278
# Shear Modulus (GPa) = 18.59372 20.23597 19.41484
#
# Velocity S-wave (km/s) = 3.26607 3.40726 3.33741
# Velocity P-wave (km/s) = 6.63744 7.14505 6.89592
#
# Compressibility (1/GPa) = 0.01923071
#
# Stress axis : x y z
#
# Youngs Moduli (GPa) = 55.43723 33.45440 40.49964
#
# Poissons Ratio (x) = 0.37656 0.34352
# Poissons Ratio (y) = 0.62400 0.28178
# Poissons Ratio (z) = 0.47022 0.23276
#
# Static dielectric constant tensor:
#      x y z
#    x 3.284790 0.000000 0.000000 
#    y 0.000000 3.041120 0.000000 
#    z 0.000000 0.000000 3.242700 
# 
# 
# High freq. dielectric constant tensor:
#      x y z
#    x 1.677650 0.000000 0.000000 
#    y 0.000000 1.652150 0.000000 
#    z 0.000000 0.000000 1.664680 
# 
# From -- ./inp_files/30066.got.cif
#   From: 2010.03.12/outbox.cif.g09.slc.cpg/sg51_16_cif.got.tgz:30066.got - 2010.04.16 13:43:02.
