data_PCOD8210130
_publ_section_title
;
Structure prediction by ZEFSAII (Michael W. Deem and Ramdas Pophale) SiO2 
 PCOD8210130
Probable space group: P M M A
;
_chemical_formula_sum "Si O2"
_cell_formula_units_Z 56
_cell_length_a 17.933057
_cell_length_b 13.706858
_cell_length_c 14.879288
_cell_angle_alpha 90.000000
_cell_angle_beta 90.000000
_cell_angle_gamma 90.000000
_cell_volume 3657.416269
_symmetry_space_group_name_H-M "P M M A"
_symmetry_group_IT_number 51
_symmetry_cell_setting 'orthorhombic'
loop_
_space_group_symop_operation_xyz
x,y,z
1/2-x,-y,z
1/2+x,-y,-z
-x,y,-z
-x,-y,-z
1/2+x,y,-z
1/2-x,y,z
x,-y,z
loop_
_atom_site_type_symbol
_atom_site_label
_atom_site_fract_x
_atom_site_fract_y
_atom_site_fract_z
Si Si1 0.419201 0.390415 0.837280
Si Si2 0.040470 0.108620 0.594951
Si Si3 0.940307 0.727884 0.644890
Si Si4 0.416476 0.384555 0.637606
Si Si5 0.662397 0.758209 0.478127
Si Si6 0.410753 0.388726 0.182031
Si Si7 0.165779 0.384443 0.004976
O O1 0.387780 0.500000 0.833749
O O2 0.402836 0.343974 0.739342
O O3 0.506447 0.389167 0.857098
O O4 0.378685 0.336467 0.920732
O O5 0.121813 0.156916 0.579635
O O6 0.000000 0.105264 0.500000
O O7 0.987695 0.172068 0.661769
O O8 0.050688 0.000000 0.635111
O O9 0.872768 0.747394 0.576829
O O10 0.902707 0.685089 0.734590
O O11 0.001341 0.651345 0.605137
O O12 0.415867 0.500000 0.633856
O O13 0.351277 0.343437 0.574318
O O14 0.750000 0.781052 0.486271
O O15 0.388275 0.500000 0.210792
O O16 0.360313 0.345203 0.102012
O O17 0.250000 0.353088 0.990458
O O18 0.152913 0.500000 0.007092
#
# Coordination Sequence:
#
# PCOD8210130 Si02
#       7
#     8   8   8   8   8   8   8
#     4   8  14  25  40  54  70 100 142 181 209 230
#     4   8  15  30  49  63  76  99 132 169 207 244
#     4   9  17  29  44  60  80 108 141 172 200 239
#     4   9  17  29  43  57  78 113 151 180 203 231
#     4  10  20  29  39  61  88 110 134 167 208 252
#     4   9  16  26  40  57  79 110 143 170 198 237
#     4   9  16  24  35  54  80 108 137 170 208 246
#
# _framework density 15.311356
#
# number of rings (size 3 to 8) (size 9 to 14) (size 15 to 20)
#    0.000    3.143    0.000    3.000    0.000    5.143 
#    0.000    1.429    0.000    0.000    0.000    0.000 
#    0.000   20.571    0.000    3.000    0.000    0.714 
#
# Total GULP energy -693865.913838 kJ/mol
# GULP energy per Si atom -12390.462747 kJ/mol
# Density = 1.527651 g / cm^3
# Si number density = 15.311356 Si / 1000 Ang^3
#
#
#
# Elastic Constant Matrix: (Units=GPa)
#
#
# Indices 1 2 3 4 5 6 
#
# 1 66.2730 18.1587 24.2201 0.0000 0.0000 0.0000
# 2 18.1587 72.8172 19.9678 0.0000 0.0000 0.0000
# 3 24.2201 19.9678 48.6198 0.0000 0.0000 0.0000
# 4 0.0000 0.0000 0.0000 7.0413 0.0000 0.0000
# 5 0.0000 0.0000 0.0000 0.0000 15.3900 0.0000
# 6 0.0000 0.0000 0.0000 0.0000 0.0000 10.7658
#
#
#
# Elastic Compliance Matrix: (Units=1/GPa)
#
#
# Indices 1 2 3 4 5 6 
#
# 1 0.018810 -0.002390 -0.008388 0.000000 0.000000 0.000000
# 2 -0.002390 0.015780 -0.005290 0.000000 0.000000 0.000000
# 3 -0.008388 -0.005290 0.026919 0.000000 0.000000 0.000000
# 4 0.000000 0.000000 0.000000 0.142019 0.000000 0.000000
# 5 0.000000 0.000000 0.000000 0.000000 0.064977 0.000000
# 6 0.000000 0.000000 0.000000 0.000000 0.000000 0.092887
#
#
# Mechanical properties :
#
#
# Convention : Reuss Voigt Hill
#
# Bulk Modulus (GPa) = 34.04704 34.71145 34.37925
# Shear Modulus (GPa) = 12.39714 14.99699 13.69706
#
# Velocity S-wave (km/s) = 2.84856 3.13304 2.99418
# Velocity P-wave (km/s) = 5.75359 5.98394 5.86989
#
# Compressibility (1/GPa) = 0.02937113
#
# Stress axis : x y z
#
# Youngs Moduli (GPa) = 53.16417 63.37263 37.14857
#
# Poissons Ratio (x) = 0.15149 0.31162
# Poissons Ratio (y) = 0.12708 0.19651
# Poissons Ratio (z) = 0.44596 0.33523
#
# Static dielectric constant tensor:
#      x y z
#    x 2.821630 0.000000 0.000000 
#    y 0.000000 2.837790 0.000000 
#    z 0.000000 0.000000 3.019930 
# 
# 
# High freq. dielectric constant tensor:
#      x y z
#    x 1.578810 0.000000 0.000000 
#    y 0.000000 1.540470 0.000000 
#    z 0.000000 0.000000 1.582480 
# 
# From -- ./inp_files/25270.got.cif
#   From: 2010.03.12/outbox.cif.g09.slc.cpg/sg51_13_cif.got.tgz:25270.got - 2010.04.16 13:43:02.
