data_PCOD8210158
_publ_section_title
;
Structure prediction by ZEFSAII (Michael W. Deem and Ramdas Pophale) SiO2 
 PCOD8210158
Probable space group: P M M A
;
_chemical_formula_sum "Si O2"
_cell_formula_units_Z 48
_cell_length_a 9.276357
_cell_length_b 17.332966
_cell_length_c 17.608343
_cell_angle_alpha 90.000000
_cell_angle_beta 90.000000
_cell_angle_gamma 90.000000
_cell_volume 2831.188781
_symmetry_space_group_name_H-M "P M M A"
_symmetry_group_IT_number 51
_symmetry_cell_setting 'orthorhombic'
loop_
_space_group_symop_operation_xyz
x,y,z
1/2-x,-y,z
1/2+x,-y,-z
-x,y,-z
-x,-y,-z
1/2+x,y,-z
1/2-x,y,z
x,-y,z
loop_
_atom_site_type_symbol
_atom_site_label
_atom_site_fract_x
_atom_site_fract_y
_atom_site_fract_z
Si Si1 0.911681 0.188597 0.194720
Si Si2 0.416109 0.091164 0.076689
Si Si3 0.919946 0.412360 0.577679
Si Si4 0.593761 0.689630 0.064474
Si Si5 0.585932 0.701599 0.708976
Si Si6 0.589198 0.415047 0.846450
O O1 0.750000 0.157215 0.215019
O O2 0.894739 0.258532 0.137737
O O3 0.007804 0.123845 0.152776
O O4 0.989578 0.222397 0.270854
O O5 0.250000 0.120752 0.071311
O O6 0.420073 0.000000 0.085398
O O7 0.500000 0.116571 0.000000
O O8 0.750000 0.405407 0.564814
O O9 0.957695 0.500000 0.605429
O O10 0.972721 0.346406 0.636552
O O11 0.000000 0.393477 0.500000
O O12 0.750000 0.671111 0.030791
O O13 0.516265 0.609654 0.085753
O O14 0.500000 0.732940 0.000000
O O15 0.750000 0.729885 0.695856
O O16 0.577603 0.641816 0.776688
O O17 0.750000 0.413972 0.879778
O O18 0.545489 0.500000 0.817963
#
# Coordination Sequence:
#
# PCOD8210158 Si02
#       6
#     8   8   8   8   8   8
#     4  10  20  32  47  67  90 117 150 187 227 272
#     4  10  20  33  50  72  97 125 156 190 230 276
#     4   9  17  29  46  69  96 126 159 195 237 283
#     4  10  20  31  42  57  77 104 139 178 220 263
#     4   9  17  30  47  65  88 118 151 187 227 273
#     4   9  17  29  44  59  75 101 139 181 223 264
#
# _framework density 16.95401
#
# number of rings (size 3 to 8) (size 9 to 14) (size 15 to 20)
#    0.000    2.500    0.000    2.500    0.000    7.667 
#    0.000    0.000    0.000    3.000    0.000    0.000 
#    0.000    0.667    0.000    2.167    0.000    2.667 
#
# Total GULP energy -594798.572307 kJ/mol
# GULP energy per Si atom -12391.636923 kJ/mol
# Density = 1.691542 g / cm^3
# Si number density = 16.954010 Si / 1000 Ang^3
#
#
#
# Elastic Constant Matrix: (Units=GPa)
#
#
# Indices 1 2 3 4 5 6 
#
# 1 114.5154 32.1526 39.8920 0.0000 0.0000 0.0000
# 2 32.1526 47.7251 22.0134 0.0000 0.0000 0.0000
# 3 39.8920 22.0134 71.7812 0.0000 0.0000 0.0000
# 4 0.0000 0.0000 0.0000 31.1057 0.0000 0.0000
# 5 0.0000 0.0000 0.0000 0.0000 26.8467 0.0000
# 6 0.0000 0.0000 0.0000 0.0000 0.0000 0.5887
#
#
#
# Elastic Compliance Matrix: (Units=1/GPa)
#
#
# Indices 1 2 3 4 5 6 
#
# 1 0.012097 -0.005881 -0.004920 0.000000 0.000000 0.000000
# 2 -0.005881 0.027265 -0.005093 0.000000 0.000000 0.000000
# 3 -0.004920 -0.005093 0.018227 0.000000 0.000000 0.000000
# 4 0.000000 0.000000 0.000000 0.032148 0.000000 0.000000
# 5 0.000000 0.000000 0.000000 0.000000 0.037248 0.000000
# 6 0.000000 0.000000 0.000000 0.000000 0.000000 1.698564
#
#
# Mechanical properties :
#
#
# Convention : Reuss Voigt Hill
#
# Bulk Modulus (GPa) = 38.75657 46.90419 42.83038
# Shear Modulus (GPa) = 2.67962 21.03914 11.85938
#
# Velocity S-wave (km/s) = 1.25855 3.52654 2.64768
# Velocity P-wave (km/s) = 5.00214 6.65639 5.88766
#
# Compressibility (1/GPa) = 0.02580207
#
# Stress axis : x y z
#
# Youngs Moduli (GPa) = 82.66255 36.67773 54.86326
#
# Poissons Ratio (x) = 0.21570 0.26990
# Poissons Ratio (y) = 0.48613 0.27942
# Poissons Ratio (z) = 0.40666 0.18680
#
# Static dielectric constant tensor:
#      x y z
#    x 3.676870 0.000000 0.000000 
#    y 0.000000 3.070180 0.000000 
#    z 0.000000 0.000000 3.040470 
# 
# 
# High freq. dielectric constant tensor:
#      x y z
#    x 1.665450 0.000000 0.000000 
#    y 0.000000 1.632000 0.000000 
#    z 0.000000 0.000000 1.621340 
# 
# From -- ./inp_files/27812.got.cif
#   From: 2010.03.12/outbox.cif.g09.slc.cpg/sg51_14_cif.got.tgz:27812.got - 2010.04.16 13:43:02.
