data_PCOD8210685
_publ_section_title
;
Structure prediction by ZEFSAII (Michael W. Deem and Ramdas Pophale) SiO2 
 PCOD8210685
Probable space group: P M M A
;
_chemical_formula_sum "Si O2"
_cell_formula_units_Z 48
_cell_length_a 9.213768
_cell_length_b 13.689714
_cell_length_c 23.794283
_cell_angle_alpha 90.000000
_cell_angle_beta 90.000000
_cell_angle_gamma 90.000000
_cell_volume 3001.264494
_symmetry_space_group_name_H-M "P M M A"
_symmetry_group_IT_number 51
_symmetry_cell_setting 'orthorhombic'
loop_
_space_group_symop_operation_xyz
x,y,z
1/2-x,-y,z
1/2+x,-y,-z
-x,y,-z
-x,-y,-z
1/2+x,y,-z
1/2-x,y,z
x,-y,z
loop_
_atom_site_type_symbol
_atom_site_label
_atom_site_fract_x
_atom_site_fract_y
_atom_site_fract_z
Si Si1 0.418516 0.277024 0.225021
Si Si2 0.418203 0.387497 0.112513
Si Si3 0.419839 0.110756 0.831982
Si Si4 0.080310 0.612925 0.336315
Si Si5 0.420658 0.220909 0.944768
Si Si6 0.913976 0.616310 0.446268
O O1 0.250000 0.251725 0.227693
O O2 0.452533 0.354149 0.175889
O O3 0.502032 0.175825 0.215033
O O4 0.472105 0.324772 0.282950
O O5 0.250000 0.369257 0.097710
O O6 0.461163 0.500000 0.106880
O O7 0.517104 0.328197 0.068966
O O8 0.250000 0.119510 0.821251
O O9 0.459553 0.147378 0.894383
O O10 0.474763 0.000000 0.825908
O O11 0.250000 0.626638 0.348583
O O12 0.044375 0.500000 0.324054
O O13 0.992739 0.652976 0.389874
O O14 0.250000 0.228414 0.955648
O O15 0.500000 0.179370 0.000000
O O16 0.750000 0.656726 0.447380
O O17 0.915195 0.500000 0.448236
O O18 0.000000 0.658563 0.500000
#
# Coordination Sequence:
#
# PCOD8210685 Si02
#       6
#     8   8   8   8   8   8
#     4   9  17  29  46  68  90 112 143 180 215 255
#     4   9  17  30  47  65  87 116 146 175 209 250
#     4   9  19  35  51  66  86 111 137 171 219 267
#     4   9  16  26  41  62  90 122 151 180 215 253
#     4  10  20  33  48  66  87 110 139 175 213 256
#     4   9  16  25  37  55  82 118 158 193 221 250
#
# _framework density 15.993259
#
# number of rings (size 3 to 8) (size 9 to 14) (size 15 to 20)
#    0.000    2.833    0.000    1.500    0.000    6.667 
#    0.000    0.000    0.000    3.000    0.000    0.000 
#    0.000    0.667    0.000    2.167    0.000    3.167 
#
# Total GULP energy -595247.902748 kJ/mol
# GULP energy per Si atom -12400.997974 kJ/mol
# Density = 1.595686 g / cm^3
# Si number density = 15.993259 Si / 1000 Ang^3
#
#
#
# Elastic Constant Matrix: (Units=GPa)
#
#
# Indices 1 2 3 4 5 6 
#
# 1 70.7222 35.6254 55.0595 0.0000 0.0000 0.0000
# 2 35.6254 86.4363 41.2881 0.0000 0.0000 0.0000
# 3 55.0595 41.2881 120.2493 0.0000 0.0000 0.0000
# 4 0.0000 0.0000 0.0000 14.1869 0.0000 0.0000
# 5 0.0000 0.0000 0.0000 0.0000 30.1123 0.0000
# 6 0.0000 0.0000 0.0000 0.0000 0.0000 21.6744
#
#
#
# Elastic Compliance Matrix: (Units=1/GPa)
#
#
# Indices 1 2 3 4 5 6 
#
# 1 0.024014 -0.005557 -0.009087 0.000000 0.000000 0.000000
# 2 -0.005557 0.015125 -0.002649 0.000000 0.000000 0.000000
# 3 -0.009087 -0.002649 0.013387 0.000000 0.000000 0.000000
# 4 0.000000 0.000000 0.000000 0.070488 0.000000 0.000000
# 5 0.000000 0.000000 0.000000 0.000000 0.033209 0.000000
# 6 0.000000 0.000000 0.000000 0.000000 0.000000 0.046137
#
#
# Mechanical properties :
#
#
# Convention : Reuss Voigt Hill
#
# Bulk Modulus (GPa) = 55.74435 60.15041 57.94738
# Shear Modulus (GPa) = 20.58250 22.89037 21.73644
#
# Velocity S-wave (km/s) = 3.59130 3.78729 3.69060
# Velocity P-wave (km/s) = 7.21991 7.53766 7.38050
#
# Compressibility (1/GPa) = 0.01793904
#
# Stress axis : x y z
#
# Youngs Moduli (GPa) = 41.64265 66.11690 74.70199
#
# Poissons Ratio (x) = 0.36739 0.67885
# Poissons Ratio (y) = 0.23139 0.19788
# Poissons Ratio (z) = 0.37843 0.17514
#
# Static dielectric constant tensor:
#      x y z
#    x 3.062950 0.000000 0.000000 
#    y 0.000000 2.815030 0.000000 
#    z 0.000000 0.000000 3.096620 
# 
# 
# High freq. dielectric constant tensor:
#      x y z
#    x 1.618880 0.000000 0.000000 
#    y 0.000000 1.577920 0.000000 
#    z 0.000000 0.000000 1.613580 
# 
# From -- ./inp_files/31595.got.cif
#   From: 2010.03.12/outbox.cif.g09.slc.cpg/sg51_16_cif.got.tgz:31595.got - 2010.04.16 13:43:02.
