data_PCOD8210113
_publ_section_title
;
Structure prediction by ZEFSAII (Michael W. Deem and Ramdas Pophale) SiO2 
 PCOD8210113
Probable space group: P M M A
;
_chemical_formula_sum "Si O2"
_cell_formula_units_Z 48
_cell_length_a 8.739401
_cell_length_b 15.102263
_cell_length_c 19.054352
_cell_angle_alpha 90.000000
_cell_angle_beta 90.000000
_cell_angle_gamma 90.000000
_cell_volume 2514.883549
_symmetry_space_group_name_H-M "P M M A"
_symmetry_group_IT_number 51
_symmetry_cell_setting 'orthorhombic'
loop_
_space_group_symop_operation_xyz
x,y,z
1/2-x,-y,z
1/2+x,-y,-z
-x,y,-z
-x,-y,-z
1/2+x,y,-z
1/2-x,y,z
x,-y,z
loop_
_atom_site_type_symbol
_atom_site_label
_atom_site_fract_x
_atom_site_fract_y
_atom_site_fract_z
Si Si1 0.069306 0.500000 0.076584
Si Si2 0.430074 0.000000 0.076301
Si Si3 0.931476 0.838501 0.827360
Si Si4 0.929454 0.348546 0.169123
Si Si5 0.070158 0.747390 0.424035
Si Si6 0.568028 0.901382 0.674917
Si Si7 0.426282 0.601657 0.313781
O O1 0.250000 0.500000 0.071351
O O2 0.017001 0.413042 0.117100
O O3 0.000000 0.500000 0.000000
O O4 0.484217 0.086693 0.118121
O O5 0.250000 0.000000 0.069625
O O6 0.500000 0.000000 0.000000
O O7 0.750000 0.822760 0.828380
O O8 0.988423 0.867312 0.750350
O O9 0.018031 0.749984 0.849750
O O10 0.750000 0.359100 0.157024
O O11 0.968382 0.372858 0.248850
O O12 0.250000 0.754687 0.432165
O O13 0.005853 0.834988 0.384857
O O14 0.023744 0.660636 0.379927
O O15 0.000000 0.739107 0.500000
O O16 0.750000 0.903301 0.675209
O O17 0.503081 0.000000 0.660294
O O18 0.250000 0.621016 0.292921
O O19 0.450845 0.500000 0.335226
#
# Coordination Sequence:
#
# PCOD8210113 Si02
#       7
#     4   4   8   8   8   8   8
#     4  12  26  46  68  92 125 162 201 250 302 356
#     4  10  22  38  62  90 121 158 200 249 300 355
#     4  10  19  37  63  88 114 158 210 249 295 356
#     4  12  24  38  61  95 127 158 199 248 302 360
#     4  10  21  36  55  83 118 154 195 246 303 360
#     4   9  16  31  58  85 108 145 203 252 290 351
#     4  10  20  37  62  86 111 154 205 246 293 356
#
# _framework density 19.086369000000001
#
# number of rings (size 3 to 8) (size 9 to 14) (size 15 to 20)
#    0.000    1.667    3.333    2.250    0.000    2.667 
#    0.000    1.667    0.000    1.000    0.000    0.000 
#    0.000    0.000    0.000    0.000    0.000    0.000 
#
# Total GULP energy -595329.549771 kJ/mol
# GULP energy per Si atom -12402.698954 kJ/mol
# Density = 1.904293 g / cm^3
# Si number density = 19.086369 Si / 1000 Ang^3
#
#
#
# Elastic Constant Matrix: (Units=GPa)
#
#
# Indices 1 2 3 4 5 6 
#
# 1 75.2086 49.8541 48.0867 0.0000 0.0000 0.0000
# 2 49.8541 184.2576 86.0217 0.0000 0.0000 0.0000
# 3 48.0867 86.0217 167.0914 0.0000 0.0000 0.0000
# 4 0.0000 0.0000 0.0000 -14.5727 0.0000 0.0000
# 5 0.0000 0.0000 0.0000 0.0000 33.3235 0.0000
# 6 0.0000 0.0000 0.0000 0.0000 0.0000 6.1246
#
#
#
# Elastic Compliance Matrix: (Units=1/GPa)
#
#
# Indices 1 2 3 4 5 6 
#
# 1 0.017584 -0.003153 -0.003437 0.000000 0.000000 0.000000
# 2 -0.003153 0.007710 -0.003062 0.000000 0.000000 0.000000
# 3 -0.003437 -0.003062 0.008550 0.000000 0.000000 0.000000
# 4 0.000000 0.000000 0.000000 -0.068621 0.000000 0.000000
# 5 0.000000 0.000000 0.000000 0.000000 0.030009 0.000000
# 6 0.000000 0.000000 0.000000 0.000000 0.000000 0.163277
#
#
# Mechanical properties :
#
#
# Convention : Reuss Voigt Hill
#
# Bulk Modulus (GPa) = 68.77552 88.27583 78.52567
# Shear Modulus (GPa) = 27.37345 21.14810 24.26077
#
# Velocity S-wave (km/s) = 3.79118 3.33231 3.56912
# Velocity P-wave (km/s) = 7.43479 7.82028 7.62997
#
# Compressibility (1/GPa) = 0.01454006
#
# Stress axis : x y z
#
# Youngs Moduli (GPa) = 56.86962 129.70784 116.95698
#
# Poissons Ratio (x) = 0.40897 0.40201
# Poissons Ratio (y) = 0.17931 0.35808
# Poissons Ratio (z) = 0.19548 0.39712
#
# Static dielectric constant tensor:
#      x y z
#    x 3.208120 0.000000 0.000000 
#    y 0.000000 3.811570 0.000000 
#    z 0.000000 0.000000 3.430990 
# 
# 
# High freq. dielectric constant tensor:
#      x y z
#    x 1.717240 0.000000 0.000000 
#    y 0.000000 1.764760 0.000000 
#    z 0.000000 0.000000 1.741500 
# 
# From -- ./inp_files/27656.got.cif
#   From: 2010.03.12/outbox.cif.g09.slc.cpg/sg51_14_cif.got.tgz:27656.got - 2010.04.16 13:43:02.
