data_PCOD8210939
_publ_section_title
;
Structure prediction by ZEFSAII (Michael W. Deem and Ramdas Pophale) SiO2 
 PCOD8210939
Probable space group: P M M A
;
_chemical_formula_sum "Si O2"
_cell_formula_units_Z 40
_cell_length_a 9.630656
_cell_length_b 9.134779
_cell_length_c 25.738034
_cell_angle_alpha 90.000000
_cell_angle_beta 90.000000
_cell_angle_gamma 90.000000
_cell_volume 2264.275594
_symmetry_space_group_name_H-M "P M M A"
_symmetry_group_IT_number 51
_symmetry_cell_setting 'orthorhombic'
loop_
_space_group_symop_operation_xyz
x,y,z
1/2-x,-y,z
1/2+x,-y,-z
-x,y,-z
-x,-y,-z
1/2+x,y,-z
1/2-x,y,z
x,-y,z
loop_
_atom_site_type_symbol
_atom_site_label
_atom_site_fract_x
_atom_site_fract_y
_atom_site_fract_z
Si Si1 0.585051 0.837370 0.159126
Si Si2 0.589801 0.668912 0.548639
Si Si3 0.413434 0.669370 0.740177
Si Si4 0.910135 0.171867 0.653466
Si Si5 0.095485 0.825546 0.954492
O O1 0.750000 0.845773 0.156829
O O2 0.534993 0.726480 0.203666
O O3 0.534055 0.781410 0.102335
O O4 0.525672 0.000000 0.171312
O O5 0.500000 0.723649 0.500000
O O6 0.750000 0.693401 0.534260
O O7 0.558139 0.500000 0.561695
O O8 0.545126 0.764133 0.597962
O O9 0.250000 0.696796 0.732777
O O10 0.452218 0.500000 0.735873
O O11 0.493576 0.757525 0.696574
O O12 0.750000 0.210672 0.665431
O O13 0.936272 0.000000 0.652699
O O14 0.250000 0.761159 0.962190
O O15 0.100213 0.000000 0.957773
O O16 0.000000 0.758696 0.000000
#
# Coordination Sequence:
#
# PCOD8210939 Si02
#       5
#     8   8   8   8   8
#     4   8  14  26  44  65  91 122 154 192 239 285
#     4   9  18  33  52  73  99 131 164 197 234 279
#     4  10  20  33  51  74  97 125 164 205 244 290
#     4  10  21  36  53  74 101 132 164 199 243 291
#     4   8  13  22  38  60  85 114 148 187 232 279
#
# _framework density 17.665693000000001
#
# number of rings (size 3 to 8) (size 9 to 14) (size 15 to 20)
#    0.000    3.000    0.000    2.400    0.000    3.600 
#    0.000    3.000    0.000    4.200    0.000    0.000 
#    0.000    0.000    0.000    0.000    0.000    0.000 
#
# Total GULP energy -495886.454204 kJ/mol
# GULP energy per Si atom -12397.161355 kJ/mol
# Density = 1.762548 g / cm^3
# Si number density = 17.665693 Si / 1000 Ang^3
#
#
#
# Elastic Constant Matrix: (Units=GPa)
#
#
# Indices 1 2 3 4 5 6 
#
# 1 53.3883 32.9877 66.2618 0.0000 0.0000 0.0000
# 2 32.9877 73.3888 67.4246 0.0000 0.0000 0.0000
# 3 66.2618 67.4246 175.9297 0.0000 0.0000 0.0000
# 4 0.0000 0.0000 0.0000 -35.4256 0.0000 0.0000
# 5 0.0000 0.0000 0.0000 0.0000 33.9343 0.0000
# 6 0.0000 0.0000 0.0000 0.0000 0.0000 18.7213
#
#
#
# Elastic Compliance Matrix: (Units=1/GPa)
#
#
# Indices 1 2 3 4 5 6 
#
# 1 0.036739 -0.005867 -0.011589 0.000000 0.000000 0.000000
# 2 -0.005867 0.021968 -0.006210 0.000000 0.000000 0.000000
# 3 -0.011589 -0.006210 0.012429 0.000000 0.000000 0.000000
# 4 0.000000 0.000000 0.000000 -0.028228 0.000000 0.000000
# 5 0.000000 0.000000 0.000000 0.000000 0.029469 0.000000
# 6 0.000000 0.000000 0.000000 0.000000 0.000000 0.053415
#
#
# Mechanical properties :
#
#
# Convention : Reuss Voigt Hill
#
# Bulk Modulus (GPa) = 42.00751 70.67278 56.34015
# Shear Modulus (GPa) = 27.61567 12.51486 20.06527
#
# Velocity S-wave (km/s) = 3.95807 2.66452 3.37387
# Velocity P-wave (km/s) = 6.68724 7.03980 6.86578
#
# Compressibility (1/GPa) = 0.02380527
#
# Stress axis : x y z
#
# Youngs Moduli (GPa) = 27.21909 45.52075 80.45915
#
# Poissons Ratio (x) = 0.26706 0.93243
# Poissons Ratio (y) = 0.15969 0.49961
# Poissons Ratio (z) = 0.31544 0.28266
#
# Static dielectric constant tensor:
#      x y z
#    x 3.096970 0.000000 0.000000 
#    y 0.000000 3.151040 0.000000 
#    z 0.000000 0.000000 3.625360 
# 
# 
# High freq. dielectric constant tensor:
#      x y z
#    x 1.657220 0.000000 0.000000 
#    y 0.000000 1.663140 0.000000 
#    z 0.000000 0.000000 1.698510 
# 
# From -- ./inp_files/28815.got.cif
#   From: 2010.03.12/outbox.cif.g09.slc.cpg/sg51_15_cif.got.tgz:28815.got - 2010.04.16 13:43:02.
