data_PCOD8210443
_publ_section_title
;
Structure prediction by ZEFSAII (Michael W. Deem and Ramdas Pophale) SiO2 
 PCOD8210443
Probable space group: P M M A
;
_chemical_formula_sum "Si O2"
_cell_formula_units_Z 56
_cell_length_a 8.850930
_cell_length_b 20.135693
_cell_length_c 15.491273
_cell_angle_alpha 90.000000
_cell_angle_beta 90.000000
_cell_angle_gamma 90.000000
_cell_volume 2760.848621
_symmetry_space_group_name_H-M "P M M A"
_symmetry_group_IT_number 51
_symmetry_cell_setting 'orthorhombic'
loop_
_space_group_symop_operation_xyz
x,y,z
1/2-x,-y,z
1/2+x,-y,-z
-x,y,-z
-x,-y,-z
1/2+x,y,-z
1/2-x,y,z
x,-y,z
loop_
_atom_site_type_symbol
_atom_site_label
_atom_site_fract_x
_atom_site_fract_y
_atom_site_fract_z
Si Si1 0.926648 0.702119 0.677463
Si Si2 0.570278 0.178090 0.410496
Si Si3 0.075614 0.574141 0.735674
Si Si4 0.070653 0.073950 0.731563
Si Si5 0.580877 0.253184 0.869303
Si Si6 0.573646 0.123871 0.086060
Si Si7 0.922483 0.599394 0.914580
O O1 0.750000 0.700089 0.655998
O O2 0.961456 0.733537 0.770212
O O3 0.011797 0.747505 0.607823
O O4 0.989176 0.626743 0.674606
O O5 0.500000 0.153015 0.500000
O O6 0.750000 0.178122 0.416214
O O7 0.509026 0.127099 0.337513
O O8 0.250000 0.595283 0.740789
O O9 0.056944 0.500000 0.696235
O O10 0.009483 0.572793 0.831720
O O11 0.250000 0.078686 0.734383
O O12 0.007042 0.089885 0.827349
O O13 0.017339 0.000000 0.704810
O O14 0.750000 0.223237 0.876587
O O15 0.461783 0.202285 0.909769
O O16 0.569581 0.321245 0.921228
O O17 0.750000 0.112178 0.078870
O O18 0.500000 0.092247 0.000000
O O19 0.750000 0.574854 0.908606
O O20 0.000000 0.569299 0.000000
#
# Coordination Sequence:
#
# PCOD8210443 Si02
#       7
#     8   8   8   8   8   8   8
#     4  10  20  36  60  87 117 151 191 242 293 348
#     4  11  22  39  65  95 123 155 194 241 296 357
#     4  10  21  36  55  80 111 151 196 240 292 356
#     4   9  20  39  60  84 119 161 201 243 296 355
#     4   9  18  32  51  76 107 143 188 242 294 344
#     4  11  21  33  53  80 111 154 201 246 295 346
#     4  10  20  32  47  71 104 147 194 248 302 354
#
# _framework density 20.283618000000001
#
# number of rings (size 3 to 8) (size 9 to 14) (size 15 to 20)
#    0.000    2.000    1.429    3.429    0.000    6.000 
#    0.000    0.000    0.000    6.429    0.000    0.000 
#    0.000    0.000    0.000    0.000    0.000    0.000 
#
# Total GULP energy -694419.354286 kJ/mol
# GULP energy per Si atom -12400.345612 kJ/mol
# Density = 2.023745 g / cm^3
# Si number density = 20.283618 Si / 1000 Ang^3
#
#
#
# Elastic Constant Matrix: (Units=GPa)
#
#
# Indices 1 2 3 4 5 6 
#
# 1 93.7386 32.9045 39.1225 0.0000 0.0000 0.0000
# 2 32.9045 114.7513 46.4422 0.0000 0.0000 0.0000
# 3 39.1225 46.4422 113.1649 0.0000 0.0000 0.0000
# 4 0.0000 0.0000 0.0000 1.9007 0.0000 0.0000
# 5 0.0000 0.0000 0.0000 0.0000 31.9237 0.0000
# 6 0.0000 0.0000 0.0000 0.0000 0.0000 15.9288
#
#
#
# Elastic Compliance Matrix: (Units=1/GPa)
#
#
# Indices 1 2 3 4 5 6 
#
# 1 0.012946 -0.002279 -0.003540 0.000000 0.000000 0.000000
# 2 -0.002279 0.010852 -0.003665 0.000000 0.000000 0.000000
# 3 -0.003540 -0.003665 0.011565 0.000000 0.000000 0.000000
# 4 0.000000 0.000000 0.000000 0.526120 0.000000 0.000000
# 5 0.000000 0.000000 0.000000 0.000000 0.031325 0.000000
# 6 0.000000 0.000000 0.000000 0.000000 0.000000 0.062779
#
#
# Mechanical properties :
#
#
# Convention : Reuss Voigt Hill
#
# Bulk Modulus (GPa) = 61.00429 62.06590 61.53510
# Shear Modulus (GPa) = 7.35273 23.49635 15.42454
#
# Velocity S-wave (km/s) = 1.90600 3.40721 2.76061
# Velocity P-wave (km/s) = 5.91479 6.79295 6.36902
#
# Compressibility (1/GPa) = 0.01639229
#
# Stress axis : x y z
#
# Youngs Moduli (GPa) = 77.24684 92.15259 86.46977
#
# Poissons Ratio (x) = 0.21005 0.30610
# Poissons Ratio (y) = 0.17607 0.31695
# Poissons Ratio (z) = 0.27345 0.33778
#
# Static dielectric constant tensor:
#      x y z
#    x 3.584420 0.000000 0.000000 
#    y 0.000000 3.709400 0.000000 
#    z 0.000000 0.000000 3.590440 
# 
# 
# High freq. dielectric constant tensor:
#      x y z
#    x 1.785740 0.000000 0.000000 
#    y 0.000000 1.791130 0.000000 
#    z 0.000000 0.000000 1.774640 
# 
# From -- ./inp_files/21861.got.cif
#   From: 2010.03.12/outbox.cif.g09.slc.cpg/sg51_11_cif.got.tgz:21861.got - 2010.04.16 13:43:02.
