data_PCOD8210732
_publ_section_title
;
Structure prediction by ZEFSAII (Michael W. Deem and Ramdas Pophale) SiO2 
 PCOD8210732
Probable space group: P M M A
;
_chemical_formula_sum "Si O2"
_cell_formula_units_Z 48
_cell_length_a 20.266104
_cell_length_b 13.190536
_cell_length_c 10.166646
_cell_angle_alpha 90.000000
_cell_angle_beta 90.000000
_cell_angle_gamma 90.000000
_cell_volume 2717.755682
_symmetry_space_group_name_H-M "P M M A"
_symmetry_group_IT_number 51
_symmetry_cell_setting 'orthorhombic'
loop_
_space_group_symop_operation_xyz
x,y,z
1/2-x,-y,z
1/2+x,-y,-z
-x,y,-z
-x,-y,-z
1/2+x,y,-z
1/2-x,y,z
x,-y,z
loop_
_atom_site_type_symbol
_atom_site_label
_atom_site_fract_x
_atom_site_fract_y
_atom_site_fract_z
Si Si1 0.043858 0.119029 0.373983
Si Si2 0.132654 0.381553 0.159106
Si Si3 0.325869 0.239085 0.384786
Si Si4 0.823961 0.391052 0.404397
Si Si5 0.373678 0.384884 0.867795
Si Si6 0.001690 0.736949 0.148125
O O1 0.121946 0.147227 0.379246
O O2 0.012249 0.170378 0.246293
O O3 0.000000 0.152536 0.500000
O O4 0.039394 0.000000 0.353865
O O5 0.141818 0.500000 0.196415
O O6 0.174493 0.310927 0.256377
O O7 0.056038 0.350955 0.166618
O O8 0.157596 0.357698 0.009983
O O9 0.250000 0.199487 0.404860
O O10 0.355663 0.302861 0.508101
O O11 0.750000 0.399364 0.456880
O O12 0.860057 0.500000 0.428835
O O13 0.820910 0.368475 0.248233
O O14 0.399733 0.500000 0.876948
O O15 0.432645 0.314103 0.820953
O O16 0.000000 0.780642 0.000000
#
# Coordination Sequence:
#
# PCOD8210732 Si02
#       6
#     8   8   8   8   8   8
#     4  10  21  36  53  72  92 117 156 206 253 295
#     4   9  17  28  44  69  99 128 157 187 220 267
#     4  10  20  33  49  69  95 127 159 195 242 291
#     4   9  17  28  42  63  91 122 155 187 221 267
#     4   9  16  27  45  68  96 129 159 188 223 266
#     4   9  17  30  48  70  95 122 153 189 232 280
#
# _framework density 17.661632000000001
#
# number of rings (size 3 to 8) (size 9 to 14) (size 15 to 20)
#    0.000    2.667    0.000    2.000    0.000    4.333 
#    0.000    1.667    0.000    8.000    0.000    0.000 
#    0.000    8.000    0.000    0.000    0.000    0.000 
#
# Total GULP energy -594736.952230 kJ/mol
# GULP energy per Si atom -12390.353171 kJ/mol
# Density = 1.762143 g / cm^3
# Si number density = 17.661632 Si / 1000 Ang^3
#
#
#
# Elastic Constant Matrix: (Units=GPa)
#
#
# Indices 1 2 3 4 5 6 
#
# 1 66.2400 25.2077 22.5204 0.0000 0.0000 0.0000
# 2 25.2077 67.4411 37.0110 0.0000 0.0000 0.0000
# 3 22.5204 37.0110 102.8044 0.0000 0.0000 0.0000
# 4 0.0000 0.0000 0.0000 24.6128 0.0000 0.0000
# 5 0.0000 0.0000 0.0000 0.0000 25.1120 0.0000
# 6 0.0000 0.0000 0.0000 0.0000 0.0000 15.1083
#
#
#
# Elastic Compliance Matrix: (Units=1/GPa)
#
#
# Indices 1 2 3 4 5 6 
#
# 1 0.017888 -0.005652 -0.001884 0.000000 0.000000 0.000000
# 2 -0.005652 0.020265 -0.006057 0.000000 0.000000 0.000000
# 3 -0.001884 -0.006057 0.012321 0.000000 0.000000 0.000000
# 4 0.000000 0.000000 0.000000 0.040629 0.000000 0.000000
# 5 0.000000 0.000000 0.000000 0.000000 0.039822 0.000000
# 6 0.000000 0.000000 0.000000 0.000000 0.000000 0.066189
#
#
# Mechanical properties :
#
#
# Convention : Reuss Voigt Hill
#
# Bulk Modulus (GPa) = 42.94317 45.10708 44.02513
# Shear Modulus (GPa) = 21.54598 23.08304 22.31451
#
# Velocity S-wave (km/s) = 3.49654 3.61911 3.55835
# Velocity P-wave (km/s) = 6.37716 6.56194 6.47021
#
# Compressibility (1/GPa) = 0.02328659
#
# Stress axis : x y z
#
# Youngs Moduli (GPa) = 55.90334 49.34700 81.16509
#
# Poissons Ratio (x) = 0.27893 0.15289
# Poissons Ratio (y) = 0.31598 0.49165
# Poissons Ratio (z) = 0.10530 0.29891
#
# Static dielectric constant tensor:
#      x y z
#    x 3.094650 0.000000 0.000000 
#    y 0.000000 3.036900 0.000000 
#    z 0.000000 0.000000 3.522100 
# 
# 
# High freq. dielectric constant tensor:
#      x y z
#    x 1.670690 0.000000 0.000000 
#    y 0.000000 1.654610 0.000000 
#    z 0.000000 0.000000 1.700050 
# 
# From -- ./inp_files/10795.got.cif
#   From: 2010.03.12/outbox.cif.g09.slc.cpg/sg51_6_cif.got.tgz:10795.got - 2010.04.16 13:43:02.
