data_PCOD8210994
_publ_section_title
;
Structure prediction by ZEFSAII (Michael W. Deem and Ramdas Pophale) SiO2 
 PCOD8210994
Probable space group: P M M A
;
_chemical_formula_sum "Si O2"
_cell_formula_units_Z 64
_cell_length_a 9.529981
_cell_length_b 14.999689
_cell_length_c 24.514604
_cell_angle_alpha 90.000000
_cell_angle_beta 90.000000
_cell_angle_gamma 90.000000
_cell_volume 3504.282998
_symmetry_space_group_name_H-M "P M M A"
_symmetry_group_IT_number 51
_symmetry_cell_setting 'orthorhombic'
loop_
_space_group_symop_operation_xyz
x,y,z
1/2-x,-y,z
1/2+x,-y,-z
-x,y,-z
-x,-y,-z
1/2+x,y,-z
1/2-x,y,z
x,-y,z
loop_
_atom_site_type_symbol
_atom_site_label
_atom_site_fract_x
_atom_site_fract_y
_atom_site_fract_z
Si Si1 0.906414 0.097602 0.638855
Si Si2 0.084594 0.734188 0.767400
Si Si3 0.587401 0.287720 0.945065
Si Si4 0.411220 0.258786 0.640766
Si Si5 0.086914 0.395499 0.159529
Si Si6 0.910278 0.093984 0.946398
Si Si7 0.907513 0.098947 0.768407
Si Si8 0.087244 0.601859 0.551281
O O1 0.750000 0.115235 0.616685
O O2 0.905900 0.099956 0.703725
O O3 0.006895 0.174142 0.616114
O O4 0.959133 0.000000 0.619115
O O5 0.250000 0.735841 0.780124
O O6 0.052592 0.721399 0.703456
O O7 0.011670 0.650460 0.795915
O O8 0.016392 0.826513 0.789696
O O9 0.750000 0.297930 0.960926
O O10 0.543826 0.360391 0.900323
O O11 0.556500 0.189108 0.917619
O O12 0.500000 0.303982 0.000000
O O13 0.250000 0.234126 0.634003
O O14 0.454004 0.344662 0.605635
O O15 0.250000 0.373542 0.171886
O O16 0.056913 0.500000 0.161607
O O17 0.750000 0.095737 0.965238
O O18 0.938473 0.000000 0.912674
O O19 0.000000 0.090119 0.000000
O O20 0.750000 0.120197 0.790640
O O21 0.953709 0.000000 0.788698
O O22 0.250000 0.612832 0.536757
O O23 0.046843 0.500000 0.563540
O O24 0.000000 0.638864 0.500000
#
# Coordination Sequence:
#
# PCOD8210994 Si02
#       8
#     8   8   8   8   8   8   8   8
#     4   8  14  25  43  69  99 130 165 203 240 281
#     4  10  20  33  51  76 104 133 167 207 250 297
#     4   9  18  33  53  75  97 123 159 202 247 297
#     4   9  18  31  49  74 101 131 164 200 246 295
#     4  10  22  39  54  69  96 133 169 210 260 307
#     4   8  13  23  42  68  95 120 146 179 223 278
#     4   8  14  27  48  72 100 135 169 200 240 292
#     4   9  18  33  51  71  97 127 160 202 251 300
#
# _framework density 18.263366000000001
#
# number of rings (size 3 to 8) (size 9 to 14) (size 15 to 20)
#    0.000    3.125    0.000    1.125    0.000    3.000 
#    0.000    4.375    0.000    4.125    0.000    1.750 
#    0.000    0.000    0.000    0.000    0.000    0.000 
#
# Total GULP energy -792967.533254 kJ/mol
# GULP energy per Si atom -12390.117707 kJ/mol
# Density = 1.822180 g / cm^3
# Si number density = 18.263366 Si / 1000 Ang^3
#
#
#
# Elastic Constant Matrix: (Units=GPa)
#
#
# Indices 1 2 3 4 5 6 
#
# 1 81.0432 71.8967 46.0605 0.0000 0.0000 0.0000
# 2 71.8967 152.3168 56.8426 0.0000 0.0000 0.0000
# 3 46.0605 56.8426 66.1994 0.0000 0.0000 0.0000
# 4 0.0000 0.0000 0.0000 -8.9487 0.0000 0.0000
# 5 0.0000 0.0000 0.0000 0.0000 22.9670 0.0000
# 6 0.0000 0.0000 0.0000 0.0000 0.0000 29.9258
#
#
#
# Elastic Compliance Matrix: (Units=1/GPa)
#
#
# Indices 1 2 3 4 5 6 
#
# 1 0.025716 -0.008036 -0.010992 0.000000 0.000000 0.000000
# 2 -0.008036 0.012172 -0.004860 0.000000 0.000000 0.000000
# 3 -0.010992 -0.004860 0.026928 0.000000 0.000000 0.000000
# 4 0.000000 0.000000 0.000000 -0.111748 0.000000 0.000000
# 5 0.000000 0.000000 0.000000 0.000000 0.043541 0.000000
# 6 0.000000 0.000000 0.000000 0.000000 0.000000 0.033416
#
#
# Mechanical properties :
#
#
# Convention : Reuss Voigt Hill
#
# Bulk Modulus (GPa) = 58.69272 72.12879 65.41076
# Shear Modulus (GPa) = 59.89331 17.10612 38.49971
#
# Velocity S-wave (km/s) = 5.73284 3.06377 4.59631
# Velocity P-wave (km/s) = 8.71936 7.21769 8.00382
#
# Compressibility (1/GPa) = 0.01703789
#
# Stress axis : x y z
#
# Youngs Moduli (GPa) = 38.88663 82.15326 37.13663
#
# Poissons Ratio (x) = 0.66020 0.40822
# Poissons Ratio (y) = 0.31250 0.18050
# Poissons Ratio (z) = 0.42745 0.39930
#
# Static dielectric constant tensor:
#      x y z
#    x 3.420460 0.000000 0.000000 
#    y 0.000000 3.834050 0.000000 
#    z 0.000000 0.000000 3.260850 
# 
# 
# High freq. dielectric constant tensor:
#      x y z
#    x 1.704650 0.000000 0.000000 
#    y 0.000000 1.721010 0.000000 
#    z 0.000000 0.000000 1.671180 
# 
# From -- ./inp_files/35006.got.cif
#   From: 2010.03.12/outbox.cif.g09.slc.cpg/sg51_18_cif.got.tgz:35006.got - 2010.04.16 13:43:02.
