data_PCOD8210612
_publ_section_title
;
Structure prediction by ZEFSAII (Michael W. Deem and Ramdas Pophale) SiO2 
 PCOD8210612
Probable space group: P M M A
;
_chemical_formula_sum "Si O2"
_cell_formula_units_Z 56
_cell_length_a 14.914036
_cell_length_b 8.999714
_cell_length_c 21.276610
_cell_angle_alpha 90.000000
_cell_angle_beta 90.000000
_cell_angle_gamma 90.000000
_cell_volume 2855.790394
_symmetry_space_group_name_H-M "P M M A"
_symmetry_group_IT_number 51
_symmetry_cell_setting 'orthorhombic'
loop_
_space_group_symop_operation_xyz
x,y,z
1/2-x,-y,z
1/2+x,-y,-z
-x,y,-z
-x,-y,-z
1/2+x,y,-z
1/2-x,y,z
x,-y,z
loop_
_atom_site_type_symbol
_atom_site_label
_atom_site_fract_x
_atom_site_fract_y
_atom_site_fract_z
Si Si1 0.356073 0.167247 0.986124
Si Si2 0.402232 0.163000 0.470685
Si Si3 0.512739 0.175330 0.792436
Si Si4 0.145950 0.675566 0.858860
Si Si5 0.355362 0.325913 0.112010
Si Si6 0.006883 0.173439 0.350439
Si Si7 0.150288 0.666404 0.585577
O O1 0.250000 0.160920 0.988371
O O2 0.391519 0.250993 0.047965
O O3 0.395962 0.000000 0.983321
O O4 0.386944 0.260301 0.925672
O O5 0.500000 0.151006 0.500000
O O6 0.414908 0.225915 0.399226
O O7 0.344463 0.270337 0.514441
O O8 0.356518 0.000000 0.469192
O O9 0.415609 0.246704 0.806636
O O10 0.592013 0.251345 0.831060
O O11 0.536110 0.210713 0.720148
O O12 0.509425 0.000000 0.806272
O O13 0.250000 0.714543 0.845342
O O14 0.130072 0.500000 0.858836
O O15 0.250000 0.296384 0.121971
O O16 0.376910 0.500000 0.108989
O O17 0.911916 0.246990 0.366021
O O18 0.990919 0.000000 0.360434
O O19 0.250000 0.671897 0.614073
O O20 0.113392 0.500000 0.580725
#
# Coordination Sequence:
#
# PCOD8210612 Si02
#       7
#     8   8   8   8   8   8   8
#     4   9  17  32  56  83 109 139 179 229 282 330
#     4   8  15  31  53  73  95 126 165 206 248 295
#     4  11  23  38  57  81 110 146 189 232 273 323
#     4  10  21  37  56  80 113 149 184 226 277 333
#     4  10  21  38  59  82 109 141 180 228 282 338
#     4   9  20  37  54  74 102 138 178 217 259 310
#     4  10  20  32  50  80 111 136 168 211 258 310
#
# _framework density 19.609283000000001
#
# number of rings (size 3 to 8) (size 9 to 14) (size 15 to 20)
#    0.000    2.429    0.000    3.000    0.000    9.429 
#    0.000    6.429    0.000    4.286    0.000    0.000 
#    0.000    0.000    0.000    0.000    0.000    0.000 
#
# Total GULP energy -694256.140550 kJ/mol
# GULP energy per Si atom -12397.431081 kJ/mol
# Density = 1.956465 g / cm^3
# Si number density = 19.609283 Si / 1000 Ang^3
#
#
#
# Elastic Constant Matrix: (Units=GPa)
#
#
# Indices 1 2 3 4 5 6 
#
# 1 36.5181 16.3117 5.3289 0.0000 0.0000 0.0000
# 2 16.3117 98.7352 37.1028 0.0000 0.0000 0.0000
# 3 5.3289 37.1028 99.8853 0.0000 0.0000 0.0000
# 4 0.0000 0.0000 0.0000 15.0899 0.0000 0.0000
# 5 0.0000 0.0000 0.0000 0.0000 23.1859 0.0000
# 6 0.0000 0.0000 0.0000 0.0000 0.0000 31.0344
#
#
#
# Elastic Compliance Matrix: (Units=1/GPa)
#
#
# Indices 1 2 3 4 5 6 
#
# 1 0.029572 -0.004989 0.000276 0.000000 0.000000 0.000000
# 2 -0.004989 0.012613 -0.004419 0.000000 0.000000 0.000000
# 3 0.000276 -0.004419 0.011638 0.000000 0.000000 0.000000
# 4 0.000000 0.000000 0.000000 0.066269 0.000000 0.000000
# 5 0.000000 0.000000 0.000000 0.000000 0.043130 0.000000
# 6 0.000000 0.000000 0.000000 0.000000 0.000000 0.032222
#
#
# Mechanical properties :
#
#
# Convention : Reuss Voigt Hill
#
# Bulk Modulus (GPa) = 28.12292 39.18059 33.65176
# Shear Modulus (GPa) = 22.16687 25.62173 23.89430
#
# Velocity S-wave (km/s) = 3.36583 3.61863 3.49452
# Velocity P-wave (km/s) = 5.42935 6.12236 5.78624
#
# Compressibility (1/GPa) = 0.03555818
#
# Stress axis : x y z
#
# Youngs Moduli (GPa) = 33.81584 79.28410 85.92383
#
# Poissons Ratio (x) = 0.39555 -0.02368
# Poissons Ratio (y) = 0.16871 0.37969
# Poissons Ratio (z) = -0.00932 0.35035
#
# Static dielectric constant tensor:
#      x y z
#    x 3.376500 0.000000 0.000000 
#    y 0.000000 3.705630 0.000000 
#    z 0.000000 0.000000 3.872210 
# 
# 
# High freq. dielectric constant tensor:
#      x y z
#    x 1.746780 0.000000 0.000000 
#    y 0.000000 1.772090 0.000000 
#    z 0.000000 0.000000 1.762640 
# 
# From -- ./inp_files/33304.got.cif
#   From: 2010.03.12/outbox.cif.g09.slc.cpg/sg51_17_cif.got.tgz:33304.got - 2010.04.16 13:43:02.
