data_PCOD8210151
_publ_section_title
;
Structure prediction by ZEFSAII (Michael W. Deem and Ramdas Pophale) SiO2 
 PCOD8210151
Probable space group: P M M A
;
_chemical_formula_sum "Si O2"
_cell_formula_units_Z 48
_cell_length_a 10.076003
_cell_length_b 18.976893
_cell_length_c 19.794049
_cell_angle_alpha 90.000000
_cell_angle_beta 90.000000
_cell_angle_gamma 90.000000
_cell_volume 3784.844472
_symmetry_space_group_name_H-M "P M M A"
_symmetry_group_IT_number 51
_symmetry_cell_setting 'orthorhombic'
loop_
_space_group_symop_operation_xyz
x,y,z
1/2-x,-y,z
1/2+x,-y,-z
-x,y,-z
-x,-y,-z
1/2+x,y,-z
1/2-x,y,z
x,-y,z
loop_
_atom_site_type_symbol
_atom_site_label
_atom_site_fract_x
_atom_site_fract_y
_atom_site_fract_z
Si Si1 0.995261 0.336663 0.580394
Si Si2 0.406779 0.187066 0.436214
Si Si3 0.900346 0.081415 0.683363
Si Si4 0.750000 0.581291 0.415944
Si Si5 0.750000 0.578019 0.577324
Si Si6 0.101348 0.916148 0.945357
Si Si7 0.601349 0.916298 0.204967
O O1 0.966604 0.256002 0.601775
O O2 0.877079 0.384150 0.608031
O O3 0.000000 0.337893 0.500000
O O4 0.126296 0.372766 0.611183
O O5 0.500000 0.169561 0.500000
O O6 0.250000 0.198793 0.456412
O O7 0.422283 0.121794 0.386374
O O8 0.750000 0.090751 0.709539
O O9 0.996729 0.113596 0.740766
O O10 0.933363 0.000000 0.668607
O O11 0.750000 0.500000 0.388578
O O12 0.750000 0.578531 0.496455
O O13 0.750000 0.500000 0.606130
O O14 0.250000 0.891698 0.964449
O O15 0.064386 0.888665 0.870155
O O16 0.093067 0.000000 0.946431
O O17 0.000000 0.883199 0.000000
O O18 0.750000 0.891386 0.224650
O O19 0.594488 0.000000 0.204601
#
# Coordination Sequence:
#
# PCOD8210151 Si02
#       7
#     8   8   8   4   4   8   8
#     4   9  16  25  36  51  70  89 106 132 163 206
#     4  10  20  31  42  54  68  87 112 147 189 230
#     4   9  18  31  43  54  67  85 114 152 192 228
#     4   9  16  24  36  54  73  89 107 127 153 196
#     4   9  14  22  36  52  69  89 107 123 155 198
#     4   8  13  20  31  49  72  93 111 131 159 199
#     4   8  14  25  38  52  70  89 111 141 174 210
#
# _framework density 12.682159
#
# number of rings (size 3 to 8) (size 9 to 14) (size 15 to 20)
#    0.000    3.167    0.833    1.500    3.500    3.667 
#    0.000    3.333    0.000    0.000    0.000    0.000 
#    0.000    0.000    0.000    0.000    0.000    0.000 
#
# Total GULP energy -594729.077540 kJ/mol
# GULP energy per Si atom -12390.189115 kJ/mol
# Density = 1.265329 g / cm^3
# Si number density = 12.682159 Si / 1000 Ang^3
#
#
#
# Elastic Constant Matrix: (Units=GPa)
#
#
# Indices 1 2 3 4 5 6 
#
# 1 110.4298 36.7870 47.3430 0.0000 0.0000 0.0000
# 2 36.7870 49.7208 23.8312 0.0000 0.0000 0.0000
# 3 47.3430 23.8312 53.8654 0.0000 0.0000 0.0000
# 4 0.0000 0.0000 0.0000 0.4167 0.0000 0.0000
# 5 0.0000 0.0000 0.0000 0.0000 17.6639 0.0000
# 6 0.0000 0.0000 0.0000 0.0000 0.0000 16.2883
#
#
#
# Elastic Compliance Matrix: (Units=1/GPa)
#
#
# Indices 1 2 3 4 5 6 
#
# 1 0.016022 -0.006479 -0.011216 0.000000 0.000000 0.000000
# 2 -0.006479 0.028145 -0.006758 0.000000 0.000000 0.000000
# 3 -0.011216 -0.006758 0.031412 0.000000 0.000000 0.000000
# 4 0.000000 0.000000 0.000000 2.399795 0.000000 0.000000
# 5 0.000000 0.000000 0.000000 0.000000 0.056613 0.000000
# 6 0.000000 0.000000 0.000000 0.000000 0.000000 0.061394
#
#
# Mechanical properties :
#
#
# Convention : Reuss Voigt Hill
#
# Bulk Modulus (GPa) = 37.48847 47.77093 42.62970
# Shear Modulus (GPa) = 1.88596 13.94409 7.91502
#
# Velocity S-wave (km/s) = 1.22079 3.31948 2.50092
# Velocity P-wave (km/s) = 5.62239 7.24165 6.48278
#
# Compressibility (1/GPa) = 0.02667487
#
# Stress axis : x y z
#
# Youngs Moduli (GPa) = 62.41393 35.53085 31.83471
#
# Poissons Ratio (x) = 0.23019 0.35705
# Poissons Ratio (y) = 0.40435 0.21513
# Poissons Ratio (z) = 0.70002 0.24011
#
# Static dielectric constant tensor:
#      x y z
#    x 2.910540 0.000000 0.000000 
#    y 0.000000 2.423590 0.000000 
#    z 0.000000 0.000000 2.367910 
# 
# 
# High freq. dielectric constant tensor:
#      x y z
#    x 1.501710 0.000000 0.000000 
#    y 0.000000 1.448680 0.000000 
#    z 0.000000 0.000000 1.434070 
# 
# From -- ./inp_files/32477.got.cif
#   From: 2010.03.12/outbox.cif.g09.slc.cpg/sg51_17_cif.got.tgz:32477.got - 2010.04.16 13:43:02.
