data_PCOD8210385
_publ_section_title
;
Structure prediction by ZEFSAII (Michael W. Deem and Ramdas Pophale) SiO2 
 PCOD8210385
Probable space group: P M M A
;
_chemical_formula_sum "Si O2"
_cell_formula_units_Z 56
_cell_length_a 9.090932
_cell_length_b 14.712700
_cell_length_c 20.510484
_cell_angle_alpha 90.000000
_cell_angle_beta 90.000000
_cell_angle_gamma 90.000000
_cell_volume 2743.321440
_symmetry_space_group_name_H-M "P M M A"
_symmetry_group_IT_number 51
_symmetry_cell_setting 'orthorhombic'
loop_
_space_group_symop_operation_xyz
x,y,z
1/2-x,-y,z
1/2+x,-y,-z
-x,y,-z
-x,-y,-z
1/2+x,y,-z
1/2-x,y,z
x,-y,z
loop_
_atom_site_type_symbol
_atom_site_label
_atom_site_fract_x
_atom_site_fract_y
_atom_site_fract_z
Si Si1 0.922220 0.300621 0.682602
Si Si2 0.913202 0.626178 0.938870
Si Si3 0.916985 0.607859 0.436024
Si Si4 0.412043 0.898959 0.829193
Si Si5 0.408391 0.834187 0.057886
Si Si6 0.415833 0.901492 0.300554
Si Si7 0.577297 0.603971 0.198190
O O1 0.750000 0.324997 0.687222
O O2 0.943943 0.193571 0.661731
O O3 0.997434 0.359177 0.627082
O O4 0.997763 0.326388 0.751650
O O5 0.750000 0.581987 0.930694
O O6 0.888169 0.729723 0.958271
O O7 0.005652 0.612828 0.872940
O O8 0.000000 0.580391 0.000000
O O9 0.750000 0.645262 0.435806
O O10 0.917060 0.500000 0.435340
O O11 0.000000 0.645172 0.500000
O O12 0.250000 0.855940 0.829247
O O13 0.513912 0.836458 0.872631
O O14 0.468164 0.901738 0.756526
O O15 0.410629 0.000000 0.859173
O O16 0.250000 0.883180 0.061792
O O17 0.500000 0.882427 0.000000
O O18 0.250000 0.898408 0.272342
O O19 0.436159 0.000000 0.339051
O O20 0.750000 0.629208 0.194275
O O21 0.557801 0.500000 0.223041
#
# Coordination Sequence:
#
# PCOD8210385 Si02
#       7
#     8   8   8   8   8   8   8
#     4  11  22  36  59  89 119 153 192 236 285 334
#     4  10  21  37  56  76  99 133 179 229 281 338
#     4  10  21  38  61  90 125 163 199 235 278 331
#     4  10  20  32  47  69  96 127 166 214 270 330
#     4  10  20  33  49  68  90 120 161 210 267 330
#     4   9  19  36  56  79 109 145 184 226 274 328
#     4  11  24  39  55  79 112 149 188 232 284 340
#
# _framework density 20.413211
#
# number of rings (size 3 to 8) (size 9 to 14) (size 15 to 20)
#    0.000    1.857    0.000    3.857    0.000   11.429 
#    0.000    0.000    0.000    0.429    0.000    0.000 
#    0.000    0.000    0.000    0.000    0.000    0.000 
#
# Total GULP energy -693874.157062 kJ/mol
# GULP energy per Si atom -12390.609948 kJ/mol
# Density = 2.036675 g / cm^3
# Si number density = 20.413211 Si / 1000 Ang^3
#
#
#
# Elastic Constant Matrix: (Units=GPa)
#
#
# Indices 1 2 3 4 5 6 
#
# 1 169.2100 18.5981 47.2829 0.0000 0.0000 0.0000
# 2 18.5981 52.9258 6.2539 0.0000 0.0000 0.0000
# 3 47.2829 6.2539 94.8651 0.0000 0.0000 0.0000
# 4 0.0000 0.0000 0.0000 18.5563 0.0000 0.0000
# 5 0.0000 0.0000 0.0000 0.0000 33.9053 0.0000
# 6 0.0000 0.0000 0.0000 0.0000 0.0000 -4.0945
#
#
#
# Elastic Compliance Matrix: (Units=1/GPa)
#
#
# Indices 1 2 3 4 5 6 
#
# 1 0.007088 -0.002090 -0.003395 0.000000 0.000000 0.000000
# 2 -0.002090 0.019659 -0.000254 0.000000 0.000000 0.000000
# 3 -0.003395 -0.000254 0.012250 0.000000 0.000000 0.000000
# 4 0.000000 0.000000 0.000000 0.053890 0.000000 0.000000
# 5 0.000000 0.000000 0.000000 0.000000 0.029494 0.000000
# 6 0.000000 0.000000 0.000000 0.000000 0.000000 -0.244230
#
#
# Mechanical properties :
#
#
# Convention : Reuss Voigt Hill
#
# Bulk Modulus (GPa) = 36.33891 51.25230 43.79561
# Shear Modulus (GPa) = -49.40815 25.99782 -11.70516
#
# Velocity S-wave (km/s) = -4.92509 3.57259 -2.39720
# Velocity P-wave (km/s) = 3.80812 6.49460 3.72009
#
# Compressibility (1/GPa) = 0.02751871
#
# Stress axis : x y z
#
# Youngs Moduli (GPa) = 141.07930 50.86801 81.63075
#
# Poissons Ratio (x) = 0.10629 0.27715
# Poissons Ratio (y) = 0.29480 0.02077
# Poissons Ratio (z) = 0.47899 0.01294
#
# Static dielectric constant tensor:
#      x y z
#    x 4.203870 0.000000 0.000000 
#    y 0.000000 4.032060 0.000000 
#    z 0.000000 0.000000 3.347320 
# 
# 
# High freq. dielectric constant tensor:
#      x y z
#    x 1.820700 0.000000 0.000000 
#    y 0.000000 1.802750 0.000000 
#    z 0.000000 0.000000 1.760130 
# 
# From -- ./inp_files/32001.got.cif
#   From: 2010.03.12/outbox.cif.g09.slc.cpg/sg51_17_cif.got.tgz:32001.got - 2010.04.16 13:43:02.
