data_PCOD8210123
_publ_section_title
;
Structure prediction by ZEFSAII (Michael W. Deem and Ramdas Pophale) SiO2 
 PCOD8210123
Probable space group: P M M A
;
_chemical_formula_sum "Si O2"
_cell_formula_units_Z 40
_cell_length_a 9.163289
_cell_length_b 15.725128
_cell_length_c 14.591397
_cell_angle_alpha 90.000000
_cell_angle_beta 90.000000
_cell_angle_gamma 90.000000
_cell_volume 2102.531190
_symmetry_space_group_name_H-M "P M M A"
_symmetry_group_IT_number 51
_symmetry_cell_setting 'orthorhombic'
loop_
_space_group_symop_operation_xyz
x,y,z
1/2-x,-y,z
1/2+x,-y,-z
-x,y,-z
-x,-y,-z
1/2+x,y,-z
1/2-x,y,z
x,-y,z
loop_
_atom_site_type_symbol
_atom_site_label
_atom_site_fract_x
_atom_site_fract_y
_atom_site_fract_z
Si Si1 0.911666 0.340840 0.422667
Si Si2 0.082539 0.900204 0.406698
Si Si3 0.087672 0.210490 0.734164
Si Si4 0.422648 0.500000 0.357645
Si Si5 0.079816 0.500000 0.832704
Si Si6 0.578435 0.315647 0.092437
O O1 0.750000 0.367314 0.456091
O O2 0.897958 0.292637 0.328424
O O3 0.000000 0.285518 0.500000
O O4 0.017717 0.420008 0.411672
O O5 0.250000 0.871400 0.418039
O O6 0.000000 0.873724 0.500000
O O7 0.016681 0.857640 0.314840
O O8 0.068783 0.000000 0.390025
O O9 0.250000 0.170346 0.747424
O O10 0.024556 0.248655 0.829364
O O11 0.250000 0.500000 0.355279
O O12 0.480974 0.500000 0.255432
O O13 0.250000 0.500000 0.803752
O O14 0.039510 0.585556 0.888257
O O15 0.750000 0.305659 0.080263
O O16 0.500000 0.286669 0.000000
#
# Coordination Sequence:
#
# PCOD8210123 Si02
#       6
#     8   8   8   4   4   8
#     4  11  22  37  53  73 106 144 183 226 274 326
#     4  10  21  37  59  88 120 151 183 222 270 327
#     4  10  21  37  58  82 111 146 183 227 278 329
#     4  12  23  34  51  75 102 141 189 229 272 325
#     4  10  19  38  58  75 108 147 186 237 286 331
#     4  10  21  37  58  83 111 146 186 233 287 333
#
# _framework density 19.024687
#
# number of rings (size 3 to 8) (size 9 to 14) (size 15 to 20)
#    0.000    1.600    2.000    3.300    0.000    6.000 
#    0.000    0.000    0.000    0.600    0.000    0.000 
#    0.000    0.000    0.000    0.000    0.000    0.000 
#
# Total GULP energy -495802.600830 kJ/mol
# GULP energy per Si atom -12395.065021 kJ/mol
# Density = 1.898139 g / cm^3
# Si number density = 19.024687 Si / 1000 Ang^3
#
#
#
# Elastic Constant Matrix: (Units=GPa)
#
#
# Indices 1 2 3 4 5 6 
#
# 1 123.8462 42.4336 64.9989 0.0000 0.0000 0.0000
# 2 42.4336 69.5869 39.7979 0.0000 0.0000 0.0000
# 3 64.9989 39.7979 147.2236 0.0000 0.0000 0.0000
# 4 0.0000 0.0000 0.0000 8.8655 0.0000 0.0000
# 5 0.0000 0.0000 0.0000 0.0000 37.7184 0.0000
# 6 0.0000 0.0000 0.0000 0.0000 0.0000 24.7541
#
#
#
# Elastic Compliance Matrix: (Units=1/GPa)
#
#
# Indices 1 2 3 4 5 6 
#
# 1 0.011815 -0.004993 -0.003866 0.000000 0.000000 0.000000
# 2 -0.004993 0.019109 -0.002961 0.000000 0.000000 0.000000
# 3 -0.003866 -0.002961 0.009300 0.000000 0.000000 0.000000
# 4 0.000000 0.000000 0.000000 0.112797 0.000000 0.000000
# 5 0.000000 0.000000 0.000000 0.000000 0.026512 0.000000
# 6 0.000000 0.000000 0.000000 0.000000 0.000000 0.040397
#
#
# Mechanical properties :
#
#
# Convention : Reuss Voigt Hill
#
# Bulk Modulus (GPa) = 60.30639 70.56861 65.43750
# Shear Modulus (GPa) = 20.07237 27.16268 23.61753
#
# Velocity S-wave (km/s) = 3.25171 3.78267 3.52719
# Velocity P-wave (km/s) = 6.77244 7.50012 7.14555
#
# Compressibility (1/GPa) = 0.01658199
#
# Stress axis : x y z
#
# Youngs Moduli (GPa) = 84.64142 52.33183 107.52919
#
# Poissons Ratio (x) = 0.26130 0.41574
# Poissons Ratio (y) = 0.42263 0.31840
# Poissons Ratio (z) = 0.32725 0.15496
#
# Static dielectric constant tensor:
#      x y z
#    x 3.578650 0.000000 0.000000 
#    y 0.000000 3.393550 0.000000 
#    z 0.000000 0.000000 3.583390 
# 
# 
# High freq. dielectric constant tensor:
#      x y z
#    x 1.745150 0.000000 0.000000 
#    y 0.000000 1.723790 0.000000 
#    z 0.000000 0.000000 1.738980 
# 
# From -- ./inp_files/20529.got.cif
#   From: 2010.03.12/outbox.cif.g09.slc.cpg/sg51_11_cif.got.tgz:20529.got - 2010.04.16 13:43:02.
