data_PCOD8210023
_publ_section_title
;
Structure prediction by ZEFSAII (Michael W. Deem and Ramdas Pophale) SiO2 
 PCOD8210023
Probable space group: P M M A
;
_chemical_formula_sum "Si O2"
_cell_formula_units_Z 52
_cell_length_a 9.356202
_cell_length_b 14.589674
_cell_length_c 20.166928
_cell_angle_alpha 90.000000
_cell_angle_beta 90.000000
_cell_angle_gamma 90.000000
_cell_volume 2752.865070
_symmetry_space_group_name_H-M "P M M A"
_symmetry_group_IT_number 51
_symmetry_cell_setting 'orthorhombic'
loop_
_space_group_symop_operation_xyz
x,y,z
1/2-x,-y,z
1/2+x,-y,-z
-x,y,-z
-x,-y,-z
1/2+x,y,-z
1/2-x,y,z
x,-y,z
loop_
_atom_site_type_symbol
_atom_site_label
_atom_site_fract_x
_atom_site_fract_y
_atom_site_fract_z
Si Si1 0.416177 0.395364 0.064813
Si Si2 0.085471 0.000000 0.433659
Si Si3 0.084449 0.397655 0.708405
Si Si4 0.906542 0.148396 0.374778
Si Si5 0.910886 0.106677 0.225263
Si Si6 0.419292 0.726264 0.190125
Si Si7 0.911545 0.346226 0.434537
O O1 0.250000 0.386382 0.048809
O O2 0.456780 0.500000 0.083440
O O3 0.461589 0.329929 0.124759
O O4 0.500000 0.362206 0.000000
O O5 0.000000 0.000000 0.500000
O O6 0.042467 0.088279 0.392516
O O7 0.250000 0.000000 0.449462
O O8 0.250000 0.364607 0.713649
O O9 0.065885 0.500000 0.737633
O O10 0.038297 0.401424 0.630810
O O11 0.984376 0.327637 0.747489
O O12 0.750000 0.105977 0.393703
O O13 0.912139 0.157489 0.295997
O O14 0.927669 0.240797 0.414816
O O15 0.750000 0.108873 0.196051
O O16 0.015821 0.170774 0.181621
O O17 0.963600 0.000000 0.228491
O O18 0.250000 0.733748 0.200130
O O19 0.750000 0.371837 0.452614
O O20 0.000000 0.371812 0.500000
#
# Coordination Sequence:
#
# PCOD8210023 Si02
#       7
#     8   4   8   8   8   8   8
#     4   9  19  36  58  88 125 160 191 225 269 323
#     4  12  24  34  48  72 100 130 173 222 283 354
#     4  10  21  38  58  79 106 146 194 235 278 340
#     4  10  19  36  55  71  98 134 176 229 285 337
#     4  10  20  37  60  82 109 147 190 233 279 335
#     4  11  22  36  58  88 123 152 182 231 287 335
#     4  10  21  36  53  73  99 135 180 230 283 338
#
# _framework density 18.889412
#
# number of rings (size 3 to 8) (size 9 to 14) (size 15 to 20)
#    0.000    1.846    2.308    2.077    0.000    5.846 
#    0.000    1.538    0.000    0.462    0.000    0.000 
#    0.000    0.000    0.000    0.000    0.000    0.000 
#
# Total GULP energy -644525.261739 kJ/mol
# GULP energy per Si atom -12394.716572 kJ/mol
# Density = 1.884642 g / cm^3
# Si number density = 18.889412 Si / 1000 Ang^3
#
#
#
# Elastic Constant Matrix: (Units=GPa)
#
#
# Indices 1 2 3 4 5 6 
#
# 1 99.7517 48.9950 51.0528 0.0000 0.0000 0.0000
# 2 48.9950 90.0201 45.5186 0.0000 0.0000 0.0000
# 3 51.0528 45.5186 96.4256 0.0000 0.0000 0.0000
# 4 0.0000 0.0000 0.0000 17.1341 0.0000 0.0000
# 5 0.0000 0.0000 0.0000 0.0000 32.9638 0.0000
# 6 0.0000 0.0000 0.0000 0.0000 0.0000 25.9756
#
#
#
# Elastic Compliance Matrix: (Units=1/GPa)
#
#
# Indices 1 2 3 4 5 6 
#
# 1 0.015704 -0.005705 -0.005622 0.000000 0.000000 0.000000
# 2 -0.005705 0.016664 -0.004846 0.000000 0.000000 0.000000
# 3 -0.005622 -0.004846 0.015635 0.000000 0.000000 0.000000
# 4 0.000000 0.000000 0.000000 0.058363 0.000000 0.000000
# 5 0.000000 0.000000 0.000000 0.000000 0.030336 0.000000
# 6 0.000000 0.000000 0.000000 0.000000 0.000000 0.038498
#
#
# Mechanical properties :
#
#
# Convention : Reuss Voigt Hill
#
# Bulk Modulus (GPa) = 63.86489 64.14781 64.00635
# Shear Modulus (GPa) = 23.50028 24.59008 24.04518
#
# Velocity S-wave (km/s) = 3.53100 3.61195 3.57171
# Velocity P-wave (km/s) = 7.10685 7.17135 7.13917
#
# Compressibility (1/GPa) = 0.01565806
#
# Stress axis : x y z
#
# Youngs Moduli (GPa) = 63.67826 60.01017 63.96048
#
# Poissons Ratio (x) = 0.34233 0.35956
# Poissons Ratio (y) = 0.36326 0.30995
# Poissons Ratio (z) = 0.35797 0.29081
#
# Static dielectric constant tensor:
#      x y z
#    x 3.218500 0.000000 0.000000 
#    y 0.000000 3.551330 0.000000 
#    z 0.000000 0.000000 3.317720 
# 
# 
# High freq. dielectric constant tensor:
#      x y z
#    x 1.728690 0.000000 0.000000 
#    y 0.000000 1.740100 0.000000 
#    z 0.000000 0.000000 1.711760 
# 
# From -- ./inp_files/31728.got.cif
#   From: 2010.03.12/outbox.cif.g09.slc.cpg/sg51_16_cif.got.tgz:31728.got - 2010.04.16 13:43:02.
