data_PCOD8210033
_publ_section_title
;
Structure prediction by ZEFSAII (Michael W. Deem and Ramdas Pophale) SiO2 
 PCOD8210033
Probable space group: P M M A
;
_chemical_formula_sum "Si O2"
_cell_formula_units_Z 48
_cell_length_a 8.713355
_cell_length_b 14.667759
_cell_length_c 20.205792
_cell_angle_alpha 90.000000
_cell_angle_beta 90.000000
_cell_angle_gamma 90.000000
_cell_volume 2582.409151
_symmetry_space_group_name_H-M "P M M A"
_symmetry_group_IT_number 51
_symmetry_cell_setting 'orthorhombic'
loop_
_space_group_symop_operation_xyz
x,y,z
1/2-x,-y,z
1/2+x,-y,-z
-x,y,-z
-x,-y,-z
1/2+x,y,-z
1/2-x,y,z
x,-y,z
loop_
_atom_site_type_symbol
_atom_site_label
_atom_site_fract_x
_atom_site_fract_y
_atom_site_fract_z
Si Si1 0.424007 0.101951 0.796907
Si Si2 0.924658 0.840596 0.352150
Si Si3 0.568040 0.500000 0.424679
Si Si4 0.068130 0.000000 0.429702
Si Si5 0.930403 0.291028 0.811843
Si Si6 0.924198 0.608060 0.067395
Si Si7 0.929710 0.656282 0.666492
O O1 0.250000 0.108354 0.822775
O O2 0.431681 0.112857 0.718868
O O3 0.515660 0.187336 0.827448
O O4 0.489900 0.000000 0.815234
O O5 0.750000 0.814646 0.370686
O O6 0.034995 0.754779 0.362404
O O7 0.997522 0.910296 0.400787
O O8 0.750000 0.500000 0.432919
O O9 0.500000 0.500000 0.500000
O O10 0.518117 0.414272 0.380181
O O11 0.000000 0.000000 0.500000
O O12 0.250000 0.000000 0.424496
O O13 0.750000 0.287488 0.807540
O O14 0.991288 0.337365 0.743170
O O15 0.982715 0.355047 0.870729
O O16 0.750000 0.643242 0.070612
O O17 0.932917 0.500000 0.069869
O O18 0.000000 0.645144 0.000000
O O19 0.750000 0.632619 0.664051
#
# Coordination Sequence:
#
# PCOD8210033 Si02
#       7
#     8   8   4   4   8   8   8
#     4   9  17  32  55  81 111 146 183 228 277 328
#     4  10  19  36  57  80 108 140 180 229 281 336
#     4  12  26  44  64  84 109 148 191 238 292 350
#     4  12  24  36  52  76 106 142 181 226 281 344
#     4  10  21  35  56  87 120 153 190 236 282 332
#     4  10  21  37  58  85 118 157 196 236 283 339
#     4  10  22  40  60  87 116 148 189 237 287 339
#
# _framework density 18.587295000000001
#
# number of rings (size 3 to 8) (size 9 to 14) (size 15 to 20)
#    0.000    1.833    0.833    3.500    1.167    4.667 
#    0.000    3.333    0.000    0.500    0.000    0.000 
#    0.000    0.000    0.000    0.000    0.000    0.000 
#
# Total GULP energy -594831.004397 kJ/mol
# GULP energy per Si atom -12392.312592 kJ/mol
# Density = 1.854499 g / cm^3
# Si number density = 18.587295 Si / 1000 Ang^3
#
#
#
# Elastic Constant Matrix: (Units=GPa)
#
#
# Indices 1 2 3 4 5 6 
#
# 1 40.1905 6.2814 23.9993 0.0000 0.0000 0.0000
# 2 6.2814 69.3419 43.4315 0.0000 0.0000 0.0000
# 3 23.9993 43.4315 95.0225 0.0000 0.0000 0.0000
# 4 0.0000 0.0000 0.0000 16.7069 0.0000 0.0000
# 5 0.0000 0.0000 0.0000 0.0000 30.1822 0.0000
# 6 0.0000 0.0000 0.0000 0.0000 0.0000 36.8095
#
#
#
# Elastic Compliance Matrix: (Units=1/GPa)
#
#
# Indices 1 2 3 4 5 6 
#
# 1 0.029687 0.002812 -0.008783 0.000000 0.000000 0.000000
# 2 0.002812 0.020472 -0.010067 0.000000 0.000000 0.000000
# 3 -0.008783 -0.010067 0.017344 0.000000 0.000000 0.000000
# 4 0.000000 0.000000 0.000000 0.059855 0.000000 0.000000
# 5 0.000000 0.000000 0.000000 0.000000 0.033132 0.000000
# 6 0.000000 0.000000 0.000000 0.000000 0.000000 0.027167
#
#
# Mechanical properties :
#
#
# Convention : Reuss Voigt Hill
#
# Bulk Modulus (GPa) = 28.22818 39.10878 33.66848
# Shear Modulus (GPa) = 21.59436 25.46258 23.52847
#
# Velocity S-wave (km/s) = 3.41219 3.70522 3.56172
# Velocity P-wave (km/s) = 5.54471 6.27624 5.92178
#
# Compressibility (1/GPa) = 0.03542559
#
# Stress axis : x y z
#
# Youngs Moduli (GPa) = 33.68513 48.84697 57.65846
#
# Poissons Ratio (x) = -0.13736 0.50642
# Poissons Ratio (y) = -0.09472 0.58046
# Poissons Ratio (z) = 0.29586 0.49176
#
# Static dielectric constant tensor:
#      x y z
#    x 3.582770 0.000000 0.000000 
#    y 0.000000 3.643290 0.000000 
#    z 0.000000 0.000000 3.413640 
# 
# 
# High freq. dielectric constant tensor:
#      x y z
#    x 1.730710 0.000000 0.000000 
#    y 0.000000 1.729730 0.000000 
#    z 0.000000 0.000000 1.706370 
# 
# From -- ./inp_files/27631.got.cif
#   From: 2010.03.12/outbox.cif.g09.slc.cpg/sg51_14_cif.got.tgz:27631.got - 2010.04.16 13:43:02.
