data_PCOD8210220
_publ_section_title
;
Structure prediction by ZEFSAII (Michael W. Deem and Ramdas Pophale) SiO2 
 PCOD8210220
Probable space group: P M M A
;
_chemical_formula_sum "Si O2"
_cell_formula_units_Z 48
_cell_length_a 17.543525
_cell_length_b 13.157401
_cell_length_c 11.284767
_cell_angle_alpha 90.000000
_cell_angle_beta 90.000000
_cell_angle_gamma 90.000000
_cell_volume 2604.831095
_symmetry_space_group_name_H-M "P M M A"
_symmetry_group_IT_number 51
_symmetry_cell_setting 'orthorhombic'
loop_
_space_group_symop_operation_xyz
x,y,z
1/2-x,-y,z
1/2+x,-y,-z
-x,y,-z
-x,-y,-z
1/2+x,y,-z
1/2-x,y,z
x,-y,z
loop_
_atom_site_type_symbol
_atom_site_label
_atom_site_fract_x
_atom_site_fract_y
_atom_site_fract_z
Si Si1 0.837902 0.619881 0.730310
Si Si2 0.431486 0.739091 0.073570
Si Si3 0.664862 0.113514 0.083735
Si Si4 0.869557 0.111216 0.345987
Si Si5 0.912885 0.250902 0.541534
Si Si6 0.037626 0.890084 0.267150
O O1 0.750000 0.657070 0.737504
O O2 0.842801 0.500000 0.739072
O O3 0.885434 0.662336 0.842666
O O4 0.874795 0.650540 0.602910
O O5 0.474499 0.825459 0.148963
O O6 0.500000 0.683292 0.000000
O O7 0.375400 0.796334 0.985162
O O8 0.750000 0.108560 0.033642
O O9 0.668143 0.143036 0.222402
O O10 0.626809 0.000000 0.070158
O O11 0.858974 0.205227 0.437405
O O12 0.959091 0.096432 0.334075
O O13 0.836970 0.000000 0.388513
O O14 0.906107 0.165707 0.643132
O O15 0.000000 0.276022 0.500000
O O16 0.072681 0.000000 0.234398
#
# Coordination Sequence:
#
# PCOD8210220 Si02
#       6
#     8   8   8   8   8   8
#     4  10  23  42  60  77 101 136 177 227 286 331
#     4  11  20  33  56  79 103 136 180 224 265 312
#     4  10  20  31  46  75 114 149 176 206 251 310
#     4   9  16  28  47  75 111 144 171 200 242 303
#     4   9  18  32  55  82 106 135 176 219 259 307
#     4   9  16  27  47  78 110 139 173 209 248 299
#
# _framework density 18.427299999999999
#
# number of rings (size 3 to 8) (size 9 to 14) (size 15 to 20)
#    0.000    2.333    1.667    1.500    0.000    4.000 
#    0.000    0.000    0.000    9.500    0.000    2.333 
#    0.000    0.000    0.000    0.000    0.000    0.000 
#
# Total GULP energy -594661.653176 kJ/mol
# GULP energy per Si atom -12388.784441 kJ/mol
# Density = 1.838536 g / cm^3
# Si number density = 18.427300 Si / 1000 Ang^3
#
#
#
# Elastic Constant Matrix: (Units=GPa)
#
#
# Indices 1 2 3 4 5 6 
#
# 1 71.1122 37.1311 39.1517 0.0000 0.0000 0.0000
# 2 37.1311 81.0774 43.7307 0.0000 0.0000 0.0000
# 3 39.1517 43.7307 100.1579 0.0000 0.0000 0.0000
# 4 0.0000 0.0000 0.0000 24.1297 0.0000 0.0000
# 5 0.0000 0.0000 0.0000 0.0000 12.1102 0.0000
# 6 0.0000 0.0000 0.0000 0.0000 0.0000 13.7072
#
#
#
# Elastic Compliance Matrix: (Units=1/GPa)
#
#
# Indices 1 2 3 4 5 6 
#
# 1 0.020271 -0.006553 -0.005063 0.000000 0.000000 0.000000
# 2 -0.006553 0.018252 -0.005407 0.000000 0.000000 0.000000
# 3 -0.005063 -0.005407 0.014324 0.000000 0.000000 0.000000
# 4 0.000000 0.000000 0.000000 0.041443 0.000000 0.000000
# 5 0.000000 0.000000 0.000000 0.000000 0.082575 0.000000
# 6 0.000000 0.000000 0.000000 0.000000 0.000000 0.072955
#
#
# Mechanical properties :
#
#
# Convention : Reuss Voigt Hill
#
# Bulk Modulus (GPa) = 53.18959 54.70826 53.94893
# Shear Modulus (GPa) = 17.23347 18.81167 18.02257
#
# Velocity S-wave (km/s) = 3.06144 3.19855 3.13075
# Velocity P-wave (km/s) = 6.43613 6.58742 6.51222
#
# Compressibility (1/GPa) = 0.01880067
#
# Stress axis : x y z
#
# Youngs Moduli (GPa) = 49.33075 54.78998 69.81135
#
# Poissons Ratio (x) = 0.35903 0.35345
# Poissons Ratio (y) = 0.32326 0.37750
# Poissons Ratio (z) = 0.24976 0.29627
#
# Static dielectric constant tensor:
#      x y z
#    x 3.321710 0.000000 0.000000 
#    y 0.000000 3.372560 0.000000 
#    z 0.000000 0.000000 3.538500 
# 
# 
# High freq. dielectric constant tensor:
#      x y z
#    x 1.704470 0.000000 0.000000 
#    y 0.000000 1.686690 0.000000 
#    z 0.000000 0.000000 1.721330 
# 
# From -- ./inp_files/17278.got.cif
#   From: 2010.03.12/outbox.cif.g09.slc.cpg/sg51_9_cif.got.tgz:17278.got - 2010.04.16 13:43:02.
