data_PCOD8210880
_publ_section_title
;
Structure prediction by ZEFSAII (Michael W. Deem and Ramdas Pophale) SiO2 
 PCOD8210880
Probable space group: P M M A
;
_chemical_formula_sum "Si O2"
_cell_formula_units_Z 48
_cell_length_a 9.041516
_cell_length_b 9.115903
_cell_length_c 31.090227
_cell_angle_alpha 90.000000
_cell_angle_beta 90.000000
_cell_angle_gamma 90.000000
_cell_volume 2562.505720
_symmetry_space_group_name_H-M "P M M A"
_symmetry_group_IT_number 51
_symmetry_cell_setting 'orthorhombic'
loop_
_space_group_symop_operation_xyz
x,y,z
1/2-x,-y,z
1/2+x,-y,-z
-x,y,-z
-x,-y,-z
1/2+x,y,-z
1/2-x,y,z
x,-y,z
loop_
_atom_site_type_symbol
_atom_site_label
_atom_site_fract_x
_atom_site_fract_y
_atom_site_fract_z
Si Si1 0.073481 0.334184 0.289383
Si Si2 0.073746 0.834462 0.372907
Si Si3 0.423424 0.831841 0.955790
Si Si4 0.578946 0.671945 0.879346
Si Si5 0.076500 0.669042 0.456908
Si Si6 0.425931 0.165470 0.206000
O O1 0.250000 0.333371 0.289216
O O2 0.013131 0.500000 0.288731
O O3 0.012070 0.254081 0.331917
O O4 0.011181 0.249453 0.247695
O O5 0.250000 0.831229 0.372448
O O6 0.014294 0.759790 0.416459
O O7 0.013672 0.000000 0.370621
O O8 0.250000 0.808233 0.961215
O O9 0.482668 0.726244 0.918986
O O10 0.462603 0.000000 0.944196
O O11 0.500000 0.784453 0.000000
O O12 0.750000 0.711101 0.887982
O O13 0.556043 0.500000 0.872831
O O14 0.519203 0.751776 0.836639
O O15 0.250000 0.691507 0.462388
O O16 0.035186 0.500000 0.448933
O O17 0.000000 0.729404 0.500000
O O18 0.250000 0.165009 0.207699
O O19 0.488283 0.000000 0.205710
#
# Coordination Sequence:
#
# PCOD8210880 Si02
#       6
#     8   8   8   8   8   8
#     4   9  15  23  37  59  89 122 154 190 233 280
#     4   9  16  25  38  58  85 116 150 188 230 276
#     4  10  21  37  57  79 102 131 168 208 250 295
#     4  10  20  33  50  74 104 136 168 202 242 289
#     4   9  17  29  44  62  85 114 148 186 229 276
#     4   9  16  26  42  65  94 127 161 197 237 281
#
# _framework density 18.731665
#
# number of rings (size 3 to 8) (size 9 to 14) (size 15 to 20)
#    0.000    2.667    0.000    2.500    0.000    8.667 
#    0.000    0.000    0.000    0.000    0.000    1.167 
#    0.000    6.667    0.000    0.000    0.000    0.000 
#
# Total GULP energy -595252.244871 kJ/mol
# GULP energy per Si atom -12401.088435 kJ/mol
# Density = 1.868903 g / cm^3
# Si number density = 18.731665 Si / 1000 Ang^3
#
#
#
# Elastic Constant Matrix: (Units=GPa)
#
#
# Indices 1 2 3 4 5 6 
#
# 1 26.7510 25.0417 33.0074 0.0000 0.0000 0.0000
# 2 25.0417 145.0311 97.0592 0.0000 0.0000 0.0000
# 3 33.0074 97.0592 189.4393 0.0000 0.0000 0.0000
# 4 0.0000 0.0000 0.0000 43.2240 0.0000 0.0000
# 5 0.0000 0.0000 0.0000 0.0000 20.3446 0.0000
# 6 0.0000 0.0000 0.0000 0.0000 0.0000 14.7371
#
#
#
# Elastic Compliance Matrix: (Units=1/GPa)
#
#
# Indices 1 2 3 4 5 6 
#
# 1 0.049246 -0.004201 -0.006428 0.000000 0.000000 0.000000
# 2 -0.004201 0.010851 -0.004828 0.000000 0.000000 0.000000
# 3 -0.006428 -0.004828 0.008872 0.000000 0.000000 0.000000
# 4 0.000000 0.000000 0.000000 0.023135 0.000000 0.000000
# 5 0.000000 0.000000 0.000000 0.000000 0.049153 0.000000
# 6 0.000000 0.000000 0.000000 0.000000 0.000000 0.067856
#
#
# Mechanical properties :
#
#
# Convention : Reuss Voigt Hill
#
# Bulk Modulus (GPa) = 26.27731 74.60422 50.44077
# Shear Modulus (GPa) = 19.78534 29.40203 24.59369
#
# Velocity S-wave (km/s) = 3.25353 3.96617 3.62739
# Velocity P-wave (km/s) = 5.30779 7.80310 6.67312
#
# Compressibility (1/GPa) = 0.03805564
#
# Stress axis : x y z
#
# Youngs Moduli (GPa) = 20.30628 92.15506 112.71205
#
# Poissons Ratio (x) = 0.38716 0.72451
# Poissons Ratio (y) = 0.08531 0.54413
# Poissons Ratio (z) = 0.13053 0.44489
#
# Static dielectric constant tensor:
#      x y z
#    x 2.835500 0.000000 0.000000 
#    y 0.000000 3.573890 0.000000 
#    z 0.000000 0.000000 3.667260 
# 
# 
# High freq. dielectric constant tensor:
#      x y z
#    x 1.662200 0.000000 0.000000 
#    y 0.000000 1.736860 0.000000 
#    z 0.000000 0.000000 1.745800 
# 
# From -- ./inp_files/36500.got.cif
#   From: 2010.03.12/outbox.cif.g09.slc.cpg/sg51_19_cif.got.tgz:36500.got - 2010.04.16 13:43:02.
