data_PCOD8210109
_publ_section_title
;
Structure prediction by ZEFSAII (Michael W. Deem and Ramdas Pophale) SiO2 
 PCOD8210109
Probable space group: P M M A
;
_chemical_formula_sum "Si O2"
_cell_formula_units_Z 56
_cell_length_a 19.215528
_cell_length_b 8.897897
_cell_length_c 16.470246
_cell_angle_alpha 90.000000
_cell_angle_beta 90.000000
_cell_angle_gamma 90.000000
_cell_volume 2816.046244
_symmetry_space_group_name_H-M "P M M A"
_symmetry_group_IT_number 51
_symmetry_cell_setting 'orthorhombic'
loop_
_space_group_symop_operation_xyz
x,y,z
1/2-x,-y,z
1/2+x,-y,-z
-x,y,-z
-x,-y,-z
1/2+x,y,-z
1/2-x,y,z
x,-y,z
loop_
_atom_site_type_symbol
_atom_site_label
_atom_site_fract_x
_atom_site_fract_y
_atom_site_fract_z
Si Si1 0.046773 0.172687 0.924759
Si Si2 0.828365 0.677570 0.358807
Si Si3 0.421961 0.823063 0.325105
Si Si4 0.919638 0.677515 0.510686
Si Si5 0.171995 0.828802 0.031213
Si Si6 0.167990 0.328915 0.192644
Si Si7 0.050723 0.676905 0.753989
O O1 0.034500 0.269412 0.844780
O O2 0.028215 0.000000 0.904519
O O3 0.126699 0.194073 0.950638
O O4 0.000000 0.229879 0.000000
O O5 0.750000 0.747622 0.355432
O O6 0.822196 0.500000 0.365156
O O7 0.871696 0.736504 0.436622
O O8 0.871666 0.721275 0.277205
O O9 0.391405 0.759733 0.409189
O O10 0.367569 0.780799 0.255861
O O11 0.496777 0.750020 0.308154
O O12 0.430590 0.000000 0.329526
O O13 0.912147 0.500000 0.521774
O O14 0.000000 0.724331 0.500000
O O15 0.250000 0.786007 0.005773
O O16 0.144681 0.721631 0.102810
O O17 0.166379 0.000000 0.062772
O O18 0.250000 0.310750 0.202463
O O19 0.143498 0.500000 0.206498
O O20 0.039517 0.500000 0.749984
#
# Coordination Sequence:
#
# PCOD8210109 Si02
#       7
#     8   8   8   8   8   8   8
#     4  10  21  36  54  80 114 150 192 239 291 347
#     4   9  19  37  61  88 118 153 193 241 295 347
#     4  12  24  37  58  86 119 154 193 236 291 355
#     4  10  19  37  62  86 114 150 194 239 286 345
#     4   9  18  34  55  78 111 154 192 231 289 355
#     4  10  21  37  58  85 116 150 193 243 293 345
#     4  11  22  38  60  86 115 151 198 246 295 350
#
# _framework density 19.886036000000001
#
# number of rings (size 3 to 8) (size 9 to 14) (size 15 to 20)
#    0.000    1.857    1.429    3.000    0.000    4.286 
#    0.000    1.429    0.000    3.000    0.000    0.000 
#    0.000    0.000    0.000    0.000    0.000    0.000 
#
# Total GULP energy -694429.229134 kJ/mol
# GULP energy per Si atom -12400.521949 kJ/mol
# Density = 1.984077 g / cm^3
# Si number density = 19.886036 Si / 1000 Ang^3
#
#
#
# Elastic Constant Matrix: (Units=GPa)
#
#
# Indices 1 2 3 4 5 6 
#
# 1 78.3402 23.8264 40.3684 0.0000 0.0000 0.0000
# 2 23.8264 67.2830 30.8802 0.0000 0.0000 0.0000
# 3 40.3684 30.8802 101.1650 0.0000 0.0000 0.0000
# 4 0.0000 0.0000 0.0000 18.2661 0.0000 0.0000
# 5 0.0000 0.0000 0.0000 0.0000 32.4369 0.0000
# 6 0.0000 0.0000 0.0000 0.0000 0.0000 19.5911
#
#
#
# Elastic Compliance Matrix: (Units=1/GPa)
#
#
# Indices 1 2 3 4 5 6 
#
# 1 0.016682 -0.003317 -0.005644 0.000000 0.000000 0.000000
# 2 -0.003317 0.017944 -0.004154 0.000000 0.000000 0.000000
# 3 -0.005644 -0.004154 0.013405 0.000000 0.000000 0.000000
# 4 0.000000 0.000000 0.000000 0.054746 0.000000 0.000000
# 5 0.000000 0.000000 0.000000 0.000000 0.030829 0.000000
# 6 0.000000 0.000000 0.000000 0.000000 0.000000 0.051044
#
#
# Mechanical properties :
#
#
# Convention : Reuss Voigt Hill
#
# Bulk Modulus (GPa) = 45.86961 48.54868 47.20915
# Shear Modulus (GPa) = 22.92039 24.17303 23.54671
#
# Velocity S-wave (km/s) = 3.39866 3.49030 3.44478
# Velocity P-wave (km/s) = 6.20625 6.38039 6.29392
#
# Compressibility (1/GPa) = 0.02180093
#
# Stress axis : x y z
#
# Youngs Moduli (GPa) = 59.94428 55.73033 74.59917
#
# Poissons Ratio (x) = 0.18486 0.42106
# Poissons Ratio (y) = 0.19884 0.30985
# Poissons Ratio (z) = 0.33834 0.23148
#
# Static dielectric constant tensor:
#      x y z
#    x 3.916590 0.000000 0.000000 
#    y 0.000000 3.444280 0.000000 
#    z 0.000000 0.000000 3.624450 
# 
# 
# High freq. dielectric constant tensor:
#      x y z
#    x 1.782300 0.000000 0.000000 
#    y 0.000000 1.756190 0.000000 
#    z 0.000000 0.000000 1.777710 
# 
# From -- ./inp_files/25652.got.cif
#   From: 2010.03.12/outbox.cif.g09.slc.cpg/sg51_13_cif.got.tgz:25652.got - 2010.04.16 13:43:02.
