data_PCOD8210339
_publ_section_title
;
Structure prediction by ZEFSAII (Michael W. Deem and Ramdas Pophale) SiO2 
 PCOD8210339
Probable space group: P M M A
;
_chemical_formula_sum "Si O2"
_cell_formula_units_Z 40
_cell_length_a 28.017616
_cell_length_b 9.012125
_cell_length_c 10.197334
_cell_angle_alpha 90.000000
_cell_angle_beta 90.000000
_cell_angle_gamma 90.000000
_cell_volume 2574.809067
_symmetry_space_group_name_H-M "P M M A"
_symmetry_group_IT_number 51
_symmetry_cell_setting 'orthorhombic'
loop_
_space_group_symop_operation_xyz
x,y,z
1/2-x,-y,z
1/2+x,-y,-z
-x,y,-z
-x,-y,-z
1/2+x,y,-z
1/2-x,y,z
x,-y,z
loop_
_atom_site_type_symbol
_atom_site_label
_atom_site_fract_x
_atom_site_fract_y
_atom_site_fract_z
Si Si1 0.554746 0.174938 0.003428
Si Si2 0.628431 0.667604 0.853600
Si Si3 0.195665 0.675308 0.377734
Si Si4 0.694730 0.173623 0.356475
Si Si5 0.132638 0.667754 0.858512
O O1 0.580755 0.230904 0.868844
O O2 0.560342 0.000000 0.017440
O O3 0.500000 0.224787 0.000000
O O4 0.580359 0.254224 0.128489
O O5 0.612739 0.500000 0.817538
O O6 0.663334 0.732532 0.742688
O O7 0.655872 0.668065 0.994782
O O8 0.250000 0.723840 0.348492
O O9 0.191848 0.500000 0.396171
O O10 0.176490 0.753015 0.508996
O O11 0.750000 0.211934 0.333711
O O12 0.666019 0.239629 0.235930
O O13 0.685226 0.000000 0.364647
O O14 0.126665 0.500000 0.805515
#
# Coordination Sequence:
#
# PCOD8210339 Si02
#       5
#     8   8   8   8   8
#     4   9  17  30  49  71  95 123 153 190 240 288
#     4   8  17  30  47  72  95 122 157 195 234 275
#     4   9  17  31  49  68  94 128 161 190 225 274
#     4  10  20  32  46  68  98 130 161 192 229 274
#     4   9  18  31  49  72  94 123 158 195 235 276
#
# _framework density 15.535132000000001
#
# number of rings (size 3 to 8) (size 9 to 14) (size 15 to 20)
#    1.200    1.800    0.000    1.200    0.000    4.400 
#    0.000    2.000    0.000    1.200    0.000    8.400 
#    0.000    0.000    0.000    0.000    0.000    0.000 
#
# Total GULP energy -495606.928095 kJ/mol
# GULP energy per Si atom -12390.173202 kJ/mol
# Density = 1.549977 g / cm^3
# Si number density = 15.535132 Si / 1000 Ang^3
#
#
#
# Elastic Constant Matrix: (Units=GPa)
#
#
# Indices 1 2 3 4 5 6 
#
# 1 92.0521 42.4882 58.4357 0.0000 0.0000 0.0000
# 2 42.4882 52.3540 33.5235 0.0000 0.0000 0.0000
# 3 58.4357 33.5235 89.9399 0.0000 0.0000 0.0000
# 4 0.0000 0.0000 0.0000 21.4453 0.0000 0.0000
# 5 0.0000 0.0000 0.0000 0.0000 3.5408 0.0000
# 6 0.0000 0.0000 0.0000 0.0000 0.0000 22.4467
#
#
#
# Elastic Compliance Matrix: (Units=1/GPa)
#
#
# Indices 1 2 3 4 5 6 
#
# 1 0.023080 -0.011991 -0.010526 0.000000 0.000000 0.000000
# 2 -0.011991 0.031318 -0.003883 0.000000 0.000000 0.000000
# 3 -0.010526 -0.003883 0.019405 0.000000 0.000000 0.000000
# 4 0.000000 0.000000 0.000000 0.046630 0.000000 0.000000
# 5 0.000000 0.000000 0.000000 0.000000 0.282419 0.000000
# 6 0.000000 0.000000 0.000000 0.000000 0.000000 0.044550
#
#
# Mechanical properties :
#
#
# Convention : Reuss Voigt Hill
#
# Bulk Modulus (GPa) = 47.61051 55.91565 51.76308
# Shear Modulus (GPa) = 9.85800 16.14648 13.00224
#
# Velocity S-wave (km/s) = 2.52178 3.22740 2.89616
# Velocity P-wave (km/s) = 6.26041 7.06819 6.67653
#
# Compressibility (1/GPa) = 0.02100377
#
# Stress axis : x y z
#
# Youngs Moduli (GPa) = 43.32745 31.93058 51.53343
#
# Poissons Ratio (x) = 0.38286 0.54246
# Poissons Ratio (y) = 0.51952 0.20009
# Poissons Ratio (z) = 0.45608 0.12398
#
# Static dielectric constant tensor:
#      x y z
#    x 2.835970 0.000000 0.000000 
#    y 0.000000 2.983800 0.000000 
#    z 0.000000 0.000000 2.867410 
# 
# 
# High freq. dielectric constant tensor:
#      x y z
#    x 1.574650 0.000000 0.000000 
#    y 0.000000 1.606430 0.000000 
#    z 0.000000 0.000000 1.580800 
# 
# From -- ./inp_files/12276.got.cif
#   From: 2010.03.12/outbox.cif.g09.slc.cpg/sg51_7_cif.got.tgz:12276.got - 2010.04.16 13:43:02.
