data_PCOD8210486
_publ_section_title
;
Structure prediction by ZEFSAII (Michael W. Deem and Ramdas Pophale) SiO2 
 PCOD8210486
Probable space group: P M M A
;
_chemical_formula_sum "Si O2"
_cell_formula_units_Z 48
_cell_length_a 9.060692
_cell_length_b 9.287735
_cell_length_c 31.086527
_cell_angle_alpha 90.000000
_cell_angle_beta 90.000000
_cell_angle_gamma 90.000000
_cell_volume 2616.034026
_symmetry_space_group_name_H-M "P M M A"
_symmetry_group_IT_number 51
_symmetry_cell_setting 'orthorhombic'
loop_
_space_group_symop_operation_xyz
x,y,z
1/2-x,-y,z
1/2+x,-y,-z
-x,y,-z
-x,-y,-z
1/2+x,y,-z
1/2-x,y,z
x,-y,z
loop_
_atom_site_type_symbol
_atom_site_label
_atom_site_fract_x
_atom_site_fract_y
_atom_site_fract_z
Si Si1 0.920172 0.830957 0.619854
Si Si2 0.921646 0.833120 0.292866
Si Si3 0.921191 0.668321 0.456418
Si Si4 0.922633 0.664527 0.040756
Si Si5 0.418148 0.670622 0.217870
Si Si6 0.585008 0.671506 0.134412
O O1 0.750000 0.783314 0.619288
O O2 0.989635 0.783452 0.665076
O O3 0.007315 0.751532 0.582735
O O4 0.938649 0.000000 0.612475
O O5 0.750000 0.801198 0.300669
O O6 0.978241 0.740874 0.253225
O O7 0.950772 0.000000 0.282765
O O8 0.750000 0.708889 0.459917
O O9 0.945577 0.500000 0.448526
O O10 0.000000 0.719194 0.500000
O O11 0.750000 0.676311 0.033604
O O12 0.976993 0.500000 0.041424
O O13 0.964867 0.732988 0.087449
O O14 0.000000 0.744149 0.000000
O O15 0.250000 0.721375 0.224195
O O16 0.433484 0.500000 0.221947
O O17 0.472489 0.724441 0.171045
O O18 0.750000 0.726926 0.145699
O O19 0.588030 0.500000 0.131579
#
# Coordination Sequence:
#
# PCOD8210486 Si02
#       6
#     8   8   8   8   8   8
#     4  10  21  37  57  80 105 134 168 207 251 296
#     4  10  21  37  56  76  99 130 167 206 249 296
#     4  10  21  37  57  81 109 141 175 210 249 292
#     4   8  13  20  31  49  75 110 150 189 232 282
#     4  10  20  32  48  72  99 128 163 202 246 295
#     4   8  14  25  39  56  83 119 156 195 239 286
#
# _framework density 18.348385
#
# number of rings (size 3 to 8) (size 9 to 14) (size 15 to 20)
#    0.000    2.667    0.000    3.000    0.000    5.667 
#    0.000    3.333    0.000    0.000    0.000    0.000 
#    0.000    0.667    0.000    2.167    0.000    4.333 
#
# Total GULP energy -595064.095459 kJ/mol
# GULP energy per Si atom -12397.168655 kJ/mol
# Density = 1.830662 g / cm^3
# Si number density = 18.348385 Si / 1000 Ang^3
#
#
#
# Elastic Constant Matrix: (Units=GPa)
#
#
# Indices 1 2 3 4 5 6 
#
# 1 103.8373 28.1543 68.4390 0.0000 0.0000 0.0000
# 2 28.1543 22.2515 37.1001 0.0000 0.0000 0.0000
# 3 68.4390 37.1001 159.4552 0.0000 0.0000 0.0000
# 4 0.0000 0.0000 0.0000 2371.9412 0.0000 0.0000
# 5 0.0000 0.0000 0.0000 0.0000 43.4787 0.0000
# 6 0.0000 0.0000 0.0000 0.0000 0.0000 20.3635
#
#
#
# Elastic Compliance Matrix: (Units=1/GPa)
#
#
# Indices 1 2 3 4 5 6 
#
# 1 0.015753 -0.014147 -0.003470 0.000000 0.000000 0.000000
# 2 -0.014147 0.086129 -0.013967 0.000000 0.000000 0.000000
# 3 -0.003470 -0.013967 0.011010 0.000000 0.000000 0.000000
# 4 0.000000 0.000000 0.000000 0.000422 0.000000 0.000000
# 5 0.000000 0.000000 0.000000 0.000000 0.023000 0.000000
# 6 0.000000 0.000000 0.000000 0.000000 0.000000 0.049107
#
#
# Mechanical properties :
#
#
# Convention : Reuss Voigt Hill
#
# Bulk Modulus (GPa) = 20.11104 61.43674 40.77389
# Shear Modulus (GPa) = 18.85626 497.28006 258.06816
#
# Velocity S-wave (km/s) = 3.20922 16.48058 11.87242
# Velocity P-wave (km/s) = 4.97158 19.89226 14.49860
#
# Compressibility (1/GPa) = 0.04972393
#
# Stress axis : x y z
#
# Youngs Moduli (GPa) = 63.47928 11.61054 90.82334
#
# Poissons Ratio (x) = 0.16425 0.31514
# Poissons Ratio (y) = 0.89803 1.26857
# Poissons Ratio (z) = 0.22026 0.16217
#
# Static dielectric constant tensor:
#      x y z
#    x 3.966910 0.000000 0.000000 
#    y 0.000000 2.939380 0.000000 
#    z 0.000000 0.000000 3.774500 
# 
# 
# High freq. dielectric constant tensor:
#      x y z
#    x 1.721500 0.000000 0.000000 
#    y 0.000000 1.659090 0.000000 
#    z 0.000000 0.000000 1.733090 
# 
# From -- ./inp_files/34542.got.cif
#   From: 2010.03.12/outbox.cif.g09.slc.cpg/sg51_18_cif.got.tgz:34542.got - 2010.04.16 13:43:02.
