data_PCOD8210748
_publ_section_title
;
Structure prediction by ZEFSAII (Michael W. Deem and Ramdas Pophale) SiO2 
 PCOD8210748
Probable space group: P M M A
;
_chemical_formula_sum "Si O2"
_cell_formula_units_Z 64
_cell_length_a 9.215083
_cell_length_b 20.175464
_cell_length_c 18.680295
_cell_angle_alpha 90.000000
_cell_angle_beta 90.000000
_cell_angle_gamma 90.000000
_cell_volume 3473.013833
_symmetry_space_group_name_H-M "P M M A"
_symmetry_group_IT_number 51
_symmetry_cell_setting 'orthorhombic'
loop_
_space_group_symop_operation_xyz
x,y,z
1/2-x,-y,z
1/2+x,-y,-z
-x,y,-z
-x,-y,-z
1/2+x,y,-z
1/2-x,y,z
x,-y,z
loop_
_atom_site_type_symbol
_atom_site_label
_atom_site_fract_x
_atom_site_fract_y
_atom_site_fract_z
Si Si1 0.578332 0.691144 0.828532
Si Si2 0.582190 0.425443 0.570444
Si Si3 0.080878 0.924810 0.181915
Si Si4 0.418033 0.074936 0.676745
Si Si5 0.078932 0.187805 0.075058
Si Si6 0.920048 0.575074 0.927944
Si Si7 0.079263 0.303570 0.332889
Si Si8 0.921132 0.806404 0.424691
O O1 0.750000 0.693005 0.824698
O O2 0.521070 0.752115 0.875966
O O3 0.525698 0.622334 0.864011
O O4 0.518705 0.696255 0.748043
O O5 0.500000 0.400081 0.500000
O O6 0.750000 0.423977 0.550407
O O7 0.532866 0.500000 0.592087
O O8 0.548097 0.376624 0.635915
O O9 0.250000 0.917618 0.197909
O O10 0.035516 0.880283 0.114534
O O11 0.002321 0.899518 0.253378
O O12 0.035899 0.000000 0.163364
O O13 0.250000 0.078011 0.696584
O O14 0.454651 0.122214 0.610302
O O15 0.465766 0.000000 0.656199
O O16 0.250000 0.193088 0.061757
O O17 0.000000 0.190328 0.000000
O O18 0.750000 0.583576 0.942167
O O19 0.960040 0.500000 0.906269
O O20 0.000000 0.596981 0.000000
O O21 0.250000 0.285667 0.337778
O O22 0.985711 0.250399 0.375086
O O23 0.750000 0.794583 0.435009
O O24 0.000000 0.804221 0.500000
#
# Coordination Sequence:
#
# PCOD8210748 Si02
#       8
#     8   8   8   8   8   8   8   8
#     4   9  18  32  50  72  97 127 163 204 249 295
#     4   9  18  32  51  75 101 130 164 202 245 294
#     4   9  18  33  53  76 101 130 164 202 246 297
#     4   9  19  36  56  78 104 133 166 206 251 298
#     4  10  20  33  49  70  98 130 165 204 245 292
#     4   9  17  30  49  72  98 129 165 204 246 294
#     4  10  20  35  55  76 101 134 171 211 255 303
#     4  11  23  37  54  77 105 135 169 209 251 298
#
# _framework density 18.427797999999999
#
# number of rings (size 3 to 8) (size 9 to 14) (size 15 to 20)
#    0.000    2.500    0.000    1.875    0.000    5.000 
#    0.000    3.750    0.000    0.000    0.000    3.500 
#    0.000    0.000    0.000    0.000    0.000    0.000 
#
# Total GULP energy -793654.986070 kJ/mol
# GULP energy per Si atom -12400.859157 kJ/mol
# Density = 1.838586 g / cm^3
# Si number density = 18.427798 Si / 1000 Ang^3
#
#
#
# Elastic Constant Matrix: (Units=GPa)
#
#
# Indices 1 2 3 4 5 6 
#
# 1 48.4246 44.2099 57.2032 0.0000 0.0000 0.0000
# 2 44.2099 118.4375 91.8849 0.0000 0.0000 0.0000
# 3 57.2032 91.8849 182.4699 0.0000 0.0000 0.0000
# 4 0.0000 0.0000 0.0000 35.4337 0.0000 0.0000
# 5 0.0000 0.0000 0.0000 0.0000 27.0155 0.0000
# 6 0.0000 0.0000 0.0000 0.0000 0.0000 21.5522
#
#
#
# Elastic Compliance Matrix: (Units=1/GPa)
#
#
# Indices 1 2 3 4 5 6 
#
# 1 0.036760 -0.007847 -0.007573 0.000000 0.000000 0.000000
# 2 -0.007847 0.015532 -0.005361 0.000000 0.000000 0.000000
# 3 -0.007573 -0.005361 0.010554 0.000000 0.000000 0.000000
# 4 0.000000 0.000000 0.000000 0.028222 0.000000 0.000000
# 5 0.000000 0.000000 0.000000 0.000000 0.037016 0.000000
# 6 0.000000 0.000000 0.000000 0.000000 0.000000 0.046399
#
#
# Mechanical properties :
#
#
# Convention : Reuss Voigt Hill
#
# Bulk Modulus (GPa) = 46.98290 81.76978 64.37634
# Shear Modulus (GPa) = 22.40768 27.20256 24.80512
#
# Velocity S-wave (km/s) = 3.49086 3.84626 3.67286
# Velocity P-wave (km/s) = 6.46523 8.01214 7.27989
#
# Compressibility (1/GPa) = 0.02128434
#
# Stress axis : x y z
#
# Youngs Moduli (GPa) = 27.20358 64.38525 94.75021
#
# Poissons Ratio (x) = 0.50520 0.71752
# Poissons Ratio (y) = 0.21346 0.50798
# Poissons Ratio (z) = 0.20601 0.34518
#
# Static dielectric constant tensor:
#      x y z
#    x 3.250340 0.000000 0.000000 
#    y 0.000000 3.748480 0.000000 
#    z 0.000000 0.000000 3.469260 
# 
# 
# High freq. dielectric constant tensor:
#      x y z
#    x 1.696170 0.000000 0.000000 
#    y 0.000000 1.729850 0.000000 
#    z 0.000000 0.000000 1.714620 
# 
# From -- ./inp_files/28470.got.cif
#   From: 2010.03.12/outbox.cif.g09.slc.cpg/sg51_15_cif.got.tgz:28470.got - 2010.04.16 13:43:02.
