data_PCOD8210580
_publ_section_title
;
Structure prediction by ZEFSAII (Michael W. Deem and Ramdas Pophale) SiO2 
 PCOD8210580
Probable space group: P M M A
;
_chemical_formula_sum "Si O2"
_cell_formula_units_Z 56
_cell_length_a 17.142876
_cell_length_b 13.837338
_cell_length_c 12.815938
_cell_angle_alpha 90.000000
_cell_angle_beta 90.000000
_cell_angle_gamma 90.000000
_cell_volume 3040.091331
_symmetry_space_group_name_H-M "P M M A"
_symmetry_group_IT_number 51
_symmetry_cell_setting 'orthorhombic'
loop_
_space_group_symop_operation_xyz
x,y,z
1/2-x,-y,z
1/2+x,-y,-z
-x,y,-z
-x,-y,-z
1/2+x,y,-z
1/2-x,y,z
x,-y,z
loop_
_atom_site_type_symbol
_atom_site_label
_atom_site_fract_x
_atom_site_fract_y
_atom_site_fract_z
Si Si1 0.929290 0.613267 0.797761
Si Si2 0.342330 0.286394 0.384969
Si Si3 0.659380 0.110025 0.300036
Si Si4 0.095814 0.292429 0.790198
Si Si5 0.341442 0.393725 0.588807
Si Si6 0.339552 0.610152 0.990785
Si Si7 0.411108 0.110019 0.476330
O O1 0.947800 0.500000 0.781938
O O2 0.868700 0.648756 0.711576
O O3 0.892406 0.633121 0.910017
O O4 0.006363 0.677019 0.788531
O O5 0.250000 0.278788 0.381262
O O6 0.375438 0.335206 0.490740
O O7 0.379126 0.178697 0.383763
O O8 0.750000 0.134849 0.282277
O O9 0.605608 0.177268 0.226360
O O10 0.640868 0.127902 0.421249
O O11 0.640011 0.000000 0.268831
O O12 0.141738 0.342364 0.696889
O O13 0.135520 0.319451 0.898743
O O14 0.250000 0.402859 0.574015
O O15 0.380075 0.500000 0.589811
O O16 0.250000 0.628543 0.021354
O O17 0.352550 0.500000 0.953362
O O18 0.500000 0.136719 0.500000
O O19 0.403808 0.000000 0.436609
#
# Coordination Sequence:
#
# PCOD8210580 Si02
#       7
#     8   8   8   8   8   8   8
#     4  11  24  39  56  80 114 155 195 231 276 342
#     4  11  22  36  55  79 112 156 194 228 274 335
#     4  10  20  35  57  84 114 147 184 229 284 343
#     4  12  21  35  58  85 114 141 183 238 292 334
#     4  10  20  32  49  78 113 146 181 225 278 332
#     4  10  21  38  60  83 109 146 192 237 280 332
#     4  10  20  35  55  82 113 146 188 238 288 337
#
# _framework density 18.420499
#
# number of rings (size 3 to 8) (size 9 to 14) (size 15 to 20)
#    0.000    1.429    1.429    5.143    0.000    4.571 
#    0.000    1.429    0.000    2.571    0.000    0.000 
#    0.000    0.000    0.000    0.000    0.000    0.000 
#
# Total GULP energy -694576.139887 kJ/mol
# GULP energy per Si atom -12403.145355 kJ/mol
# Density = 1.837857 g / cm^3
# Si number density = 18.420499 Si / 1000 Ang^3
#
#
#
# Elastic Constant Matrix: (Units=GPa)
#
#
# Indices 1 2 3 4 5 6 
#
# 1 75.7512 51.0074 22.0132 0.0000 0.0000 0.0000
# 2 51.0074 120.5293 46.4792 0.0000 0.0000 0.0000
# 3 22.0132 46.4792 84.8861 0.0000 0.0000 0.0000
# 4 0.0000 0.0000 0.0000 20.2518 0.0000 0.0000
# 5 0.0000 0.0000 0.0000 0.0000 42.1903 0.0000
# 6 0.0000 0.0000 0.0000 0.0000 0.0000 30.7340
#
#
#
# Elastic Compliance Matrix: (Units=1/GPa)
#
#
# Indices 1 2 3 4 5 6 
#
# 1 0.018490 -0.007575 -0.000647 0.000000 0.000000 0.000000
# 2 -0.007575 0.013621 -0.005494 0.000000 0.000000 0.000000
# 3 -0.000647 -0.005494 0.014956 0.000000 0.000000 0.000000
# 4 0.000000 0.000000 0.000000 0.049378 0.000000 0.000000
# 5 0.000000 0.000000 0.000000 0.000000 0.023702 0.000000
# 6 0.000000 0.000000 0.000000 0.000000 0.000000 0.032537
#
#
# Mechanical properties :
#
#
# Convention : Reuss Voigt Hill
#
# Bulk Modulus (GPa) = 50.92894 57.79626 54.36260
# Shear Modulus (GPa) = 26.78627 29.41300 28.09963
#
# Velocity S-wave (km/s) = 3.81748 4.00028 3.90994
# Velocity P-wave (km/s) = 6.86577 7.26501 7.06821
#
# Compressibility (1/GPa) = 0.01963520
#
# Stress axis : x y z
#
# Youngs Moduli (GPa) = 54.08303 73.41534 66.86111
#
# Poissons Ratio (x) = 0.55615 0.04327
# Poissons Ratio (y) = 0.40970 0.36732
# Poissons Ratio (z) = 0.03500 0.40332
#
# Static dielectric constant tensor:
#      x y z
#    x 3.411350 0.000000 0.000000 
#    y 0.000000 3.667070 0.000000 
#    z 0.000000 0.000000 3.321030 
# 
# 
# High freq. dielectric constant tensor:
#      x y z
#    x 1.723310 0.000000 0.000000 
#    y 0.000000 1.719540 0.000000 
#    z 0.000000 0.000000 1.697410 
# 
# From -- ./inp_files/16602.got.cif
#   From: 2010.03.12/outbox.cif.g09.slc.cpg/sg51_9_cif.got.tgz:16602.got - 2010.04.16 13:43:02.
