data_PCOD8210479
_publ_section_title
;
Structure prediction by ZEFSAII (Michael W. Deem and Ramdas Pophale) SiO2 
 PCOD8210479
Probable space group: P M M A
;
_chemical_formula_sum "Si O2"
_cell_formula_units_Z 64
_cell_length_a 19.230638
_cell_length_b 9.276214
_cell_length_c 20.754804
_cell_angle_alpha 90.000000
_cell_angle_beta 90.000000
_cell_angle_gamma 90.000000
_cell_volume 3702.397878
_symmetry_space_group_name_H-M "P M M A"
_symmetry_group_IT_number 51
_symmetry_cell_setting 'orthorhombic'
loop_
_space_group_symop_operation_xyz
x,y,z
1/2-x,-y,z
1/2+x,-y,-z
-x,y,-z
-x,-y,-z
1/2+x,y,-z
1/2-x,y,z
x,-y,z
loop_
_atom_site_type_symbol
_atom_site_label
_atom_site_fract_x
_atom_site_fract_y
_atom_site_fract_z
Si Si1 0.920045 0.671063 0.499004
Si Si2 0.173178 0.171038 0.750412
Si Si3 0.917628 0.842468 0.002609
Si Si4 0.927668 0.172847 0.140581
Si Si5 0.084312 0.827911 0.136188
Si Si6 0.167956 0.661973 0.240910
Si Si7 0.169528 0.831695 0.604965
Si Si8 0.827330 0.671244 0.616184
O O1 0.914384 0.500000 0.492856
O O2 0.881451 0.739199 0.438580
O O3 0.882701 0.728257 0.564033
O O4 0.000000 0.721966 0.500000
O O5 0.250000 0.231714 0.766036
O O6 0.119498 0.237193 0.802114
O O7 0.151532 0.214375 0.678116
O O8 0.174161 0.000000 0.755584
O O9 0.899807 0.764664 0.071043
O O10 0.882324 0.000000 0.003821
O O11 0.894268 0.766074 0.935429
O O12 0.000000 0.861307 0.000000
O O13 0.006412 0.223341 0.153758
O O14 0.924606 0.000000 0.137832
O O15 0.136156 0.767633 0.188751
O O16 0.088885 0.000000 0.135531
O O17 0.250000 0.662887 0.232420
O O18 0.139059 0.500000 0.230892
O O19 0.148649 0.720445 0.312443
O O20 0.250000 0.795894 0.589336
O O21 0.155014 0.000000 0.593674
O O22 0.750000 0.732439 0.600019
O O23 0.823562 0.500000 0.615512
#
# Coordination Sequence:
#
# PCOD8210479 Si02
#       8
#     8   8   8   8   8   8   8   8
#     4  10  20  32  48  72  96 115 142 184 228 266
#     4   8  14  25  41  62  89 119 150 183 216 256
#     4   7  11  21  37  58  86 117 144 172 211 258
#     4   8  13  23  41  63  87 118 152 180 212 259
#     4   9  16  26  43  67  91 113 141 184 230 260
#     4   9  18  32  47  61  81 114 151 180 211 259
#     4   9  18  32  48  66  90 120 151 182 219 264
#     4   8  15  30  49  63  80 114 153 179 205 254
#
# _framework density 17.286093999999999
#
# number of rings (size 3 to 8) (size 9 to 14) (size 15 to 20)
#    0.000    3.500    0.000    3.375    0.000    2.250 
#    0.000    1.250    0.000    6.375    0.000    0.000 
#    0.000    0.000    0.000    0.000    0.000    0.000 
#
# Total GULP energy -792849.622355 kJ/mol
# GULP energy per Si atom -12388.275349 kJ/mol
# Density = 1.724675 g / cm^3
# Si number density = 17.286094 Si / 1000 Ang^3
#
#
#
# Elastic Constant Matrix: (Units=GPa)
#
#
# Indices 1 2 3 4 5 6 
#
# 1 77.2060 20.1140 74.8976 0.0000 0.0000 0.0000
# 2 20.1140 16.8821 26.1967 0.0000 0.0000 0.0000
# 3 74.8976 26.1967 163.2060 0.0000 0.0000 0.0000
# 4 0.0000 0.0000 0.0000 13.9512 0.0000 0.0000
# 5 0.0000 0.0000 0.0000 0.0000 31.4246 0.0000
# 6 0.0000 0.0000 0.0000 0.0000 0.0000 15.2551
#
#
#
# Elastic Compliance Matrix: (Units=1/GPa)
#
#
# Indices 1 2 3 4 5 6 
#
# 1 0.026547 -0.016945 -0.009463 0.000000 0.000000 0.000000
# 2 -0.016945 0.089698 -0.006621 0.000000 0.000000 0.000000
# 3 -0.009463 -0.006621 0.011533 0.000000 0.000000 0.000000
# 4 0.000000 0.000000 0.000000 0.071679 0.000000 0.000000
# 5 0.000000 0.000000 0.000000 0.000000 0.031822 0.000000
# 6 0.000000 0.000000 0.000000 0.000000 0.000000 0.065552
#
#
# Mechanical properties :
#
#
# Convention : Reuss Voigt Hill
#
# Bulk Modulus (GPa) = 16.20247 55.52344 35.86295
# Shear Modulus (GPa) = 13.03910 21.19856 17.11883
#
# Velocity S-wave (km/s) = 2.74945 3.50571 3.15035
# Velocity P-wave (km/s) = 4.41280 6.96970 5.83307
#
# Compressibility (1/GPa) = 0.06171898
#
# Stress axis : x y z
#
# Youngs Moduli (GPa) = 37.66914 11.14851 86.71008
#
# Poissons Ratio (x) = 0.18891 0.82052
# Poissons Ratio (y) = 0.63831 0.57414
# Poissons Ratio (z) = 0.35646 0.07382
#
# Static dielectric constant tensor:
#      x y z
#    x 3.267320 0.000000 0.000000 
#    y 0.000000 2.665440 0.000000 
#    z 0.000000 0.000000 3.683390 
# 
# 
# High freq. dielectric constant tensor:
#      x y z
#    x 1.652260 0.000000 0.000000 
#    y 0.000000 1.605770 0.000000 
#    z 0.000000 0.000000 1.689600 
# 
# From -- ./inp_files/30317.got.cif
#   From: 2010.03.12/outbox.cif.g09.slc.cpg/sg51_16_cif.got.tgz:30317.got - 2010.04.16 13:43:02.
