data_PCOD8210981
_publ_section_title
;
Structure prediction by ZEFSAII (Michael W. Deem and Ramdas Pophale) SiO2 
 PCOD8210981
Probable space group: P M M A
;
_chemical_formula_sum "Si O2"
_cell_formula_units_Z 56
_cell_length_a 18.903581
_cell_length_b 15.131091
_cell_length_c 10.036062
_cell_angle_alpha 90.000000
_cell_angle_beta 90.000000
_cell_angle_gamma 90.000000
_cell_volume 2870.632922
_symmetry_space_group_name_H-M "P M M A"
_symmetry_group_IT_number 51
_symmetry_cell_setting 'orthorhombic'
loop_
_space_group_symop_operation_xyz
x,y,z
1/2-x,-y,z
1/2+x,-y,-z
-x,y,-z
-x,-y,-z
1/2+x,y,-z
1/2-x,y,z
x,-y,z
loop_
_atom_site_type_symbol
_atom_site_label
_atom_site_fract_x
_atom_site_fract_y
_atom_site_fract_z
Si Si1 0.935846 0.901182 0.899971
Si Si2 0.828285 0.399041 0.090851
Si Si3 0.326211 0.756993 0.096885
Si Si4 0.670626 0.252419 0.590392
Si Si5 0.934644 0.101414 0.592899
Si Si6 0.063298 0.399739 0.397075
Si Si7 0.019637 0.603377 0.854520
O O1 0.879725 0.831109 0.953681
O O2 0.957434 0.881503 0.746583
O O3 0.903796 0.000000 0.908890
O O4 0.000000 0.890924 0.000000
O O5 0.750000 0.380365 0.157158
O O6 0.831453 0.500000 0.041110
O O7 0.896910 0.379724 0.184457
O O8 0.841526 0.339788 0.961311
O O9 0.250000 0.790233 0.045774
O O10 0.324992 0.745789 0.252674
O O11 0.750000 0.254518 0.527998
O O12 0.631032 0.162342 0.547243
O O13 0.626659 0.339152 0.546458
O O14 0.000000 0.127575 0.500000
O O15 0.911694 0.000000 0.570244
O O16 0.091642 0.500000 0.378377
O O17 0.000000 0.399580 0.500000
O O18 0.031725 0.357056 0.259381
O O19 0.004429 0.500000 0.856879
O O20 0.000000 0.644528 0.000000
#
# Coordination Sequence:
#
# PCOD8210981 Si02
#       7
#     8   8   8   8   8   8   8
#     4   9  18  32  51  75 100 127 161 201 244 291
#     4   9  17  29  45  68  99 131 164 207 255 298
#     4   9  18  30  46  72 102 131 163 200 245 292
#     4  10  20  33  51  76 103 131 166 207 249 296
#     4   9  18  34  56  78 100 130 167 207 251 296
#     4  10  21  36  52  72 101 135 168 204 248 298
#     4   9  17  30  49  71  93 124 169 212 247 287
#
# _framework density 19.507892999999999
#
# number of rings (size 3 to 8) (size 9 to 14) (size 15 to 20)
#    0.000    2.714    0.000    1.286    0.000    5.429 
#    0.000    5.000    0.000    5.143    0.000    4.000 
#    0.000    0.000    0.000    0.000    0.000    0.000 
#
# Total GULP energy -693850.244789 kJ/mol
# GULP energy per Si atom -12390.182943 kJ/mol
# Density = 1.946349 g / cm^3
# Si number density = 19.507893 Si / 1000 Ang^3
#
#
#
# Elastic Constant Matrix: (Units=GPa)
#
#
# Indices 1 2 3 4 5 6 
#
# 1 135.1043 64.0652 22.0230 0.0000 0.0000 0.0000
# 2 64.0652 102.8676 16.7371 0.0000 0.0000 0.0000
# 3 22.0230 16.7371 44.6845 0.0000 0.0000 0.0000
# 4 0.0000 0.0000 0.0000 16.3390 0.0000 0.0000
# 5 0.0000 0.0000 0.0000 0.0000 19.5129 0.0000
# 6 0.0000 0.0000 0.0000 0.0000 0.0000 9.8478
#
#
#
# Elastic Compliance Matrix: (Units=1/GPa)
#
#
# Indices 1 2 3 4 5 6 
#
# 1 0.010870 -0.006281 -0.003005 0.000000 0.000000 0.000000
# 2 -0.006281 0.013981 -0.002141 0.000000 0.000000 0.000000
# 3 -0.003005 -0.002141 0.024662 0.000000 0.000000 0.000000
# 4 0.000000 0.000000 0.000000 0.061203 0.000000 0.000000
# 5 0.000000 0.000000 0.000000 0.000000 0.051248 0.000000
# 6 0.000000 0.000000 0.000000 0.000000 0.000000 0.101545
#
#
# Mechanical properties :
#
#
# Convention : Reuss Voigt Hill
#
# Bulk Modulus (GPa) = 37.51005 54.25634 45.88320
# Shear Modulus (GPa) = 16.93481 21.12867 19.03174
#
# Velocity S-wave (km/s) = 2.94955 3.29459 3.12683
# Velocity P-wave (km/s) = 5.55605 6.50733 6.05041
#
# Compressibility (1/GPa) = 0.02665952
#
# Stress axis : x y z
#
# Youngs Moduli (GPa) = 91.99852 71.52443 40.54808
#
# Poissons Ratio (x) = 0.44922 0.12183
# Poissons Ratio (y) = 0.57782 0.08683
# Poissons Ratio (z) = 0.27643 0.15316
#
# Static dielectric constant tensor:
#      x y z
#    x 4.036480 0.000000 0.000000 
#    y 0.000000 3.676360 0.000000 
#    z 0.000000 0.000000 3.375260 
# 
# 
# High freq. dielectric constant tensor:
#      x y z
#    x 1.766990 0.000000 0.000000 
#    y 0.000000 1.758040 0.000000 
#    z 0.000000 0.000000 1.724760 
# 
# From -- ./inp_files/10977.got.cif
#   From: 2010.03.12/outbox.cif.g09.slc.cpg/sg51_6_cif.got.tgz:10977.got - 2010.04.16 13:43:02.
