data_PCOD8210393
_publ_section_title
;
Structure prediction by ZEFSAII (Michael W. Deem and Ramdas Pophale) SiO2 
 PCOD8210393
Probable space group: P M M A
;
_chemical_formula_sum "Si O2"
_cell_formula_units_Z 44
_cell_length_a 9.603521
_cell_length_b 7.838060
_cell_length_c 30.032149
_cell_angle_alpha 90.000000
_cell_angle_beta 90.000000
_cell_angle_gamma 90.000000
_cell_volume 2260.609165
_symmetry_space_group_name_H-M "P M M A"
_symmetry_group_IT_number 51
_symmetry_cell_setting 'orthorhombic'
loop_
_space_group_symop_operation_xyz
x,y,z
1/2-x,-y,z
1/2+x,-y,-z
-x,y,-z
-x,-y,-z
1/2+x,y,-z
1/2-x,y,z
x,-y,z
loop_
_atom_site_type_symbol
_atom_site_label
_atom_site_fract_x
_atom_site_fract_y
_atom_site_fract_z
Si Si1 0.403976 0.803479 0.282499
Si Si2 0.415264 0.810427 0.893315
Si Si3 0.908827 0.701058 0.362128
Si Si4 0.083923 0.500000 0.954716
Si Si5 0.095697 0.297062 0.538623
Si Si6 0.595181 0.798228 0.205335
O O1 0.250000 0.718013 0.285788
O O2 0.485032 0.789312 0.328788
O O3 0.492755 0.716839 0.242464
O O4 0.384806 0.000000 0.270881
O O5 0.250000 0.818050 0.891910
O O6 0.465613 0.668917 0.928316
O O7 0.465820 0.756646 0.843818
O O8 0.472756 0.000000 0.906402
O O9 0.750000 0.760435 0.352574
O O10 0.920301 0.500000 0.356398
O O11 0.954206 0.757403 0.411993
O O12 0.250000 0.500000 0.962992
O O13 0.000000 0.500000 0.000000
O O14 0.250000 0.225971 0.530280
O O15 0.095736 0.500000 0.535684
O O16 0.000000 0.216366 0.500000
O O17 0.750000 0.718539 0.211562
O O18 0.606336 0.000000 0.211407
#
# Coordination Sequence:
#
# PCOD8210393 Si02
#       6
#     8   8   8   4   8   8
#     4  10  20  32  47  70 100 131 160 194 243 299
#     4   8  15  30  52  75  99 131 172 214 253 297
#     4   9  18  32  48  68  94 123 159 201 239 285
#     4  10  20  34  52  76 106 136 170 212 255 302
#     4   8  14  25  42  64  88 114 148 191 239 288
#     4   8  14  28  50  70  89 120 162 201 236 281
#
# _framework density 19.463778999999999
#
# number of rings (size 3 to 8) (size 9 to 14) (size 15 to 20)
#    0.000    3.273    0.000    2.727    0.000    2.545 
#    1.636    2.727    0.000    1.636    0.000    0.000 
#    0.000    0.000    0.000    0.000    0.000    0.000 
#
# Total GULP energy -545250.121601 kJ/mol
# GULP energy per Si atom -12392.048218 kJ/mol
# Density = 1.941948 g / cm^3
# Si number density = 19.463779 Si / 1000 Ang^3
#
#
#
# Elastic Constant Matrix: (Units=GPa)
#
#
# Indices 1 2 3 4 5 6 
#
# 1 100.5797 23.2787 82.8113 0.0000 0.0000 0.0000
# 2 23.2787 49.0772 40.9462 0.0000 0.0000 0.0000
# 3 82.8113 40.9462 178.3888 0.0000 0.0000 0.0000
# 4 0.0000 0.0000 0.0000 25.8030 0.0000 0.0000
# 5 0.0000 0.0000 0.0000 0.0000 35.8294 0.0000
# 6 0.0000 0.0000 0.0000 0.0000 0.0000 12.2195
#
#
#
# Elastic Compliance Matrix: (Units=1/GPa)
#
#
# Indices 1 2 3 4 5 6 
#
# 1 0.016213 -0.001745 -0.007126 0.000000 0.000000 0.000000
# 2 -0.001745 0.025390 -0.005018 0.000000 0.000000 0.000000
# 3 -0.007126 -0.005018 0.010065 0.000000 0.000000 0.000000
# 4 0.000000 0.000000 0.000000 0.038755 0.000000 0.000000
# 5 0.000000 0.000000 0.000000 0.000000 0.027910 0.000000
# 6 0.000000 0.000000 0.000000 0.000000 0.000000 0.081837
#
#
# Mechanical properties :
#
#
# Convention : Reuss Voigt Hill
#
# Bulk Modulus (GPa) = 41.85613 69.12425 55.49019
# Shear Modulus (GPa) = 21.19429 26.83767 24.01598
#
# Velocity S-wave (km/s) = 3.30344 3.71732 3.51647
# Velocity P-wave (km/s) = 6.00846 7.34956 6.71259
#
# Compressibility (1/GPa) = 0.02389136
#
# Stress axis : x y z
#
# Youngs Moduli (GPa) = 61.67751 39.38518 99.34927
#
# Poissons Ratio (x) = 0.06873 0.70796
# Poissons Ratio (y) = 0.10763 0.49852
# Poissons Ratio (z) = 0.43951 0.19763
#
# Static dielectric constant tensor:
#      x y z
#    x 3.697430 0.000000 0.000000 
#    y 0.000000 3.385690 0.000000 
#    z 0.000000 0.000000 3.764650 
# 
# 
# High freq. dielectric constant tensor:
#      x y z
#    x 1.730660 0.000000 0.000000 
#    y 0.000000 1.729500 0.000000 
#    z 0.000000 0.000000 1.763500 
# 
# From -- ./inp_files/36833.got.cif
#   From: 2010.03.12/outbox.cif.g09.slc.cpg/sg51_19_cif.got.tgz:36833.got - 2010.04.16 13:43:02.
