data_PCOD8210862
_publ_section_title
;
Structure prediction by ZEFSAII (Michael W. Deem and Ramdas Pophale) SiO2 
 PCOD8210862
Probable space group: P M M A
;
_chemical_formula_sum "Si O2"
_cell_formula_units_Z 48
_cell_length_a 16.391281
_cell_length_b 9.184158
_cell_length_c 18.411581
_cell_angle_alpha 90.000000
_cell_angle_beta 90.000000
_cell_angle_gamma 90.000000
_cell_volume 2771.681512
_symmetry_space_group_name_H-M "P M M A"
_symmetry_group_IT_number 51
_symmetry_cell_setting 'orthorhombic'
loop_
_space_group_symop_operation_xyz
x,y,z
1/2-x,-y,z
1/2+x,-y,-z
-x,y,-z
-x,-y,-z
1/2+x,y,-z
1/2-x,y,z
x,-y,z
loop_
_atom_site_type_symbol
_atom_site_label
_atom_site_fract_x
_atom_site_fract_y
_atom_site_fract_z
Si Si1 0.977431 0.827900 0.080942
Si Si2 0.343583 0.668132 0.829704
Si Si3 0.916091 0.836644 0.298079
Si Si4 0.503573 0.671784 0.583324
Si Si5 0.160075 0.669875 0.329167
Si Si6 0.917599 0.840110 0.789877
O O1 0.897469 0.742535 0.107503
O O2 0.056267 0.785496 0.130009
O O3 0.959042 0.000000 0.087480
O O4 0.000000 0.779848 0.000000
O O5 0.250000 0.681639 0.854275
O O6 0.370148 0.500000 0.821059
O O7 0.353257 0.746908 0.751718
O O8 0.930742 0.753671 0.374350
O O9 0.000754 0.844758 0.256738
O O10 0.882361 0.000000 0.312702
O O11 0.500000 0.719720 0.500000
O O12 0.490231 0.500000 0.592989
O O13 0.592226 0.722399 0.613316
O O14 0.250000 0.715370 0.357801
O O15 0.153458 0.500000 0.318031
O O16 0.146899 0.735475 0.248776
O O17 0.877759 0.000000 0.794309
#
# Coordination Sequence:
#
# PCOD8210862 Si02
#       6
#     8   8   8   8   8   8
#     4   9  18  33  52  73  97 126 160 195 236 289
#     4  10  20  33  50  73  99 127 162 203 245 290
#     4   9  17  30  49  70  92 121 158 197 236 283
#     4   9  17  30  48  69  95 127 161 197 241 292
#     4   9  17  29  45  65  89 119 155 193 233 278
#     4   8  15  28  46  67  88 114 150 188 225 270
#
# _framework density 17.318007999999999
#
# number of rings (size 3 to 8) (size 9 to 14) (size 15 to 20)
#    0.000    3.000    0.000    2.000    0.000    6.333 
#    0.000    1.667    0.000    8.000    0.000    0.000 
#    0.000    0.000    0.000    0.000    0.000    0.000 
#
# Total GULP energy -594970.500678 kJ/mol
# GULP energy per Si atom -12395.218764 kJ/mol
# Density = 1.727859 g / cm^3
# Si number density = 17.318008 Si / 1000 Ang^3
#
#
#
# Elastic Constant Matrix: (Units=GPa)
#
#
# Indices 1 2 3 4 5 6 
#
# 1 74.7450 39.1369 44.6162 0.0000 0.0000 0.0000
# 2 39.1369 72.0950 47.0419 0.0000 0.0000 0.0000
# 3 44.6162 47.0419 141.6761 0.0000 0.0000 0.0000
# 4 0.0000 0.0000 0.0000 27.7354 0.0000 0.0000
# 5 0.0000 0.0000 0.0000 0.0000 18.1896 0.0000
# 6 0.0000 0.0000 0.0000 0.0000 0.0000 19.6105
#
#
#
# Elastic Compliance Matrix: (Units=1/GPa)
#
#
# Indices 1 2 3 4 5 6 
#
# 1 0.019913 -0.008576 -0.003423 0.000000 0.000000 0.000000
# 2 -0.008576 0.021400 -0.004405 0.000000 0.000000 0.000000
# 3 -0.003423 -0.004405 0.009599 0.000000 0.000000 0.000000
# 4 0.000000 0.000000 0.000000 0.036055 0.000000 0.000000
# 5 0.000000 0.000000 0.000000 0.000000 0.054977 0.000000
# 6 0.000000 0.000000 0.000000 0.000000 0.000000 0.050993
#
#
# Mechanical properties :
#
#
# Convention : Reuss Voigt Hill
#
# Bulk Modulus (GPa) = 55.23785 61.12290 58.18038
# Shear Modulus (GPa) = 21.57222 23.62184 22.59703
#
# Velocity S-wave (km/s) = 3.53321 3.69725 3.61616
# Velocity P-wave (km/s) = 6.97210 7.32101 7.14869
#
# Compressibility (1/GPa) = 0.01810353
#
# Stress axis : x y z
#
# Youngs Moduli (GPa) = 50.21948 46.72830 104.17701
#
# Poissons Ratio (x) = 0.40074 0.35663
# Poissons Ratio (y) = 0.43068 0.45890
# Poissons Ratio (z) = 0.17192 0.20584
#
# Static dielectric constant tensor:
#      x y z
#    x 3.142120 0.000000 0.000000 
#    y 0.000000 3.364520 0.000000 
#    z 0.000000 0.000000 3.369490 
# 
# 
# High freq. dielectric constant tensor:
#      x y z
#    x 1.645660 0.000000 0.000000 
#    y 0.000000 1.671160 0.000000 
#    z 0.000000 0.000000 1.659480 
# 
# From -- ./inp_files/30023.got.cif
#   From: 2010.03.12/outbox.cif.g09.slc.cpg/sg51_16_cif.got.tgz:30023.got - 2010.04.16 13:43:02.
