data_PCOD8210850
_publ_section_title
;
Structure prediction by ZEFSAII (Michael W. Deem and Ramdas Pophale) SiO2 
 PCOD8210850
Probable space group: P M M A
;
_chemical_formula_sum "Si O2"
_cell_formula_units_Z 64
_cell_length_a 18.916291
_cell_length_b 9.043295
_cell_length_c 18.808259
_cell_angle_alpha 90.000000
_cell_angle_beta 90.000000
_cell_angle_gamma 90.000000
_cell_volume 3217.446107
_symmetry_space_group_name_H-M "P M M A"
_symmetry_group_IT_number 51
_symmetry_cell_setting 'orthorhombic'
loop_
_space_group_symop_operation_xyz
x,y,z
1/2-x,-y,z
1/2+x,-y,-z
-x,y,-z
-x,-y,-z
1/2+x,y,-z
1/2-x,y,z
x,-y,z
loop_
_atom_site_type_symbol
_atom_site_label
_atom_site_fract_x
_atom_site_fract_y
_atom_site_fract_z
Si Si1 0.523477 0.162660 0.792678
Si Si2 0.166832 0.829959 0.993772
Si Si3 0.564633 0.175411 0.640327
Si Si4 0.828745 0.660335 0.140809
Si Si5 0.668286 0.671710 0.541760
Si Si6 0.950627 0.674089 0.934479
Si Si7 0.579127 0.673853 0.401465
Si Si8 0.631062 0.164274 0.270123
O O1 0.569588 0.216174 0.724585
O O2 0.521327 0.277707 0.857277
O O3 0.445608 0.151165 0.762658
O O4 0.548782 0.000000 0.819053
O O5 0.250000 0.809081 0.005409
O O6 0.126415 0.748838 0.057712
O O7 0.145464 0.000000 0.991642
O O8 0.136029 0.759910 0.920445
O O9 0.637934 0.231637 0.606722
O O10 0.498645 0.253930 0.600619
O O11 0.555138 0.000000 0.630580
O O12 0.750000 0.629976 0.114408
O O13 0.868228 0.500000 0.147122
O O14 0.822104 0.744242 0.215176
O O15 0.750000 0.716531 0.526997
O O16 0.663467 0.500000 0.562238
O O17 0.618440 0.706885 0.474926
O O18 0.941758 0.500000 0.935435
O O19 0.000000 0.727534 0.000000
O O20 0.571022 0.500000 0.387044
O O21 0.630360 0.746270 0.343220
O O22 0.662952 0.000000 0.282307
#
# Coordination Sequence:
#
# PCOD8210850 Si02
#       8
#     8   8   8   8   8   8   8   8
#     4   9  20  37  55  78 108 141 178 222 273 327
#     4  10  21  37  56  77 104 142 185 227 275 331
#     4  10  21  38  60  85 112 144 187 234 277 329
#     4  10  20  33  50  73 104 143 184 225 271 327
#     4  10  22  39  58  83 115 149 187 231 280 335
#     4  11  23  36  55  85 115 143 180 227 277 329
#     4  10  20  35  57  83 113 150 187 226 276 333
#     4  10  20  34  53  79 110 143 181 226 274 326
#
# _framework density 19.891552999999998
#
# number of rings (size 3 to 8) (size 9 to 14) (size 15 to 20)
#    0.000    2.000    0.000    4.125    0.000   10.750 
#    0.000    1.875    0.000    0.750    0.000    0.000 
#    0.000    0.000    0.000    0.000    0.000    0.000 
#
# Total GULP energy -793399.456708 kJ/mol
# GULP energy per Si atom -12396.866511 kJ/mol
# Density = 1.984628 g / cm^3
# Si number density = 19.891553 Si / 1000 Ang^3
#
#
#
# Elastic Constant Matrix: (Units=GPa)
#
#
# Indices 1 2 3 4 5 6 
#
# 1 54.9450 39.3833 35.6498 0.0000 0.0000 0.0000
# 2 39.3833 127.7441 58.5585 0.0000 0.0000 0.0000
# 3 35.6498 58.5585 110.2381 0.0000 0.0000 0.0000
# 4 0.0000 0.0000 0.0000 36.3473 0.0000 0.0000
# 5 0.0000 0.0000 0.0000 0.0000 24.4027 0.0000
# 6 0.0000 0.0000 0.0000 0.0000 0.0000 25.8211
#
#
#
# Elastic Compliance Matrix: (Units=1/GPa)
#
#
# Indices 1 2 3 4 5 6 
#
# 1 0.025582 -0.005412 -0.005398 0.000000 0.000000 0.000000
# 2 -0.005412 0.011493 -0.004355 0.000000 0.000000 0.000000
# 3 -0.005398 -0.004355 0.013130 0.000000 0.000000 0.000000
# 4 0.000000 0.000000 0.000000 0.027512 0.000000 0.000000
# 5 0.000000 0.000000 0.000000 0.000000 0.040979 0.000000
# 6 0.000000 0.000000 0.000000 0.000000 0.000000 0.038728
#
#
# Mechanical properties :
#
#
# Convention : Reuss Voigt Hill
#
# Bulk Modulus (GPa) = 50.31465 62.23448 56.27457
# Shear Modulus (GPa) = 25.72289 27.93659 26.82974
#
# Velocity S-wave (km/s) = 3.59995 3.75166 3.67659
# Velocity P-wave (km/s) = 6.52908 7.07965 6.80993
#
# Compressibility (1/GPa) = 0.01987493
#
# Stress axis : x y z
#
# Youngs Moduli (GPa) = 39.09035 87.00910 76.16089
#
# Poissons Ratio (x) = 0.47093 0.41110
# Poissons Ratio (y) = 0.21158 0.33166
# Poissons Ratio (z) = 0.21100 0.37891
#
# Static dielectric constant tensor:
#      x y z
#    x 3.509530 0.000000 0.000000 
#    y 0.000000 4.031450 0.000000 
#    z 0.000000 0.000000 3.763010 
# 
# 
# High freq. dielectric constant tensor:
#      x y z
#    x 1.759280 0.000000 0.000000 
#    y 0.000000 1.788530 0.000000 
#    z 0.000000 0.000000 1.771820 
# 
# From -- ./inp_files/30658.got.cif
#   From: 2010.03.12/outbox.cif.g09.slc.cpg/sg51_16_cif.got.tgz:30658.got - 2010.04.16 13:43:02.
