data_PCOD8210355
_publ_section_title
;
Structure prediction by ZEFSAII (Michael W. Deem and Ramdas Pophale) SiO2 
 PCOD8210355
Probable space group: P M M A
;
_chemical_formula_sum "Si O2"
_cell_formula_units_Z 64
_cell_length_a 8.998538
_cell_length_b 14.518042
_cell_length_c 25.613153
_cell_angle_alpha 90.000000
_cell_angle_beta 90.000000
_cell_angle_gamma 90.000000
_cell_volume 3346.131830
_symmetry_space_group_name_H-M "P M M A"
_symmetry_group_IT_number 51
_symmetry_cell_setting 'orthorhombic'
loop_
_space_group_symop_operation_xyz
x,y,z
1/2-x,-y,z
1/2+x,-y,-z
-x,y,-z
-x,-y,-z
1/2+x,y,-z
1/2-x,y,z
x,-y,z
loop_
_atom_site_type_symbol
_atom_site_label
_atom_site_fract_x
_atom_site_fract_y
_atom_site_fract_z
Si Si1 0.081898 0.390897 0.845449
Si Si2 0.424656 0.394834 0.659537
Si Si3 0.591789 0.163851 0.546235
Si Si4 0.586052 0.626268 0.549047
Si Si5 0.072820 0.290082 0.245782
Si Si6 0.912665 0.897645 0.362946
Si Si7 0.424939 0.897961 0.756000
Si Si8 0.081670 0.390226 0.051601
O O1 0.250000 0.351703 0.839947
O O2 0.086778 0.500000 0.847419
O O3 0.979939 0.362887 0.797033
O O4 0.008230 0.352209 0.898497
O O5 0.250000 0.371347 0.657424
O O6 0.449085 0.500000 0.679645
O O7 0.492672 0.386029 0.601953
O O8 0.501654 0.321158 0.698812
O O9 0.500000 0.114283 0.500000
O O10 0.750000 0.112805 0.548914
O O11 0.612309 0.269381 0.532424
O O12 0.519674 0.164049 0.603037
O O13 0.500000 0.579042 0.500000
O O14 0.750000 0.580989 0.556396
O O15 0.250000 0.290281 0.251074
O O16 0.018165 0.189715 0.223760
O O17 0.750000 0.852506 0.365911
O O18 0.968744 0.901254 0.304365
O O19 0.910424 0.000000 0.386828
O O20 0.250000 0.881131 0.764946
O O21 0.468061 0.000000 0.779757
O O22 0.250000 0.352080 0.053105
O O23 0.083108 0.500000 0.051344
O O24 0.000000 0.352318 0.000000
#
# Coordination Sequence:
#
# PCOD8210355 Si02
#       8
#     8   8   8   8   8   8   8   8
#     4  10  20  34  52  75 107 149 194 235 273 316
#     4  11  24  40  57  77 102 135 174 214 258 312
#     4  10  20  32  47  67  89 115 146 181 226 281
#     4  10  21  37  56  76  96 121 157 202 252 305
#     4  12  24  36  54  80 110 142 175 217 269 322
#     4   9  18  32  49  68  89 114 145 183 231 288
#     4   9  19  37  59  79 100 130 167 207 254 310
#     4   9  16  27  45  71 105 146 191 235 276 317
#
# _framework density 19.126562
#
# number of rings (size 3 to 8) (size 9 to 14) (size 15 to 20)
#    0.000    2.000    0.000    4.875    0.000    9.750 
#    0.000    1.250    0.000    0.000    0.000    0.000 
#    0.000    0.500    0.000    1.875    0.000    2.875 
#
# Total GULP energy -793072.610916 kJ/mol
# GULP energy per Si atom -12391.759546 kJ/mol
# Density = 1.908303 g / cm^3
# Si number density = 19.126562 Si / 1000 Ang^3
#
#
#
# Elastic Constant Matrix: (Units=GPa)
#
#
# Indices 1 2 3 4 5 6 
#
# 1 139.1787 20.3668 45.6704 0.0000 0.0000 0.0000
# 2 20.3668 48.7120 6.2396 0.0000 0.0000 0.0000
# 3 45.6704 6.2396 95.0080 0.0000 0.0000 0.0000
# 4 0.0000 0.0000 0.0000 9.8450 0.0000 0.0000
# 5 0.0000 0.0000 0.0000 0.0000 33.4410 0.0000
# 6 0.0000 0.0000 0.0000 0.0000 0.0000 24.4068
#
#
#
# Elastic Compliance Matrix: (Units=1/GPa)
#
#
# Indices 1 2 3 4 5 6 
#
# 1 0.009011 -0.003240 -0.004119 0.000000 0.000000 0.000000
# 2 -0.003240 0.021868 0.000121 0.000000 0.000000 0.000000
# 3 -0.004119 0.000121 0.012497 0.000000 0.000000 0.000000
# 4 0.000000 0.000000 0.000000 0.101574 0.000000 0.000000
# 5 0.000000 0.000000 0.000000 0.000000 0.029903 0.000000
# 6 0.000000 0.000000 0.000000 0.000000 0.000000 0.040972
#
#
# Mechanical properties :
#
#
# Convention : Reuss Voigt Hill
#
# Bulk Modulus (GPa) = 34.60049 47.49470 41.04760
# Shear Modulus (GPa) = 20.83909 27.58002 24.20956
#
# Velocity S-wave (km/s) = 3.30439 3.80145 3.56161
# Velocity P-wave (km/s) = 5.71736 6.64483 6.19847
#
# Compressibility (1/GPa) = 0.02890132
#
# Stress axis : x y z
#
# Youngs Moduli (GPa) = 110.98027 45.72914 80.01730
#
# Poissons Ratio (x) = 0.14815 0.32956
# Poissons Ratio (y) = 0.35956 -0.00970
# Poissons Ratio (z) = 0.45709 -0.00554
#
# Static dielectric constant tensor:
#      x y z
#    x 3.843460 0.000000 0.000000 
#    y 0.000000 3.672410 0.000000 
#    z 0.000000 0.000000 3.307930 
# 
# 
# High freq. dielectric constant tensor:
#      x y z
#    x 1.757220 0.000000 0.000000 
#    y 0.000000 1.723770 0.000000 
#    z 0.000000 0.000000 1.716790 
# 
# From -- ./inp_files/34984.got.cif
#   From: 2010.03.12/outbox.cif.g09.slc.cpg/sg51_18_cif.got.tgz:34984.got - 2010.04.16 13:43:02.
