data_PCOD8210272
_publ_section_title
;
Structure prediction by ZEFSAII (Michael W. Deem and Ramdas Pophale) SiO2 
 PCOD8210272
Probable space group: P M M A
;
_chemical_formula_sum "Si O2"
_cell_formula_units_Z 56
_cell_length_a 9.037331
_cell_length_b 15.295054
_cell_length_c 24.736431
_cell_angle_alpha 90.000000
_cell_angle_beta 90.000000
_cell_angle_gamma 90.000000
_cell_volume 3419.229430
_symmetry_space_group_name_H-M "P M M A"
_symmetry_group_IT_number 51
_symmetry_cell_setting 'orthorhombic'
loop_
_space_group_symop_operation_xyz
x,y,z
1/2-x,-y,z
1/2+x,-y,-z
-x,y,-z
-x,-y,-z
1/2+x,y,-z
1/2-x,y,z
x,-y,z
loop_
_atom_site_type_symbol
_atom_site_label
_atom_site_fract_x
_atom_site_fract_y
_atom_site_fract_z
Si Si1 0.083424 0.279573 0.134043
Si Si2 0.423056 0.601912 0.660879
Si Si3 0.422141 0.903805 0.743013
Si Si4 0.922755 0.599944 0.054054
Si Si5 0.416926 0.604035 0.447360
Si Si6 0.582560 0.906858 0.852965
Si Si7 0.420965 0.267975 0.261910
O O1 0.250000 0.311184 0.121418
O O2 0.056235 0.180258 0.111009
O O3 0.053366 0.277644 0.197951
O O4 0.970643 0.344874 0.105924
O O5 0.250000 0.620792 0.656711
O O6 0.456355 0.500000 0.670266
O O7 0.497779 0.636407 0.605845
O O8 0.491439 0.652752 0.711207
O O9 0.250000 0.880809 0.737361
O O10 0.463095 0.908912 0.805809
O O11 0.515982 0.825141 0.716113
O O12 0.455947 0.000000 0.716740
O O13 0.750000 0.609992 0.045602
O O14 0.969797 0.500000 0.064626
O O15 0.000000 0.636259 0.000000
O O16 0.500000 0.642057 0.500000
O O17 0.250000 0.640678 0.446279
O O18 0.416532 0.500000 0.449724
O O19 0.750000 0.898295 0.828232
O O20 0.569532 0.000000 0.885437
O O21 0.250000 0.274278 0.277940
#
# Coordination Sequence:
#
# PCOD8210272 Si02
#       7
#     8   8   8   8   8   8   8
#     4   9  18  31  48  70  93 118 147 180 220 265
#     4  10  20  32  45  63  91 126 160 195 234 273
#     4   9  16  26  42  64  89 117 150 189 229 267
#     4  10  21  36  53  70  87 110 143 185 229 268
#     4   9  16  27  44  64  86 115 154 196 234 273
#     4   8  14  26  44  66  92 120 147 174 210 260
#     4  10  20  32  46  66  94 127 158 187 224 273
#
# _framework density 16.377960000000002
#
# number of rings (size 3 to 8) (size 9 to 14) (size 15 to 20)
#    0.000    2.714    0.000    3.000    0.000    7.714 
#    0.000    2.857    0.000    0.429    0.000    0.000 
#    0.000    0.571    0.000    2.143    0.000    3.429 
#
# Total GULP energy -693988.882827 kJ/mol
# GULP energy per Si atom -12392.658622 kJ/mol
# Density = 1.634068 g / cm^3
# Si number density = 16.377960 Si / 1000 Ang^3
#
#
#
# Elastic Constant Matrix: (Units=GPa)
#
#
# Indices 1 2 3 4 5 6 
#
# 1 97.2801 50.3148 35.5568 0.0000 0.0000 0.0000
# 2 50.3148 89.6136 41.2099 0.0000 0.0000 0.0000
# 3 35.5568 41.2099 54.9323 0.0000 0.0000 0.0000
# 4 0.0000 0.0000 0.0000 1.6974 0.0000 0.0000
# 5 0.0000 0.0000 0.0000 0.0000 28.1072 0.0000
# 6 0.0000 0.0000 0.0000 0.0000 0.0000 26.2666
#
#
#
# Elastic Compliance Matrix: (Units=1/GPa)
#
#
# Indices 1 2 3 4 5 6 
#
# 1 0.015445 -0.006221 -0.005331 0.000000 0.000000 0.000000
# 2 -0.006221 0.019542 -0.010634 0.000000 0.000000 0.000000
# 3 -0.005331 -0.010634 0.029632 0.000000 0.000000 0.000000
# 4 0.000000 0.000000 0.000000 0.589151 0.000000 0.000000
# 5 0.000000 0.000000 0.000000 0.000000 0.035578 0.000000
# 6 0.000000 0.000000 0.000000 0.000000 0.000000 0.038071
#
#
# Mechanical properties :
#
#
# Convention : Reuss Voigt Hill
#
# Bulk Modulus (GPa) = 49.38505 55.10988 52.24747
# Shear Modulus (GPa) = 6.42228 18.86387 12.64307
#
# Velocity S-wave (km/s) = 1.98237 3.39748 2.78142
# Velocity P-wave (km/s) = 5.95471 7.00802 6.50273
#
# Compressibility (1/GPa) = 0.02024904
#
# Stress axis : x y z
#
# Youngs Moduli (GPa) = 64.74378 51.17289 33.74713
#
# Poissons Ratio (x) = 0.31832 0.17991
# Poissons Ratio (y) = 0.40274 0.35885
# Poissons Ratio (z) = 0.34515 0.54415
#
# Static dielectric constant tensor:
#      x y z
#    x 3.199900 0.000000 0.000000 
#    y 0.000000 3.305030 0.000000 
#    z 0.000000 0.000000 2.757570 
# 
# 
# High freq. dielectric constant tensor:
#      x y z
#    x 1.646500 0.000000 0.000000 
#    y 0.000000 1.625500 0.000000 
#    z 0.000000 0.000000 1.583720 
# 
# From -- ./inp_files/31994.got.cif
#   From: 2010.03.12/outbox.cif.g09.slc.cpg/sg51_16_cif.got.tgz:31994.got - 2010.04.16 13:43:02.
