data_PCOD8210271
_publ_section_title
;
Structure prediction by ZEFSAII (Michael W. Deem and Ramdas Pophale) SiO2 
 PCOD8210271
Probable space group: P M M A
;
_chemical_formula_sum "Si O2"
_cell_formula_units_Z 64
_cell_length_a 8.959245
_cell_length_b 19.320922
_cell_length_c 23.630342
_cell_angle_alpha 90.000000
_cell_angle_beta 90.000000
_cell_angle_gamma 90.000000
_cell_volume 4090.432849
_symmetry_space_group_name_H-M "P M M A"
_symmetry_group_IT_number 51
_symmetry_cell_setting 'orthorhombic'
loop_
_space_group_symop_operation_xyz
x,y,z
1/2-x,-y,z
1/2+x,-y,-z
-x,y,-z
-x,-y,-z
1/2+x,y,-z
1/2-x,y,z
x,-y,z
loop_
_atom_site_type_symbol
_atom_site_label
_atom_site_fract_x
_atom_site_fract_y
_atom_site_fract_z
Si Si1 0.074649 0.420747 0.558391
Si Si2 0.426565 0.219453 0.272532
Si Si3 0.573474 0.423780 0.776062
Si Si4 0.573214 0.074864 0.757224
Si Si5 0.074513 0.212448 0.940493
Si Si6 0.073105 0.349438 0.337423
Si Si7 0.421501 0.922880 0.875662
Si Si8 0.926546 0.708372 0.841025
O O1 0.250000 0.410747 0.552585
O O2 0.031900 0.500000 0.572595
O O3 0.000000 0.397265 0.500000
O O4 0.013138 0.371348 0.606875
O O5 0.250000 0.224462 0.270265
O O6 0.481437 0.139637 0.281777
O O7 0.478609 0.270346 0.322903
O O8 0.483610 0.244875 0.211319
O O9 0.750000 0.427494 0.773518
O O10 0.504696 0.500000 0.787976
O O11 0.519426 0.397220 0.714691
O O12 0.527803 0.370966 0.826050
O O13 0.750000 0.073664 0.758274
O O14 0.521573 0.088006 0.820793
O O15 0.512562 0.000000 0.734649
O O16 0.250000 0.221773 0.946395
O O17 0.031265 0.134366 0.921603
O O18 0.014164 0.268988 0.896577
O O19 0.000000 0.228091 0.000000
O O20 0.250000 0.355198 0.347739
O O21 0.250000 0.912741 0.857418
O O22 0.447385 0.000000 0.901255
O O23 0.750000 0.715891 0.851305
#
# Coordination Sequence:
#
# PCOD8210271 Si02
#       8
#     8   8   8   8   8   8   8   8
#     4  10  20  32  45  63  90 124 159 191 220 253
#     4   8  14  25  42  65  91 116 144 177 215 253
#     4   8  14  25  45  71  92 113 141 172 211 258
#     4   9  15  24  42  65  88 116 147 175 205 249
#     4  11  22  33  46  62  81 107 139 176 215 259
#     4   9  16  27  45  67  92 122 152 183 213 250
#     4   9  18  31  44  60  83 109 138 173 211 251
#     4   9  16  29  47  64  86 111 137 172 211 257
#
# _framework density 15.646266000000001
#
# number of rings (size 3 to 8) (size 9 to 14) (size 15 to 20)
#    0.000    2.875    1.250    2.625    0.000    2.000 
#    0.000    3.125    0.000    1.500    0.000    0.000 
#    0.000    0.500    0.000    0.875    0.000    1.250 
#
# Total GULP energy -793070.237660 kJ/mol
# GULP energy per Si atom -12391.722463 kJ/mol
# Density = 1.561065 g / cm^3
# Si number density = 15.646266 Si / 1000 Ang^3
#
#
#
# Elastic Constant Matrix: (Units=GPa)
#
#
# Indices 1 2 3 4 5 6 
#
# 1 34.2735 32.8132 30.2956 0.0000 0.0000 0.0000
# 2 32.8132 145.2548 71.3002 0.0000 0.0000 0.0000
# 3 30.2956 71.3002 100.8866 0.0000 0.0000 0.0000
# 4 0.0000 0.0000 0.0000 23.8642 0.0000 0.0000
# 5 0.0000 0.0000 0.0000 0.0000 22.7669 0.0000
# 6 0.0000 0.0000 0.0000 0.0000 0.0000 16.1117
#
#
#
# Elastic Compliance Matrix: (Units=1/GPa)
#
#
# Indices 1 2 3 4 5 6 
#
# 1 0.042007 -0.005049 -0.009046 0.000000 0.000000 0.000000
# 2 -0.005049 0.011148 -0.006363 0.000000 0.000000 0.000000
# 3 -0.009046 -0.006363 0.017125 0.000000 0.000000 0.000000
# 4 0.000000 0.000000 0.000000 0.041904 0.000000 0.000000
# 5 0.000000 0.000000 0.000000 0.000000 0.043923 0.000000
# 6 0.000000 0.000000 0.000000 0.000000 0.000000 0.062067
#
#
# Mechanical properties :
#
#
# Convention : Reuss Voigt Hill
#
# Bulk Modulus (GPa) = 34.05411 61.02588 47.54000
# Shear Modulus (GPa) = 18.59575 22.28229 20.43902
#
# Velocity S-wave (km/s) = 3.45122 3.77786 3.61823
# Velocity P-wave (km/s) = 6.13950 7.62350 6.92139
#
# Compressibility (1/GPa) = 0.02936503
#
# Stress axis : x y z
#
# Youngs Moduli (GPa) = 23.80548 89.70041 58.39302
#
# Poissons Ratio (x) = 0.45290 0.52823
# Poissons Ratio (y) = 0.12019 0.37153
# Poissons Ratio (z) = 0.21535 0.57073
#
# Static dielectric constant tensor:
#      x y z
#    x 2.767170 0.000000 0.000000 
#    y 0.000000 3.619640 0.000000 
#    z 0.000000 0.000000 2.728320 
# 
# 
# High freq. dielectric constant tensor:
#      x y z
#    x 1.581720 0.000000 0.000000 
#    y 0.000000 1.609190 0.000000 
#    z 0.000000 0.000000 1.565020 
# 
# From -- ./inp_files/35198.got.cif
#   From: 2010.03.12/outbox.cif.g09.slc.cpg/sg51_18_cif.got.tgz:35198.got - 2010.04.16 13:43:02.
