data_PCOD8210578
_publ_section_title
;
Structure prediction by ZEFSAII (Michael W. Deem and Ramdas Pophale) SiO2 
 PCOD8210578
Probable space group: P M M A
;
_chemical_formula_sum "Si O2"
_cell_formula_units_Z 48
_cell_length_a 19.937714
_cell_length_b 9.582513
_cell_length_c 12.348332
_cell_angle_alpha 90.000000
_cell_angle_beta 90.000000
_cell_angle_gamma 90.000000
_cell_volume 2359.190857
_symmetry_space_group_name_H-M "P M M A"
_symmetry_group_IT_number 51
_symmetry_cell_setting 'orthorhombic'
loop_
_space_group_symop_operation_xyz
x,y,z
1/2-x,-y,z
1/2+x,-y,-z
-x,y,-z
-x,-y,-z
1/2+x,y,-z
1/2-x,y,z
x,-y,z
loop_
_atom_site_type_symbol
_atom_site_label
_atom_site_fract_x
_atom_site_fract_y
_atom_site_fract_z
Si Si1 0.505964 0.658812 0.682000
Si Si2 0.967919 0.160264 0.885524
Si Si3 0.325144 0.158356 0.036294
Si Si4 0.827951 0.654952 0.169248
Si Si5 0.896522 0.341305 0.500066
Si Si6 0.172307 0.154113 0.642468
O O1 0.499602 0.500000 0.721125
O O2 0.499208 0.753148 0.788380
O O3 0.577564 0.682552 0.622016
O O4 0.452414 0.694627 0.589916
O O5 0.886546 0.180108 0.880403
O O6 0.987335 0.000000 0.866512
O O7 0.000000 0.210390 0.000000
O O8 0.250000 0.185393 0.086466
O O9 0.327888 0.000000 0.989853
O O10 0.340274 0.267206 0.942393
O O11 0.750000 0.638140 0.193381
O O12 0.861134 0.500000 0.166603
O O13 0.861124 0.747097 0.264827
O O14 0.870969 0.500000 0.486033
O O15 0.837541 0.230828 0.473683
O O16 0.250000 0.135958 0.666902
O O17 0.138736 0.000000 0.642991
#
# Coordination Sequence:
#
# PCOD8210578 Si02
#       6
#     8   8   8   8   8   8
#     4   9  20  39  59  80 106 140 182 226 275 327
#     4  10  22  37  54  81 114 144 181 229 275 324
#     4   9  18  34  53  73 104 146 184 220 269 325
#     4   9  17  29  47  73 105 140 178 220 265 316
#     4   9  19  37  59  80 106 140 180 226 273 324
#     4  10  20  32  49  78 112 143 178 220 268 323
#
# _framework density 20.345959000000001
#
# number of rings (size 3 to 8) (size 9 to 14) (size 15 to 20)
#    0.000    2.667    0.000    2.000    2.333    5.333 
#    0.000    2.500    0.000    3.000    0.000    0.000 
#    0.000    0.000    0.000    0.000    0.000    0.000 
#
# Total GULP energy -594766.509139 kJ/mol
# GULP energy per Si atom -12390.968940 kJ/mol
# Density = 2.029965 g / cm^3
# Si number density = 20.345959 Si / 1000 Ang^3
#
#
#
# Elastic Constant Matrix: (Units=GPa)
#
#
# Indices 1 2 3 4 5 6 
#
# 1 44.0845 9.4349 11.6084 0.0000 0.0000 0.0000
# 2 9.4349 124.8660 49.6616 0.0000 0.0000 0.0000
# 3 11.6084 49.6616 90.2492 0.0000 0.0000 0.0000
# 4 0.0000 0.0000 0.0000 23.0581 0.0000 0.0000
# 5 0.0000 0.0000 0.0000 0.0000 28.8407 0.0000
# 6 0.0000 0.0000 0.0000 0.0000 0.0000 16.6814
#
#
#
# Elastic Compliance Matrix: (Units=1/GPa)
#
#
# Indices 1 2 3 4 5 6 
#
# 1 0.023532 -0.000735 -0.002622 0.000000 0.000000 0.000000
# 2 -0.000735 0.010275 -0.005560 0.000000 0.000000 0.000000
# 3 -0.002622 -0.005560 0.014477 0.000000 0.000000 0.000000
# 4 0.000000 0.000000 0.000000 0.043369 0.000000 0.000000
# 5 0.000000 0.000000 0.000000 0.000000 0.034673 0.000000
# 6 0.000000 0.000000 0.000000 0.000000 0.000000 0.059947
#
#
# Mechanical properties :
#
#
# Convention : Reuss Voigt Hill
#
# Bulk Modulus (GPa) = 32.84093 44.51219 38.67656
# Shear Modulus (GPa) = 23.33646 26.28235 24.80941
#
# Velocity S-wave (km/s) = 3.39039 3.59802 3.49575
# Velocity P-wave (km/s) = 5.61272 6.25989 5.94511
#
# Compressibility (1/GPa) = 0.03044980
#
# Stress axis : x y z
#
# Youngs Moduli (GPa) = 42.49615 97.32060 69.07480
#
# Poissons Ratio (x) = 0.07154 0.18113
# Poissons Ratio (y) = 0.03124 0.38403
# Poissons Ratio (z) = 0.11144 0.54107
#
# Static dielectric constant tensor:
#      x y z
#    x 3.848850 0.000000 0.000000 
#    y 0.000000 3.904260 0.000000 
#    z 0.000000 0.000000 3.486190 
# 
# 
# High freq. dielectric constant tensor:
#      x y z
#    x 1.788030 0.000000 0.000000 
#    y 0.000000 1.801480 0.000000 
#    z 0.000000 0.000000 1.762120 
# 
# From -- ./inp_files/18620.got.cif
#   From: 2010.03.12/outbox.cif.g09.slc.cpg/sg51_10_cif.got.tgz:18620.got - 2010.04.16 13:43:02.
