data_PCOD8210341
_publ_section_title
;
Structure prediction by ZEFSAII (Michael W. Deem and Ramdas Pophale) SiO2 
 PCOD8210341
Probable space group: P M M A
;
_chemical_formula_sum "Si O2"
_cell_formula_units_Z 56
_cell_length_a 8.819504
_cell_length_b 19.068822
_cell_length_c 18.764022
_cell_angle_alpha 90.000000
_cell_angle_beta 90.000000
_cell_angle_gamma 90.000000
_cell_volume 3155.687284
_symmetry_space_group_name_H-M "P M M A"
_symmetry_group_IT_number 51
_symmetry_cell_setting 'orthorhombic'
loop_
_space_group_symop_operation_xyz
x,y,z
1/2-x,-y,z
1/2+x,-y,-z
-x,y,-z
-x,-y,-z
1/2+x,y,-z
1/2-x,y,z
x,-y,z
loop_
_atom_site_type_symbol
_atom_site_label
_atom_site_fract_x
_atom_site_fract_y
_atom_site_fract_z
Si Si1 0.571648 0.657876 0.425173
Si Si2 0.924577 0.294308 0.793461
Si Si3 0.930185 0.790219 0.925912
Si Si4 0.929552 0.420421 0.704956
Si Si5 0.076918 0.781650 0.352521
Si Si6 0.424682 0.077921 0.291593
Si Si7 0.573842 0.920258 0.141875
O O1 0.500000 0.636412 0.500000
O O2 0.750000 0.650539 0.429911
O O3 0.508803 0.603348 0.367566
O O4 0.529455 0.738374 0.405856
O O5 0.750000 0.302732 0.811408
O O6 0.999063 0.261755 0.864733
O O7 0.987951 0.371172 0.770313
O O8 0.952049 0.241430 0.728591
O O9 0.750000 0.787648 0.929901
O O10 0.979591 0.869778 0.909753
O O11 0.000000 0.764274 0.000000
O O12 0.750000 0.410703 0.693967
O O13 0.974207 0.500000 0.723016
O O14 0.250000 0.766665 0.375548
O O15 0.038033 0.864897 0.353437
O O16 0.250000 0.087388 0.267062
O O17 0.529225 0.091636 0.223767
O O18 0.453029 0.000000 0.323155
O O19 0.750000 0.902745 0.133348
O O20 0.537040 0.000000 0.119055
#
# Coordination Sequence:
#
# PCOD8210341 Si02
#       7
#     8   8   8   8   8   8   8
#     4  11  22  35  52  77 108 141 171 203 244 293
#     4   8  15  30  51  74  98 126 163 204 246 295
#     4  11  21  34  50  70  97 133 173 215 260 308
#     4   9  18  35  59  83 105 132 165 202 245 296
#     4   9  16  31  52  74 100 132 171 212 252 299
#     4   9  16  28  49  74  99 131 169 210 257 305
#     4  10  20  32  46  68  99 132 169 213 259 308
#
# _framework density 17.745736999999998
#
# number of rings (size 3 to 8) (size 9 to 14) (size 15 to 20)
#    0.000    2.429    1.429    3.000    0.000    2.286 
#    0.000    0.714    0.000    0.857    0.000    0.000 
#    0.000    0.000    0.000    0.000    0.000    0.143 
#
# Total GULP energy -694157.141377 kJ/mol
# GULP energy per Si atom -12395.663239 kJ/mol
# Density = 1.770535 g / cm^3
# Si number density = 17.745737 Si / 1000 Ang^3
#
#
#
# Elastic Constant Matrix: (Units=GPa)
#
#
# Indices 1 2 3 4 5 6 
#
# 1 68.5003 35.2084 33.6853 0.0000 0.0000 0.0000
# 2 35.2084 128.0740 47.3611 0.0000 0.0000 0.0000
# 3 33.6853 47.3611 80.8506 0.0000 0.0000 0.0000
# 4 0.0000 0.0000 0.0000 10.4038 0.0000 0.0000
# 5 0.0000 0.0000 0.0000 0.0000 25.3769 0.0000
# 6 0.0000 0.0000 0.0000 0.0000 0.0000 19.3871
#
#
#
# Elastic Compliance Matrix: (Units=1/GPa)
#
#
# Indices 1 2 3 4 5 6 
#
# 1 0.019202 -0.002962 -0.006265 0.000000 0.000000 0.000000
# 2 -0.002962 0.010424 -0.004872 0.000000 0.000000 0.000000
# 3 -0.006265 -0.004872 0.017833 0.000000 0.000000 0.000000
# 4 0.000000 0.000000 0.000000 0.096119 0.000000 0.000000
# 5 0.000000 0.000000 0.000000 0.000000 0.039406 0.000000
# 6 0.000000 0.000000 0.000000 0.000000 0.000000 0.051581
#
#
# Mechanical properties :
#
#
# Convention : Reuss Voigt Hill
#
# Bulk Modulus (GPa) = 51.92062 56.65938 54.29000
# Shear Modulus (GPa) = 18.57478 21.77825 20.17651
#
# Velocity S-wave (km/s) = 3.23881 3.50700 3.37557
# Velocity P-wave (km/s) = 6.58089 6.95676 6.77143
#
# Compressibility (1/GPa) = 0.01926017
#
# Stress axis : x y z
#
# Youngs Moduli (GPa) = 52.07864 95.93323 56.07646
#
# Poissons Ratio (x) = 0.28414 0.35132
# Poissons Ratio (y) = 0.15425 0.27321
# Poissons Ratio (z) = 0.32628 0.46740
#
# Static dielectric constant tensor:
#      x y z
#    x 3.155330 0.000000 0.000000 
#    y 0.000000 3.594430 0.000000 
#    z 0.000000 0.000000 3.171180 
# 
# 
# High freq. dielectric constant tensor:
#      x y z
#    x 1.673490 0.000000 0.000000 
#    y 0.000000 1.689410 0.000000 
#    z 0.000000 0.000000 1.658340 
# 
# From -- ./inp_files/28273.got.cif
#   From: 2010.03.12/outbox.cif.g09.slc.cpg/sg51_15_cif.got.tgz:28273.got - 2010.04.16 13:43:02.
