data_PCOD8210536
_publ_section_title
;
Structure prediction by ZEFSAII (Michael W. Deem and Ramdas Pophale) SiO2 
 PCOD8210536
Probable space group: P M M A
;
_chemical_formula_sum "Si O2"
_cell_formula_units_Z 40
_cell_length_a 23.741911
_cell_length_b 17.476578
_cell_length_c 4.986578
_cell_angle_alpha 90.000000
_cell_angle_beta 90.000000
_cell_angle_gamma 90.000000
_cell_volume 2069.067642
_symmetry_space_group_name_H-M "P M M A"
_symmetry_group_IT_number 51
_symmetry_cell_setting 'orthorhombic'
loop_
_space_group_symop_operation_xyz
x,y,z
1/2-x,-y,z
1/2+x,-y,-z
-x,y,-z
-x,-y,-z
1/2+x,y,-z
1/2-x,y,z
x,-y,z
loop_
_atom_site_type_symbol
_atom_site_label
_atom_site_fract_x
_atom_site_fract_y
_atom_site_fract_z
Si Si1 0.938740 0.632718 0.613235
Si Si2 0.685459 0.261099 0.091193
Si Si3 0.125093 0.414993 0.887024
Si Si4 0.462213 0.085679 0.241363
Si Si5 0.620647 0.786839 0.599554
O O1 0.895400 0.590499 0.417783
O O2 0.928628 0.723740 0.621095
O O3 0.000000 0.614299 0.500000
O O4 0.927627 0.600394 0.911669
O O5 0.750000 0.246886 0.165837
O O6 0.673907 0.352197 0.077764
O O7 0.645786 0.215241 0.299819
O O8 0.672583 0.228874 0.797482
O O9 0.149823 0.500000 0.935533
O O10 0.500000 0.083264 0.500000
O O11 0.406436 0.133073 0.313440
O O12 0.442595 0.000000 0.159115
O O13 0.500000 0.121594 0.000000
#
# Coordination Sequence:
#
# PCOD8210536 Si02
#       5
#     8   8   8   8   8
#     4  10  20  32  49  73 102 137 169 204 256 317
#     4  10  21  37  56  75  98 136 181 225 269 304
#     4  10  21  34  49  73 100 130 173 218 263 314
#     4  10  20  34  56  86 116 143 168 201 252 309
#     4  10  20  35  55  78 106 136 175 218 254 310
#
# _framework density 19.332377999999999
#
# number of rings (size 3 to 8) (size 9 to 14) (size 15 to 20)
#    0.000    2.000    0.000    3.600    0.000    6.000 
#    0.000    0.000    0.000   10.800    0.000    0.000 
#    0.000    0.000    0.000    0.000    0.000    0.000 
#
# Total GULP energy -495957.115483 kJ/mol
# GULP energy per Si atom -12398.927887 kJ/mol
# Density = 1.928838 g / cm^3
# Si number density = 19.332378 Si / 1000 Ang^3
#
#
#
# Elastic Constant Matrix: (Units=GPa)
#
#
# Indices 1 2 3 4 5 6 
#
# 1 75.9474 36.9469 7.8312 0.0000 0.0000 0.0000
# 2 36.9469 86.3569 14.5760 0.0000 0.0000 0.0000
# 3 7.8312 14.5760 89.4094 0.0000 0.0000 0.0000
# 4 0.0000 0.0000 0.0000 17.2994 0.0000 0.0000
# 5 0.0000 0.0000 0.0000 0.0000 23.8682 0.0000
# 6 0.0000 0.0000 0.0000 0.0000 0.0000 13.9238
#
#
#
# Elastic Compliance Matrix: (Units=1/GPa)
#
#
# Indices 1 2 3 4 5 6 
#
# 1 0.016636 -0.007066 -0.000305 0.000000 0.000000 0.000000
# 2 -0.007066 0.014909 -0.001812 0.000000 0.000000 0.000000
# 3 -0.000305 -0.001812 0.011507 0.000000 0.000000 0.000000
# 4 0.000000 0.000000 0.000000 0.057806 0.000000 0.000000
# 5 0.000000 0.000000 0.000000 0.000000 0.041897 0.000000
# 6 0.000000 0.000000 0.000000 0.000000 0.000000 0.071820
#
#
# Mechanical properties :
#
#
# Convention : Reuss Voigt Hill
#
# Bulk Modulus (GPa) = 40.50926 41.15796 40.83361
# Shear Modulus (GPa) = 20.73249 23.84225 22.28737
#
# Velocity S-wave (km/s) = 3.27834 3.51562 3.39905
# Velocity P-wave (km/s) = 5.94387 6.14942 6.04752
#
# Compressibility (1/GPa) = 0.02468571
#
# Stress axis : x y z
#
# Youngs Moduli (GPa) = 60.11081 67.07475 86.90685
#
# Poissons Ratio (x) = 0.47395 0.02652
# Poissons Ratio (y) = 0.42474 0.15744
# Poissons Ratio (z) = 0.01834 0.12151
#
# Static dielectric constant tensor:
#      x y z
#    x 3.075620 0.000000 0.000000 
#    y 0.000000 3.641940 0.000000 
#    z 0.000000 0.000000 3.731780 
# 
# 
# High freq. dielectric constant tensor:
#      x y z
#    x 1.719540 0.000000 0.000000 
#    y 0.000000 1.740320 0.000000 
#    z 0.000000 0.000000 1.776670 
# 
# From -- ./inp_files/2454.got.cif
#   From: 2010.03.12/outbox.cif.g09.slc.cpg/sg51_2_cif.got.tgz:2454.got - 2010.04.16 13:43:02.
