data_PCOD8210108
_publ_section_title
;
Structure prediction by ZEFSAII (Michael W. Deem and Ramdas Pophale) SiO2 
 PCOD8210108
Probable space group: P M M A
;
_chemical_formula_sum "Si O2"
_cell_formula_units_Z 48
_cell_length_a 14.549853
_cell_length_b 9.004528
_cell_length_c 19.558610
_cell_angle_alpha 90.000000
_cell_angle_beta 90.000000
_cell_angle_gamma 90.000000
_cell_volume 2562.462659
_symmetry_space_group_name_H-M "P M M A"
_symmetry_group_IT_number 51
_symmetry_cell_setting 'orthorhombic'
loop_
_space_group_symop_operation_xyz
x,y,z
1/2-x,-y,z
1/2+x,-y,-z
-x,y,-z
-x,-y,-z
1/2+x,y,-z
1/2-x,y,z
x,-y,z
loop_
_atom_site_type_symbol
_atom_site_label
_atom_site_fract_x
_atom_site_fract_y
_atom_site_fract_z
Si Si1 0.250000 0.822769 0.866605
Si Si2 0.066783 0.674499 0.818785
Si Si3 0.144413 0.826131 0.414779
Si Si4 0.250000 0.175393 0.020853
Si Si5 0.145244 0.326539 0.552722
Si Si6 0.503888 0.326771 0.332277
Si Si7 0.053789 0.172069 0.070228
O O1 0.160717 0.762652 0.828699
O O2 0.250000 0.760083 0.944062
O O3 0.250000 0.000000 0.864276
O O4 0.085332 0.500000 0.826861
O O5 0.030629 0.716287 0.744168
O O6 0.990018 0.725272 0.872328
O O7 0.250000 0.782393 0.402535
O O8 0.108019 0.756425 0.485579
O O9 0.088075 0.761393 0.351232
O O10 0.129558 0.000000 0.418919
O O11 0.250000 0.000000 0.013493
O O12 0.158910 0.227059 0.060988
O O13 0.250000 0.280917 0.568682
O O14 0.135702 0.500000 0.537994
O O15 0.086312 0.276682 0.617900
O O16 0.483352 0.500000 0.339683
O O17 0.048588 0.000000 0.092787
O O18 0.000000 0.195556 0.000000
#
# Coordination Sequence:
#
# PCOD8210108 Si02
#       7
#     4   8   8   4   8   8   8
#     4  11  21  39  63  87 115 152 191 226 281 351
#     4  11  24  39  57  87 122 151 186 239 290 334
#     4  10  21  37  57  82 112 143 184 240 289 328
#     4   9  18  35  61  87 109 146 195 240 279 329
#     4   9  18  34  58  83 108 145 188 225 272 340
#     4  10  22  38  57  80 113 154 190 226 277 340
#     4  10  19  37  62  85 114 152 196 237 279 343
#
# _framework density 18.731981000000001
#
# number of rings (size 3 to 8) (size 9 to 14) (size 15 to 20)
#    0.000    2.000    1.667    1.750    1.167    5.333 
#    1.500    0.417    0.000    0.000    0.000    0.000 
#    0.000    0.000    0.000    0.000    0.000    0.000 
#
# Total GULP energy -595385.791486 kJ/mol
# GULP energy per Si atom -12403.870656 kJ/mol
# Density = 1.868935 g / cm^3
# Si number density = 18.731981 Si / 1000 Ang^3
#
#
#
# Elastic Constant Matrix: (Units=GPa)
#
#
# Indices 1 2 3 4 5 6 
#
# 1 131.0999 48.7874 70.5585 0.0000 0.0000 0.0000
# 2 48.7874 63.7604 56.1446 0.0000 0.0000 0.0000
# 3 70.5585 56.1446 132.6419 0.0000 0.0000 0.0000
# 4 0.0000 0.0000 0.0000 8.0522 0.0000 0.0000
# 5 0.0000 0.0000 0.0000 0.0000 22.8145 0.0000
# 6 0.0000 0.0000 0.0000 0.0000 0.0000 31.5386
#
#
#
# Elastic Compliance Matrix: (Units=1/GPa)
#
#
# Indices 1 2 3 4 5 6 
#
# 1 0.011818 -0.005591 -0.003920 0.000000 0.000000 0.000000
# 2 -0.005591 0.027648 -0.008729 0.000000 0.000000 0.000000
# 3 -0.003920 -0.008729 0.013319 0.000000 0.000000 0.000000
# 4 0.000000 0.000000 0.000000 0.124190 0.000000 0.000000
# 5 0.000000 0.000000 0.000000 0.000000 0.043832 0.000000
# 6 0.000000 0.000000 0.000000 0.000000 0.000000 0.031707
#
#
# Mechanical properties :
#
#
# Convention : Reuss Voigt Hill
#
# Bulk Modulus (GPa) = 61.32878 75.38700 68.35789
# Shear Modulus (GPa) = 16.98203 22.61516 19.79859
#
# Velocity S-wave (km/s) = 3.01421 3.47840 3.25459
# Velocity P-wave (km/s) = 6.70263 7.51430 7.12004
#
# Compressibility (1/GPa) = 0.01630556
#
# Stress axis : x y z
#
# Youngs Moduli (GPa) = 84.61502 36.16915 75.08062
#
# Poissons Ratio (x) = 0.20222 0.29432
# Poissons Ratio (y) = 0.47309 0.65535
# Poissons Ratio (z) = 0.33170 0.31571
#
# Static dielectric constant tensor:
#      x y z
#    x 3.777690 0.000000 0.000000 
#    y 0.000000 3.319400 0.000000 
#    z 0.000000 0.000000 3.453890 
# 
# 
# High freq. dielectric constant tensor:
#      x y z
#    x 1.741550 0.000000 0.000000 
#    y 0.000000 1.718160 0.000000 
#    z 0.000000 0.000000 1.723280 
# 
# From -- ./inp_files/29505.got.cif
#   From: 2010.03.12/outbox.cif.g09.slc.cpg/sg51_15_cif.got.tgz:29505.got - 2010.04.16 13:43:02.
