data_PCOD8210631
_publ_section_title
;
Structure prediction by ZEFSAII (Michael W. Deem and Ramdas Pophale) SiO2 
 PCOD8210631
Probable space group: P M M A
;
_chemical_formula_sum "Si O2"
_cell_formula_units_Z 56
_cell_length_a 23.308146
_cell_length_b 9.106330
_cell_length_c 13.534473
_cell_angle_alpha 90.000000
_cell_angle_beta 90.000000
_cell_angle_gamma 90.000000
_cell_volume 2872.714486
_symmetry_space_group_name_H-M "P M M A"
_symmetry_group_IT_number 51
_symmetry_cell_setting 'orthorhombic'
loop_
_space_group_symop_operation_xyz
x,y,z
1/2-x,-y,z
1/2+x,-y,-z
-x,y,-z
-x,-y,-z
1/2+x,y,-z
1/2-x,y,z
x,-y,z
loop_
_atom_site_type_symbol
_atom_site_label
_atom_site_fract_x
_atom_site_fract_y
_atom_site_fract_z
Si Si1 0.750000 0.825220 0.208138
Si Si2 0.648692 0.830498 0.349948
Si Si3 0.750000 0.328540 0.997501
Si Si4 0.049726 0.673991 0.931060
Si Si5 0.591834 0.674170 0.701202
Si Si6 0.185348 0.830754 0.430045
Si Si7 0.537953 0.325998 0.288638
Si Si8 0.366330 0.672023 0.090055
O O1 0.692492 0.771268 0.265556
O O2 0.750000 0.761026 0.098498
O O3 0.750000 0.000000 0.203800
O O4 0.680135 0.805697 0.453393
O O5 0.588173 0.744544 0.353925
O O6 0.634333 0.000000 0.331723
O O7 0.750000 0.500000 0.027022
O O8 0.800606 0.286249 0.922865
O O9 0.044357 0.500000 0.920456
O O10 0.046398 0.739704 0.821551
O O11 0.106510 0.728541 0.987149
O O12 0.000000 0.737230 0.000000
O O13 0.598690 0.500000 0.700517
O O14 0.636651 0.737099 0.623415
O O15 0.526095 0.718074 0.673938
O O16 0.607163 0.740172 0.809892
O O17 0.250000 0.781855 0.398700
O O18 0.175437 0.000000 0.402424
O O19 0.545462 0.500000 0.292804
O O20 0.378288 0.500000 0.096853
#
# Coordination Sequence:
#
# PCOD8210631 Si02
#       8
#     4   8   4   8   8   8   8   8
#     4  10  20  38  59  80 108 142 183 234 287 332
#     4  10  21  39  62  81 105 143 186 233 285 338
#     4  10  20  32  51  82 114 142 179 226 269 324
#     4   9  14  26  49  75 106 146 182 209 249 313
#     4  10  21  36  56  85 118 148 181 228 279 324
#     4  10  22  42  63  80 102 143 194 236 278 334
#     4  10  20  34  56  88 119 146 181 226 275 328
#     4   9  17  30  49  77 112 147 181 217 262 317
#
# _framework density 19.493756000000001
#
# number of rings (size 3 to 8) (size 9 to 14) (size 15 to 20)
#    0.000    2.286    2.143    0.857    1.000    3.714 
#    0.000    3.571    0.000    1.286    0.000    0.000 
#    0.000    0.000    0.000    0.000    0.000    0.000 
#
# Total GULP energy -694026.588620 kJ/mol
# GULP energy per Si atom -12393.331940 kJ/mol
# Density = 1.944939 g / cm^3
# Si number density = 19.493756 Si / 1000 Ang^3
#
#
#
# Elastic Constant Matrix: (Units=GPa)
#
#
# Indices 1 2 3 4 5 6 
#
# 1 158.4710 38.5546 29.6215 0.0000 0.0000 0.0000
# 2 38.5546 30.7226 18.6263 0.0000 0.0000 0.0000
# 3 29.6215 18.6263 52.5335 0.0000 0.0000 0.0000
# 4 0.0000 0.0000 0.0000 21.5660 0.0000 0.0000
# 5 0.0000 0.0000 0.0000 0.0000 30.1524 0.0000
# 6 0.0000 0.0000 0.0000 0.0000 0.0000 25.1175
#
#
#
# Elastic Compliance Matrix: (Units=1/GPa)
#
#
# Indices 1 2 3 4 5 6 
#
# 1 0.009162 -0.010657 -0.001388 0.000000 0.000000 0.000000
# 2 -0.010657 0.053857 -0.013087 0.000000 0.000000 0.000000
# 3 -0.001388 -0.013087 0.024458 0.000000 0.000000 0.000000
# 4 0.000000 0.000000 0.000000 0.046369 0.000000 0.000000
# 5 0.000000 0.000000 0.000000 0.000000 0.033165 0.000000
# 6 0.000000 0.000000 0.000000 0.000000 0.000000 0.039813
#
#
# Mechanical properties :
#
#
# Convention : Reuss Voigt Hill
#
# Bulk Modulus (GPa) = 26.87103 46.14802 36.50952
# Shear Modulus (GPa) = 18.55346 25.69549 22.12447
#
# Velocity S-wave (km/s) = 3.08841 3.63456 3.37256
# Velocity P-wave (km/s) = 5.15093 6.42946 5.82538
#
# Compressibility (1/GPa) = 0.03721481
#
# Stress axis : x y z
#
# Youngs Moduli (GPa) = 109.14157 18.56777 40.88641
#
# Poissons Ratio (x) = 0.19787 0.05674
# Poissons Ratio (y) = 1.16309 0.53506
# Poissons Ratio (z) = 0.15147 0.24299
#
# Static dielectric constant tensor:
#      x y z
#    x 3.787050 0.000000 0.000000 
#    y 0.000000 3.092120 0.000000 
#    z 0.000000 0.000000 3.578680 
# 
# 
# High freq. dielectric constant tensor:
#      x y z
#    x 1.780440 0.000000 0.000000 
#    y 0.000000 1.708420 0.000000 
#    z 0.000000 0.000000 1.760680 
# 
# From -- ./inp_files/25924.got.cif
#   From: 2010.03.12/outbox.cif.g09.slc.cpg/sg51_13_cif.got.tgz:25924.got - 2010.04.16 13:43:02.
