data_PCOD8210440
_publ_section_title
;
Structure prediction by ZEFSAII (Michael W. Deem and Ramdas Pophale) SiO2 
 PCOD8210440
Probable space group: P M M A
;
_chemical_formula_sum "Si O2"
_cell_formula_units_Z 64
_cell_length_a 9.014812
_cell_length_b 17.529287
_cell_length_c 20.710800
_cell_angle_alpha 90.000000
_cell_angle_beta 90.000000
_cell_angle_gamma 90.000000
_cell_volume 3272.787446
_symmetry_space_group_name_H-M "P M M A"
_symmetry_group_IT_number 51
_symmetry_cell_setting 'orthorhombic'
loop_
_space_group_symop_operation_xyz
x,y,z
1/2-x,-y,z
1/2+x,-y,-z
-x,y,-z
-x,-y,-z
1/2+x,y,-z
1/2-x,y,z
x,-y,z
loop_
_atom_site_type_symbol
_atom_site_label
_atom_site_fract_x
_atom_site_fract_y
_atom_site_fract_z
Si Si1 0.914911 0.083232 0.860686
Si Si2 0.421031 0.414338 0.197366
Si Si3 0.079041 0.708422 0.298225
Si Si4 0.920904 0.800538 0.062434
Si Si5 0.573689 0.760828 0.563241
Si Si6 0.584451 0.878437 0.719486
Si Si7 0.922264 0.085605 0.403053
Si Si8 0.073993 0.626635 0.933361
O O1 0.750000 0.109426 0.882639
O O2 0.920356 0.073448 0.784140
O O3 0.035657 0.145939 0.878516
O O4 0.952280 0.000000 0.890444
O O5 0.250000 0.391898 0.182833
O O6 0.432333 0.500000 0.225424
O O7 0.492159 0.357318 0.251939
O O8 0.510249 0.414165 0.129919
O O9 0.250000 0.686822 0.303917
O O10 0.017476 0.715467 0.372367
O O11 0.050391 0.789633 0.264408
O O12 0.750000 0.804694 0.049006
O O13 0.971687 0.714621 0.075870
O O14 0.000000 0.835083 0.000000
O O15 0.500000 0.721721 0.500000
O O16 0.750000 0.758540 0.557615
O O17 0.522465 0.849660 0.563492
O O18 0.750000 0.882807 0.687670
O O19 0.462852 0.914447 0.672614
O O20 0.750000 0.106604 0.411833
O O21 0.954797 0.000000 0.430466
O O22 0.250000 0.613130 0.937612
O O23 0.000000 0.595368 0.000000
#
# Coordination Sequence:
#
# PCOD8210440 Si02
#       8
#     8   8   8   8   8   8   8   8
#     4  10  20  32  48  71  98 130 169 215 267 318
#     4  10  20  35  58  86 113 142 175 211 255 310
#     4   8  16  32  54  79 105 135 172 213 257 306
#     4  10  21  36  53  71  92 125 169 215 263 313
#     4  10  20  35  55  77 103 138 180 224 267 313
#     4   9  17  31  51  71  95 131 172 211 252 303
#     4  10  20  32  47  71 104 138 172 214 262 310
#     4  10  21  37  57  81 109 142 179 217 259 310
#
# _framework density 19.555195999999999
#
# number of rings (size 3 to 8) (size 9 to 14) (size 15 to 20)
#    0.000    2.375    0.000    3.375    0.000    5.750 
#    0.000    4.375    0.000    0.375    0.000    0.000 
#    0.000    0.000    0.000    0.000    0.000    0.500 
#
# Total GULP energy -793147.452954 kJ/mol
# GULP energy per Si atom -12392.928952 kJ/mol
# Density = 1.951069 g / cm^3
# Si number density = 19.555196 Si / 1000 Ang^3
#
#
#
# Elastic Constant Matrix: (Units=GPa)
#
#
# Indices 1 2 3 4 5 6 
#
# 1 58.5765 24.7725 28.8220 0.0000 0.0000 0.0000
# 2 24.7725 77.8104 40.7799 0.0000 0.0000 0.0000
# 3 28.8220 40.7799 102.1487 0.0000 0.0000 0.0000
# 4 0.0000 0.0000 0.0000 9.9392 0.0000 0.0000
# 5 0.0000 0.0000 0.0000 0.0000 32.2580 0.0000
# 6 0.0000 0.0000 0.0000 0.0000 0.0000 19.6410
#
#
#
# Elastic Compliance Matrix: (Units=1/GPa)
#
#
# Indices 1 2 3 4 5 6 
#
# 1 0.021016 -0.004531 -0.004121 0.000000 0.000000 0.000000
# 2 -0.004531 0.017229 -0.005600 0.000000 0.000000 0.000000
# 3 -0.004121 -0.005600 0.013188 0.000000 0.000000 0.000000
# 4 0.000000 0.000000 0.000000 0.100612 0.000000 0.000000
# 5 0.000000 0.000000 0.000000 0.000000 0.031000 0.000000
# 6 0.000000 0.000000 0.000000 0.000000 0.000000 0.050914
#
#
# Mechanical properties :
#
#
# Convention : Reuss Voigt Hill
#
# Bulk Modulus (GPa) = 43.61226 47.47606 45.54416
# Shear Modulus (GPa) = 18.51135 21.97838 20.24487
#
# Velocity S-wave (km/s) = 3.08006 3.35612 3.22105
# Velocity P-wave (km/s) = 5.91604 6.27286 6.09706
#
# Compressibility (1/GPa) = 0.02292933
#
# Stress axis : x y z
#
# Youngs Moduli (GPa) = 47.58389 58.04133 75.82711
#
# Poissons Ratio (x) = 0.26299 0.31247
# Poissons Ratio (y) = 0.21560 0.42461
# Poissons Ratio (z) = 0.19608 0.32502
#
# Static dielectric constant tensor:
#      x y z
#    x 3.446540 0.000000 0.000000 
#    y 0.000000 3.467260 0.000000 
#    z 0.000000 0.000000 3.689430 
# 
# 
# High freq. dielectric constant tensor:
#      x y z
#    x 1.744660 0.000000 0.000000 
#    y 0.000000 1.746020 0.000000 
#    z 0.000000 0.000000 1.760400 
# 
# From -- ./inp_files/32430.got.cif
#   From: 2010.03.12/outbox.cif.g09.slc.cpg/sg51_17_cif.got.tgz:32430.got - 2010.04.16 13:43:02.
