data_PCOD8210255
_publ_section_title
;
Structure prediction by ZEFSAII (Michael W. Deem and Ramdas Pophale) SiO2 
 PCOD8210255
Probable space group: P M M A
;
_chemical_formula_sum "Si O2"
_cell_formula_units_Z 64
_cell_length_a 8.829880
_cell_length_b 14.413822
_cell_length_c 31.154802
_cell_angle_alpha 90.000000
_cell_angle_beta 90.000000
_cell_angle_gamma 90.000000
_cell_volume 3965.143886
_symmetry_space_group_name_H-M "P M M A"
_symmetry_group_IT_number 51
_symmetry_cell_setting 'orthorhombic'
loop_
_space_group_symop_operation_xyz
x,y,z
1/2-x,-y,z
1/2+x,-y,-z
-x,y,-z
-x,-y,-z
1/2+x,y,-z
1/2-x,y,z
x,-y,z
loop_
_atom_site_type_symbol
_atom_site_label
_atom_site_fract_x
_atom_site_fract_y
_atom_site_fract_z
Si Si1 0.429747 0.398905 0.079924
Si Si2 0.075510 0.109216 0.876408
Si Si3 0.420685 0.889332 0.542901
Si Si4 0.070677 0.600310 0.176342
Si Si5 0.580098 0.110208 0.628116
Si Si6 0.571062 0.795667 0.794766
Si Si7 0.574918 0.109007 0.284966
Si Si8 0.570518 0.208177 0.955925
O O1 0.250000 0.395699 0.081000
O O2 0.484652 0.500000 0.062172
O O3 0.492464 0.384677 0.128154
O O4 0.489607 0.313993 0.051024
O O5 0.250000 0.137824 0.881909
O O6 0.012472 0.151835 0.832812
O O7 0.981852 0.144094 0.917064
O O8 0.055300 0.000000 0.872940
O O9 0.500000 0.850910 0.500000
O O10 0.250000 0.851742 0.544018
O O11 0.507710 0.849669 0.584463
O O12 0.423129 0.000000 0.543131
O O13 0.250000 0.597196 0.174107
O O14 0.011369 0.500000 0.194294
O O15 0.019440 0.687216 0.205385
O O16 0.750000 0.149480 0.633029
O O17 0.479317 0.142738 0.668285
O O18 0.582781 0.000000 0.625692
O O19 0.750000 0.806212 0.801669
O O20 0.524915 0.837734 0.749533
O O21 0.750000 0.134767 0.279166
O O22 0.547152 0.000000 0.278970
O O23 0.750000 0.203038 0.958903
O O24 0.500000 0.170087 0.000000
#
# Coordination Sequence:
#
# PCOD8210255 Si02
#       8
#     8   8   8   8   8   8   8   8
#     4   8  14  28  51  76 100 123 145 171 208 255
#     4  11  24  40  55  71  93 121 151 185 223 260
#     4   9  15  22  33  50  73 104 144 190 238 284
#     4   8  14  27  49  75  98 118 142 173 212 259
#     4   9  16  26  39  55  77 107 147 195 239 278
#     4  11  20  32  53  77  95 117 149 184 221 262
#     4  10  20  32  44  61  89 124 156 189 232 275
#     4  11  22  37  56  77  98 122 149 179 215 257
#
# _framework density 16.140650000000001
#
# number of rings (size 3 to 8) (size 9 to 14) (size 15 to 20)
#    0.000    2.375    1.250    3.375    0.000    6.750 
#    0.000    0.000    0.000    3.375    0.000    0.000 
#    0.000    0.000    0.000    0.000    0.000    0.625 
#
# Total GULP energy -793331.657663 kJ/mol
# GULP energy per Si atom -12395.807151 kJ/mol
# Density = 1.610391 g / cm^3
# Si number density = 16.140650 Si / 1000 Ang^3
#
#
#
# Elastic Constant Matrix: (Units=GPa)
#
#
# Indices 1 2 3 4 5 6 
#
# 1 68.0711 31.4200 25.4570 0.0000 0.0000 0.0000
# 2 31.4200 62.8561 36.1933 0.0000 0.0000 0.0000
# 3 25.4570 36.1933 102.5170 0.0000 0.0000 0.0000
# 4 0.0000 0.0000 0.0000 0.5177 0.0000 0.0000
# 5 0.0000 0.0000 0.0000 0.0000 28.6214 0.0000
# 6 0.0000 0.0000 0.0000 0.0000 0.0000 6.4777
#
#
#
# Elastic Compliance Matrix: (Units=1/GPa)
#
#
# Indices 1 2 3 4 5 6 
#
# 1 0.019342 -0.008664 -0.001744 0.000000 0.000000 0.000000
# 2 -0.008664 0.023850 -0.006269 0.000000 0.000000 0.000000
# 3 -0.001744 -0.006269 0.012401 0.000000 0.000000 0.000000
# 4 0.000000 0.000000 0.000000 1.931465 0.000000 0.000000
# 5 0.000000 0.000000 0.000000 0.000000 0.034939 0.000000
# 6 0.000000 0.000000 0.000000 0.000000 0.000000 0.154376
#
#
# Mechanical properties :
#
#
# Convention : Reuss Voigt Hill
#
# Bulk Modulus (GPa) = 44.96680 46.62053 45.79366
# Shear Modulus (GPa) = 2.25516 16.48162 9.36839
#
# Velocity S-wave (km/s) = 1.18331 3.19897 2.41181
# Velocity P-wave (km/s) = 5.45773 6.52619 6.01573
#
# Compressibility (1/GPa) = 0.02223863
#
# Stress axis : x y z
#
# Youngs Moduli (GPa) = 51.70103 41.92887 80.64054
#
# Poissons Ratio (x) = 0.36328 0.14065
# Poissons Ratio (y) = 0.44795 0.50551
# Poissons Ratio (z) = 0.09017 0.26284
#
# Static dielectric constant tensor:
#      x y z
#    x 3.039530 0.000000 0.000000 
#    y 0.000000 3.081410 0.000000 
#    z 0.000000 0.000000 3.085330 
# 
# 
# High freq. dielectric constant tensor:
#      x y z
#    x 1.618820 0.000000 0.000000 
#    y 0.000000 1.583520 0.000000 
#    z 0.000000 0.000000 1.614810 
# 
# From -- ./inp_files/37663.got.cif
#   From: 2010.03.12/outbox.cif.g09.slc.cpg/sg51_19_cif.got.tgz:37663.got - 2010.04.16 13:43:02.
