data_PCOD8210546
_publ_section_title
;
Structure prediction by ZEFSAII (Michael W. Deem and Ramdas Pophale) SiO2 
 PCOD8210546
Probable space group: P M M A
;
_chemical_formula_sum "Si O2"
_cell_formula_units_Z 64
_cell_length_a 17.996085
_cell_length_b 9.540981
_cell_length_c 21.622089
_cell_angle_alpha 90.000000
_cell_angle_beta 90.000000
_cell_angle_gamma 90.000000
_cell_volume 3712.519277
_symmetry_space_group_name_H-M "P M M A"
_symmetry_group_IT_number 51
_symmetry_cell_setting 'orthorhombic'
loop_
_space_group_symop_operation_xyz
x,y,z
1/2-x,-y,z
1/2+x,-y,-z
-x,y,-z
-x,-y,-z
1/2+x,y,-z
1/2-x,y,z
x,-y,z
loop_
_atom_site_type_symbol
_atom_site_label
_atom_site_fract_x
_atom_site_fract_y
_atom_site_fract_z
Si Si1 0.338193 0.844896 0.610348
Si Si2 0.162857 0.838774 0.748613
Si Si3 0.100423 0.337675 0.241231
Si Si4 0.332877 0.839596 0.135564
Si Si5 0.332655 0.666480 0.367038
Si Si6 0.018758 0.837618 0.069808
Si Si7 0.051092 0.336045 0.823876
Si Si8 0.838745 0.344131 0.498697
O O1 0.250000 0.848853 0.604390
O O2 0.359237 0.791332 0.679004
O O3 0.373020 0.746700 0.557252
O O4 0.370688 0.000000 0.600180
O O5 0.250000 0.823060 0.759511
O O6 0.124237 0.735186 0.796685
O O7 0.138395 0.000000 0.759746
O O8 0.122134 0.500000 0.234212
O O9 0.154283 0.254077 0.195749
O O10 0.113379 0.284834 0.311541
O O11 0.014873 0.310739 0.225017
O O12 0.250000 0.809177 0.109107
O O13 0.393901 0.806353 0.082636
O O14 0.340410 0.000000 0.156982
O O15 0.250000 0.725642 0.353544
O O16 0.328867 0.500000 0.371729
O O17 0.362200 0.720158 0.434138
O O18 0.968016 0.738557 0.111775
O O19 0.999568 0.000000 0.083517
O O20 0.000000 0.797102 0.000000
O O21 0.065437 0.500000 0.836034
O O22 0.750000 0.347494 0.495672
O O23 0.871119 0.500000 0.490041
#
# Coordination Sequence:
#
# PCOD8210546 Si02
#       8
#     8   8   8   8   8   8   8   8
#     4   8  14  25  41  61  84 110 143 186 233 277
#     4   9  18  33  52  71  91 119 155 192 233 285
#     4   9  17  29  45  65  91 125 159 187 224 279
#     4   9  17  29  46  70  97 121 153 200 239 263
#     4   8  13  22  38  60  86 117 153 190 224 264
#     4   9  18  34  54  72  95 132 169 193 224 277
#     4  10  20  32  49  74  99 121 149 190 237 280
#     4   8  13  21  35  57  83 111 145 185 228 270
#
# _framework density 17.238968
#
# number of rings (size 3 to 8) (size 9 to 14) (size 15 to 20)
#    0.000    3.250    0.000    2.250    0.000    2.250 
#    0.000    2.500    0.000    5.250    0.000    5.250 
#    0.000    0.000    0.000    0.000    0.000    0.000 
#
# Total GULP energy -793218.592244 kJ/mol
# GULP energy per Si atom -12394.040504 kJ/mol
# Density = 1.719973 g / cm^3
# Si number density = 17.238968 Si / 1000 Ang^3
#
#
#
# Elastic Constant Matrix: (Units=GPa)
#
#
# Indices 1 2 3 4 5 6 
#
# 1 54.3851 36.6528 53.8780 0.0000 0.0000 0.0000
# 2 36.6528 76.7046 68.2186 0.0000 0.0000 0.0000
# 3 53.8780 68.2186 143.0953 0.0000 0.0000 0.0000
# 4 0.0000 0.0000 0.0000 30.0304 0.0000 0.0000
# 5 0.0000 0.0000 0.0000 0.0000 21.1101 0.0000
# 6 0.0000 0.0000 0.0000 0.0000 0.0000 17.0715
#
#
#
# Elastic Compliance Matrix: (Units=1/GPa)
#
#
# Indices 1 2 3 4 5 6 
#
# 1 0.031871 -0.007911 -0.008228 0.000000 0.000000 0.000000
# 2 -0.007911 0.024597 -0.008748 0.000000 0.000000 0.000000
# 3 -0.008228 -0.008748 0.014257 0.000000 0.000000 0.000000
# 4 0.000000 0.000000 0.000000 0.033300 0.000000 0.000000
# 5 0.000000 0.000000 0.000000 0.000000 0.047371 0.000000
# 6 0.000000 0.000000 0.000000 0.000000 0.000000 0.058577
#
#
# Mechanical properties :
#
#
# Convention : Reuss Voigt Hill
#
# Bulk Modulus (GPa) = 47.73192 65.74266 56.73729
# Shear Modulus (GPa) = 18.74552 21.33809 20.04181
#
# Velocity S-wave (km/s) = 3.30114 3.52203 3.41337
# Velocity P-wave (km/s) = 6.50219 7.39990 6.96552
#
# Compressibility (1/GPa) = 0.02095034
#
# Stress axis : x y z
#
# Youngs Moduli (GPa) = 31.37670 40.65497 70.14184
#
# Poissons Ratio (x) = 0.32163 0.57716
# Poissons Ratio (y) = 0.24823 0.61358
# Poissons Ratio (z) = 0.25818 0.35564
#
# Static dielectric constant tensor:
#      x y z
#    x 2.948190 0.000000 0.000000 
#    y 0.000000 3.224940 0.000000 
#    z 0.000000 0.000000 3.322420 
# 
# 
# High freq. dielectric constant tensor:
#      x y z
#    x 1.634670 0.000000 0.000000 
#    y 0.000000 1.653400 0.000000 
#    z 0.000000 0.000000 1.664720 
# 
# From -- ./inp_files/33744.got.cif
#   From: 2010.03.12/outbox.cif.g09.slc.cpg/sg51_17_cif.got.tgz:33744.got - 2010.04.16 13:43:02.
