data_PCOD8210352
_publ_section_title
;
Structure prediction by ZEFSAII (Michael W. Deem and Ramdas Pophale) SiO2 
 PCOD8210352
Probable space group: P M M A
;
_chemical_formula_sum "Si O2"
_cell_formula_units_Z 64
_cell_length_a 9.494463
_cell_length_b 14.238717
_cell_length_c 31.171279
_cell_angle_alpha 90.000000
_cell_angle_beta 90.000000
_cell_angle_gamma 90.000000
_cell_volume 4214.013155
_symmetry_space_group_name_H-M "P M M A"
_symmetry_group_IT_number 51
_symmetry_cell_setting 'orthorhombic'
loop_
_space_group_symop_operation_xyz
x,y,z
1/2-x,-y,z
1/2+x,-y,-z
-x,y,-z
-x,-y,-z
1/2+x,y,-z
1/2-x,y,z
x,-y,z
loop_
_atom_site_type_symbol
_atom_site_label
_atom_site_fract_x
_atom_site_fract_y
_atom_site_fract_z
Si Si1 0.094626 0.110714 0.705328
Si Si2 0.090095 0.111996 0.121552
Si Si3 0.088888 0.888207 0.959395
Si Si4 0.091189 0.111614 0.800042
Si Si5 0.086304 0.109157 0.457893
Si Si6 0.097459 0.392847 0.535071
Si Si7 0.089917 0.805383 0.368043
Si Si8 0.093069 0.398251 0.384370
O O1 0.250000 0.151732 0.695624
O O2 0.044302 0.146167 0.752442
O O3 0.991768 0.139442 0.667892
O O4 0.101985 0.000000 0.706658
O O5 0.250000 0.150913 0.117703
O O6 0.993832 0.148765 0.082457
O O7 0.019212 0.151658 0.165205
O O8 0.093533 0.000000 0.121454
O O9 0.250000 0.849309 0.960211
O O10 0.094038 0.000000 0.959767
O O11 0.000000 0.850781 0.000000
O O12 0.250000 0.147193 0.810218
O O13 0.090175 0.000000 0.802400
O O14 0.250000 0.126954 0.467696
O O15 0.035693 0.170375 0.416395
O O16 0.000000 0.141152 0.500000
O O17 0.056461 0.000000 0.447346
O O18 0.250000 0.342760 0.537387
O O19 0.118948 0.500000 0.520245
O O20 0.000000 0.340062 0.500000
O O21 0.025920 0.389120 0.580658
O O22 0.250000 0.839861 0.365268
O O23 0.075082 0.694570 0.355506
O O24 0.250000 0.395101 0.405327
O O25 0.074721 0.500000 0.360133
#
# Coordination Sequence:
#
# PCOD8210352 Si02
#       8
#     8   8   8   8   8   8   8   8
#     4   9  18  31  46  64  84 104 126 154 191 235
#     4   9  15  21  30  45  63  84 113 147 184 227
#     4   9  15  21  28  38  55  81 113 150 190 229
#     4   8  14  25  38  51  69  92 116 143 179 224
#     4   9  18  32  47  62  80 101 125 153 184 220
#     4   9  16  26  41  59  77  98 123 149 177 208
#     4  10  20  32  47  66  84 103 128 158 193 229
#     4   9  18  32  46  60  81 106 130 157 189 225
#
# _framework density 15.187423000000001
#
# number of rings (size 3 to 8) (size 9 to 14) (size 15 to 20)
#    0.000    3.000    0.000    2.250    0.000    7.250 
#    0.000    3.750    0.000    0.000    0.000    0.000 
#    0.000    0.000    0.000    0.000    0.000    0.000 
#
# Total GULP energy -792890.477394 kJ/mol
# GULP energy per Si atom -12388.913709 kJ/mol
# Density = 1.515286 g / cm^3
# Si number density = 15.187423 Si / 1000 Ang^3
#
#
#
# Elastic Constant Matrix: (Units=GPa)
#
#
# Indices 1 2 3 4 5 6 
#
# 1 104.5758 6.9644 57.8938 0.0000 0.0000 0.0000
# 2 6.9644 26.4326 11.7012 0.0000 0.0000 0.0000
# 3 57.8938 11.7012 109.8954 0.0000 0.0000 0.0000
# 4 0.0000 0.0000 0.0000 1.0900 0.0000 0.0000
# 5 0.0000 0.0000 0.0000 0.0000 26.0895 0.0000
# 6 0.0000 0.0000 0.0000 0.0000 0.0000 7.3172
#
#
#
# Elastic Compliance Matrix: (Units=1/GPa)
#
#
# Indices 1 2 3 4 5 6 
#
# 1 0.013504 -0.000429 -0.007068 0.000000 0.000000 0.000000
# 2 -0.000429 0.039717 -0.004003 0.000000 0.000000 0.000000
# 3 -0.007068 -0.004003 0.013249 0.000000 0.000000 0.000000
# 4 0.000000 0.000000 0.000000 0.917404 0.000000 0.000000
# 5 0.000000 0.000000 0.000000 0.000000 0.038330 0.000000
# 6 0.000000 0.000000 0.000000 0.000000 0.000000 0.136664
#
#
# Mechanical properties :
#
#
# Convention : Reuss Voigt Hill
#
# Bulk Modulus (GPa) = 23.00430 43.78029 33.39229
# Shear Modulus (GPa) = 4.17934 17.85564 11.01749
#
# Velocity S-wave (km/s) = 1.66067 3.43255 2.69631
# Velocity P-wave (km/s) = 4.34246 6.67826 5.63276
#
# Compressibility (1/GPa) = 0.04347013
#
# Stress axis : x y z
#
# Youngs Moduli (GPa) = 74.05152 25.17801 75.47480
#
# Poissons Ratio (x) = 0.01080 0.53349
# Poissons Ratio (y) = 0.03177 0.30212
# Poissons Ratio (z) = 0.52343 0.10079
#
# Static dielectric constant tensor:
#      x y z
#    x 3.191690 0.000000 0.000000 
#    y 0.000000 2.596530 0.000000 
#    z 0.000000 0.000000 2.917520 
# 
# 
# High freq. dielectric constant tensor:
#      x y z
#    x 1.597990 0.000000 0.000000 
#    y 0.000000 1.517950 0.000000 
#    z 0.000000 0.000000 1.564650 
# 
# From -- ./inp_files/37669.got.cif
#   From: 2010.03.12/outbox.cif.g09.slc.cpg/sg51_19_cif.got.tgz:37669.got - 2010.04.16 13:43:02.
