data_PCOD8210449
_publ_section_title
;
Structure prediction by ZEFSAII (Michael W. Deem and Ramdas Pophale) SiO2 
 PCOD8210449
Probable space group: P M M A
;
_chemical_formula_sum "Si O2"
_cell_formula_units_Z 44
_cell_length_a 9.721252
_cell_length_b 12.868318
_cell_length_c 22.042612
_cell_angle_alpha 90.000000
_cell_angle_beta 90.000000
_cell_angle_gamma 90.000000
_cell_volume 2757.446164
_symmetry_space_group_name_H-M "P M M A"
_symmetry_group_IT_number 51
_symmetry_cell_setting 'orthorhombic'
loop_
_space_group_symop_operation_xyz
x,y,z
1/2-x,-y,z
1/2+x,-y,-z
-x,y,-z
-x,-y,-z
1/2+x,y,-z
1/2-x,y,z
x,-y,z
loop_
_atom_site_type_symbol
_atom_site_label
_atom_site_fract_x
_atom_site_fract_y
_atom_site_fract_z
Si Si1 0.090026 0.500000 0.440471
Si Si2 0.907799 0.885330 0.704393
Si Si3 0.591068 0.667849 0.657175
Si Si4 0.596100 0.612358 0.233722
Si Si5 0.597897 0.120870 0.051038
Si Si6 0.909772 0.174137 0.183350
O O1 0.250000 0.500000 0.458368
O O2 0.052369 0.393600 0.404218
O O3 0.000000 0.500000 0.500000
O O4 0.750000 0.873583 0.725926
O O5 0.941878 0.792924 0.655760
O O6 0.003390 0.878978 0.763501
O O7 0.931251 0.000000 0.674538
O O8 0.750000 0.648192 0.671677
O O9 0.507346 0.616208 0.710792
O O10 0.750000 0.626448 0.260332
O O11 0.579892 0.500000 0.201484
O O12 0.567069 0.701679 0.184769
O O13 0.750000 0.172433 0.047318
O O14 0.535032 0.137104 0.118150
O O15 0.610804 0.000000 0.037149
O O16 0.500000 0.172826 0.000000
O O17 0.750000 0.142317 0.192035
#
# Coordination Sequence:
#
# PCOD8210449 Si02
#       6
#     4   8   8   8   8   8
#     4  10  20  32  48  68  90 118 149 182 215 248
#     4   9  17  28  44  67  92 116 142 174 214 261
#     4   9  17  30  46  65  90 118 145 175 214 255
#     4   9  16  26  43  66  89 112 139 173 214 258
#     4   9  17  28  41  56  76 105 140 177 215 255
#     4   9  17  28  42  62  87 114 142 175 217 262
#
# _framework density 15.956794
#
# number of rings (size 3 to 8) (size 9 to 14) (size 15 to 20)
#    0.000    2.909    0.909    0.545    0.000    2.545 
#    0.000    1.818    0.000    1.091    0.000    0.000 
#    0.000    0.000    0.000    0.000    0.000    0.000 
#
# Total GULP energy -545156.317315 kJ/mol
# GULP energy per Si atom -12389.916303 kJ/mol
# Density = 1.592048 g / cm^3
# Si number density = 15.956794 Si / 1000 Ang^3
#
#
#
# Elastic Constant Matrix: (Units=GPa)
#
#
# Indices 1 2 3 4 5 6 
#
# 1 49.8694 26.7935 40.4821 0.0000 0.0000 0.0000
# 2 26.7935 108.3946 36.9916 0.0000 0.0000 0.0000
# 3 40.4821 36.9916 86.3337 0.0000 0.0000 0.0000
# 4 0.0000 0.0000 0.0000 20.2129 0.0000 0.0000
# 5 0.0000 0.0000 0.0000 0.0000 27.0681 0.0000
# 6 0.0000 0.0000 0.0000 0.0000 0.0000 15.9040
#
#
#
# Elastic Compliance Matrix: (Units=1/GPa)
#
#
# Indices 1 2 3 4 5 6 
#
# 1 0.033419 -0.003412 -0.014209 0.000000 0.000000 0.000000
# 2 -0.003412 0.011154 -0.003179 0.000000 0.000000 0.000000
# 3 -0.014209 -0.003179 0.019608 0.000000 0.000000 0.000000
# 4 0.000000 0.000000 0.000000 0.049473 0.000000 0.000000
# 5 0.000000 0.000000 0.000000 0.000000 0.036944 0.000000
# 6 0.000000 0.000000 0.000000 0.000000 0.000000 0.062877
#
#
# Mechanical properties :
#
#
# Convention : Reuss Voigt Hill
#
# Bulk Modulus (GPa) = 44.28401 50.34801 47.31601
# Shear Modulus (GPa) = 19.04022 21.99236 20.51629
#
# Velocity S-wave (km/s) = 3.45807 3.71650 3.58961
# Velocity P-wave (km/s) = 6.61491 7.07373 6.84817
#
# Compressibility (1/GPa) = 0.02258151
#
# Stress axis : x y z
#
# Youngs Moduli (GPa) = 29.92273 89.65467 51.00052
#
# Poissons Ratio (x) = 0.30589 0.72464
# Poissons Ratio (y) = 0.10209 0.16215
# Poissons Ratio (z) = 0.42516 0.28504
#
# Static dielectric constant tensor:
#      x y z
#    x 3.161990 0.000000 0.000000 
#    y 0.000000 3.349380 0.000000 
#    z 0.000000 0.000000 2.727800 
# 
# 
# High freq. dielectric constant tensor:
#      x y z
#    x 1.618950 0.000000 0.000000 
#    y 0.000000 1.618690 0.000000 
#    z 0.000000 0.000000 1.570730 
# 
# From -- ./inp_files/27378.got.cif
#   From: 2010.03.12/outbox.cif.g09.slc.cpg/sg51_14_cif.got.tgz:27378.got - 2010.04.16 13:43:02.
