data_PCOD8210656
_publ_section_title
;
Structure prediction by ZEFSAII (Michael W. Deem and Ramdas Pophale) SiO2 
 PCOD8210656
Probable space group: P M M A
;
_chemical_formula_sum "Si O2"
_cell_formula_units_Z 48
_cell_length_a 16.828152
_cell_length_b 15.541602
_cell_length_c 8.939527
_cell_angle_alpha 90.000000
_cell_angle_beta 90.000000
_cell_angle_gamma 90.000000
_cell_volume 2338.012074
_symmetry_space_group_name_H-M "P M M A"
_symmetry_group_IT_number 51
_symmetry_cell_setting 'orthorhombic'
loop_
_space_group_symop_operation_xyz
x,y,z
1/2-x,-y,z
1/2+x,-y,-z
-x,y,-z
-x,-y,-z
1/2+x,y,-z
1/2-x,y,z
x,-y,z
loop_
_atom_site_type_symbol
_atom_site_label
_atom_site_fract_x
_atom_site_fract_y
_atom_site_fract_z
Si Si1 0.155344 0.674698 0.625636
Si Si2 0.088886 0.500000 0.570879
Si Si3 0.402307 0.836052 0.134249
Si Si4 0.840970 0.321159 0.709502
Si Si5 0.580741 0.000000 0.405487
Si Si6 0.340672 0.000000 0.297510
Si Si7 0.919278 0.167643 0.201807
Si Si8 0.660818 0.500000 0.737803
O O1 0.250000 0.663717 0.644825
O O2 0.107674 0.586468 0.668167
O O3 0.127472 0.701106 0.456921
O O4 0.127697 0.751545 0.733130
O O5 0.156877 0.500000 0.443462
O O6 0.000000 0.500000 0.500000
O O7 0.345911 0.757834 0.178932
O O8 0.385017 0.918252 0.233158
O O9 0.490166 0.804731 0.176026
O O10 0.385593 0.857754 0.961512
O O11 0.750000 0.347264 0.687520
O O12 0.881675 0.408580 0.781711
O O13 0.500000 0.000000 0.500000
O O14 0.653394 0.000000 0.522760
O O15 0.588692 0.915502 0.305353
O O16 0.250000 0.000000 0.246979
O O17 0.750000 0.500000 0.800807
#
# Coordination Sequence:
#
# PCOD8210656 Si02
#       8
#     8   4   8   8   4   4   8   4
#     4  10  22  39  61  93 127 161 208 259 307 363
#     4  10  20  32  61  93 122 161 203 252 309 361
#     4  11  23  41  59  89 126 158 209 248 300 378
#     4   9  18  34  59  85 117 158 200 250 300 357
#     4  12  23  43  68  89 120 155 203 256 305 355
#     4  12  25  41  67  95 119 156 204 254 307 371
#     4  11  25  40  63  89 122 169 200 251 314 364
#     4   8  16  32  53  83 119 152 198 250 291 343
#
# _framework density 20.530260999999999
#
# number of rings (size 3 to 8) (size 9 to 14) (size 15 to 20)
#    0.000    1.667    1.667    3.750    4.667    4.667 
#    0.000    1.667    0.000    4.000    0.000    0.000 
#    0.000    0.000    0.000    0.000    0.000    0.000 
#
# Total GULP energy -594762.284484 kJ/mol
# GULP energy per Si atom -12390.880927 kJ/mol
# Density = 2.048353 g / cm^3
# Si number density = 20.530261 Si / 1000 Ang^3
#
#
#
# Elastic Constant Matrix: (Units=GPa)
#
#
# Indices 1 2 3 4 5 6 
#
# 1 76.7965 34.2138 27.3110 0.0000 0.0000 0.0000
# 2 34.2138 183.0012 66.5338 0.0000 0.0000 0.0000
# 3 27.3110 66.5338 112.1942 0.0000 0.0000 0.0000
# 4 0.0000 0.0000 0.0000 5.6784 0.0000 0.0000
# 5 0.0000 0.0000 0.0000 0.0000 23.6773 0.0000
# 6 0.0000 0.0000 0.0000 0.0000 0.0000 -32.6256
#
#
#
# Elastic Compliance Matrix: (Units=1/GPa)
#
#
# Indices 1 2 3 4 5 6 
#
# 1 0.014730 -0.001849 -0.002489 0.000000 0.000000 0.000000
# 2 -0.001849 0.007199 -0.003819 0.000000 0.000000 0.000000
# 3 -0.002489 -0.003819 0.011784 0.000000 0.000000 0.000000
# 4 0.000000 0.000000 0.000000 0.176107 0.000000 0.000000
# 5 0.000000 0.000000 0.000000 0.000000 0.042235 0.000000
# 6 0.000000 0.000000 0.000000 0.000000 0.000000 -0.030651
#
#
# Mechanical properties :
#
#
# Convention : Reuss Voigt Hill
#
# Bulk Modulus (GPa) = 57.47609 69.78992 63.63300
# Shear Modulus (GPa) = 20.53248 15.60824 18.07036
#
# Velocity S-wave (km/s) = 3.16588 2.76026 2.97000
# Velocity P-wave (km/s) = 6.43586 6.65028 6.54395
#
# Compressibility (1/GPa) = 0.01739854
#
# Stress axis : x y z
#
# Youngs Moduli (GPa) = 67.88669 138.91714 84.86274
#
# Poissons Ratio (x) = 0.25685 0.21125
# Poissons Ratio (y) = 0.12552 0.32408
# Poissons Ratio (z) = 0.16899 0.53050
#
# Static dielectric constant tensor:
#      x y z
#    x 3.610510 0.000000 0.000000 
#    y 0.000000 3.952800 0.000000 
#    z 0.000000 0.000000 3.626670 
# 
# 
# High freq. dielectric constant tensor:
#      x y z
#    x 1.791460 0.000000 0.000000 
#    y 0.000000 1.828090 0.000000 
#    z 0.000000 0.000000 1.776850 
# 
# From -- ./inp_files/9736.got.cif
#   From: 2010.03.12/outbox.cif.g09.slc.cpg/sg51_5_cif.got.tgz:9736.got - 2010.04.16 13:43:02.
