data_PCOD8210217
_publ_section_title
;
Structure prediction by ZEFSAII (Michael W. Deem and Ramdas Pophale) SiO2 
 PCOD8210217
Probable space group: P M M A
;
_chemical_formula_sum "Si O2"
_cell_formula_units_Z 48
_cell_length_a 15.261086
_cell_length_b 9.003852
_cell_length_c 19.162192
_cell_angle_alpha 90.000000
_cell_angle_beta 90.000000
_cell_angle_gamma 90.000000
_cell_volume 2633.049203
_symmetry_space_group_name_H-M "P M M A"
_symmetry_group_IT_number 51
_symmetry_cell_setting 'orthorhombic'
loop_
_space_group_symop_operation_xyz
x,y,z
1/2-x,-y,z
1/2+x,-y,-z
-x,y,-z
-x,-y,-z
1/2+x,y,-z
1/2-x,y,z
x,-y,z
loop_
_atom_site_type_symbol
_atom_site_label
_atom_site_fract_x
_atom_site_fract_y
_atom_site_fract_z
Si Si1 0.002538 0.177190 0.174529
Si Si2 0.350754 0.325876 0.577891
Si Si3 0.650325 0.827509 0.565683
Si Si4 0.503861 0.824785 0.332195
Si Si5 0.847338 0.176691 0.924717
Si Si6 0.652865 0.823308 0.080510
O O1 0.006531 0.235243 0.253556
O O2 0.085464 0.242101 0.132053
O O3 0.915168 0.239939 0.137156
O O4 0.003729 0.000000 0.173170
O O5 0.250000 0.286095 0.595132
O O6 0.367370 0.500000 0.577623
O O7 0.376985 0.264330 0.502220
O O8 0.410913 0.251624 0.635957
O O9 0.750000 0.791440 0.589242
O O10 0.585009 0.780343 0.627473
O O11 0.639772 0.000000 0.546810
O O12 0.519516 0.000000 0.334305
O O13 0.750000 0.233339 0.905419
O O14 0.849983 0.000000 0.923130
O O15 0.873149 0.231108 0.002626
O O16 0.750000 0.765229 0.100086
O O17 0.651565 0.000000 0.081547
#
# Coordination Sequence:
#
# PCOD8210217 Si02
#       6
#     8   8   8   8   8   8
#     4   9  16  24  35  55  85 118 148 179 219 268
#     4  10  21  36  53  71  90 117 155 195 233 275
#     4   9  18  33  51  70  94 123 154 190 231 275
#     4  10  20  31  46  71  99 126 154 186 231 282
#     4   8  13  21  34  52  77 113 153 188 221 258
#     4   8  13  21  33  50  75 111 152 187 219 257
#
# _framework density 18.229814999999999
#
# number of rings (size 3 to 8) (size 9 to 14) (size 15 to 20)
#    0.000    3.000    0.000    2.500    0.000    7.000 
#    0.000    5.000    0.000    0.000    0.000    0.000 
#    0.000    2.667    0.000    3.667    0.000    4.167 
#
# Total GULP energy -595042.043245 kJ/mol
# GULP energy per Si atom -12396.709234 kJ/mol
# Density = 1.818832 g / cm^3
# Si number density = 18.229815 Si / 1000 Ang^3
#
#
#
# Elastic Constant Matrix: (Units=GPa)
#
#
# Indices 1 2 3 4 5 6 
#
# 1 140.4464 24.1079 104.6873 0.0000 0.0000 0.0000
# 2 24.1079 21.3070 25.7267 0.0000 0.0000 0.0000
# 3 104.6873 25.7267 167.5342 0.0000 0.0000 0.0000
# 4 0.0000 0.0000 0.0000 -1.4646 0.0000 0.0000
# 5 0.0000 0.0000 0.0000 0.0000 24.3705 0.0000
# 6 0.0000 0.0000 0.0000 0.0000 0.0000 13.8400
#
#
#
# Elastic Compliance Matrix: (Units=1/GPa)
#
#
# Indices 1 2 3 4 5 6 
#
# 1 0.014023 -0.006489 -0.007766 0.000000 0.000000 0.000000
# 2 -0.006489 0.060619 -0.005254 0.000000 0.000000 0.000000
# 3 -0.007766 -0.005254 0.011628 0.000000 0.000000 0.000000
# 4 0.000000 0.000000 0.000000 -0.682763 0.000000 0.000000
# 5 0.000000 0.000000 0.000000 0.000000 0.041033 0.000000
# 6 0.000000 0.000000 0.000000 0.000000 0.000000 0.072254
#
#
# Mechanical properties :
#
#
# Convention : Reuss Voigt Hill
#
# Bulk Modulus (GPa) = 21.16305 70.92571 46.04438
# Shear Modulus (GPa) = -11.67033 19.00022 3.66494
#
# Velocity S-wave (km/s) = -2.53292 3.23191 1.41943
# Velocity P-wave (km/s) = 1.75499 7.27447 5.29140
#
# Compressibility (1/GPa) = 0.04725218
#
# Stress axis : x y z
#
# Youngs Moduli (GPa) = 71.31336 16.49650 85.99685
#
# Poissons Ratio (x) = 0.10705 0.66784
# Poissons Ratio (y) = 0.46277 0.45180
# Poissons Ratio (z) = 0.55381 0.08667
#
# Static dielectric constant tensor:
#      x y z
#    x 3.708800 0.000000 0.000000 
#    y 0.000000 2.777730 0.000000 
#    z 0.000000 0.000000 3.520430 
# 
# 
# High freq. dielectric constant tensor:
#      x y z
#    x 1.723030 0.000000 0.000000 
#    y 0.000000 1.642520 0.000000 
#    z 0.000000 0.000000 1.706290 
# 
# From -- ./inp_files/24824.got.cif
#   From: 2010.03.12/outbox.cif.g09.slc.cpg/sg51_13_cif.got.tgz:24824.got - 2010.04.16 13:43:02.
