data_PCOD8210359
_publ_section_title
;
Structure prediction by ZEFSAII (Michael W. Deem and Ramdas Pophale) SiO2 
 PCOD8210359
Probable space group: P M M A
;
_chemical_formula_sum "Si O2"
_cell_formula_units_Z 64
_cell_length_a 9.205325
_cell_length_b 18.856762
_cell_length_c 23.578202
_cell_angle_alpha 90.000000
_cell_angle_beta 90.000000
_cell_angle_gamma 90.000000
_cell_volume 4092.766141
_symmetry_space_group_name_H-M "P M M A"
_symmetry_group_IT_number 51
_symmetry_cell_setting 'orthorhombic'
loop_
_space_group_symop_operation_xyz
x,y,z
1/2-x,-y,z
1/2+x,-y,-z
-x,y,-z
-x,-y,-z
1/2+x,y,-z
1/2-x,y,z
x,-y,z
loop_
_atom_site_type_symbol
_atom_site_label
_atom_site_fract_x
_atom_site_fract_y
_atom_site_fract_z
Si Si1 0.579665 0.081712 0.556101
Si Si2 0.415363 0.278853 0.722124
Si Si3 0.921604 0.080373 0.780418
Si Si4 0.418207 0.418889 0.112836
Si Si5 0.082981 0.800904 0.837235
Si Si6 0.083779 0.578900 0.771821
Si Si7 0.421308 0.839755 0.332138
Si Si8 0.422523 0.705904 0.943506
O O1 0.500000 0.109935 0.500000
O O2 0.750000 0.091883 0.547215
O O3 0.521562 0.126923 0.609293
O O4 0.540307 0.000000 0.567949
O O5 0.250000 0.263695 0.705062
O O6 0.449972 0.251697 0.785363
O O7 0.450278 0.363230 0.722782
O O8 0.513665 0.238978 0.675818
O O9 0.750000 0.084823 0.786165
O O10 0.973123 0.109839 0.719287
O O11 0.990990 0.127041 0.830574
O O12 0.977235 0.000000 0.786236
O O13 0.250000 0.395656 0.111326
O O14 0.437396 0.500000 0.093036
O O15 0.475759 0.409072 0.176390
O O16 0.511808 0.371166 0.070368
O O17 0.250000 0.823260 0.839294
O O18 0.036013 0.761357 0.894410
O O19 0.250000 0.590208 0.793537
O O20 0.063728 0.500000 0.745964
O O21 0.250000 0.833097 0.333080
O O22 0.250000 0.699006 0.951758
O O23 0.500000 0.734822 0.000000
#
# Coordination Sequence:
#
# PCOD8210359 Si02
#       8
#     8   8   8   8   8   8   8   8
#     4   9  17  29  44  62  89 125 162 194 222 257
#     4   9  16  28  44  65  90 116 147 183 221 264
#     4   9  17  29  47  70  92 115 144 178 218 264
#     4  10  20  32  47  68  91 116 148 183 218 261
#     4   9  18  32  47  65  89 113 140 176 221 268
#     4   9  16  28  46  65  89 122 152 180 219 265
#     4   9  17  28  43  65  92 123 153 185 222 260
#     4  11  22  36  51  67  87 114 147 184 223 268
#
# _framework density 15.637345
#
# number of rings (size 3 to 8) (size 9 to 14) (size 15 to 20)
#    0.000    2.625    1.250    1.125    0.000    4.750 
#    0.000    0.000    0.000    2.625    0.000    0.000 
#    0.000    0.500    0.000    1.125    0.000    1.750 
#
# Total GULP energy -793547.310553 kJ/mol
# GULP energy per Si atom -12399.176727 kJ/mol
# Density = 1.560175 g / cm^3
# Si number density = 15.637345 Si / 1000 Ang^3
#
#
#
# Elastic Constant Matrix: (Units=GPa)
#
#
# Indices 1 2 3 4 5 6 
#
# 1 51.1764 38.7631 39.0822 0.0000 0.0000 0.0000
# 2 38.7631 105.6658 55.0063 0.0000 0.0000 0.0000
# 3 39.0822 55.0063 95.2821 0.0000 0.0000 0.0000
# 4 0.0000 0.0000 0.0000 25.9946 0.0000 0.0000
# 5 0.0000 0.0000 0.0000 0.0000 24.4823 0.0000
# 6 0.0000 0.0000 0.0000 0.0000 0.0000 26.7717
#
#
#
# Elastic Compliance Matrix: (Units=1/GPa)
#
#
# Indices 1 2 3 4 5 6 
#
# 1 0.031651 -0.006938 -0.008977 0.000000 0.000000 0.000000
# 2 -0.006938 0.015051 -0.005843 0.000000 0.000000 0.000000
# 3 -0.008977 -0.005843 0.017550 0.000000 0.000000 0.000000
# 4 0.000000 0.000000 0.000000 0.038469 0.000000 0.000000
# 5 0.000000 0.000000 0.000000 0.000000 0.040846 0.000000
# 6 0.000000 0.000000 0.000000 0.000000 0.000000 0.037353
#
#
# Mechanical properties :
#
#
# Convention : Reuss Voigt Hill
#
# Bulk Modulus (GPa) = 48.22518 57.53638 52.88078
# Shear Modulus (GPa) = 21.61247 23.40124 22.50686
#
# Velocity S-wave (km/s) = 3.72170 3.87266 3.79793
# Velocity P-wave (km/s) = 7.02672 7.54127 7.28853
#
# Compressibility (1/GPa) = 0.02073606
#
# Stress axis : x y z
#
# Youngs Moduli (GPa) = 31.59475 66.44263 56.97851
#
# Poissons Ratio (x) = 0.46096 0.51150
# Poissons Ratio (y) = 0.21920 0.33292
# Poissons Ratio (z) = 0.28363 0.38822
#
# Static dielectric constant tensor:
#      x y z
#    x 2.988630 0.000000 0.000000 
#    y 0.000000 3.122700 0.000000 
#    z 0.000000 0.000000 2.820830 
# 
# 
# High freq. dielectric constant tensor:
#      x y z
#    x 1.603040 0.000000 0.000000 
#    y 0.000000 1.596900 0.000000 
#    z 0.000000 0.000000 1.566150 
# 
# From -- ./inp_files/32661.got.cif
#   From: 2010.03.12/outbox.cif.g09.slc.cpg/sg51_17_cif.got.tgz:32661.got - 2010.04.16 13:43:02.
