data_PCOD8210891
_publ_section_title
;
Structure prediction by ZEFSAII (Michael W. Deem and Ramdas Pophale) SiO2 
 PCOD8210891
Probable space group: P M M A
;
_chemical_formula_sum "Si O2"
_cell_formula_units_Z 56
_cell_length_a 9.730033
_cell_length_b 15.292687
_cell_length_c 19.949710
_cell_angle_alpha 90.000000
_cell_angle_beta 90.000000
_cell_angle_gamma 90.000000
_cell_volume 2968.483914
_symmetry_space_group_name_H-M "P M M A"
_symmetry_group_IT_number 51
_symmetry_cell_setting 'orthorhombic'
loop_
_space_group_symop_operation_xyz
x,y,z
1/2-x,-y,z
1/2+x,-y,-z
-x,y,-z
-x,-y,-z
1/2+x,y,-z
1/2-x,y,z
x,-y,z
loop_
_atom_site_type_symbol
_atom_site_label
_atom_site_fract_x
_atom_site_fract_y
_atom_site_fract_z
Si Si1 0.904458 0.667307 0.708547
Si Si2 0.093615 0.598468 0.817143
Si Si3 0.093770 0.096621 0.872395
Si Si4 0.411837 0.278903 0.439827
Si Si5 0.594133 0.864286 0.749431
Si Si6 0.912468 0.905871 0.604731
Si Si7 0.910575 0.724421 0.062821
O O1 0.750000 0.630005 0.713885
O O2 0.945949 0.672772 0.630044
O O3 0.913378 0.760373 0.744291
O O4 0.006241 0.604361 0.748777
O O5 0.250000 0.620771 0.797820
O O6 0.079899 0.500000 0.845396
O O7 0.042516 0.665737 0.874007
O O8 0.250000 0.112013 0.848397
O O9 0.054111 0.173514 0.923948
O O10 0.998668 0.099628 0.808080
O O11 0.077324 0.000000 0.906046
O O12 0.500000 0.322713 0.500000
O O13 0.250000 0.284964 0.456070
O O14 0.466532 0.177954 0.435853
O O15 0.750000 0.894855 0.763221
O O16 0.534000 0.905037 0.681013
O O17 0.750000 0.894240 0.608880
O O18 0.954753 0.000000 0.571948
O O19 0.750000 0.710078 0.046690
O O20 0.000000 0.692902 0.000000
#
# Coordination Sequence:
#
# PCOD8210891 Si02
#       7
#     8   8   8   8   8   8   8
#     4   9  18  33  54  80 109 139 176 221 267 317
#     4  10  21  38  61  87 111 137 172 214 267 327
#     4  10  20  33  50  74 106 143 180 220 267 311
#     4   9  18  31  47  71 102 139 180 219 262 315
#     4   9  16  28  49  74  99 133 179 223 265 314
#     4   8  14  25  41  63  95 133 173 220 267 308
#     4  10  22  39  56  78 111 146 178 218 263 312
#
# _framework density 18.864849
#
# number of rings (size 3 to 8) (size 9 to 14) (size 15 to 20)
#    0.000    2.714    1.429    2.143    0.000    3.714 
#    0.000    2.143    0.000    1.286    0.000    0.000 
#    0.000    0.000    0.000    0.000    0.000    0.000 
#
# Total GULP energy -694034.438706 kJ/mol
# GULP energy per Si atom -12393.472120 kJ/mol
# Density = 1.882191 g / cm^3
# Si number density = 18.864849 Si / 1000 Ang^3
#
#
#
# Elastic Constant Matrix: (Units=GPa)
#
#
# Indices 1 2 3 4 5 6 
#
# 1 65.8244 26.7500 59.7975 0.0000 0.0000 0.0000
# 2 26.7500 72.3513 34.3934 0.0000 0.0000 0.0000
# 3 59.7975 34.3934 112.9258 0.0000 0.0000 0.0000
# 4 0.0000 0.0000 0.0000 7.3320 0.0000 0.0000
# 5 0.0000 0.0000 0.0000 0.0000 36.6857 0.0000
# 6 0.0000 0.0000 0.0000 0.0000 0.0000 17.7930
#
#
#
# Elastic Compliance Matrix: (Units=1/GPa)
#
#
# Indices 1 2 3 4 5 6 
#
# 1 0.030320 -0.004184 -0.014781 0.000000 0.000000 0.000000
# 2 -0.004184 0.016739 -0.002883 0.000000 0.000000 0.000000
# 3 -0.014781 -0.002883 0.017560 0.000000 0.000000 0.000000
# 4 0.000000 0.000000 0.000000 0.136389 0.000000 0.000000
# 5 0.000000 0.000000 0.000000 0.000000 0.027259 0.000000
# 6 0.000000 0.000000 0.000000 0.000000 0.000000 0.056202
#
#
# Mechanical properties :
#
#
# Convention : Reuss Voigt Hill
#
# Bulk Modulus (GPa) = 47.79175 54.77593 51.28384
# Shear Modulus (GPa) = 14.91928 21.03952 17.97940
#
# Velocity S-wave (km/s) = 2.81526 3.34320 3.09052
# Velocity P-wave (km/s) = 5.99636 6.63337 6.32289
#
# Compressibility (1/GPa) = 0.02092411
#
# Stress axis : x y z
#
# Youngs Moduli (GPa) = 32.98180 59.74237 56.94653
#
# Poissons Ratio (x) = 0.24993 0.84173
# Poissons Ratio (y) = 0.13798 0.16416
# Poissons Ratio (z) = 0.48751 0.17222
#
# Static dielectric constant tensor:
#      x y z
#    x 3.373370 0.000000 0.000000 
#    y 0.000000 3.444900 0.000000 
#    z 0.000000 0.000000 3.236500 
# 
# 
# High freq. dielectric constant tensor:
#      x y z
#    x 1.714540 0.000000 0.000000 
#    y 0.000000 1.726310 0.000000 
#    z 0.000000 0.000000 1.718850 
# 
# From -- ./inp_files/32024.got.cif
#   From: 2010.03.12/outbox.cif.g09.slc.cpg/sg51_17_cif.got.tgz:32024.got - 2010.04.16 13:43:02.
