data_PCOD8210556
_publ_section_title
;
Structure prediction by ZEFSAII (Michael W. Deem and Ramdas Pophale) SiO2 
 PCOD8210556
Probable space group: P M M A
;
_chemical_formula_sum "Si O2"
_cell_formula_units_Z 40
_cell_length_a 8.902056
_cell_length_b 9.550292
_cell_length_c 25.810704
_cell_angle_alpha 90.000000
_cell_angle_beta 90.000000
_cell_angle_gamma 90.000000
_cell_volume 2194.354667
_symmetry_space_group_name_H-M "P M M A"
_symmetry_group_IT_number 51
_symmetry_cell_setting 'orthorhombic'
loop_
_space_group_symop_operation_xyz
x,y,z
1/2-x,-y,z
1/2+x,-y,-z
-x,y,-z
-x,-y,-z
1/2+x,y,-z
1/2-x,y,z
x,-y,z
loop_
_atom_site_type_symbol
_atom_site_label
_atom_site_fract_x
_atom_site_fract_y
_atom_site_fract_z
Si Si1 0.927147 0.339522 0.552386
Si Si2 0.572483 0.337758 0.856046
Si Si3 0.073406 0.840138 0.945583
Si Si4 0.571559 0.842642 0.646218
Si Si5 0.428494 0.156982 0.239361
O O1 0.750000 0.319783 0.547987
O O2 0.973813 0.500000 0.560064
O O3 0.995000 0.257578 0.601806
O O4 0.000000 0.278564 0.500000
O O5 0.750000 0.317243 0.862255
O O6 0.527411 0.500000 0.854187
O O7 0.491503 0.265398 0.903753
O O8 0.511571 0.265746 0.803343
O O9 0.250000 0.818311 0.950383
O O10 0.033063 0.000000 0.930128
O O11 0.000000 0.800209 0.000000
O O12 0.750000 0.833974 0.645424
O O13 0.513765 0.796689 0.703450
O O14 0.517521 0.000000 0.634418
O O15 0.250000 0.156318 0.239448
O O16 0.486868 0.000000 0.226373
#
# Coordination Sequence:
#
# PCOD8210556 Si02
#       5
#     8   8   8   8   8
#     4   9  17  28  42  61  86 116 149 186 229 277
#     4  10  20  32  49  76 106 133 161 195 238 287
#     4  10  21  37  57  78  99 128 166 204 242 285
#     4   8  14  25  42  65  90 116 150 192 234 272
#     4   8  14  26  45  68  94 123 155 194 237 278
#
# _framework density 18.228594000000001
#
# number of rings (size 3 to 8) (size 9 to 14) (size 15 to 20)
#    0.000    3.000    0.000    2.400    0.000    4.000 
#    0.000    4.000    0.000    1.200    0.000    5.600 
#    0.000    0.000    0.000    0.000    0.000    0.000 
#
# Total GULP energy -495848.775474 kJ/mol
# GULP energy per Si atom -12396.219387 kJ/mol
# Density = 1.818711 g / cm^3
# Si number density = 18.228594 Si / 1000 Ang^3
#
#
#
# Elastic Constant Matrix: (Units=GPa)
#
#
# Indices 1 2 3 4 5 6 
#
# 1 25.7098 32.6340 37.8447 0.0000 0.0000 0.0000
# 2 32.6340 124.6815 113.3270 0.0000 0.0000 0.0000
# 3 37.8447 113.3270 193.7194 0.0000 0.0000 0.0000
# 4 0.0000 0.0000 0.0000 24.2414 0.0000 0.0000
# 5 0.0000 0.0000 0.0000 0.0000 23.7788 0.0000
# 6 0.0000 0.0000 0.0000 0.0000 0.0000 17.8225
#
#
#
# Elastic Compliance Matrix: (Units=1/GPa)
#
#
# Indices 1 2 3 4 5 6 
#
# 1 0.060864 -0.010940 -0.005490 0.000000 0.000000 0.000000
# 2 -0.010940 0.019094 -0.009033 0.000000 0.000000 0.000000
# 3 -0.005490 -0.009033 0.011519 0.000000 0.000000 0.000000
# 4 0.000000 0.000000 0.000000 0.041252 0.000000 0.000000
# 5 0.000000 0.000000 0.000000 0.000000 0.042054 0.000000
# 6 0.000000 0.000000 0.000000 0.000000 0.000000 0.056109
#
#
# Mechanical properties :
#
#
# Convention : Reuss Voigt Hill
#
# Bulk Modulus (GPa) = 24.66069 79.08024 51.87046
# Shear Modulus (GPa) = 16.92988 23.85555 20.39272
#
# Velocity S-wave (km/s) = 3.05085 3.62150 3.34836
# Velocity P-wave (km/s) = 5.09590 7.80793 6.59287
#
# Compressibility (1/GPa) = 0.04055037
#
# Stress axis : x y z
#
# Youngs Moduli (GPa) = 16.43009 52.37150 86.81293
#
# Poissons Ratio (x) = 0.57296 0.47661
# Poissons Ratio (y) = 0.17975 0.78418
# Poissons Ratio (z) = 0.09020 0.47307
#
# Static dielectric constant tensor:
#      x y z
#    x 2.896070 0.000000 0.000000 
#    y 0.000000 3.468230 0.000000 
#    z 0.000000 0.000000 4.303750 
# 
# 
# High freq. dielectric constant tensor:
#      x y z
#    x 1.659190 0.000000 0.000000 
#    y 0.000000 1.703280 0.000000 
#    z 0.000000 0.000000 1.723600 
# 
# From -- ./inp_files/35973.got.cif
#   From: 2010.03.12/outbox.cif.g09.slc.cpg/sg51_18_cif.got.tgz:35973.got - 2010.04.16 13:43:02.
