data_PCOD8210550
_publ_section_title
;
Structure prediction by ZEFSAII (Michael W. Deem and Ramdas Pophale) SiO2 
 PCOD8210550
Probable space group: P M M A
;
_chemical_formula_sum "Si O2"
_cell_formula_units_Z 48
_cell_length_a 15.185925
_cell_length_b 9.321531
_cell_length_c 18.457562
_cell_angle_alpha 90.000000
_cell_angle_beta 90.000000
_cell_angle_gamma 90.000000
_cell_volume 2612.779951
_symmetry_space_group_name_H-M "P M M A"
_symmetry_group_IT_number 51
_symmetry_cell_setting 'orthorhombic'
loop_
_space_group_symop_operation_xyz
x,y,z
1/2-x,-y,z
1/2+x,-y,-z
-x,y,-z
-x,-y,-z
1/2+x,y,-z
1/2-x,y,z
x,-y,z
loop_
_atom_site_type_symbol
_atom_site_label
_atom_site_fract_x
_atom_site_fract_y
_atom_site_fract_z
Si Si1 0.149196 0.334533 0.406323
Si Si2 0.851287 0.664637 0.425556
Si Si3 0.595285 0.842773 0.035226
Si Si4 0.004189 0.832936 0.170295
Si Si5 0.348911 0.662437 0.091261
Si Si6 0.493782 0.831682 0.664261
O O1 0.250000 0.295188 0.387911
O O2 0.130359 0.500000 0.387485
O O3 0.129490 0.305970 0.490421
O O4 0.086599 0.235268 0.358835
O O5 0.750000 0.699184 0.407144
O O6 0.873370 0.500000 0.406737
O O7 0.912392 0.767590 0.379282
O O8 0.579226 0.792770 0.118622
O O9 0.641048 0.000000 0.033117
O O10 0.500000 0.853204 0.000000
O O11 0.652101 0.729955 0.989721
O O12 0.090960 0.745791 0.148205
O O13 0.977266 0.795632 0.251783
O O14 0.027940 0.000000 0.160794
O O15 0.250000 0.667682 0.121892
O O16 0.383303 0.500000 0.084652
O O17 0.497888 0.000000 0.649164
#
# Coordination Sequence:
#
# PCOD8210550 Si02
#       6
#     8   8   8   8   8   8
#     4   9  19  36  56  77 104 140 180 219 259 311
#     4   9  19  37  58  77 100 136 181 222 261 313
#     4   8  15  31  52  68  87 122 163 195 229 283
#     4   9  20  36  50  69 100 135 168 200 242 302
#     4  10  20  32  49  76 103 125 158 206 253 295
#     4  11  22  34  52  80 111 140 172 217 269 313
#
# _framework density 18.371238000000002
#
# number of rings (size 3 to 8) (size 9 to 14) (size 15 to 20)
#    0.000    2.667    0.000    3.500    0.000    9.667 
#    0.000    5.833    0.000    5.000    0.000    0.000 
#    0.000    0.000    0.000    0.000    0.000    0.000 
#
# Total GULP energy -595092.888962 kJ/mol
# GULP energy per Si atom -12397.768520 kJ/mol
# Density = 1.832942 g / cm^3
# Si number density = 18.371238 Si / 1000 Ang^3
#
#
#
# Elastic Constant Matrix: (Units=GPa)
#
#
# Indices 1 2 3 4 5 6 
#
# 1 52.8665 30.0369 22.9230 0.0000 0.0000 0.0000
# 2 30.0369 86.6679 41.3719 0.0000 0.0000 0.0000
# 3 22.9230 41.3719 88.7274 0.0000 0.0000 0.0000
# 4 0.0000 0.0000 0.0000 14.7641 0.0000 0.0000
# 5 0.0000 0.0000 0.0000 0.0000 14.2646 0.0000
# 6 0.0000 0.0000 0.0000 0.0000 0.0000 170.9499
#
#
#
# Elastic Compliance Matrix: (Units=1/GPa)
#
#
# Indices 1 2 3 4 5 6 
#
# 1 0.024162 -0.006938 -0.003007 0.000000 0.000000 0.000000
# 2 -0.006938 0.016834 -0.006057 0.000000 0.000000 0.000000
# 3 -0.003007 -0.006057 0.014872 0.000000 0.000000 0.000000
# 4 0.000000 0.000000 0.000000 0.067732 0.000000 0.000000
# 5 0.000000 0.000000 0.000000 0.000000 0.070104 0.000000
# 6 0.000000 0.000000 0.000000 0.000000 0.000000 0.005850
#
#
# Mechanical properties :
#
#
# Convention : Reuss Voigt Hill
#
# Bulk Modulus (GPa) = 41.90622 46.32506 44.11564
# Shear Modulus (GPa) = 20.87581 48.92437 34.90009
#
# Velocity S-wave (km/s) = 3.37461 5.16612 4.36330
# Velocity P-wave (km/s) = 6.16800 7.80102 7.03207
#
# Compressibility (1/GPa) = 0.02386281
#
# Stress axis : x y z
#
# Youngs Moduli (GPa) = 41.38807 59.40244 67.24232
#
# Poissons Ratio (x) = 0.41216 0.20220
# Poissons Ratio (y) = 0.28717 0.40728
# Poissons Ratio (z) = 0.12445 0.35980
#
# Static dielectric constant tensor:
#      x y z
#    x 3.248980 0.000000 0.000000 
#    y 0.000000 3.403660 0.000000 
#    z 0.000000 0.000000 3.617050 
# 
# 
# High freq. dielectric constant tensor:
#      x y z
#    x 1.701330 0.000000 0.000000 
#    y 0.000000 1.713160 0.000000 
#    z 0.000000 0.000000 1.709530 
# 
# From -- ./inp_files/29430.got.cif
#   From: 2010.03.12/outbox.cif.g09.slc.cpg/sg51_15_cif.got.tgz:29430.got - 2010.04.16 13:43:02.
