data_PCOD8210248
_publ_section_title
;
Structure prediction by ZEFSAII (Michael W. Deem and Ramdas Pophale) SiO2 
 PCOD8210248
Probable space group: P M M A
;
_chemical_formula_sum "Si O2"
_cell_formula_units_Z 64
_cell_length_a 9.044155
_cell_length_b 15.289674
_cell_length_c 29.976755
_cell_angle_alpha 90.000000
_cell_angle_beta 90.000000
_cell_angle_gamma 90.000000
_cell_volume 4145.251077
_symmetry_space_group_name_H-M "P M M A"
_symmetry_group_IT_number 51
_symmetry_cell_setting 'orthorhombic'
loop_
_space_group_symop_operation_xyz
x,y,z
1/2-x,-y,z
1/2+x,-y,-z
-x,y,-z
-x,-y,-z
1/2+x,y,-z
1/2-x,y,z
x,-y,z
loop_
_atom_site_type_symbol
_atom_site_label
_atom_site_fract_x
_atom_site_fract_y
_atom_site_fract_z
Si Si1 0.417095 0.395691 0.956176
Si Si2 0.916431 0.720339 0.610595
Si Si3 0.083199 0.604031 0.130977
Si Si4 0.920856 0.267980 0.716113
Si Si5 0.922600 0.600031 0.455419
Si Si6 0.082705 0.093172 0.378675
Si Si7 0.422896 0.397981 0.779816
Si Si8 0.422025 0.096241 0.712007
O O1 0.250000 0.359870 0.956224
O O2 0.417455 0.500000 0.955863
O O3 0.500600 0.358739 0.912642
O O4 0.500000 0.360058 0.000000
O O5 0.750000 0.688663 0.600169
O O6 0.946403 0.722284 0.663334
O O7 0.943520 0.819690 0.591585
O O8 0.029255 0.655066 0.587410
O O9 0.250000 0.640713 0.131909
O O10 0.083590 0.500000 0.129220
O O11 0.997451 0.636610 0.174752
O O12 0.750000 0.274111 0.729359
O O13 0.008198 0.347378 0.738291
O O14 0.984198 0.174905 0.734234
O O15 0.750000 0.610398 0.462392
O O16 0.969184 0.500000 0.446712
O O17 0.000000 0.636298 0.500000
O O18 0.250000 0.101732 0.358243
O O19 0.963229 0.091132 0.339792
O O20 0.069733 0.000000 0.405472
O O21 0.250000 0.378833 0.783124
O O22 0.455791 0.500000 0.772196
O O23 0.250000 0.119308 0.716582
O O24 0.455613 0.000000 0.733694
#
# Coordination Sequence:
#
# PCOD8210248 Si02
#       8
#     8   8   8   8   8   8   8   8
#     4   9  15  22  33  50  71  94 125 169 218 261
#     4   9  18  31  48  70  92 113 137 168 205 242
#     4   9  16  26  39  53  71  99 136 175 215 260
#     4  10  20  32  46  65  89 117 147 177 210 250
#     4  10  21  36  53  70  87 109 137 170 209 251
#     4   8  14  26  44  66  92 119 142 163 194 239
#     4  10  20  32  44  58  80 112 148 185 221 256
#     4   9  16  26  42  64  88 112 139 174 213 250
#
# _framework density 15.439355000000001
#
# number of rings (size 3 to 8) (size 9 to 14) (size 15 to 20)
#    0.000    2.750    0.000    3.000    0.000    8.250 
#    0.000    2.500    0.000    0.375    0.000    0.000 
#    0.000    0.000    0.000    0.000    0.000    0.625 
#
# Total GULP energy -793162.449241 kJ/mol
# GULP energy per Si atom -12393.163269 kJ/mol
# Density = 1.540421 g / cm^3
# Si number density = 15.439355 Si / 1000 Ang^3
#
#
#
# Elastic Constant Matrix: (Units=GPa)
#
#
# Indices 1 2 3 4 5 6 
#
# 1 102.5301 43.8744 39.0021 0.0000 0.0000 0.0000
# 2 43.8744 71.3903 37.7912 0.0000 0.0000 0.0000
# 3 39.0021 37.7912 61.3017 0.0000 0.0000 0.0000
# 4 0.0000 0.0000 0.0000 0.9759 0.0000 0.0000
# 5 0.0000 0.0000 0.0000 0.0000 28.2454 0.0000
# 6 0.0000 0.0000 0.0000 0.0000 0.0000 21.7984
#
#
#
# Elastic Compliance Matrix: (Units=1/GPa)
#
#
# Indices 1 2 3 4 5 6 
#
# 1 0.014380 -0.005930 -0.005494 0.000000 0.000000 0.000000
# 2 -0.005930 0.023238 -0.010553 0.000000 0.000000 0.000000
# 3 -0.005494 -0.010553 0.026314 0.000000 0.000000 0.000000
# 4 0.000000 0.000000 0.000000 1.024668 0.000000 0.000000
# 5 0.000000 0.000000 0.000000 0.000000 0.035404 0.000000
# 6 0.000000 0.000000 0.000000 0.000000 0.000000 0.045875
#
#
# Mechanical properties :
#
#
# Convention : Reuss Voigt Hill
#
# Bulk Modulus (GPa) = 50.05193 52.95082 51.50137
# Shear Modulus (GPa) = 4.09671 17.84090 10.96881
#
# Velocity S-wave (km/s) = 1.63070 3.40302 2.66831
# Velocity P-wave (km/s) = 6.00286 7.05771 6.55155
#
# Compressibility (1/GPa) = 0.01997925
#
# Stress axis : x y z
#
# Youngs Moduli (GPa) = 69.53888 43.03276 38.00267
#
# Poissons Ratio (x) = 0.25517 0.20878
# Poissons Ratio (y) = 0.41234 0.40105
# Poissons Ratio (z) = 0.38203 0.45413
#
# Static dielectric constant tensor:
#      x y z
#    x 3.097050 0.000000 0.000000 
#    y 0.000000 2.988700 0.000000 
#    z 0.000000 0.000000 2.729660 
# 
# 
# High freq. dielectric constant tensor:
#      x y z
#    x 1.610730 0.000000 0.000000 
#    y 0.000000 1.565750 0.000000 
#    z 0.000000 0.000000 1.556630 
# 
# From -- ./inp_files/37536.got.cif
#   From: 2010.03.12/outbox.cif.g09.slc.cpg/sg51_19_cif.got.tgz:37536.got - 2010.04.16 13:43:02.
