data_PCOD8210786
_publ_section_title
;
Structure prediction by ZEFSAII (Michael W. Deem and Ramdas Pophale) SiO2 
 PCOD8210786
Probable space group: P M M A
;
_chemical_formula_sum "Si O2"
_cell_formula_units_Z 52
_cell_length_a 9.126580
_cell_length_b 15.153119
_cell_length_c 23.385510
_cell_angle_alpha 90.000000
_cell_angle_beta 90.000000
_cell_angle_gamma 90.000000
_cell_volume 3234.126064
_symmetry_space_group_name_H-M "P M M A"
_symmetry_group_IT_number 51
_symmetry_cell_setting 'orthorhombic'
loop_
_space_group_symop_operation_xyz
x,y,z
1/2-x,-y,z
1/2+x,-y,-z
-x,y,-z
-x,-y,-z
1/2+x,y,-z
1/2-x,y,z
x,-y,z
loop_
_atom_site_type_symbol
_atom_site_label
_atom_site_fract_x
_atom_site_fract_y
_atom_site_fract_z
Si Si1 0.420463 0.222809 0.779964
Si Si2 0.588931 0.104259 0.447265
Si Si3 0.583340 0.402590 0.168947
Si Si4 0.421776 0.000000 0.940418
Si Si5 0.076234 0.098582 0.677721
Si Si6 0.417707 0.656839 0.057877
Si Si7 0.917161 0.158863 0.888666
O O1 0.250000 0.199343 0.793219
O O2 0.444121 0.329404 0.781124
O O3 0.471109 0.176233 0.721158
O O4 0.532023 0.186764 0.826382
O O5 0.500000 0.146901 0.500000
O O6 0.750000 0.147095 0.449623
O O7 0.513950 0.123755 0.385313
O O8 0.600277 0.000000 0.455438
O O9 0.750000 0.393841 0.147317
O O10 0.552760 0.500000 0.195113
O O11 0.484133 0.390803 0.113097
O O12 0.468466 0.085214 0.905957
O O13 0.250000 0.000000 0.950288
O O14 0.500000 0.000000 0.000000
O O15 0.250000 0.093800 0.672481
O O16 0.020123 0.000000 0.696726
O O17 0.250000 0.626618 0.052219
O O18 0.429870 0.761908 0.066129
O O19 0.500000 0.628596 0.000000
O O20 0.750000 0.123829 0.886182
#
# Coordination Sequence:
#
# PCOD8210786 Si02
#       7
#     8   8   8   4   8   8   8
#     4   9  17  30  48  67  87 115 149 181 217 265
#     4   8  13  22  36  55  82 115 147 179 211 247
#     4   9  18  32  48  66  88 112 139 175 219 265
#     4  12  24  36  50  66  84 112 149 184 219 262
#     4   8  14  24  40  63  89 116 149 183 214 253
#     4  10  20  33  50  68  87 110 136 171 217 269
#     4  10  21  35  48  65  89 114 142 181 223 261
#
# _framework density 16.078531000000002
#
# number of rings (size 3 to 8) (size 9 to 14) (size 15 to 20)
#    0.000    2.769    0.000    3.000    1.077    3.692 
#    0.000    0.769    0.000    0.923    0.000    0.000 
#    0.000    0.615    0.000    0.462    0.000    0.923 
#
# Total GULP energy -644345.659503 kJ/mol
# GULP energy per Si atom -12391.262683 kJ/mol
# Density = 1.604194 g / cm^3
# Si number density = 16.078531 Si / 1000 Ang^3
#
#
#
# Elastic Constant Matrix: (Units=GPa)
#
#
# Indices 1 2 3 4 5 6 
#
# 1 75.9633 31.5979 32.6183 0.0000 0.0000 0.0000
# 2 31.5979 94.0275 50.7999 0.0000 0.0000 0.0000
# 3 32.6183 50.7999 106.0304 0.0000 0.0000 0.0000
# 4 0.0000 0.0000 0.0000 11.4658 0.0000 0.0000
# 5 0.0000 0.0000 0.0000 0.0000 21.4196 0.0000
# 6 0.0000 0.0000 0.0000 0.0000 0.0000 14.4280
#
#
#
# Elastic Compliance Matrix: (Units=1/GPa)
#
#
# Indices 1 2 3 4 5 6 
#
# 1 0.016059 -0.003680 -0.003177 0.000000 0.000000 0.000000
# 2 -0.003680 0.015193 -0.006147 0.000000 0.000000 0.000000
# 3 -0.003177 -0.006147 0.013354 0.000000 0.000000 0.000000
# 4 0.000000 0.000000 0.000000 0.087216 0.000000 0.000000
# 5 0.000000 0.000000 0.000000 0.000000 0.046686 0.000000
# 6 0.000000 0.000000 0.000000 0.000000 0.000000 0.069310
#
#
# Mechanical properties :
#
#
# Convention : Reuss Voigt Hill
#
# Bulk Modulus (GPa) = 53.77095 56.22817 54.99956
# Shear Modulus (GPa) = 17.85554 20.19635 19.02595
#
# Velocity S-wave (km/s) = 3.33606 3.54800 3.44366
# Velocity P-wave (km/s) = 6.95373 7.19940 7.07763
#
# Compressibility (1/GPa) = 0.01859740
#
# Stress axis : x y z
#
# Youngs Moduli (GPa) = 62.26902 65.82041 74.88595
#
# Poissons Ratio (x) = 0.24223 0.23792
# Poissons Ratio (y) = 0.22916 0.46031
# Poissons Ratio (z) = 0.19784 0.40459
#
# Static dielectric constant tensor:
#      x y z
#    x 3.029580 0.000000 0.000000 
#    y 0.000000 3.072660 0.000000 
#    z 0.000000 0.000000 3.133140 
# 
# 
# High freq. dielectric constant tensor:
#      x y z
#    x 1.612020 0.000000 0.000000 
#    y 0.000000 1.596270 0.000000 
#    z 0.000000 0.000000 1.600150 
# 
# From -- ./inp_files/34668.got.cif
#   From: 2010.03.12/outbox.cif.g09.slc.cpg/sg51_18_cif.got.tgz:34668.got - 2010.04.16 13:43:02.
