data_PCOD8210164
_publ_section_title
;
Structure prediction by ZEFSAII (Michael W. Deem and Ramdas Pophale) SiO2 
 PCOD8210164
Probable space group: P M M A
;
_chemical_formula_sum "Si O2"
_cell_formula_units_Z 48
_cell_length_a 13.902026
_cell_length_b 9.043123
_cell_length_c 23.910153
_cell_angle_alpha 90.000000
_cell_angle_beta 90.000000
_cell_angle_gamma 90.000000
_cell_volume 3005.930185
_symmetry_space_group_name_H-M "P M M A"
_symmetry_group_IT_number 51
_symmetry_cell_setting 'orthorhombic'
loop_
_space_group_symop_operation_xyz
x,y,z
1/2-x,-y,z
1/2+x,-y,-z
-x,y,-z
-x,-y,-z
1/2+x,y,-z
1/2-x,y,z
x,-y,z
loop_
_atom_site_type_symbol
_atom_site_label
_atom_site_fract_x
_atom_site_fract_y
_atom_site_fract_z
Si Si1 0.138340 0.828477 0.196889
Si Si2 0.541807 0.175630 0.914758
Si Si3 0.541176 0.825001 0.587343
Si Si4 0.356023 0.175208 0.524209
Si Si5 0.139865 0.674222 0.310601
Si Si6 0.356038 0.824003 0.974693
O O1 0.250000 0.804851 0.182786
O O2 0.077544 0.762843 0.144813
O O3 0.106518 0.737291 0.251076
O O4 0.115395 0.000000 0.208079
O O5 0.609705 0.235500 0.964730
O O6 0.549454 0.000000 0.913492
O O7 0.431810 0.226889 0.926906
O O8 0.609796 0.770884 0.536884
O O9 0.431769 0.776936 0.571976
O O10 0.570441 0.741576 0.643088
O O11 0.549614 0.000000 0.596922
O O12 0.250000 0.241395 0.537305
O O13 0.352683 0.000000 0.522477
O O14 0.250000 0.721172 0.323026
O O15 0.127594 0.500000 0.309815
O O16 0.250000 0.759790 0.960961
O O17 0.353433 0.000000 0.976631
#
# Coordination Sequence:
#
# PCOD8210164 Si02
#       6
#     8   8   8   8   8   8
#     4   9  16  26  41  59  78 103 136 170 201 238
#     4   8  13  20  32  53  79 104 129 158 195 239
#     4   9  16  27  46  68  87 111 140 167 199 242
#     4   8  14  25  43  68  93 112 133 165 203 241
#     4  10  20  31  42  59  84 111 138 172 213 249
#     4   8  12  18  30  51  80 107 126 153 198 243
#
# _framework density 15.968434999999999
#
# number of rings (size 3 to 8) (size 9 to 14) (size 15 to 20)
#    0.000    3.333    0.000    3.500    0.000    3.667 
#    0.000    1.667    0.000    2.500    0.000    7.000 
#    0.000    1.333    0.000    0.000    0.000    0.000 
#
# Total GULP energy -594868.111127 kJ/mol
# GULP energy per Si atom -12393.085648 kJ/mol
# Density = 1.593209 g / cm^3
# Si number density = 15.968435 Si / 1000 Ang^3
#
#
#
# Elastic Constant Matrix: (Units=GPa)
#
#
# Indices 1 2 3 4 5 6 
#
# 1 138.2158 22.9292 79.8029 0.0000 0.0000 0.0000
# 2 22.9292 26.7402 32.5912 0.0000 0.0000 0.0000
# 3 79.8029 32.5912 141.1825 0.0000 0.0000 0.0000
# 4 0.0000 0.0000 0.0000 -2.3928 0.0000 0.0000
# 5 0.0000 0.0000 0.0000 0.0000 28.2146 0.0000
# 6 0.0000 0.0000 0.0000 0.0000 0.0000 9.3306
#
#
#
# Elastic Compliance Matrix: (Units=1/GPa)
#
#
# Indices 1 2 3 4 5 6 
#
# 1 0.010864 -0.002548 -0.005552 0.000000 0.000000 0.000000
# 2 -0.002548 0.052636 -0.010710 0.000000 0.000000 0.000000
# 3 -0.005552 -0.010710 0.012694 0.000000 0.000000 0.000000
# 4 0.000000 0.000000 0.000000 -0.417917 0.000000 0.000000
# 5 0.000000 0.000000 0.000000 0.000000 0.035443 0.000000
# 6 0.000000 0.000000 0.000000 0.000000 0.000000 0.107175
#
#
# Mechanical properties :
#
#
# Convention : Reuss Voigt Hill
#
# Bulk Modulus (GPa) = 25.92580 64.08726 45.00653
# Shear Modulus (GPa) = -33.64121 18.41815 -7.61153
#
# Velocity S-wave (km/s) = -4.59489 3.39987 -2.18562
# Velocity P-wave (km/s) = 3.44671 7.45875 4.67724
#
# Compressibility (1/GPa) = 0.03857161
#
# Stress axis : x y z
#
# Youngs Moduli (GPa) = 92.05036 18.99850 78.77765
#
# Poissons Ratio (x) = 0.04841 0.43741
# Poissons Ratio (y) = 0.23455 0.84374
# Poissons Ratio (z) = 0.51110 0.20348
#
# Static dielectric constant tensor:
#      x y z
#    x 3.412960 0.000000 0.000000 
#    y 0.000000 2.541960 0.000000 
#    z 0.000000 0.000000 3.049140 
# 
# 
# High freq. dielectric constant tensor:
#      x y z
#    x 1.611250 0.000000 0.000000 
#    y 0.000000 1.563550 0.000000 
#    z 0.000000 0.000000 1.607410 
# 
# From -- ./inp_files/33204.got.cif
#   From: 2010.03.12/outbox.cif.g09.slc.cpg/sg51_17_cif.got.tgz:33204.got - 2010.04.16 13:43:02.
