data_PCOD8210429
_publ_section_title
;
Structure prediction by ZEFSAII (Michael W. Deem and Ramdas Pophale) SiO2 
 PCOD8210429
Probable space group: P M M A
;
_chemical_formula_sum "Si O2"
_cell_formula_units_Z 64
_cell_length_a 14.484671
_cell_length_b 9.267275
_cell_length_c 23.444686
_cell_angle_alpha 90.000000
_cell_angle_beta 90.000000
_cell_angle_gamma 90.000000
_cell_volume 3147.060604
_symmetry_space_group_name_H-M "P M M A"
_symmetry_group_IT_number 51
_symmetry_cell_setting 'orthorhombic'
loop_
_space_group_symop_operation_xyz
x,y,z
1/2-x,-y,z
1/2+x,-y,-z
-x,y,-z
-x,-y,-z
1/2+x,y,-z
1/2-x,y,z
x,-y,z
loop_
_atom_site_type_symbol
_atom_site_label
_atom_site_fract_x
_atom_site_fract_y
_atom_site_fract_z
Si Si1 0.145254 0.170103 0.192958
Si Si2 0.517280 0.171726 0.701560
Si Si3 0.880320 0.338723 0.041926
Si Si4 0.646555 0.670166 0.480261
Si Si5 0.410727 0.339190 0.082066
Si Si6 0.859158 0.666289 0.246628
Si Si7 0.029202 0.670813 0.411124
Si Si8 0.149656 0.155238 0.856946
O O1 0.250000 0.224184 0.203201
O O2 0.082851 0.220786 0.246109
O O3 0.107498 0.230536 0.133209
O O4 0.141933 0.000000 0.187155
O O5 0.415301 0.242376 0.706797
O O6 0.559384 0.237279 0.643857
O O7 0.508726 0.000000 0.697568
O O8 0.842565 0.500000 0.054255
O O9 0.832140 0.219453 0.080621
O O10 0.985755 0.331848 0.060431
O O11 0.856231 0.299006 0.976221
O O12 0.750000 0.737729 0.471746
O O13 0.654401 0.500000 0.476821
O O14 0.605210 0.712962 0.541659
O O15 0.573678 0.719909 0.431732
O O16 0.384093 0.500000 0.102720
O O17 0.750000 0.682311 0.257514
O O18 0.888906 0.500000 0.249163
O O19 0.896004 0.728698 0.185642
O O20 0.030886 0.500000 0.398043
O O21 0.250000 0.123691 0.830872
O O22 0.095413 0.000000 0.858182
#
# Coordination Sequence:
#
# PCOD8210429 Si02
#       8
#     8   8   8   8   8   8   8   8
#     4  10  23  41  56  73 104 148 193 234 281 334
#     4  11  23  38  57  81 113 151 188 232 280 326
#     4   9  18  33  52  74 101 131 165 212 274 340
#     4   8  15  31  56  84 115 149 183 224 272 318
#     4   9  19  35  54  76  99 126 168 224 279 328
#     4  10  21  37  57  80 107 142 183 228 282 342
#     4   9  18  33  55  84 113 144 187 230 268 319
#     4  10  20  32  47  71 102 132 165 208 259 320
#
# _framework density 20.336438000000001
#
# number of rings (size 3 to 8) (size 9 to 14) (size 15 to 20)
#    0.000    2.500    0.000    3.375    0.000    7.250 
#    0.000    6.250    0.000    0.750    0.000    0.000 
#    0.000    0.000    0.000    0.000    0.000    0.000 
#
# Total GULP energy -792906.380490 kJ/mol
# GULP energy per Si atom -12389.162195 kJ/mol
# Density = 2.029015 g / cm^3
# Si number density = 20.336438 Si / 1000 Ang^3
#
#
#
# Elastic Constant Matrix: (Units=GPa)
#
#
# Indices 1 2 3 4 5 6 
#
# 1 86.4163 19.1486 28.0589 0.0000 0.0000 0.0000
# 2 19.1486 81.6992 42.5529 0.0000 0.0000 0.0000
# 3 28.0589 42.5529 115.5350 0.0000 0.0000 0.0000
# 4 0.0000 0.0000 0.0000 27.5296 0.0000 0.0000
# 5 0.0000 0.0000 0.0000 0.0000 13.8759 0.0000
# 6 0.0000 0.0000 0.0000 0.0000 0.0000 11.1895
#
#
#
# Elastic Compliance Matrix: (Units=1/GPa)
#
#
# Indices 1 2 3 4 5 6 
#
# 1 0.012751 -0.001702 -0.002470 0.000000 0.000000 0.000000
# 2 -0.001702 0.015373 -0.005249 0.000000 0.000000 0.000000
# 3 -0.002470 -0.005249 0.011188 0.000000 0.000000 0.000000
# 4 0.000000 0.000000 0.000000 0.036325 0.000000 0.000000
# 5 0.000000 0.000000 0.000000 0.000000 0.072067 0.000000
# 6 0.000000 0.000000 0.000000 0.000000 0.000000 0.089370
#
#
# Mechanical properties :
#
#
# Convention : Reuss Voigt Hill
#
# Bulk Modulus (GPa) = 48.84973 51.46349 50.15661
# Shear Modulus (GPa) = 19.03035 23.44500 21.23768
#
# Velocity S-wave (km/s) = 3.06236 3.39906 3.23509
# Velocity P-wave (km/s) = 6.04790 6.38481 6.21863
#
# Compressibility (1/GPa) = 0.02047094
#
# Stress axis : x y z
#
# Youngs Moduli (GPa) = 78.42527 65.05044 89.37907
#
# Poissons Ratio (x) = 0.11073 0.22075
# Poissons Ratio (y) = 0.13349 0.46911
# Poissons Ratio (z) = 0.19369 0.34142
#
# Static dielectric constant tensor:
#      x y z
#    x 3.855110 0.000000 0.000000 
#    y 0.000000 3.620760 0.000000 
#    z 0.000000 0.000000 4.017650 
# 
# 
# High freq. dielectric constant tensor:
#      x y z
#    x 1.794170 0.000000 0.000000 
#    y 0.000000 1.775390 0.000000 
#    z 0.000000 0.000000 1.790860 
# 
# From -- ./inp_files/35647.got.cif
#   From: 2010.03.12/outbox.cif.g09.slc.cpg/sg51_18_cif.got.tgz:35647.got - 2010.04.16 13:43:02.
