data_PCOD8210416
_publ_section_title
;
Structure prediction by ZEFSAII (Michael W. Deem and Ramdas Pophale) SiO2 
 PCOD8210416
Probable space group: P M M A
;
_chemical_formula_sum "Si O2"
_cell_formula_units_Z 48
_cell_length_a 9.121870
_cell_length_b 9.613941
_cell_length_c 30.421469
_cell_angle_alpha 90.000000
_cell_angle_beta 90.000000
_cell_angle_gamma 90.000000
_cell_volume 2667.875217
_symmetry_space_group_name_H-M "P M M A"
_symmetry_group_IT_number 51
_symmetry_cell_setting 'orthorhombic'
loop_
_space_group_symop_operation_xyz
x,y,z
1/2-x,-y,z
1/2+x,-y,-z
-x,y,-z
-x,-y,-z
1/2+x,y,-z
1/2-x,y,z
x,-y,z
loop_
_atom_site_type_symbol
_atom_site_label
_atom_site_fract_x
_atom_site_fract_y
_atom_site_fract_z
Si Si1 0.082368 0.160385 0.215269
Si Si2 0.915822 0.665899 0.457124
Si Si3 0.579167 0.338599 0.285084
Si Si4 0.578942 0.660446 0.043823
Si Si5 0.915546 0.334432 0.628127
Si Si6 0.582558 0.839739 0.886474
O O1 0.250000 0.200281 0.226254
O O2 0.048674 0.188595 0.164393
O O3 0.972771 0.255173 0.242670
O O4 0.053464 0.000000 0.226928
O O5 0.750000 0.722958 0.457603
O O6 0.915728 0.500000 0.456830
O O7 0.000000 0.722344 0.500000
O O8 0.997889 0.724420 0.414054
O O9 0.750000 0.313424 0.292982
O O10 0.543805 0.500000 0.276956
O O11 0.494611 0.281275 0.327830
O O12 0.750000 0.684121 0.037304
O O13 0.539187 0.500000 0.052186
O O14 0.526136 0.745817 0.085687
O O15 0.500000 0.716045 0.000000
O O16 0.750000 0.276621 0.627277
O O17 0.916507 0.500000 0.626767
O O18 0.750000 0.799855 0.897371
O O19 0.553534 0.000000 0.898119
#
# Coordination Sequence:
#
# PCOD8210416 Si02
#       6
#     8   8   8   8   8   8
#     4   9  19  36  55  74  98 129 165 204 245 291
#     4   9  15  22  33  51  78 113 152 192 236 288
#     4  10  20  32  47  70  99 129 162 201 245 294
#     4  10  21  36  54  77 105 136 169 204 243 288
#     4   9  16  26  40  58  83 117 156 197 241 288
#     4   9  19  36  56  77 101 130 165 204 246 292
#
# _framework density 17.991845000000001
#
# number of rings (size 3 to 8) (size 9 to 14) (size 15 to 20)
#    0.000    2.667    0.000    3.000    0.000    8.333 
#    0.000    5.000    0.000    0.000    0.000    0.000 
#    0.000    0.667    0.000    2.500    0.000    5.500 
#
# Total GULP energy -595274.308466 kJ/mol
# GULP energy per Si atom -12401.548093 kJ/mol
# Density = 1.795090 g / cm^3
# Si number density = 17.991845 Si / 1000 Ang^3
#
#
#
# Elastic Constant Matrix: (Units=GPa)
#
#
# Indices 1 2 3 4 5 6 
#
# 1 130.0494 39.9666 73.3120 0.0000 0.0000 0.0000
# 2 39.9666 40.5005 45.9468 0.0000 0.0000 0.0000
# 3 73.3120 45.9468 122.2641 0.0000 0.0000 0.0000
# 4 0.0000 0.0000 0.0000 -2.9236 0.0000 0.0000
# 5 0.0000 0.0000 0.0000 0.0000 42.7650 0.0000
# 6 0.0000 0.0000 0.0000 0.0000 0.0000 24.0186
#
#
#
# Elastic Compliance Matrix: (Units=1/GPa)
#
#
# Indices 1 2 3 4 5 6 
#
# 1 0.012586 -0.006726 -0.005019 0.000000 0.000000 0.000000
# 2 -0.006726 0.046635 -0.013493 0.000000 0.000000 0.000000
# 3 -0.005019 -0.013493 0.016259 0.000000 0.000000 0.000000
# 4 0.000000 0.000000 0.000000 -0.342048 0.000000 0.000000
# 5 0.000000 0.000000 0.000000 0.000000 0.023384 0.000000
# 6 0.000000 0.000000 0.000000 0.000000 0.000000 0.041634
#
#
# Mechanical properties :
#
#
# Convention : Reuss Voigt Hill
#
# Bulk Modulus (GPa) = 39.99191 67.91832 53.95512
# Shear Modulus (GPa) = -35.02861 21.67791 -6.67535
#
# Velocity S-wave (km/s) = -4.41717 3.47490 -1.92828
# Velocity P-wave (km/s) = 1.93370 7.34379 5.00960
#
# Compressibility (1/GPa) = 0.02500506
#
# Stress axis : x y z
#
# Youngs Moduli (GPa) = 79.45493 21.44305 61.50404
#
# Poissons Ratio (x) = 0.14422 0.30870
# Poissons Ratio (y) = 0.53440 0.82985
# Poissons Ratio (z) = 0.39879 0.28932
#
# Static dielectric constant tensor:
#      x y z
#    x 3.406430 0.000000 0.000000 
#    y 0.000000 2.881180 0.000000 
#    z 0.000000 0.000000 3.395360 
# 
# 
# High freq. dielectric constant tensor:
#      x y z
#    x 1.708390 0.000000 0.000000 
#    y 0.000000 1.648340 0.000000 
#    z 0.000000 0.000000 1.708750 
# 
# From -- ./inp_files/36948.got.cif
#   From: 2010.03.12/outbox.cif.g09.slc.cpg/sg51_19_cif.got.tgz:36948.got - 2010.04.16 13:43:02.
