data_PCOD8210746
_publ_section_title
;
Structure prediction by ZEFSAII (Michael W. Deem and Ramdas Pophale) SiO2 
 PCOD8210746
Probable space group: P M M A
;
_chemical_formula_sum "Si O2"
_cell_formula_units_Z 56
_cell_length_a 13.985326
_cell_length_b 8.895029
_cell_length_c 26.080649
_cell_angle_alpha 90.000000
_cell_angle_beta 90.000000
_cell_angle_gamma 90.000000
_cell_volume 3244.429615
_symmetry_space_group_name_H-M "P M M A"
_symmetry_group_IT_number 51
_symmetry_cell_setting 'orthorhombic'
loop_
_space_group_symop_operation_xyz
x,y,z
1/2-x,-y,z
1/2+x,-y,-z
-x,y,-z
-x,-y,-z
1/2+x,y,-z
1/2-x,y,z
x,-y,z
loop_
_atom_site_type_symbol
_atom_site_label
_atom_site_fract_x
_atom_site_fract_y
_atom_site_fract_z
Si Si1 0.640560 0.176945 0.719100
Si Si2 0.859432 0.324138 0.825989
Si Si3 0.025950 0.677560 0.371855
Si Si4 0.860763 0.673252 0.528127
Si Si5 0.040477 0.822017 0.079879
Si Si6 0.644308 0.177941 0.022277
Si Si7 0.860347 0.175981 0.423648
O O1 0.750000 0.220783 0.706287
O O2 0.611115 0.239381 0.774348
O O3 0.571478 0.251010 0.678108
O O4 0.625262 0.000000 0.718827
O O5 0.750000 0.286200 0.841001
O O6 0.874308 0.500000 0.817327
O O7 0.929802 0.266929 0.869849
O O8 0.025311 0.500000 0.365249
O O9 0.918630 0.739748 0.378936
O O10 0.085343 0.730324 0.421492
O O11 0.750000 0.700645 0.539119
O O12 0.883838 0.500000 0.516156
O O13 0.895960 0.767630 0.479261
O O14 0.931224 0.774495 0.066190
O O15 0.049483 0.000000 0.089283
O O16 0.108469 0.767975 0.033426
O O17 0.750000 0.245990 0.033682
O O18 0.648910 0.000000 0.020858
O O19 0.750000 0.218747 0.415478
O O20 0.878612 0.000000 0.419704
#
# Coordination Sequence:
#
# PCOD8210746 Si02
#       7
#     8   8   8   8   8   8   8
#     4  10  21  36  54  76 100 126 158 197 241 291
#     4  10  20  33  49  70  98 129 159 196 243 290
#     4  11  21  33  52  75 100 130 161 197 244 295
#     4   9  18  32  49  71 100 131 160 191 235 294
#     4   9  16  27  47  72  96 128 168 204 238 282
#     4   8  14  25  43  70 102 132 163 200 241 284
#     4  10  21  35  50  70  97 129 166 206 243 282
#
# _framework density 17.260352999999999
#
# number of rings (size 3 to 8) (size 9 to 14) (size 15 to 20)
#    0.000    2.429    0.000    3.857    0.000    6.571 
#    0.000    2.857    0.000    2.143    0.000    2.000 
#    0.000    0.000    0.000    0.000    0.000    0.000 
#
# Total GULP energy -694439.203537 kJ/mol
# GULP energy per Si atom -12400.700063 kJ/mol
# Density = 1.722107 g / cm^3
# Si number density = 17.260353 Si / 1000 Ang^3
#
#
#
# Elastic Constant Matrix: (Units=GPa)
#
#
# Indices 1 2 3 4 5 6 
#
# 1 108.5341 36.5660 71.4501 0.0000 0.0000 0.0000
# 2 36.5660 61.7668 47.7406 0.0000 0.0000 0.0000
# 3 71.4501 47.7406 119.6920 0.0000 0.0000 0.0000
# 4 0.0000 0.0000 0.0000 40.9131 0.0000 0.0000
# 5 0.0000 0.0000 0.0000 0.0000 30.0051 0.0000
# 6 0.0000 0.0000 0.0000 0.0000 0.0000 22.8269
#
#
#
# Elastic Compliance Matrix: (Units=1/GPa)
#
#
# Indices 1 2 3 4 5 6 
#
# 1 0.015538 -0.002934 -0.008105 0.000000 0.000000 0.000000
# 2 -0.002934 0.023960 -0.007805 0.000000 0.000000 0.000000
# 3 -0.008105 -0.007805 0.016306 0.000000 0.000000 0.000000
# 4 0.000000 0.000000 0.000000 0.024442 0.000000 0.000000
# 5 0.000000 0.000000 0.000000 0.000000 0.033328 0.000000
# 6 0.000000 0.000000 0.000000 0.000000 0.000000 0.043808
#
#
# Mechanical properties :
#
#
# Convention : Reuss Voigt Hill
#
# Bulk Modulus (GPa) = 55.20162 66.83403 61.01782
# Shear Modulus (GPa) = 24.86223 27.69811 26.28017
#
# Velocity S-wave (km/s) = 3.79941 4.01025 3.90625
# Velocity P-wave (km/s) = 7.16230 7.76196 7.46815
#
# Compressibility (1/GPa) = 0.01811541
#
# Stress axis : x y z
#
# Youngs Moduli (GPa) = 64.35883 41.73698 61.32585
#
# Poissons Ratio (x) = 0.12245 0.49705
# Poissons Ratio (y) = 0.18882 0.47866
# Poissons Ratio (z) = 0.52164 0.32577
#
# Static dielectric constant tensor:
#      x y z
#    x 3.499840 0.000000 0.000000 
#    y 0.000000 3.094830 0.000000 
#    z 0.000000 0.000000 3.103600 
# 
# 
# High freq. dielectric constant tensor:
#      x y z
#    x 1.667060 0.000000 0.000000 
#    y 0.000000 1.659770 0.000000 
#    z 0.000000 0.000000 1.652810 
# 
# From -- ./inp_files/33306.got.cif
#   From: 2010.03.12/outbox.cif.g09.slc.cpg/sg51_17_cif.got.tgz:33306.got - 2010.04.16 13:43:02.
