data_PCOD8210844
_publ_section_title
;
Structure prediction by ZEFSAII (Michael W. Deem and Ramdas Pophale) SiO2 
 PCOD8210844
Probable space group: P M M A
;
_chemical_formula_sum "Si O2"
_cell_formula_units_Z 56
_cell_length_a 14.439751
_cell_length_b 9.154475
_cell_length_c 22.029152
_cell_angle_alpha 90.000000
_cell_angle_beta 90.000000
_cell_angle_gamma 90.000000
_cell_volume 2911.997024
_symmetry_space_group_name_H-M "P M M A"
_symmetry_group_IT_number 51
_symmetry_cell_setting 'orthorhombic'
loop_
_space_group_symop_operation_xyz
x,y,z
1/2-x,-y,z
1/2+x,-y,-z
-x,y,-z
-x,-y,-z
1/2+x,y,-z
1/2-x,y,z
x,-y,z
loop_
_atom_site_type_symbol
_atom_site_label
_atom_site_fract_x
_atom_site_fract_y
_atom_site_fract_z
Si Si1 0.497998 0.173367 0.595407
Si Si2 0.360371 0.335354 0.945186
Si Si3 0.855426 0.831465 0.173031
Si Si4 0.640873 0.331652 0.818979
Si Si5 0.360305 0.835242 0.061716
Si Si6 0.853252 0.173966 0.501011
Si Si7 0.489926 0.171225 0.268232
O O1 0.407546 0.230203 0.558957
O O2 0.591146 0.226407 0.560951
O O3 0.496613 0.233404 0.663861
O O4 0.495319 0.000000 0.596387
O O5 0.250000 0.332325 0.947071
O O6 0.398273 0.500000 0.948188
O O7 0.395375 0.261083 0.883217
O O8 0.400453 0.246229 0.002496
O O9 0.750000 0.787474 0.188600
O O10 0.915499 0.796471 0.232271
O O11 0.861945 0.000000 0.153895
O O12 0.750000 0.313324 0.811530
O O13 0.611843 0.500000 0.824135
O O14 0.604065 0.249750 0.879001
O O15 0.595076 0.258491 0.760495
O O16 0.250000 0.835258 0.059806
O O17 0.399069 0.000000 0.063662
O O18 0.750000 0.241744 0.501895
O O19 0.848258 0.000000 0.500174
O O20 0.465276 0.000000 0.267753
#
# Coordination Sequence:
#
# PCOD8210844 Si02
#       7
#     8   8   8   8   8   8   8
#     4   8  15  26  40  65  99 130 162 199 241 290
#     4   9  16  27  46  71  97 127 165 209 257 306
#     4   9  18  32  48  68  97 132 169 209 254 303
#     4  10  21  36  52  71  98 132 169 209 254 305
#     4   9  16  28  49  74  98 126 162 207 259 309
#     4   8  13  23  41  66  98 132 162 197 242 288
#     4  10  20  33  50  73 102 135 170 209 251 296
#
# _framework density 19.230788
#
# number of rings (size 3 to 8) (size 9 to 14) (size 15 to 20)
#    0.000    3.000    0.000    2.143    0.000    6.000 
#    0.000    5.000    0.000    4.286    0.000    2.000 
#    0.000    1.143    0.000    0.000    0.000    0.000 
#
# Total GULP energy -694332.168890 kJ/mol
# GULP energy per Si atom -12398.788730 kJ/mol
# Density = 1.918702 g / cm^3
# Si number density = 19.230788 Si / 1000 Ang^3
#
#
#
# Elastic Constant Matrix: (Units=GPa)
#
#
# Indices 1 2 3 4 5 6 
#
# 1 87.3895 32.7602 62.3857 0.0000 0.0000 0.0000
# 2 32.7602 86.5674 62.8663 0.0000 0.0000 0.0000
# 3 62.3857 62.8663 197.3501 0.0000 0.0000 0.0000
# 4 0.0000 0.0000 0.0000 4.6780 0.0000 0.0000
# 5 0.0000 0.0000 0.0000 0.0000 -203.5404 0.0000
# 6 0.0000 0.0000 0.0000 0.0000 0.0000 14.9638
#
#
#
# Elastic Compliance Matrix: (Units=1/GPa)
#
#
# Indices 1 2 3 4 5 6 
#
# 1 0.015344 -0.002972 -0.003904 0.000000 0.000000 0.000000
# 2 -0.002972 0.015604 -0.004031 0.000000 0.000000 0.000000
# 3 -0.003904 -0.004031 0.007585 0.000000 0.000000 0.000000
# 4 0.000000 0.000000 0.000000 0.213767 0.000000 0.000000
# 5 0.000000 0.000000 0.000000 0.000000 -0.004913 0.000000
# 6 0.000000 0.000000 0.000000 0.000000 0.000000 0.066828
#
#
# Mechanical properties :
#
#
# Convention : Reuss Voigt Hill
#
# Bulk Modulus (GPa) = 59.81005 76.37017 68.09011
# Shear Modulus (GPa) = 14.63690 -22.56008 -3.96159
#
# Velocity S-wave (km/s) = 2.76183 -3.42880 -1.43684
# Velocity P-wave (km/s) = 6.42954 4.91152 5.72110
#
# Compressibility (1/GPa) = 0.01671960
#
# Stress axis : x y z
#
# Youngs Moduli (GPa) = 65.17250 64.08688 131.83278
#
# Poissons Ratio (x) = 0.19044 0.51465
# Poissons Ratio (y) = 0.19367 0.53145
# Poissons Ratio (z) = 0.25442 0.25835
#
# Static dielectric constant tensor:
#      x y z
#    x 3.481200 0.000000 0.000000 
#    y 0.000000 3.262170 0.000000 
#    z 0.000000 0.000000 3.709440 
# 
# 
# High freq. dielectric constant tensor:
#      x y z
#    x 1.744330 0.000000 0.000000 
#    y 0.000000 1.713740 0.000000 
#    z 0.000000 0.000000 1.747620 
# 
# From -- ./inp_files/33338.got.cif
#   From: 2010.03.12/outbox.cif.g09.slc.cpg/sg51_17_cif.got.tgz:33338.got - 2010.04.16 13:43:02.
