data_PCOD8210017
_publ_section_title
;
Structure prediction by ZEFSAII (Michael W. Deem and Ramdas Pophale) SiO2 
 PCOD8210017
Probable space group: P M M A
;
_chemical_formula_sum "Si O2"
_cell_formula_units_Z 48
_cell_length_a 14.779329
_cell_length_b 12.873672
_cell_length_c 12.159753
_cell_angle_alpha 90.000000
_cell_angle_beta 90.000000
_cell_angle_gamma 90.000000
_cell_volume 2313.566089
_symmetry_space_group_name_H-M "P M M A"
_symmetry_group_IT_number 51
_symmetry_cell_setting 'orthorhombic'
loop_
_space_group_symop_operation_xyz
x,y,z
1/2-x,-y,z
1/2+x,-y,-z
-x,y,-z
-x,-y,-z
1/2+x,y,-z
1/2-x,y,z
x,-y,z
loop_
_atom_site_type_symbol
_atom_site_label
_atom_site_fract_x
_atom_site_fract_y
_atom_site_fract_z
Si Si1 0.750000 0.622125 0.648052
Si Si2 0.561872 0.820912 0.898585
Si Si3 0.750000 0.842280 0.226807
Si Si4 0.250000 0.667565 0.589674
Si Si5 0.250000 0.882054 0.011821
Si Si6 0.921482 0.384661 0.792095
Si Si7 0.445785 0.664201 0.608097
Si Si8 0.558804 0.112714 0.301790
O O1 0.750000 0.500000 0.613687
O O2 0.750000 0.697463 0.540804
O O3 0.662988 0.651252 0.719035
O O4 0.662673 0.863639 0.912716
O O5 0.566576 0.695294 0.891993
O O6 0.518953 0.866858 0.788132
O O7 0.500000 0.854851 0.000000
O O8 0.750000 0.752407 0.315970
O O9 0.843284 0.903482 0.245049
O O10 0.750000 0.808164 0.097316
O O11 0.346319 0.609737 0.604417
O O12 0.250000 0.000000 0.968326
O O13 0.907260 0.500000 0.841216
O O14 0.009715 0.383358 0.715858
O O15 0.500000 0.630316 0.500000
O O16 0.439794 0.790972 0.612706
O O17 0.537285 0.000000 0.358228
#
# Coordination Sequence:
#
# PCOD8210017 Si02
#       8
#     4   8   4   4   4   8   8   8
#     4  10  19  35  62  85 106 145 187 230 280 333
#     4  11  23  38  59  84 114 151 190 237 290 336
#     4  10  20  33  56  83 115 149 180 225 279 336
#     4  10  20  35  54  83 118 144 182 234 283 335
#     4  12  23  37  61  87 115 148 189 239 283 332
#     4  10  22  39  60  85 113 148 192 237 284 342
#     4  10  20  35  57  82 112 151 184 234 288 335
#     4  10  20  35  55  83 114 146 190 231 279 343
#
# _framework density 20.747192999999999
#
# number of rings (size 3 to 8) (size 9 to 14) (size 15 to 20)
#    0.000    1.667    3.333    1.750    0.000    2.333 
#    0.000    0.000    0.000    0.000    0.000    0.000 
#    0.000    0.000    0.000    0.000    0.000    0.000 
#
# Total GULP energy -594684.758058 kJ/mol
# GULP energy per Si atom -12389.265793 kJ/mol
# Density = 2.069997 g / cm^3
# Si number density = 20.747193 Si / 1000 Ang^3
#
#
#
# Elastic Constant Matrix: (Units=GPa)
#
#
# Indices 1 2 3 4 5 6 
#
# 1 166.3461 8.2243 24.6243 0.0000 0.0000 0.0000
# 2 8.2243 76.1971 6.4015 0.0000 0.0000 0.0000
# 3 24.6243 6.4015 44.9646 0.0000 0.0000 0.0000
# 4 0.0000 0.0000 0.0000 4.5500 0.0000 0.0000
# 5 0.0000 0.0000 0.0000 0.0000 24.9872 0.0000
# 6 0.0000 0.0000 0.0000 0.0000 0.0000 -6.7353
#
#
#
# Elastic Compliance Matrix: (Units=1/GPa)
#
#
# Indices 1 2 3 4 5 6 
#
# 1 0.006555 -0.000411 -0.003531 0.000000 0.000000 0.000000
# 2 -0.000411 0.013308 -0.001670 0.000000 0.000000 0.000000
# 3 -0.003531 -0.001670 0.024411 0.000000 0.000000 0.000000
# 4 0.000000 0.000000 0.000000 0.219780 0.000000 0.000000
# 5 0.000000 0.000000 0.000000 0.000000 0.040021 0.000000
# 6 0.000000 0.000000 0.000000 0.000000 0.000000 -0.148471
#
#
# Mechanical properties :
#
#
# Convention : Reuss Voigt Hill
#
# Bulk Modulus (GPa) = 30.25622 40.66755 35.46188
# Shear Modulus (GPa) = 28.11451 21.11088 24.61270
#
# Velocity S-wave (km/s) = 3.68516 3.19333 3.44803
# Velocity P-wave (km/s) = 5.72033 5.76546 5.74294
#
# Compressibility (1/GPa) = 0.03305106
#
# Stress axis : x y z
#
# Youngs Moduli (GPa) = 152.56511 75.14006 40.96489
#
# Poissons Ratio (x) = 0.03087 0.14465
# Poissons Ratio (y) = 0.06268 0.06840
# Poissons Ratio (z) = 0.53871 0.12546
#
# Static dielectric constant tensor:
#      x y z
#    x 4.267310 0.000000 0.000000 
#    y 0.000000 3.667200 0.000000 
#    z 0.000000 0.000000 3.463750 
# 
# 
# High freq. dielectric constant tensor:
#      x y z
#    x 1.839180 0.000000 0.000000 
#    y 0.000000 1.794440 0.000000 
#    z 0.000000 0.000000 1.787920 
# 
# From -- ./inp_files/16547.got.cif
#   From: 2010.03.12/outbox.cif.g09.slc.cpg/sg51_9_cif.got.tgz:16547.got - 2010.04.16 13:43:02.
