data_PCOD8210291
_publ_section_title
;
Structure prediction by ZEFSAII (Michael W. Deem and Ramdas Pophale) SiO2 
 PCOD8210291
Probable space group: P M M A
;
_chemical_formula_sum "Si O2"
_cell_formula_units_Z 56
_cell_length_a 8.953397
_cell_length_b 22.396443
_cell_length_c 14.630230
_cell_angle_alpha 90.000000
_cell_angle_beta 90.000000
_cell_angle_gamma 90.000000
_cell_volume 2933.715833
_symmetry_space_group_name_H-M "P M M A"
_symmetry_group_IT_number 51
_symmetry_cell_setting 'orthorhombic'
loop_
_space_group_symop_operation_xyz
x,y,z
1/2-x,-y,z
1/2+x,-y,-z
-x,y,-z
-x,-y,-z
1/2+x,y,-z
1/2-x,y,z
x,-y,z
loop_
_atom_site_type_symbol
_atom_site_label
_atom_site_fract_x
_atom_site_fract_y
_atom_site_fract_z
Si Si1 0.574015 0.898097 0.590810
Si Si2 0.913516 0.772807 0.653289
Si Si3 0.424336 0.662671 0.714660
Si Si4 0.083372 0.173852 0.146725
Si Si5 0.075346 0.568991 0.406268
Si Si6 0.926146 0.711335 0.088896
Si Si7 0.921584 0.932426 0.223944
O O1 0.500000 0.926050 0.500000
O O2 0.750000 0.911401 0.593293
O O3 0.540612 0.826687 0.586656
O O4 0.499835 0.928995 0.677775
O O5 0.750000 0.746466 0.627738
O O6 0.905165 0.802817 0.751383
O O7 0.032861 0.719262 0.650987
O O8 0.250000 0.651056 0.705349
O O9 0.511123 0.604494 0.680391
O O10 0.471844 0.675129 0.819687
O O11 0.250000 0.167049 0.104651
O O12 0.987833 0.221131 0.089220
O O13 0.000929 0.109800 0.148686
O O14 0.250000 0.580541 0.414798
O O15 0.036998 0.500000 0.388852
O O16 0.000000 0.591580 0.500000
O O17 0.750000 0.713087 0.077828
O O18 0.000000 0.679297 0.000000
O O19 0.750000 0.912058 0.234876
O O20 0.933611 0.000000 0.187500
#
# Coordination Sequence:
#
# PCOD8210291 Si02
#       7
#     8   8   8   8   8   8   8
#     4  10  20  32  46  64  89 123 162 208 262 316
#     4   8  16  30  46  66  93 125 161 202 250 305
#     4  10  20  33  53  81 111 143 178 220 267 314
#     4   9  17  31  51  73  98 128 162 203 251 303
#     4  10  21  37  57  80 108 145 187 229 270 312
#     4  10  20  34  55  84 115 145 177 215 263 319
#     4  10  20  33  49  68  91 123 164 209 257 312
#
# _framework density 19.088419999999999
#
# number of rings (size 3 to 8) (size 9 to 14) (size 15 to 20)
#    0.000    2.429    0.000    3.429    0.000    8.571 
#    0.000    1.429    0.000    0.857    0.000    0.000 
#    0.000    0.000    0.000    0.000    0.000    0.000 
#
# Total GULP energy -694264.883981 kJ/mol
# GULP energy per Si atom -12397.587214 kJ/mol
# Density = 1.904497 g / cm^3
# Si number density = 19.088420 Si / 1000 Ang^3
#
#
#
# Elastic Constant Matrix: (Units=GPa)
#
#
# Indices 1 2 3 4 5 6 
#
# 1 118.8761 48.9175 42.7502 0.0000 0.0000 0.0000
# 2 48.9175 86.2590 35.7133 0.0000 0.0000 0.0000
# 3 42.7502 35.7133 74.6856 0.0000 0.0000 0.0000
# 4 0.0000 0.0000 0.0000 17.5354 0.0000 0.0000
# 5 0.0000 0.0000 0.0000 0.0000 29.2767 0.0000
# 6 0.0000 0.0000 0.0000 0.0000 0.0000 31.4002
#
#
#
# Elastic Compliance Matrix: (Units=1/GPa)
#
#
# Indices 1 2 3 4 5 6 
#
# 1 0.012094 -0.004978 -0.004542 0.000000 0.000000 0.000000
# 2 -0.004978 0.016504 -0.005042 0.000000 0.000000 0.000000
# 3 -0.004542 -0.005042 0.018401 0.000000 0.000000 0.000000
# 4 0.000000 0.000000 0.000000 0.057028 0.000000 0.000000
# 5 0.000000 0.000000 0.000000 0.000000 0.034157 0.000000
# 6 0.000000 0.000000 0.000000 0.000000 0.000000 0.031847
#
#
# Mechanical properties :
#
#
# Convention : Reuss Voigt Hill
#
# Bulk Modulus (GPa) = 55.94982 59.39807 57.67394
# Shear Modulus (GPa) = 24.37685 25.80510 25.09098
#
# Velocity S-wave (km/s) = 3.57746 3.68077 3.62948
# Velocity P-wave (km/s) = 6.81460 7.01776 6.91693
#
# Compressibility (1/GPa) = 0.01787316
#
# Stress axis : x y z
#
# Youngs Moduli (GPa) = 82.68547 60.59272 54.34586
#
# Poissons Ratio (x) = 0.30162 0.24686
# Poissons Ratio (y) = 0.41160 0.27403
# Poissons Ratio (z) = 0.37558 0.30553
#
# Static dielectric constant tensor:
#      x y z
#    x 3.641890 0.000000 0.000000 
#    y 0.000000 3.403190 0.000000 
#    z 0.000000 0.000000 3.404880 
# 
# 
# High freq. dielectric constant tensor:
#      x y z
#    x 1.757500 0.000000 0.000000 
#    y 0.000000 1.721460 0.000000 
#    z 0.000000 0.000000 1.724100 
# 
# From -- ./inp_files/21711.got.cif
#   From: 2010.03.12/outbox.cif.g09.slc.cpg/sg51_11_cif.got.tgz:21711.got - 2010.04.16 13:43:02.
