data_PCOD8210085
_publ_section_title
;
Structure prediction by ZEFSAII (Michael W. Deem and Ramdas Pophale) SiO2 
 PCOD8210085
Probable space group: P M M A
;
_chemical_formula_sum "Si O2"
_cell_formula_units_Z 64
_cell_length_a 30.393676
_cell_length_b 9.008949
_cell_length_c 11.814294
_cell_angle_alpha 90.000000
_cell_angle_beta 90.000000
_cell_angle_gamma 90.000000
_cell_volume 3234.931821
_symmetry_space_group_name_H-M "P M M A"
_symmetry_group_IT_number 51
_symmetry_cell_setting 'orthorhombic'
loop_
_space_group_symop_operation_xyz
x,y,z
1/2-x,-y,z
1/2+x,-y,-z
-x,y,-z
-x,-y,-z
1/2+x,y,-z
1/2-x,y,z
x,-y,z
loop_
_atom_site_type_symbol
_atom_site_label
_atom_site_fract_x
_atom_site_fract_y
_atom_site_fract_z
Si Si1 0.301059 0.670826 0.754368
Si Si2 0.199984 0.169728 0.223843
Si Si3 0.952873 0.173804 0.235975
Si Si4 0.126478 0.323507 0.366806
Si Si5 0.826144 0.670429 0.995425
Si Si6 0.459416 0.327992 0.234473
Si Si7 0.071527 0.331954 0.988550
Si Si8 0.871954 0.824502 0.391700
O O1 0.250000 0.690067 0.726571
O O2 0.316194 0.500000 0.740699
O O3 0.327041 0.773010 0.666954
O O4 0.311227 0.725694 0.881231
O O5 0.250000 0.182096 0.267163
O O6 0.170444 0.267530 0.306560
O O7 0.198083 0.228422 0.095724
O O8 0.183636 0.000000 0.226665
O O9 0.912866 0.226192 0.314689
O O10 0.997833 0.245040 0.282640
O O11 0.958887 0.000000 0.239973
O O12 0.943171 0.220316 0.107906
O O13 0.128889 0.500000 0.373210
O O14 0.084175 0.268037 0.296236
O O15 0.122634 0.256319 0.490208
O O16 0.811861 0.500000 0.976609
O O17 0.877932 0.690503 0.979225
O O18 0.465181 0.500000 0.261173
O O19 0.456685 0.298001 0.100245
O O20 0.063166 0.500000 0.945836
O O21 0.870326 0.000000 0.410182
#
# Coordination Sequence:
#
# PCOD8210085 Si02
#       8
#     8   8   8   8   8   8   8   8
#     4  10  21  38  63  93 121 156 203 250 297 351
#     4  11  24  40  61  92 128 163 197 240 301 364
#     4  11  24  39  59  90 124 160 199 240 296 363
#     4  11  24  44  67  89 114 154 208 256 300 352
#     4  10  19  36  63  92 124 160 201 249 297 351
#     4  10  22  40  62  90 120 154 197 247 303 355
#     4  10  19  36  62  90 122 157 196 246 299 351
#     4  11  25  43  61  86 121 160 201 248 304 360
#
# _framework density 19.784034999999999
#
# number of rings (size 3 to 8) (size 9 to 14) (size 15 to 20)
#    0.000    1.500    2.500    2.250    0.000    8.250 
#    0.000    2.500    0.000    0.000    0.000    0.000 
#    0.000    0.000    0.000    0.000    0.000    0.000 
#
# Total GULP energy -793968.027641 kJ/mol
# GULP energy per Si atom -12405.750432 kJ/mol
# Density = 1.973901 g / cm^3
# Si number density = 19.784035 Si / 1000 Ang^3
#
#
#
# Elastic Constant Matrix: (Units=GPa)
#
#
# Indices 1 2 3 4 5 6 
#
# 1 91.0522 40.6445 43.6892 0.0000 0.0000 0.0000
# 2 40.6445 74.1552 49.1296 0.0000 0.0000 0.0000
# 3 43.6892 49.1296 104.2939 0.0000 0.0000 0.0000
# 4 0.0000 0.0000 0.0000 26.1282 0.0000 0.0000
# 5 0.0000 0.0000 0.0000 0.0000 11.1566 0.0000
# 6 0.0000 0.0000 0.0000 0.0000 0.0000 32.3619
#
#
#
# Elastic Compliance Matrix: (Units=1/GPa)
#
#
# Indices 1 2 3 4 5 6 
#
# 1 0.015418 -0.006064 -0.003602 0.000000 0.000000 0.000000
# 2 -0.006064 0.021988 -0.007818 0.000000 0.000000 0.000000
# 3 -0.003602 -0.007818 0.014780 0.000000 0.000000 0.000000
# 4 0.000000 0.000000 0.000000 0.038273 0.000000 0.000000
# 5 0.000000 0.000000 0.000000 0.000000 0.089633 0.000000
# 6 0.000000 0.000000 0.000000 0.000000 0.000000 0.030901
#
#
# Mechanical properties :
#
#
# Convention : Reuss Voigt Hill
#
# Bulk Modulus (GPa) = 58.07731 59.60308 58.84019
# Shear Modulus (GPa) = 19.86490 22.99854 21.43172
#
# Velocity S-wave (km/s) = 3.17217 3.41321 3.29490
# Velocity P-wave (km/s) = 6.54494 6.76207 6.65439
#
# Compressibility (1/GPa) = 0.01721843
#
# Stress axis : x y z
#
# Youngs Moduli (GPa) = 64.85908 45.47835 67.65943
#
# Poissons Ratio (x) = 0.27579 0.24371
# Poissons Ratio (y) = 0.39332 0.52895
# Poissons Ratio (z) = 0.23362 0.35554
#
# Static dielectric constant tensor:
#      x y z
#    x 3.760340 0.000000 0.000000 
#    y 0.000000 3.549500 0.000000 
#    z 0.000000 0.000000 3.545080 
# 
# 
# High freq. dielectric constant tensor:
#      x y z
#    x 1.787600 0.000000 0.000000 
#    y 0.000000 1.767810 0.000000 
#    z 0.000000 0.000000 1.768400 
# 
# From -- ./inp_files/19579.got.cif
#   From: 2010.03.12/outbox.cif.g09.slc.cpg/sg51_10_cif.got.tgz:19579.got - 2010.04.16 13:43:02.
