data_PCOD8210436
_publ_section_title
;
Structure prediction by ZEFSAII (Michael W. Deem and Ramdas Pophale) SiO2 
 PCOD8210436
Probable space group: P M M A
;
_chemical_formula_sum "Si O2"
_cell_formula_units_Z 64
_cell_length_a 14.250060
_cell_length_b 8.909115
_cell_length_c 28.009486
_cell_angle_alpha 90.000000
_cell_angle_beta 90.000000
_cell_angle_gamma 90.000000
_cell_volume 3555.956151
_symmetry_space_group_name_H-M "P M M A"
_symmetry_group_IT_number 51
_symmetry_cell_setting 'orthorhombic'
loop_
_space_group_symop_operation_xyz
x,y,z
1/2-x,-y,z
1/2+x,-y,-z
-x,y,-z
-x,-y,-z
1/2+x,y,-z
1/2-x,y,z
x,-y,z
loop_
_atom_site_type_symbol
_atom_site_label
_atom_site_fract_x
_atom_site_fract_y
_atom_site_fract_z
Si Si1 0.855465 0.671762 0.934125
Si Si2 0.033650 0.822354 0.614359
Si Si3 0.142518 0.174745 0.798409
Si Si4 0.354006 0.671133 0.424753
Si Si5 0.140052 0.171068 0.968708
Si Si6 0.539355 0.327123 0.116485
Si Si7 0.894474 0.163603 0.484134
Si Si8 0.356985 0.676755 0.699333
O O1 0.750000 0.710067 0.916250
O O2 0.861371 0.500000 0.952093
O O3 0.927412 0.697751 0.890382
O O4 0.885187 0.778360 0.977787
O O5 0.102347 0.774988 0.570396
O O6 0.072644 0.749085 0.661884
O O7 0.926907 0.768977 0.605507
O O8 0.031230 0.000000 0.620012
O O9 0.250000 0.209433 0.813249
O O10 0.073901 0.224387 0.840448
O O11 0.114049 0.264961 0.751276
O O12 0.127997 0.000000 0.788186
O O13 0.250000 0.687583 0.401968
O O14 0.388605 0.500000 0.423924
O O15 0.344686 0.721335 0.480244
O O16 0.250000 0.185665 0.959256
O O17 0.089368 0.280871 0.932252
O O18 0.106075 0.000000 0.961503
O O19 0.563164 0.500000 0.127762
O O20 0.000000 0.140791 0.500000
O O21 0.844218 0.000000 0.486148
O O22 0.250000 0.724384 0.687617
O O23 0.369772 0.500000 0.698121
#
# Coordination Sequence:
#
# PCOD8210436 Si02
#       8
#     8   8   8   8   8   8   8   8
#     4   9  19  35  51  69  98 135 172 208 246 290
#     4  10  20  34  53  76 103 137 175 213 254 304
#     4  10  21  37  56  78 104 131 160 199 249 304
#     4  10  20  32  48  73 105 140 177 217 259 301
#     4  10  20  32  47  71 103 136 169 206 248 294
#     4  11  21  32  51  76 100 131 169 207 250 298
#     4   8  16  30  46  67  96 131 170 209 250 296
#     4  10  21  37  57  80 105 132 163 204 255 307
#
# _framework density 17.997973000000002
#
# number of rings (size 3 to 8) (size 9 to 14) (size 15 to 20)
#    0.000    2.250    0.000    3.750    0.000   10.500 
#    0.000    2.500    0.000    0.750    0.000    1.750 
#    0.000    0.000    0.000    0.000    0.000    0.000 
#
# Total GULP energy -793524.631892 kJ/mol
# GULP energy per Si atom -12398.822373 kJ/mol
# Density = 1.795701 g / cm^3
# Si number density = 17.997973 Si / 1000 Ang^3
#
#
#
# Elastic Constant Matrix: (Units=GPa)
#
#
# Indices 1 2 3 4 5 6 
#
# 1 78.2432 35.6752 57.1986 0.0000 0.0000 0.0000
# 2 35.6752 75.6257 32.2423 0.0000 0.0000 0.0000
# 3 57.1986 32.2423 89.4249 0.0000 0.0000 0.0000
# 4 0.0000 0.0000 0.0000 33.6455 0.0000 0.0000
# 5 0.0000 0.0000 0.0000 0.0000 24.9565 0.0000
# 6 0.0000 0.0000 0.0000 0.0000 0.0000 -42.3928
#
#
#
# Elastic Compliance Matrix: (Units=1/GPa)
#
#
# Indices 1 2 3 4 5 6 
#
# 1 0.026235 -0.006170 -0.014556 0.000000 0.000000 0.000000
# 2 -0.006170 0.017076 -0.002210 0.000000 0.000000 0.000000
# 3 -0.014556 -0.002210 0.021290 0.000000 0.000000 0.000000
# 4 0.000000 0.000000 0.000000 0.029722 0.000000 0.000000
# 5 0.000000 0.000000 0.000000 0.000000 0.040070 0.000000
# 6 0.000000 0.000000 0.000000 0.000000 0.000000 -0.023589
#
#
# Mechanical properties :
#
#
# Convention : Reuss Voigt Hill
#
# Bulk Modulus (GPa) = 53.39532 54.83623 54.11578
# Shear Modulus (GPa) = 30.69030 11.12036 20.90533
#
# Velocity S-wave (km/s) = 4.13390 2.48839 3.41183
# Velocity P-wave (km/s) = 7.24688 6.22818 6.75676
#
# Compressibility (1/GPa) = 0.01872823
#
# Stress axis : x y z
#
# Youngs Moduli (GPa) = 38.11739 58.56188 46.97092
#
# Poissons Ratio (x) = 0.36133 0.68370
# Poissons Ratio (y) = 0.23519 0.10382
# Poissons Ratio (z) = 0.55483 0.12943
#
# Static dielectric constant tensor:
#      x y z
#    x 3.372050 0.000000 0.000000 
#    y 0.000000 3.440600 0.000000 
#    z 0.000000 0.000000 3.261300 
# 
# 
# High freq. dielectric constant tensor:
#      x y z
#    x 1.693180 0.000000 0.000000 
#    y 0.000000 1.709470 0.000000 
#    z 0.000000 0.000000 1.674330 
# 
# From -- ./inp_files/35703.got.cif
#   From: 2010.03.12/outbox.cif.g09.slc.cpg/sg51_18_cif.got.tgz:35703.got - 2010.04.16 13:43:02.
