data_PCOD8210001
_publ_section_title
;
Structure prediction by ZEFSAII (Michael W. Deem and Ramdas Pophale) SiO2 
 PCOD8210001
Probable space group: P M M A
;
_chemical_formula_sum "Si O2"
_cell_formula_units_Z 40
_cell_length_a 16.652163
_cell_length_b 11.600047
_cell_length_c 9.623881
_cell_angle_alpha 90.000000
_cell_angle_beta 90.000000
_cell_angle_gamma 90.000000
_cell_volume 1859.005379
_symmetry_space_group_name_H-M "P M M A"
_symmetry_group_IT_number 51
_symmetry_cell_setting 'orthorhombic'
loop_
_space_group_symop_operation_xyz
x,y,z
1/2-x,-y,z
1/2+x,-y,-z
-x,y,-z
-x,-y,-z
1/2+x,y,-z
1/2-x,y,z
x,-y,z
loop_
_atom_site_type_symbol
_atom_site_label
_atom_site_fract_x
_atom_site_fract_y
_atom_site_fract_z
Si Si1 0.561264 0.778967 0.891805
Si Si2 0.123243 0.000000 0.502181
Si Si3 0.836813 0.238563 0.403360
Si Si4 0.345149 0.869744 0.865965
Si Si5 0.844612 0.635130 0.666219
Si Si6 0.488202 0.000000 0.264986
O O1 0.598863 0.691764 0.782057
O O2 0.507962 0.882964 0.827172
O O3 0.500000 0.715734 0.000000
O O4 0.635851 0.829583 0.979433
O O5 0.175528 0.113703 0.526452
O O6 0.098553 0.000000 0.340145
O O7 0.048966 0.000000 0.607566
O O8 0.750000 0.294624 0.375456
O O9 0.879903 0.219118 0.252998
O O10 0.879629 0.322449 0.515695
O O11 0.250000 0.877567 0.848086
O O12 0.381379 0.000000 0.837572
O O13 0.750000 0.668876 0.683772
O O14 0.856613 0.500000 0.678540
#
# Coordination Sequence:
#
# PCOD8210001 Si02
#       6
#     8   4   8   8   8   4
#     4  12  23  38  58  90 126 163 198 240 303 372
#     4  11  19  34  55  87 122 154 193 240 295 355
#     4  10  19  35  60  87 114 151 195 249 303 354
#     4  10  20  34  56  89 128 158 191 241 299 363
#     4  10  23  44  65  84 112 155 211 264 302 345
#     4  11  23  34  55  85 129 165 188 232 298 366
#
# _framework density 21.516881999999999
#
# number of rings (size 3 to 8) (size 9 to 14) (size 15 to 20)
#    0.000    1.400    4.000    2.400    0.000    0.400 
#    0.000    1.000    0.000   12.000    0.000    0.000 
#    0.000    0.000    0.000    0.000    0.000    0.000 
#
# Total GULP energy -495612.446033 kJ/mol
# GULP energy per Si atom -12390.311151 kJ/mol
# Density = 2.146791 g / cm^3
# Si number density = 21.516882 Si / 1000 Ang^3
#
#
#
# Elastic Constant Matrix: (Units=GPa)
#
#
# Indices 1 2 3 4 5 6 
#
# 1 55.2296 33.1434 40.0513 0.0000 0.0000 0.0000
# 2 33.1434 107.4251 60.1725 0.0000 0.0000 0.0000
# 3 40.0513 60.1725 155.9415 0.0000 0.0000 0.0000
# 4 0.0000 0.0000 0.0000 17.3872 0.0000 0.0000
# 5 0.0000 0.0000 0.0000 0.0000 35.4627 0.0000
# 6 0.0000 0.0000 0.0000 0.0000 0.0000 24.7279
#
#
#
# Elastic Compliance Matrix: (Units=1/GPa)
#
#
# Indices 1 2 3 4 5 6 
#
# 1 0.024256 -0.005095 -0.004264 0.000000 0.000000 0.000000
# 2 -0.005095 0.012946 -0.003687 0.000000 0.000000 0.000000
# 3 -0.004264 -0.003687 0.008930 0.000000 0.000000 0.000000
# 4 0.000000 0.000000 0.000000 0.057514 0.000000 0.000000
# 5 0.000000 0.000000 0.000000 0.000000 0.028199 0.000000
# 6 0.000000 0.000000 0.000000 0.000000 0.000000 0.040440
#
#
# Mechanical properties :
#
#
# Convention : Reuss Voigt Hill
#
# Bulk Modulus (GPa) = 49.89858 65.03676 57.46767
# Shear Modulus (GPa) = 24.38357 27.86415 26.12386
#
# Velocity S-wave (km/s) = 3.37000 3.60250 3.48819
# Velocity P-wave (km/s) = 6.19543 6.89895 6.55663
#
# Compressibility (1/GPa) = 0.02004065
#
# Stress axis : x y z
#
# Youngs Moduli (GPa) = 41.22711 77.24445 111.97826
#
# Poissons Ratio (x) = 0.39359 0.47744
# Poissons Ratio (y) = 0.21007 0.41283
# Poissons Ratio (z) = 0.17578 0.28478
#
# Static dielectric constant tensor:
#      x y z
#    x 3.895940 0.000000 0.000000 
#    y 0.000000 3.516910 0.000000 
#    z 0.000000 0.000000 4.223470 
# 
# 
# High freq. dielectric constant tensor:
#      x y z
#    x 1.852930 0.000000 0.000000 
#    y 0.000000 1.797730 0.000000 
#    z 0.000000 0.000000 1.865730 
# 
# From -- ./inp_files/10683.got.cif
#   From: 2010.03.12/outbox.cif.g09.slc.cpg/sg51_6_cif.got.tgz:10683.got - 2010.04.16 13:43:02.
