data_PCOD8210885
_publ_section_title
;
Structure prediction by ZEFSAII (Michael W. Deem and Ramdas Pophale) SiO2 
 PCOD8210885
Probable space group: P M M A
;
_chemical_formula_sum "Si O2"
_cell_formula_units_Z 48
_cell_length_a 8.785507
_cell_length_b 14.074318
_cell_length_c 19.522233
_cell_angle_alpha 90.000000
_cell_angle_beta 90.000000
_cell_angle_gamma 90.000000
_cell_volume 2413.924487
_symmetry_space_group_name_H-M "P M M A"
_symmetry_group_IT_number 51
_symmetry_cell_setting 'orthorhombic'
loop_
_space_group_symop_operation_xyz
x,y,z
1/2-x,-y,z
1/2+x,-y,-z
-x,y,-z
-x,-y,-z
1/2+x,y,-z
1/2-x,y,z
x,-y,z
loop_
_atom_site_type_symbol
_atom_site_label
_atom_site_fract_x
_atom_site_fract_y
_atom_site_fract_z
Si Si1 0.073444 0.736533 0.803922
Si Si2 0.918900 0.612304 0.433937
Si Si3 0.919530 0.388361 0.700975
Si Si4 0.929677 0.891424 0.711908
Si Si5 0.575103 0.888093 0.430159
Si Si6 0.069613 0.392442 0.927339
O O1 0.250000 0.763064 0.807758
O O2 0.014274 0.691171 0.875660
O O3 0.045823 0.651060 0.751643
O O4 0.983624 0.829764 0.777742
O O5 0.750000 0.656405 0.425277
O O6 0.904813 0.500000 0.439277
O O7 0.000000 0.655948 0.500000
O O8 0.029157 0.644314 0.373646
O O9 0.750000 0.346901 0.715164
O O10 0.918513 0.500000 0.708451
O O11 0.750000 0.884930 0.705829
O O12 0.998547 0.850147 0.640517
O O13 0.983045 0.000000 0.724522
O O14 0.500000 0.846060 0.500000
O O15 0.750000 0.857086 0.429253
O O16 0.553012 0.000000 0.430809
O O17 0.250000 0.391073 0.932323
O O18 0.016174 0.500000 0.905564
O O19 0.000000 0.364823 0.000000
#
# Coordination Sequence:
#
# PCOD8210885 Si02
#       6
#     8   8   8   8   8   8
#     4  11  22  36  56  82 112 144 179 221 270 325
#     4   9  16  27  44  65  92 130 175 220 265 314
#     4  10  20  33  50  74 104 138 176 217 263 317
#     4  10  21  37  56  79 109 146 189 236 284 334
#     4   9  16  28  49  76 105 139 181 230 285 341
#     4   9  19  36  59  88 120 151 181 215 260 317
#
# _framework density 19.884630999999999
#
# number of rings (size 3 to 8) (size 9 to 14) (size 15 to 20)
#    0.000    2.333    0.000    3.000    0.000    8.000 
#    0.000    2.500    0.000    0.500    0.000    0.000 
#    0.000    0.000    0.000    0.000    0.000    0.000 
#
# Total GULP energy -594843.938170 kJ/mol
# GULP energy per Si atom -12392.582045 kJ/mol
# Density = 1.983937 g / cm^3
# Si number density = 19.884631 Si / 1000 Ang^3
#
#
#
# Elastic Constant Matrix: (Units=GPa)
#
#
# Indices 1 2 3 4 5 6 
#
# 1 48.1998 33.4149 9.2606 0.0000 0.0000 0.0000
# 2 33.4149 84.0504 66.4585 0.0000 0.0000 0.0000
# 3 9.2606 66.4585 113.9166 0.0000 0.0000 0.0000
# 4 0.0000 0.0000 0.0000 49.4387 0.0000 0.0000
# 5 0.0000 0.0000 0.0000 0.0000 53.1441 0.0000
# 6 0.0000 0.0000 0.0000 0.0000 0.0000 17.1423
#
#
#
# Elastic Compliance Matrix: (Units=1/GPa)
#
#
# Indices 1 2 3 4 5 6 
#
# 1 0.033204 -0.020542 0.009285 0.000000 0.000000 0.000000
# 2 -0.020542 0.034794 -0.018629 0.000000 0.000000 0.000000
# 3 0.009285 -0.018629 0.018892 0.000000 0.000000 0.000000
# 4 0.000000 0.000000 0.000000 0.020227 0.000000 0.000000
# 5 0.000000 0.000000 0.000000 0.000000 0.018817 0.000000
# 6 0.000000 0.000000 0.000000 0.000000 0.000000 0.058335
#
#
# Mechanical properties :
#
#
# Convention : Reuss Voigt Hill
#
# Bulk Modulus (GPa) = 36.87629 51.60388 44.24008
# Shear Modulus (GPa) = 19.75661 33.08054 26.41857
#
# Velocity S-wave (km/s) = 3.15550 4.08318 3.64894
# Velocity P-wave (km/s) = 5.64461 6.94534 6.32848
#
# Compressibility (1/GPa) = 0.02711769
#
# Stress axis : x y z
#
# Youngs Moduli (GPa) = 30.11678 28.74051 52.93378
#
# Poissons Ratio (x) = 0.59039 -0.49149
# Poissons Ratio (y) = 0.61866 0.98609
# Poissons Ratio (z) = -0.27963 0.53540
#
# Static dielectric constant tensor:
#      x y z
#    x 3.725560 0.000000 0.000000 
#    y 0.000000 3.568220 0.000000 
#    z 0.000000 0.000000 3.090790 
# 
# 
# High freq. dielectric constant tensor:
#      x y z
#    x 1.782800 0.000000 0.000000 
#    y 0.000000 1.768870 0.000000 
#    z 0.000000 0.000000 1.759030 
# 
# From -- ./inp_files/31620.got.cif
#   From: 2010.03.12/outbox.cif.g09.slc.cpg/sg51_16_cif.got.tgz:31620.got - 2010.04.16 13:43:02.
