data_PCOD8210215
_publ_section_title
;
Structure prediction by ZEFSAII (Michael W. Deem and Ramdas Pophale) SiO2 
 PCOD8210215
Probable space group: P M M A
;
_chemical_formula_sum "Si O2"
_cell_formula_units_Z 64
_cell_length_a 22.794419
_cell_length_b 9.387812
_cell_length_c 17.831656
_cell_angle_alpha 90.000000
_cell_angle_beta 90.000000
_cell_angle_gamma 90.000000
_cell_volume 3815.791079
_symmetry_space_group_name_H-M "P M M A"
_symmetry_group_IT_number 51
_symmetry_cell_setting 'orthorhombic'
loop_
_space_group_symop_operation_xyz
x,y,z
1/2-x,-y,z
1/2+x,-y,-z
-x,y,-z
-x,-y,-z
1/2+x,y,-z
1/2-x,y,z
x,-y,z
loop_
_atom_site_type_symbol
_atom_site_label
_atom_site_fract_x
_atom_site_fract_y
_atom_site_fract_z
Si Si1 0.817483 0.662472 0.991075
Si Si2 0.390110 0.168954 0.127368
Si Si3 0.819593 0.660562 0.587527
Si Si4 0.319695 0.659857 0.577301
Si Si5 0.499969 0.664682 0.913125
Si Si6 0.318465 0.166586 0.718668
Si Si7 0.182724 0.166439 0.272442
Si Si8 0.628801 0.337494 0.147390
O O1 0.750000 0.689167 0.971247
O O2 0.836546 0.500000 0.972240
O O3 0.827271 0.692107 0.078751
O O4 0.856428 0.771264 0.944556
O O5 0.454344 0.237735 0.132022
O O6 0.354961 0.215138 0.201372
O O7 0.395107 0.000000 0.119593
O O8 0.750000 0.670900 0.587901
O O9 0.840379 0.500000 0.603610
O O10 0.842754 0.709200 0.505122
O O11 0.844609 0.759830 0.653551
O O12 0.250000 0.660424 0.575927
O O13 0.342238 0.500000 0.594853
O O14 0.342709 0.766714 0.641058
O O15 0.518232 0.500000 0.904844
O O16 0.436898 0.695468 0.878360
O O17 0.500000 0.709580 0.000000
O O18 0.250000 0.201979 0.730203
O O19 0.355105 0.232043 0.786184
O O20 0.330498 0.000000 0.715486
O O21 0.250000 0.213183 0.257861
O O22 0.178157 0.000000 0.286412
O O23 0.635357 0.500000 0.175363
#
# Coordination Sequence:
#
# PCOD8210215 Si02
#       8
#     8   8   8   8   8   8   8   8
#     4  10  20  34  52  72  95 127 165 200 240 292
#     4  11  22  34  50  72 100 130 162 201 248 296
#     4   8  14  25  43  68  95 125 163 202 235 273
#     4   8  14  26  44  66  95 130 164 196 233 280
#     4  10  20  38  58  72  90 119 164 215 252 290
#     4  10  20  31  45  71 105 134 161 196 237 287
#     4   9  18  31  45  66 100 136 163 191 234 289
#     4  10  20  35  54  71  91 124 163 205 249 289
#
# _framework density 16.772407000000001
#
# number of rings (size 3 to 8) (size 9 to 14) (size 15 to 20)
#    0.000    2.500    1.250    2.250    0.000    4.750 
#    0.000    3.750    0.000    0.000    0.000    0.875 
#    0.000    7.000    0.000    0.000    0.000    0.000 
#
# Total GULP energy -793533.117890 kJ/mol
# GULP energy per Si atom -12398.954967 kJ/mol
# Density = 1.673423 g / cm^3
# Si number density = 16.772407 Si / 1000 Ang^3
#
#
#
# Elastic Constant Matrix: (Units=GPa)
#
#
# Indices 1 2 3 4 5 6 
#
# 1 53.7875 34.5763 34.7019 0.0000 0.0000 0.0000
# 2 34.5763 78.9897 63.3962 0.0000 0.0000 0.0000
# 3 34.7019 63.3962 119.5009 0.0000 0.0000 0.0000
# 4 0.0000 0.0000 0.0000 28.1611 0.0000 0.0000
# 5 0.0000 0.0000 0.0000 0.0000 7.7007 0.0000
# 6 0.0000 0.0000 0.0000 0.0000 0.0000 24.0104
#
#
#
# Elastic Compliance Matrix: (Units=1/GPa)
#
#
# Indices 1 2 3 4 5 6 
#
# 1 0.026352 -0.009392 -0.002670 0.000000 0.000000 0.000000
# 2 -0.009392 0.025395 -0.010745 0.000000 0.000000 0.000000
# 3 -0.002670 -0.010745 0.014843 0.000000 0.000000 0.000000
# 4 0.000000 0.000000 0.000000 0.035510 0.000000 0.000000
# 5 0.000000 0.000000 0.000000 0.000000 0.129859 0.000000
# 6 0.000000 0.000000 0.000000 0.000000 0.000000 0.041649
#
#
# Mechanical properties :
#
#
# Convention : Reuss Voigt Hill
#
# Bulk Modulus (GPa) = 47.67189 57.51408 52.59299
# Shear Modulus (GPa) = 15.32741 19.94802 17.63772
#
# Velocity S-wave (km/s) = 3.02627 3.45242 3.24634
# Velocity P-wave (km/s) = 6.37931 7.08926 6.74363
#
# Compressibility (1/GPa) = 0.02097672
#
# Stress axis : x y z
#
# Youngs Moduli (GPa) = 37.94818 39.37817 67.36969
#
# Poissons Ratio (x) = 0.36986 0.17985
# Poissons Ratio (y) = 0.35643 0.72386
# Poissons Ratio (z) = 0.10130 0.42310
#
# Static dielectric constant tensor:
#      x y z
#    x 2.915500 0.000000 0.000000 
#    y 0.000000 3.161500 0.000000 
#    z 0.000000 0.000000 3.393390 
# 
# 
# High freq. dielectric constant tensor:
#      x y z
#    x 1.609330 0.000000 0.000000 
#    y 0.000000 1.646900 0.000000 
#    z 0.000000 0.000000 1.652700 
# 
# From -- ./inp_files/30924.got.cif
#   From: 2010.03.12/outbox.cif.g09.slc.cpg/sg51_16_cif.got.tgz:30924.got - 2010.04.16 13:43:02.
