data_PCOD8210892
_publ_section_title
;
Structure prediction by ZEFSAII (Michael W. Deem and Ramdas Pophale) SiO2 
 PCOD8210892
Probable space group: P M M A
;
_chemical_formula_sum "Si O2"
_cell_formula_units_Z 64
_cell_length_a 8.957182
_cell_length_b 27.988766
_cell_length_c 13.772142
_cell_angle_alpha 90.000000
_cell_angle_beta 90.000000
_cell_angle_gamma 90.000000
_cell_volume 3452.682486
_symmetry_space_group_name_H-M "P M M A"
_symmetry_group_IT_number 51
_symmetry_cell_setting 'orthorhombic'
loop_
_space_group_symop_operation_xyz
x,y,z
1/2-x,-y,z
1/2+x,-y,-z
-x,y,-z
-x,-y,-z
1/2+x,y,-z
1/2-x,y,z
x,-y,z
loop_
_atom_site_type_symbol
_atom_site_label
_atom_site_fract_x
_atom_site_fract_y
_atom_site_fract_z
Si Si1 0.575822 0.683392 0.896216
Si Si2 0.576126 0.145054 0.101086
Si Si3 0.575713 0.222808 0.774321
Si Si4 0.583576 0.056874 0.593513
Si Si5 0.575685 0.631540 0.273793
Si Si6 0.575306 0.274888 0.395965
Si Si7 0.422606 0.555755 0.399703
Si Si8 0.077895 0.946639 0.785971
O O1 0.750000 0.671970 0.905718
O O2 0.546911 0.735524 0.852012
O O3 0.500704 0.643647 0.828358
O O4 0.500000 0.681162 0.000000
O O5 0.750000 0.158024 0.094071
O O6 0.501334 0.175215 0.186363
O O7 0.550195 0.088992 0.124333
O O8 0.500000 0.157819 0.000000
O O9 0.750000 0.213717 0.757227
O O10 0.499874 0.235119 0.672011
O O11 0.500000 0.078579 0.500000
O O12 0.750000 0.077450 0.592600
O O13 0.506877 0.073929 0.692415
O O14 0.581453 0.000000 0.588474
O O15 0.750000 0.623390 0.256111
O O16 0.544822 0.672977 0.351813
O O17 0.501709 0.583085 0.311982
O O18 0.500000 0.272323 0.500000
O O19 0.750000 0.263938 0.404643
O O20 0.500000 0.570626 0.500000
O O21 0.250000 0.570626 0.406508
O O22 0.442702 0.500000 0.378407
O O23 0.250000 0.948247 0.756327
O O24 0.021986 0.000000 0.815385
#
# Coordination Sequence:
#
# PCOD8210892 Si02
#       8
#     8   8   8   8   8   8   8   8
#     4  10  20  34  54  79 106 136 173 218 266 316
#     4  11  23  38  57  79 104 135 171 212 258 308
#     4  10  21  37  57  80 107 139 174 213 258 309
#     4   9  16  27  47  74 101 129 160 196 239 286
#     4  10  20  33  52  78 108 143 182 224 269 318
#     4  10  20  34  54  81 113 146 179 216 261 314
#     4  10  20  33  50  74 106 144 185 228 272 319
#     4   9  19  36  55  76 104 136 170 209 252 299
#
# _framework density 18.536311000000001
#
# number of rings (size 3 to 8) (size 9 to 14) (size 15 to 20)
#    0.000    2.125    0.000    3.375    0.000    8.500 
#    0.000    0.625    0.000    3.375    0.000    0.000 
#    0.000    0.000    0.000    0.000    0.000    0.000 
#
# Total GULP energy -793818.346415 kJ/mol
# GULP energy per Si atom -12403.411663 kJ/mol
# Density = 1.849412 g / cm^3
# Si number density = 18.536311 Si / 1000 Ang^3
#
#
#
# Elastic Constant Matrix: (Units=GPa)
#
#
# Indices 1 2 3 4 5 6 
#
# 1 134.0762 46.3058 71.1221 0.0000 0.0000 0.0000
# 2 46.3058 62.5562 37.9565 0.0000 0.0000 0.0000
# 3 71.1221 37.9565 127.6614 0.0000 0.0000 0.0000
# 4 0.0000 0.0000 0.0000 27.9236 0.0000 0.0000
# 5 0.0000 0.0000 0.0000 0.0000 39.3600 0.0000
# 6 0.0000 0.0000 0.0000 0.0000 0.0000 26.5505
#
#
#
# Elastic Compliance Matrix: (Units=1/GPa)
#
#
# Indices 1 2 3 4 5 6 
#
# 1 0.012179 -0.005977 -0.005008 0.000000 0.000000 0.000000
# 2 -0.005977 0.022437 -0.003341 0.000000 0.000000 0.000000
# 3 -0.005008 -0.003341 0.011617 0.000000 0.000000 0.000000
# 4 0.000000 0.000000 0.000000 0.035812 0.000000 0.000000
# 5 0.000000 0.000000 0.000000 0.000000 0.025407 0.000000
# 6 0.000000 0.000000 0.000000 0.000000 0.000000 0.037664
#
#
# Mechanical properties :
#
#
# Convention : Reuss Voigt Hill
#
# Bulk Modulus (GPa) = 56.88054 70.56253 63.72154
# Shear Modulus (GPa) = 27.83521 30.02745 28.93133
#
# Velocity S-wave (km/s) = 3.87933 4.02920 3.95497
# Velocity P-wave (km/s) = 7.12869 7.73277 7.43687
#
# Compressibility (1/GPa) = 0.01758070
#
# Stress axis : x y z
#
# Youngs Moduli (GPa) = 82.10664 44.56906 86.08170
#
# Poissons Ratio (x) = 0.26637 0.43112
# Poissons Ratio (y) = 0.49072 0.28763
# Poissons Ratio (z) = 0.41121 0.14892
#
# Static dielectric constant tensor:
#      x y z
#    x 3.632120 0.000000 0.000000 
#    y 0.000000 3.268670 0.000000 
#    z 0.000000 0.000000 3.311430 
# 
# 
# High freq. dielectric constant tensor:
#      x y z
#    x 1.737180 0.000000 0.000000 
#    y 0.000000 1.698900 0.000000 
#    z 0.000000 0.000000 1.717620 
# 
# From -- ./inp_files/14861.got.cif
#   From: 2010.03.12/outbox.cif.g09.slc.cpg/sg51_8_cif.got.tgz:14861.got - 2010.04.16 13:43:02.
