data_PCOD8210430
_publ_section_title
;
Structure prediction by ZEFSAII (Michael W. Deem and Ramdas Pophale) SiO2 
 PCOD8210430
Probable space group: P M M A
;
_chemical_formula_sum "Si O2"
_cell_formula_units_Z 64
_cell_length_a 8.866144
_cell_length_b 18.887083
_cell_length_c 23.662127
_cell_angle_alpha 90.000000
_cell_angle_beta 90.000000
_cell_angle_gamma 90.000000
_cell_volume 3962.355618
_symmetry_space_group_name_H-M "P M M A"
_symmetry_group_IT_number 51
_symmetry_cell_setting 'orthorhombic'
loop_
_space_group_symop_operation_xyz
x,y,z
1/2-x,-y,z
1/2+x,-y,-z
-x,y,-z
-x,-y,-z
1/2+x,y,-z
1/2-x,y,z
x,-y,z
loop_
_atom_site_type_symbol
_atom_site_label
_atom_site_fract_x
_atom_site_fract_y
_atom_site_fract_z
Si Si1 0.070602 0.782105 0.440223
Si Si2 0.428944 0.077353 0.381855
Si Si3 0.426229 0.418010 0.059310
Si Si4 0.428153 0.645451 0.832948
Si Si5 0.072320 0.077820 0.254511
Si Si6 0.928003 0.701570 0.339696
Si Si7 0.923598 0.418207 0.726110
Si Si8 0.575924 0.785468 0.228513
O O1 0.250000 0.779645 0.443844
O O2 0.009569 0.859943 0.421670
O O3 0.000000 0.762626 0.500000
O O4 0.013974 0.723831 0.396151
O O5 0.250000 0.080440 0.379870
O O6 0.490771 0.087492 0.318261
O O7 0.481843 0.000000 0.405054
O O8 0.250000 0.400484 0.057262
O O9 0.455546 0.500000 0.073843
O O10 0.506771 0.369855 0.105625
O O11 0.500000 0.397542 0.000000
O O12 0.250000 0.631529 0.830757
O O13 0.505983 0.593955 0.787858
O O14 0.466284 0.727231 0.818575
O O15 0.250000 0.083724 0.254239
O O16 0.008348 0.140757 0.215555
O O17 0.022718 0.000000 0.231623
O O18 0.750000 0.698902 0.350433
O O19 0.971500 0.755837 0.289842
O O20 0.985358 0.624111 0.321808
O O21 0.750000 0.393390 0.727231
O O22 0.937883 0.500000 0.710199
O O23 0.750000 0.803243 0.226891
#
# Coordination Sequence:
#
# PCOD8210430 Si02
#       8
#     8   8   8   8   8   8   8   8
#     4  11  21  33  50  68  90 120 153 192 233 278
#     4   8  15  28  45  65  89 118 152 189 229 274
#     4  10  20  33  49  70  98 135 175 209 241 280
#     4  10  20  32  47  71 102 133 165 203 239 276
#     4   9  16  27  45  67  90 120 157 192 231 282
#     4  10  20  34  50  69  93 119 152 190 232 284
#     4  10  20  33  51  75  99 123 153 190 234 284
#     4   9  18  30  45  67  95 123 154 194 238 279
#
# _framework density 16.152009
#
# number of rings (size 3 to 8) (size 9 to 14) (size 15 to 20)
#    0.000    2.375    1.250    3.750    0.000    6.250 
#    0.000    0.000    0.000    1.500    0.000    0.000 
#    0.000    0.500    0.000    1.625    0.000    2.375 
#
# Total GULP energy -793513.085057 kJ/mol
# GULP energy per Si atom -12398.641954 kJ/mol
# Density = 1.611525 g / cm^3
# Si number density = 16.152009 Si / 1000 Ang^3
#
#
#
# Elastic Constant Matrix: (Units=GPa)
#
#
# Indices 1 2 3 4 5 6 
#
# 1 69.5695 44.0820 34.4106 0.0000 0.0000 0.0000
# 2 44.0820 104.4024 50.8718 0.0000 0.0000 0.0000
# 3 34.4106 50.8718 89.8352 0.0000 0.0000 0.0000
# 4 0.0000 0.0000 0.0000 24.7390 0.0000 0.0000
# 5 0.0000 0.0000 0.0000 0.0000 25.9963 0.0000
# 6 0.0000 0.0000 0.0000 0.0000 0.0000 25.0290
#
#
#
# Elastic Compliance Matrix: (Units=1/GPa)
#
#
# Indices 1 2 3 4 5 6 
#
# 1 0.020667 -0.006724 -0.004108 0.000000 0.000000 0.000000
# 2 -0.006724 0.015416 -0.006154 0.000000 0.000000 0.000000
# 3 -0.004108 -0.006154 0.016190 0.000000 0.000000 0.000000
# 4 0.000000 0.000000 0.000000 0.040422 0.000000 0.000000
# 5 0.000000 0.000000 0.000000 0.000000 0.038467 0.000000
# 6 0.000000 0.000000 0.000000 0.000000 0.000000 0.039954
#
#
# Mechanical properties :
#
#
# Convention : Reuss Voigt Hill
#
# Bulk Modulus (GPa) = 54.64639 58.05955 56.35297
# Shear Modulus (GPa) = 23.67534 24.11572 23.89553
#
# Velocity S-wave (km/s) = 3.83271 3.86819 3.85049
# Velocity P-wave (km/s) = 7.31384 7.48160 7.39819
#
# Compressibility (1/GPa) = 0.01829947
#
# Stress axis : x y z
#
# Youngs Moduli (GPa) = 48.38616 64.86628 61.76569
#
# Poissons Ratio (x) = 0.43619 0.25376
# Poissons Ratio (y) = 0.32537 0.38012
# Poissons Ratio (z) = 0.19879 0.39920
#
# Static dielectric constant tensor:
#      x y z
#    x 3.018380 0.000000 0.000000 
#    y 0.000000 3.174930 0.000000 
#    z 0.000000 0.000000 2.786350 
# 
# 
# High freq. dielectric constant tensor:
#      x y z
#    x 1.624960 0.000000 0.000000 
#    y 0.000000 1.619880 0.000000 
#    z 0.000000 0.000000 1.588100 
# 
# From -- ./inp_files/35144.got.cif
#   From: 2010.03.12/outbox.cif.g09.slc.cpg/sg51_18_cif.got.tgz:35144.got - 2010.04.16 13:43:02.
