data_PCOD8210392
_publ_section_title
;
Structure prediction by ZEFSAII (Michael W. Deem and Ramdas Pophale) SiO2 
 PCOD8210392
Probable space group: P M M A
;
_chemical_formula_sum "Si O2"
_cell_formula_units_Z 40
_cell_length_a 9.008778
_cell_length_b 13.922202
_cell_length_c 18.736162
_cell_angle_alpha 90.000000
_cell_angle_beta 90.000000
_cell_angle_gamma 90.000000
_cell_volume 2349.927418
_symmetry_space_group_name_H-M "P M M A"
_symmetry_group_IT_number 51
_symmetry_cell_setting 'orthorhombic'
loop_
_space_group_symop_operation_xyz
x,y,z
1/2-x,-y,z
1/2+x,-y,-z
-x,y,-z
-x,-y,-z
1/2+x,y,-z
1/2-x,y,z
x,-y,z
loop_
_atom_site_type_symbol
_atom_site_label
_atom_site_fract_x
_atom_site_fract_y
_atom_site_fract_z
Si Si1 0.075689 0.109939 0.573872
Si Si2 0.426003 0.393952 0.213690
Si Si3 0.574005 0.105587 0.845619
Si Si4 0.425789 0.288702 0.073309
Si Si5 0.574647 0.210104 0.703396
O O1 0.250000 0.124865 0.565919
O O2 0.000000 0.139367 0.500000
O O3 0.013908 0.181242 0.633381
O O4 0.035862 0.000000 0.593919
O O5 0.250000 0.396329 0.210914
O O6 0.491191 0.500000 0.230651
O O7 0.481608 0.359901 0.135730
O O8 0.473579 0.318701 0.275062
O O9 0.750000 0.102189 0.846596
O O10 0.520428 0.180807 0.905761
O O11 0.524234 0.139766 0.767206
O O12 0.505946 0.000000 0.861310
O O13 0.250000 0.293148 0.064458
O O14 0.500000 0.321396 0.000000
O O15 0.750000 0.202632 0.688914
#
# Coordination Sequence:
#
# PCOD8210392 Si02
#       5
#     8   8   8   8   8
#     4  10  20  32  47  70 100 129 152 177 213 258
#     4   8  15  29  48  68  89 116 151 188 230 280
#     4   8  14  25  41  60  83 114 150 183 219 269
#     4   9  17  28  42  61  85 114 148 186 227 270
#     4   9  16  28  49  71  89 115 152 192 228 264
#
# _framework density 17.021802000000001
#
# number of rings (size 3 to 8) (size 9 to 14) (size 15 to 20)
#    0.000    3.200    0.000    3.600    0.000    2.800 
#    0.000    4.000    0.000    3.600    0.000    0.000 
#    0.000    0.000    0.000    0.000    0.000    0.000 
#
# Total GULP energy -495764.548897 kJ/mol
# GULP energy per Si atom -12394.113722 kJ/mol
# Density = 1.698306 g / cm^3
# Si number density = 17.021802 Si / 1000 Ang^3
#
#
#
# Elastic Constant Matrix: (Units=GPa)
#
#
# Indices 1 2 3 4 5 6 
#
# 1 38.1409 23.2514 37.0572 0.0000 0.0000 0.0000
# 2 23.2514 128.0551 56.5414 0.0000 0.0000 0.0000
# 3 37.0572 56.5414 123.0985 0.0000 0.0000 0.0000
# 4 0.0000 0.0000 0.0000 19.2817 0.0000 0.0000
# 5 0.0000 0.0000 0.0000 0.0000 29.4476 0.0000
# 6 0.0000 0.0000 0.0000 0.0000 0.0000 13.1380
#
#
#
# Elastic Compliance Matrix: (Units=1/GPa)
#
#
# Indices 1 2 3 4 5 6 
#
# 1 0.037587 -0.002294 -0.010261 0.000000 0.000000 0.000000
# 2 -0.002294 0.009936 -0.003873 0.000000 0.000000 0.000000
# 3 -0.010261 -0.003873 0.012992 0.000000 0.000000 0.000000
# 4 0.000000 0.000000 0.000000 0.051863 0.000000 0.000000
# 5 0.000000 0.000000 0.000000 0.000000 0.033959 0.000000
# 6 0.000000 0.000000 0.000000 0.000000 0.000000 0.076115
#
#
# Mechanical properties :
#
#
# Convention : Reuss Voigt Hill
#
# Bulk Modulus (GPa) = 36.15678 58.11052 47.13365
# Shear Modulus (GPa) = 18.90168 23.86975 21.38571
#
# Velocity S-wave (km/s) = 3.33594 3.74880 3.54838
# Velocity P-wave (km/s) = 6.01045 7.27674 6.67370
#
# Compressibility (1/GPa) = 0.02765733
#
# Stress axis : x y z
#
# Youngs Moduli (GPa) = 26.60505 100.64610 76.97269
#
# Poissons Ratio (x) = 0.23088 0.78984
# Poissons Ratio (y) = 0.06103 0.29812
# Poissons Ratio (z) = 0.27300 0.38981
#
# Static dielectric constant tensor:
#      x y z
#    x 2.748500 0.000000 0.000000 
#    y 0.000000 3.711450 0.000000 
#    z 0.000000 0.000000 3.084270 
# 
# 
# High freq. dielectric constant tensor:
#      x y z
#    x 1.617210 0.000000 0.000000 
#    y 0.000000 1.656000 0.000000 
#    z 0.000000 0.000000 1.649810 
# 
# From -- ./inp_files/27209.got.cif
#   From: 2010.03.12/outbox.cif.g09.slc.cpg/sg51_14_cif.got.tgz:27209.got - 2010.04.16 13:43:02.
