data_PCOD8210740
_publ_section_title
;
Structure prediction by ZEFSAII (Michael W. Deem and Ramdas Pophale) SiO2 
 PCOD8210740
Probable space group: P M M A
;
_chemical_formula_sum "Si O2"
_cell_formula_units_Z 64
_cell_length_a 22.836597
_cell_length_b 9.359143
_cell_length_c 17.850830
_cell_angle_alpha 90.000000
_cell_angle_beta 90.000000
_cell_angle_gamma 90.000000
_cell_volume 3815.275335
_symmetry_space_group_name_H-M "P M M A"
_symmetry_group_IT_number 51
_symmetry_cell_setting 'orthorhombic'
loop_
_space_group_symop_operation_xyz
x,y,z
1/2-x,-y,z
1/2+x,-y,-z
-x,y,-z
-x,-y,-z
1/2+x,y,-z
1/2-x,y,z
x,-y,z
loop_
_atom_site_type_symbol
_atom_site_label
_atom_site_fract_x
_atom_site_fract_y
_atom_site_fract_z
Si Si1 0.870273 0.667138 0.857413
Si Si2 0.499481 0.665945 0.085518
Si Si3 0.608440 0.831870 0.131887
Si Si4 0.819502 0.841822 0.556287
Si Si5 0.817072 0.836752 0.989413
Si Si6 0.682390 0.833636 0.275501
Si Si7 0.682172 0.167180 0.724429
Si Si8 0.680248 0.660287 0.419172
O O1 0.856352 0.500000 0.853745
O O2 0.937029 0.697960 0.878467
O O3 0.827820 0.737028 0.918437
O O4 0.858311 0.737780 0.777398
O O5 0.516234 0.500000 0.088456
O O6 0.546525 0.752521 0.133896
O O7 0.500000 0.721197 0.000000
O O8 0.645172 0.784470 0.204153
O O9 0.597418 0.000000 0.131816
O O10 0.643828 0.783220 0.058427
O O11 0.750000 0.848696 0.550530
O O12 0.836784 0.792029 0.639831
O O13 0.845278 0.733552 0.494459
O O14 0.844937 0.000000 0.540293
O O15 0.750000 0.823656 0.014707
O O16 0.832299 0.000000 0.967638
O O17 0.750000 0.798083 0.258478
O O18 0.658477 0.746663 0.346721
O O19 0.674196 0.000000 0.293468
O O20 0.750000 0.205012 0.738731
O O21 0.671391 0.000000 0.739827
O O22 0.750000 0.660646 0.421910
O O23 0.655358 0.500000 0.415030
#
# Coordination Sequence:
#
# PCOD8210740 Si02
#       8
#     8   8   8   8   8   8   8   8
#     4  11  22  34  49  69  93 125 163 199 239 286
#     4  10  21  38  53  66  91 125 160 203 249 288
#     4  10  20  33  52  74  92 119 163 205 239 280
#     4   8  14  26  44  65  92 128 162 189 227 279
#     4  10  20  33  49  70  97 125 153 191 240 288
#     4   9  17  30  47  69 100 131 157 192 239 288
#     4   9  18  32  49  71 100 130 159 195 240 287
#     4   9  16  25  40  66  98 130 163 194 225 270
#
# _framework density 16.774674000000001
#
# number of rings (size 3 to 8) (size 9 to 14) (size 15 to 20)
#    0.000    2.500    1.250    2.250    0.000    7.250 
#    0.000    1.250    0.000    2.250    0.000    0.875 
#    0.000    7.000    0.000    0.000    0.000    0.000 
#
# Total GULP energy -793663.844504 kJ/mol
# GULP energy per Si atom -12400.997570 kJ/mol
# Density = 1.673649 g / cm^3
# Si number density = 16.774674 Si / 1000 Ang^3
#
#
#
# Elastic Constant Matrix: (Units=GPa)
#
#
# Indices 1 2 3 4 5 6 
#
# 1 56.1232 33.2459 36.6400 0.0000 0.0000 0.0000
# 2 33.2459 77.7364 64.5800 0.0000 0.0000 0.0000
# 3 36.6400 64.5800 134.9066 0.0000 0.0000 0.0000
# 4 0.0000 0.0000 0.0000 22.6869 0.0000 0.0000
# 5 0.0000 0.0000 0.0000 0.0000 10.0064 0.0000
# 6 0.0000 0.0000 0.0000 0.0000 0.0000 23.1822
#
#
#
# Elastic Compliance Matrix: (Units=1/GPa)
#
#
# Indices 1 2 3 4 5 6 
#
# 1 0.024448 -0.008201 -0.002714 0.000000 0.000000 0.000000
# 2 -0.008201 0.024108 -0.009313 0.000000 0.000000 0.000000
# 3 -0.002714 -0.009313 0.012608 0.000000 0.000000 0.000000
# 4 0.000000 0.000000 0.000000 0.044078 0.000000 0.000000
# 5 0.000000 0.000000 0.000000 0.000000 0.099936 0.000000
# 6 0.000000 0.000000 0.000000 0.000000 0.000000 0.043137
#
#
# Mechanical properties :
#
#
# Convention : Reuss Voigt Hill
#
# Bulk Modulus (GPa) = 48.29195 59.74422 54.01808
# Shear Modulus (GPa) = 16.91048 20.12846 18.51947
#
# Velocity S-wave (km/s) = 3.17850 3.46776 3.32628
# Velocity P-wave (km/s) = 6.50550 7.19214 6.85742
#
# Compressibility (1/GPa) = 0.02070739
#
# Stress axis : x y z
#
# Youngs Moduli (GPa) = 40.90339 41.47916 79.31453
#
# Poissons Ratio (x) = 0.34017 0.21527
# Poissons Ratio (y) = 0.33545 0.73869
# Poissons Ratio (z) = 0.11102 0.38631
#
# Static dielectric constant tensor:
#      x y z
#    x 2.804240 0.000000 0.000000 
#    y 0.000000 3.208210 0.000000 
#    z 0.000000 0.000000 3.279290 
# 
# 
# High freq. dielectric constant tensor:
#      x y z
#    x 1.606160 0.000000 0.000000 
#    y 0.000000 1.647870 0.000000 
#    z 0.000000 0.000000 1.654010 
# 
# From -- ./inp_files/30834.got.cif
#   From: 2010.03.12/outbox.cif.g09.slc.cpg/sg51_16_cif.got.tgz:30834.got - 2010.04.16 13:43:02.
