data_PCOD8210711
_publ_section_title
;
Structure prediction by ZEFSAII (Michael W. Deem and Ramdas Pophale) SiO2 
 PCOD8210711
Probable space group: P M M A
;
_chemical_formula_sum "Si O2"
_cell_formula_units_Z 64
_cell_length_a 17.440443
_cell_length_b 14.709311
_cell_length_c 14.457830
_cell_angle_alpha 90.000000
_cell_angle_beta 90.000000
_cell_angle_gamma 90.000000
_cell_volume 3708.966890
_symmetry_space_group_name_H-M "P M M A"
_symmetry_group_IT_number 51
_symmetry_cell_setting 'orthorhombic'
loop_
_space_group_symop_operation_xyz
x,y,z
1/2-x,-y,z
1/2+x,-y,-z
-x,y,-z
-x,-y,-z
1/2+x,y,-z
1/2-x,y,z
x,-y,z
loop_
_atom_site_type_symbol
_atom_site_label
_atom_site_fract_x
_atom_site_fract_y
_atom_site_fract_z
Si Si1 0.340446 0.900047 0.018726
Si Si2 0.666147 0.180343 0.512365
Si Si3 0.504885 0.602019 0.607555
Si Si4 0.665405 0.662815 0.663769
Si Si5 0.338179 0.183624 0.204333
Si Si6 0.659744 0.106318 0.187557
Si Si7 0.577961 0.773597 0.337754
Si Si8 0.060434 0.900915 0.356624
O O1 0.250000 0.905821 0.010645
O O2 0.365349 0.827420 0.097339
O O3 0.372596 0.000000 0.045753
O O4 0.369595 0.872862 0.916606
O O5 0.750000 0.137892 0.499948
O O6 0.665600 0.258536 0.588432
O O7 0.642936 0.222445 0.414804
O O8 0.611175 0.100964 0.549649
O O9 0.500000 0.633341 0.500000
O O10 0.471916 0.500000 0.618091
O O11 0.593738 0.597869 0.642138
O O12 0.452107 0.668884 0.670869
O O13 0.750000 0.613519 0.662329
O O14 0.652693 0.711360 0.763807
O O15 0.250000 0.151848 0.215212
O O16 0.389291 0.117145 0.265872
O O17 0.750000 0.125492 0.200859
O O18 0.611211 0.179760 0.245807
O O19 0.642510 0.000000 0.213554
O O20 0.504121 0.826991 0.371687
O O21 0.023085 0.000000 0.347060
#
# Coordination Sequence:
#
# PCOD8210711 Si02
#       8
#     8   8   8   8   8   8   8   8
#     4   8  14  27  47  72 100 131 171 213 245 282
#     4  10  20  33  49  66  94 130 166 204 243 289
#     4  11  21  36  56  75  98 133 168 203 260 316
#     4   9  17  32  51  75  99 124 161 205 249 302
#     4   9  16  28  49  72 100 133 164 200 248 295
#     4   9  19  34  52  74 101 138 180 211 241 287
#     4  12  20  35  50  70 100 135 166 210 253 296
#     4  11  21  30  45  70 101 134 166 200 245 299
#
# _framework density 17.255478
#
# number of rings (size 3 to 8) (size 9 to 14) (size 15 to 20)
#    0.000    2.125    3.750    3.375    0.000    3.250 
#    0.000    0.625    0.000    3.750    0.000    1.750 
#    0.000    3.000    0.000    0.000    0.000    0.000 
#
# Total GULP energy -792963.040372 kJ/mol
# GULP energy per Si atom -12390.047506 kJ/mol
# Density = 1.721620 g / cm^3
# Si number density = 17.255478 Si / 1000 Ang^3
#
#
#
# Elastic Constant Matrix: (Units=GPa)
#
#
# Indices 1 2 3 4 5 6 
#
# 1 66.0037 21.9692 34.4286 0.0000 0.0000 0.0000
# 2 21.9692 76.0509 33.3804 0.0000 0.0000 0.0000
# 3 34.4286 33.3804 95.8608 0.0000 0.0000 0.0000
# 4 0.0000 0.0000 0.0000 12.3042 0.0000 0.0000
# 5 0.0000 0.0000 0.0000 0.0000 3.4970 0.0000
# 6 0.0000 0.0000 0.0000 0.0000 0.0000 14.6220
#
#
#
# Elastic Compliance Matrix: (Units=1/GPa)
#
#
# Indices 1 2 3 4 5 6 
#
# 1 0.019197 -0.002974 -0.005859 0.000000 0.000000 0.000000
# 2 -0.002974 0.015982 -0.004497 0.000000 0.000000 0.000000
# 3 -0.005859 -0.004497 0.014102 0.000000 0.000000 0.000000
# 4 0.000000 0.000000 0.000000 0.081273 0.000000 0.000000
# 5 0.000000 0.000000 0.000000 0.000000 0.285959 0.000000
# 6 0.000000 0.000000 0.000000 0.000000 0.000000 0.068390
#
#
# Mechanical properties :
#
#
# Convention : Reuss Voigt Hill
#
# Bulk Modulus (GPa) = 44.20706 46.38575 45.29641
# Shear Modulus (GPa) = 9.63200 15.96045 12.79623
#
# Velocity S-wave (km/s) = 2.36519 3.04460 2.72614
# Velocity P-wave (km/s) = 5.75618 6.26893 6.01802
#
# Compressibility (1/GPa) = 0.02262082
#
# Stress axis : x y z
#
# Youngs Moduli (GPa) = 52.09245 62.57015 70.91161
#
# Poissons Ratio (x) = 0.18607 0.41547
# Poissons Ratio (y) = 0.15491 0.31890
# Poissons Ratio (z) = 0.30521 0.28139
#
# Static dielectric constant tensor:
#      x y z
#    x 3.362680 0.000000 0.000000 
#    y 0.000000 2.939680 0.000000 
#    z 0.000000 0.000000 3.375980 
# 
# 
# High freq. dielectric constant tensor:
#      x y z
#    x 1.665800 0.000000 0.000000 
#    y 0.000000 1.630520 0.000000 
#    z 0.000000 0.000000 1.655090 
# 
# From -- ./inp_files/25315.got.cif
#   From: 2010.03.12/outbox.cif.g09.slc.cpg/sg51_13_cif.got.tgz:25315.got - 2010.04.16 13:43:02.
