data_PCOD8210581
_publ_section_title
;
Structure prediction by ZEFSAII (Michael W. Deem and Ramdas Pophale) SiO2 
 PCOD8210581
Probable space group: P M M A
;
_chemical_formula_sum "Si O2"
_cell_formula_units_Z 64
_cell_length_a 13.695748
_cell_length_b 9.205887
_cell_length_c 26.239502
_cell_angle_alpha 90.000000
_cell_angle_beta 90.000000
_cell_angle_gamma 90.000000
_cell_volume 3308.315994
_symmetry_space_group_name_H-M "P M M A"
_symmetry_group_IT_number 51
_symmetry_cell_setting 'orthorhombic'
loop_
_space_group_symop_operation_xyz
x,y,z
1/2-x,-y,z
1/2+x,-y,-z
-x,y,-z
-x,-y,-z
1/2+x,y,-z
1/2-x,y,z
x,-y,z
loop_
_atom_site_type_symbol
_atom_site_label
_atom_site_fract_x
_atom_site_fract_y
_atom_site_fract_z
Si Si1 0.136044 0.168101 0.229405
Si Si2 0.859553 0.833171 0.066596
Si Si3 0.865306 0.338273 0.482440
Si Si4 0.865341 0.662387 0.968893
Si Si5 0.547296 0.166972 0.876775
Si Si6 0.865242 0.837598 0.577411
Si Si7 0.356831 0.328246 0.629468
Si Si8 0.443880 0.672022 0.326612
O O1 0.250000 0.196346 0.219601
O O2 0.075978 0.217788 0.179655
O O3 0.098134 0.268299 0.274371
O O4 0.116495 0.000000 0.243058
O O5 0.750000 0.782486 0.081949
O O6 0.930852 0.809997 0.114950
O O7 0.858621 0.000000 0.049028
O O8 0.905181 0.742998 0.019472
O O9 0.750000 0.346181 0.489444
O O10 0.909851 0.500000 0.487732
O O11 0.911888 0.239632 0.527334
O O12 0.888164 0.269174 0.426598
O O13 0.750000 0.661876 0.973002
O O14 0.908263 0.500000 0.968147
O O15 0.892809 0.741588 0.917221
O O16 0.577690 0.000000 0.884422
O O17 0.750000 0.847915 0.570812
O O18 0.886334 0.743486 0.627165
O O19 0.909256 0.000000 0.582928
O O20 0.250000 0.265741 0.646373
O O21 0.347668 0.500000 0.623756
O O22 0.440721 0.286192 0.669838
O O23 0.427800 0.500000 0.328929
#
# Coordination Sequence:
#
# PCOD8210581 Si02
#       8
#     8   8   8   8   8   8   8   8
#     4  10  22  40  58  76 103 136 168 210 264 312
#     4   9  18  33  53  78 109 143 177 212 251 301
#     4   8  14  28  51  75  99 130 168 207 246 296
#     4  10  20  32  49  78 114 146 175 213 261 307
#     4  10  20  35  56  78 101 137 182 219 255 305
#     4  10  20  33  49  72 106 142 170 203 253 308
#     4   8  16  33  55  77 102 132 166 206 253 304
#     4  11  22  35  55  79 100 129 172 217 256 301
#
# _framework density 19.345189999999999
#
# number of rings (size 3 to 8) (size 9 to 14) (size 15 to 20)
#    0.000    2.500    0.000    3.000    0.000    6.750 
#    0.000    4.375    0.000    3.750    0.000    0.000 
#    0.000    0.000    0.000    0.000    0.000    0.000 
#
# Total GULP energy -793439.613178 kJ/mol
# GULP energy per Si atom -12397.493956 kJ/mol
# Density = 1.930116 g / cm^3
# Si number density = 19.345190 Si / 1000 Ang^3
#
#
#
# Elastic Constant Matrix: (Units=GPa)
#
#
# Indices 1 2 3 4 5 6 
#
# 1 58.5412 28.9631 41.4200 0.0000 0.0000 0.0000
# 2 28.9631 90.1260 56.1124 0.0000 0.0000 0.0000
# 3 41.4200 56.1124 115.3384 0.0000 0.0000 0.0000
# 4 0.0000 0.0000 0.0000 25.9792 0.0000 0.0000
# 5 0.0000 0.0000 0.0000 0.0000 33.4076 0.0000
# 6 0.0000 0.0000 0.0000 0.0000 0.0000 16.4205
#
#
#
# Elastic Compliance Matrix: (Units=1/GPa)
#
#
# Indices 1 2 3 4 5 6 
#
# 1 0.023568 -0.003306 -0.006855 0.000000 0.000000 0.000000
# 2 -0.003306 0.016380 -0.006782 0.000000 0.000000 0.000000
# 3 -0.006855 -0.006782 0.014431 0.000000 0.000000 0.000000
# 4 0.000000 0.000000 0.000000 0.038492 0.000000 0.000000
# 5 0.000000 0.000000 0.000000 0.000000 0.029933 0.000000
# 6 0.000000 0.000000 0.000000 0.000000 0.000000 0.060900
#
#
# Mechanical properties :
#
#
# Convention : Reuss Voigt Hill
#
# Bulk Modulus (GPa) = 48.79559 57.44406 53.11982
# Shear Modulus (GPa) = 22.27943 24.32880 23.30412
#
# Velocity S-wave (km/s) = 3.39732 3.55013 3.47457
# Velocity P-wave (km/s) = 6.37710 6.82373 6.60419
#
# Compressibility (1/GPa) = 0.02049366
#
# Stress axis : x y z
#
# Youngs Moduli (GPa) = 42.43056 61.04884 69.29288
#
# Poissons Ratio (x) = 0.20180 0.47503
# Poissons Ratio (y) = 0.14026 0.46994
# Poissons Ratio (z) = 0.29088 0.41403
#
# Static dielectric constant tensor:
#      x y z
#    x 3.747750 0.000000 0.000000 
#    y 0.000000 3.626100 0.000000 
#    z 0.000000 0.000000 3.426450 
# 
# 
# High freq. dielectric constant tensor:
#      x y z
#    x 1.764530 0.000000 0.000000 
#    y 0.000000 1.739990 0.000000 
#    z 0.000000 0.000000 1.735270 
# 
# From -- ./inp_files/35756.got.cif
#   From: 2010.03.12/outbox.cif.g09.slc.cpg/sg51_18_cif.got.tgz:35756.got - 2010.04.16 13:43:02.
