data_PCOD8210342
_publ_section_title
;
Structure prediction by ZEFSAII (Michael W. Deem and Ramdas Pophale) SiO2 
 PCOD8210342
Probable space group: P M M A
;
_chemical_formula_sum "Si O2"
_cell_formula_units_Z 48
_cell_length_a 19.381594
_cell_length_b 9.096613
_cell_length_c 15.434654
_cell_angle_alpha 90.000000
_cell_angle_beta 90.000000
_cell_angle_gamma 90.000000
_cell_volume 2721.235381
_symmetry_space_group_name_H-M "P M M A"
_symmetry_group_IT_number 51
_symmetry_cell_setting 'orthorhombic'
loop_
_space_group_symop_operation_xyz
x,y,z
1/2-x,-y,z
1/2+x,-y,-z
-x,y,-z
-x,-y,-z
1/2+x,y,-z
1/2-x,y,z
x,-y,z
loop_
_atom_site_type_symbol
_atom_site_label
_atom_site_fract_x
_atom_site_fract_y
_atom_site_fract_z
Si Si1 0.332214 0.166055 0.908484
Si Si2 0.668597 0.669130 0.262301
Si Si3 0.829577 0.173073 0.751197
Si Si4 0.582024 0.173984 0.405186
Si Si5 0.667909 0.334253 0.923688
Si Si6 0.426347 0.173559 0.400549
O O1 0.250000 0.167012 0.910720
O O2 0.359374 0.248507 0.823050
O O3 0.360743 0.000000 0.907874
O O4 0.361907 0.249086 0.992822
O O5 0.750000 0.687726 0.271097
O O6 0.646837 0.500000 0.254837
O O7 0.635763 0.740356 0.346721
O O8 0.750000 0.211433 0.732588
O O9 0.857291 0.252245 0.837312
O O10 0.873853 0.236944 0.671025
O O11 0.840145 0.000000 0.764409
O O12 0.504489 0.219476 0.377545
O O13 0.594928 0.228186 0.503769
O O14 0.593770 0.000000 0.395307
O O15 0.750000 0.334174 0.927481
O O16 0.639002 0.500000 0.923980
O O17 0.421484 0.000000 0.401708
#
# Coordination Sequence:
#
# PCOD8210342 Si02
#       6
#     8   8   8   8   8   8
#     4   9  16  27  45  68  92 121 157 191 226 275
#     4  10  20  32  46  69 100 127 153 192 239 280
#     4   9  16  27  45  69  95 123 156 192 230 274
#     4   9  17  32  52  70  91 123 162 198 234 280
#     4   9  16  26  41  64  95 126 153 186 230 275
#     4   8  16  31  50  71  94 122 158 199 237 274
#
# _framework density 17.639046
#
# number of rings (size 3 to 8) (size 9 to 14) (size 15 to 20)
#    0.000    3.000    0.000    2.500    0.000    5.667 
#    0.000    5.000    0.000    3.000    0.000    7.000 
#    0.000    0.000    0.000    0.000    0.000    0.000 
#
# Total GULP energy -595097.155630 kJ/mol
# GULP energy per Si atom -12397.857409 kJ/mol
# Density = 1.759890 g / cm^3
# Si number density = 17.639046 Si / 1000 Ang^3
#
#
#
# Elastic Constant Matrix: (Units=GPa)
#
#
# Indices 1 2 3 4 5 6 
#
# 1 29.0210 29.9179 41.3462 0.0000 0.0000 0.0000
# 2 29.9179 102.0330 68.6410 0.0000 0.0000 0.0000
# 3 41.3462 68.6410 151.2368 0.0000 0.0000 0.0000
# 4 0.0000 0.0000 0.0000 10.1302 0.0000 0.0000
# 5 0.0000 0.0000 0.0000 0.0000 5.3660 0.0000
# 6 0.0000 0.0000 0.0000 0.0000 0.0000 13.9204
#
#
#
# Elastic Compliance Matrix: (Units=1/GPa)
#
#
# Indices 1 2 3 4 5 6 
#
# 1 0.062646 -0.009857 -0.012653 0.000000 0.000000 0.000000
# 2 -0.009857 0.015659 -0.004413 0.000000 0.000000 0.000000
# 3 -0.012653 -0.004413 0.012074 0.000000 0.000000 0.000000
# 4 0.000000 0.000000 0.000000 0.098714 0.000000 0.000000
# 5 0.000000 0.000000 0.000000 0.000000 0.186358 0.000000
# 6 0.000000 0.000000 0.000000 0.000000 0.000000 0.071837
#
#
# Mechanical properties :
#
#
# Convention : Reuss Voigt Hill
#
# Bulk Modulus (GPa) = 27.37124 62.45568 44.91346
# Shear Modulus (GPa) = 9.74066 15.37570 12.55818
#
# Velocity S-wave (km/s) = 2.35249 2.95563 2.67114
# Velocity P-wave (km/s) = 4.78853 6.86529 5.91871
#
# Compressibility (1/GPa) = 0.03653470
#
# Stress axis : x y z
#
# Youngs Moduli (GPa) = 15.96274 63.85933 82.82286
#
# Poissons Ratio (x) = 0.62945 1.04795
# Poissons Ratio (y) = 0.15734 0.36546
# Poissons Ratio (z) = 0.20197 0.28178
#
# Static dielectric constant tensor:
#      x y z
#    x 3.000910 0.000000 0.000000 
#    y 0.000000 3.206630 0.000000 
#    z 0.000000 0.000000 3.609160 
# 
# 
# High freq. dielectric constant tensor:
#      x y z
#    x 1.637470 0.000000 0.000000 
#    y 0.000000 1.671770 0.000000 
#    z 0.000000 0.000000 1.697550 
# 
# From -- ./inp_files/24749.got.cif
#   From: 2010.03.12/outbox.cif.g09.slc.cpg/sg51_13_cif.got.tgz:24749.got - 2010.04.16 13:43:02.
