data_PCOD8210871
_publ_section_title
;
Structure prediction by ZEFSAII (Michael W. Deem and Ramdas Pophale) SiO2 
 PCOD8210871
Probable space group: P M M A
;
_chemical_formula_sum "Si O2"
_cell_formula_units_Z 56
_cell_length_a 19.387105
_cell_length_b 9.612937
_cell_length_c 16.222812
_cell_angle_alpha 90.000000
_cell_angle_beta 90.000000
_cell_angle_gamma 90.000000
_cell_volume 3023.397112
_symmetry_space_group_name_H-M "P M M A"
_symmetry_group_IT_number 51
_symmetry_cell_setting 'orthorhombic'
loop_
_space_group_symop_operation_xyz
x,y,z
1/2-x,-y,z
1/2+x,-y,-z
-x,y,-z
-x,-y,-z
1/2+x,y,-z
1/2-x,y,z
x,-y,z
loop_
_atom_site_type_symbol
_atom_site_label
_atom_site_fract_x
_atom_site_fract_y
_atom_site_fract_z
Si Si1 0.078845 0.837493 0.329617
Si Si2 0.539132 0.663129 0.259167
Si Si3 0.171232 0.838643 0.483819
Si Si4 0.327157 0.659839 0.022436
Si Si5 0.456086 0.338297 0.924717
Si Si6 0.170606 0.840463 0.174271
Si Si7 0.672224 0.340396 0.358257
O O1 0.119259 0.793444 0.411765
O O2 0.127992 0.799123 0.254068
O O3 0.009510 0.747375 0.321803
O O4 0.059499 0.000000 0.330771
O O5 0.520969 0.500000 0.264294
O O6 0.528648 0.723680 0.166045
O O7 0.618678 0.689154 0.284528
O O8 0.250000 0.808107 0.455949
O O9 0.150963 0.752073 0.563979
O O10 0.161893 0.000000 0.505401
O O11 0.250000 0.706704 0.997920
O O12 0.329484 0.500000 0.050406
O O13 0.375223 0.685768 0.943431
O O14 0.356239 0.747619 0.098898
O O15 0.474845 0.500000 0.920872
O O16 0.500000 0.269502 0.000000
O O17 0.250000 0.807947 0.194140
O O18 0.159647 0.000000 0.149293
O O19 0.750000 0.304057 0.327727
O O20 0.667858 0.500000 0.386836
#
# Coordination Sequence:
#
# PCOD8210871 Si02
#       7
#     8   8   8   8   8   8   8
#     4  10  20  33  50  74 103 132 165 204 243 291
#     4  10  21  35  52  74 100 133 168 204 250 298
#     4   9  18  34  56  78 100 131 168 202 241 291
#     4   9  17  29  47  71  95 121 160 208 250 290
#     4   9  17  30  48  69  95 127 161 197 239 288
#     4   9  17  30  48  70  99 133 164 198 246 299
#     4   9  19  36  55  75 100 129 164 206 249 293
#
# _framework density 18.522210999999999
#
# number of rings (size 3 to 8) (size 9 to 14) (size 15 to 20)
#    0.000    2.714    0.000    1.286    0.000    5.714 
#    0.000    6.429    0.000    6.857    0.000    4.000 
#    0.000    0.000    0.000    0.000    0.000    0.000 
#
# Total GULP energy -694294.097195 kJ/mol
# GULP energy per Si atom -12398.108878 kJ/mol
# Density = 1.848005 g / cm^3
# Si number density = 18.522211 Si / 1000 Ang^3
#
#
#
# Elastic Constant Matrix: (Units=GPa)
#
#
# Indices 1 2 3 4 5 6 
#
# 1 95.3270 33.0014 58.2783 0.0000 0.0000 0.0000
# 2 33.0014 41.1192 35.5584 0.0000 0.0000 0.0000
# 3 58.2783 35.5584 108.0605 0.0000 0.0000 0.0000
# 4 0.0000 0.0000 0.0000 22.3020 0.0000 0.0000
# 5 0.0000 0.0000 0.0000 0.0000 29.1525 0.0000
# 6 0.0000 0.0000 0.0000 0.0000 0.0000 25.5813
#
#
#
# Elastic Compliance Matrix: (Units=1/GPa)
#
#
# Indices 1 2 3 4 5 6 
#
# 1 0.017421 -0.008187 -0.006702 0.000000 0.000000 0.000000
# 2 -0.008187 0.037839 -0.008036 0.000000 0.000000 0.000000
# 3 -0.006702 -0.008036 0.015513 0.000000 0.000000 0.000000
# 4 0.000000 0.000000 0.000000 0.044839 0.000000 0.000000
# 5 0.000000 0.000000 0.000000 0.000000 0.034302 0.000000
# 6 0.000000 0.000000 0.000000 0.000000 0.000000 0.039091
#
#
# Mechanical properties :
#
#
# Convention : Reuss Voigt Hill
#
# Bulk Modulus (GPa) = 40.12136 55.35367 47.73752
# Shear Modulus (GPa) = 20.56227 23.25172 21.90700
#
# Velocity S-wave (km/s) = 3.33549 3.54693 3.44283
# Velocity P-wave (km/s) = 6.04502 6.83551 6.45238
#
# Compressibility (1/GPa) = 0.02492438
#
# Stress axis : x y z
#
# Youngs Moduli (GPa) = 57.40044 26.42741 64.46293
#
# Poissons Ratio (x) = 0.21635 0.43201
# Poissons Ratio (y) = 0.46992 0.51804
# Poissons Ratio (z) = 0.38468 0.21238
#
# Static dielectric constant tensor:
#      x y z
#    x 3.530060 0.000000 0.000000 
#    y 0.000000 3.223110 0.000000 
#    z 0.000000 0.000000 3.422300 
# 
# 
# High freq. dielectric constant tensor:
#      x y z
#    x 1.728370 0.000000 0.000000 
#    y 0.000000 1.694930 0.000000 
#    z 0.000000 0.000000 1.711220 
# 
# From -- ./inp_files/25750.got.cif
#   From: 2010.03.12/outbox.cif.g09.slc.cpg/sg51_13_cif.got.tgz:25750.got - 2010.04.16 13:43:02.
