data_PCOD8210231
_publ_section_title
;
Structure prediction by ZEFSAII (Michael W. Deem and Ramdas Pophale) SiO2 
 PCOD8210231
Probable space group: P M M A
;
_chemical_formula_sum "Si O2"
_cell_formula_units_Z 40
_cell_length_a 9.562411
_cell_length_b 7.736009
_cell_length_c 29.487609
_cell_angle_alpha 90.000000
_cell_angle_beta 90.000000
_cell_angle_gamma 90.000000
_cell_volume 2181.342855
_symmetry_space_group_name_H-M "P M M A"
_symmetry_group_IT_number 51
_symmetry_cell_setting 'orthorhombic'
loop_
_space_group_symop_operation_xyz
x,y,z
1/2-x,-y,z
1/2+x,-y,-z
-x,y,-z
-x,-y,-z
1/2+x,y,-z
1/2-x,y,z
x,-y,z
loop_
_atom_site_type_symbol
_atom_site_label
_atom_site_fract_x
_atom_site_fract_y
_atom_site_fract_z
Si Si1 0.916237 0.000000 0.702966
Si Si2 0.412667 0.000000 0.611621
Si Si3 0.405939 0.799803 0.039445
Si Si4 0.088683 0.696510 0.543856
Si Si5 0.404378 0.703531 0.134623
Si Si6 0.083123 0.306433 0.232623
O O1 0.967261 0.170578 0.729799
O O2 0.750000 0.000000 0.695816
O O3 0.991129 0.000000 0.655220
O O4 0.451346 0.172451 0.583795
O O5 0.250000 0.000000 0.625496
O O6 0.250000 0.715135 0.038888
O O7 0.480494 0.771018 0.088855
O O8 0.392685 0.000000 0.028765
O O9 0.500000 0.712203 0.000000
O O10 0.250000 0.718203 0.530218
O O11 0.056096 0.500000 0.559829
O O12 0.000000 0.746808 0.500000
O O13 0.250000 0.788221 0.133822
O O14 0.394052 0.500000 0.132696
O O15 0.477125 0.752269 0.182926
O O16 0.250000 0.307762 0.228827
O O17 0.030189 0.500000 0.245688
#
# Coordination Sequence:
#
# PCOD8210231 Si02
#       6
#     4   4   8   8   8   8
#     4  10  20  31  49  74  94 121 161 198 239 282
#     4  10  21  35  49  70 104 137 163 194 236 286
#     4   9  17  27  40  60  85 111 139 171 211 263
#     4   9  18  33  53  76 101 132 168 202 237 276
#     4   8  14  25  42  63  84 108 140 179 223 267
#     4   8  15  28  45  68  95 116 145 197 246 278
#
# _framework density 18.337327999999999
#
# number of rings (size 3 to 8) (size 9 to 14) (size 15 to 20)
#    0.000    3.200    0.000    1.500    1.400    2.000 
#    0.000    0.000    0.000    1.200    0.000    2.800 
#    0.000    0.000    0.000    0.000    0.000    0.000 
#
# Total GULP energy -495575.181483 kJ/mol
# GULP energy per Si atom -12389.379537 kJ/mol
# Density = 1.829559 g / cm^3
# Si number density = 18.337328 Si / 1000 Ang^3
#
#
#
# Elastic Constant Matrix: (Units=GPa)
#
#
# Indices 1 2 3 4 5 6 
#
# 1 39.0626 28.1171 56.4693 0.0000 0.0000 0.0000
# 2 28.1171 90.0448 78.2876 0.0000 0.0000 0.0000
# 3 56.4693 78.2876 181.7814 0.0000 0.0000 0.0000
# 4 0.0000 0.0000 0.0000 20.5765 0.0000 0.0000
# 5 0.0000 0.0000 0.0000 0.0000 27.4945 0.0000
# 6 0.0000 0.0000 0.0000 0.0000 0.0000 9.5353
#
#
#
# Elastic Compliance Matrix: (Units=1/GPa)
#
#
# Indices 1 2 3 4 5 6 
#
# 1 0.047026 -0.003170 -0.013243 0.000000 0.000000 0.000000
# 2 -0.003170 0.017967 -0.006753 0.000000 0.000000 0.000000
# 3 -0.013243 -0.006753 0.012523 0.000000 0.000000 0.000000
# 4 0.000000 0.000000 0.000000 0.048599 0.000000 0.000000
# 5 0.000000 0.000000 0.000000 0.000000 0.036371 0.000000
# 6 0.000000 0.000000 0.000000 0.000000 0.000000 0.104874
#
#
# Mechanical properties :
#
#
# Convention : Reuss Voigt Hill
#
# Bulk Modulus (GPa) = 32.06806 70.73741 51.40273
# Shear Modulus (GPa) = 15.42796 21.38890 18.40843
#
# Velocity S-wave (km/s) = 2.90374 3.41898 3.17184
# Velocity P-wave (km/s) = 5.36359 7.36514 6.44257
#
# Compressibility (1/GPa) = 0.03118368
#
# Stress axis : x y z
#
# Youngs Moduli (GPa) = 21.26471 55.65870 79.85161
#
# Poissons Ratio (x) = 0.17646 1.05748
# Poissons Ratio (y) = 0.06742 0.53922
# Poissons Ratio (z) = 0.28161 0.37585
#
# Static dielectric constant tensor:
#      x y z
#    x 3.039560 0.000000 0.000000 
#    y 0.000000 3.489300 0.000000 
#    z 0.000000 0.000000 3.532730 
# 
# 
# High freq. dielectric constant tensor:
#      x y z
#    x 1.648800 0.000000 0.000000 
#    y 0.000000 1.716080 0.000000 
#    z 0.000000 0.000000 1.717750 
# 
# From -- ./inp_files/36009.got.cif
#   From: 2010.03.12/outbox.cif.g09.slc.cpg/sg51_19_cif.got.tgz:36009.got - 2010.04.16 13:43:02.
