data_PCOD8210701
_publ_section_title
;
Structure prediction by ZEFSAII (Michael W. Deem and Ramdas Pophale) SiO2 
 PCOD8210701
Probable space group: P M M A
;
_chemical_formula_sum "Si O2"
_cell_formula_units_Z 56
_cell_length_a 18.250840
_cell_length_b 9.001976
_cell_length_c 19.391519
_cell_angle_alpha 90.000000
_cell_angle_beta 90.000000
_cell_angle_gamma 90.000000
_cell_volume 3185.902925
_symmetry_space_group_name_H-M "P M M A"
_symmetry_group_IT_number 51
_symmetry_cell_setting 'orthorhombic'
loop_
_space_group_symop_operation_xyz
x,y,z
1/2-x,-y,z
1/2+x,-y,-z
-x,y,-z
-x,-y,-z
1/2+x,y,-z
1/2-x,y,z
x,-y,z
loop_
_atom_site_type_symbol
_atom_site_label
_atom_site_fract_x
_atom_site_fract_y
_atom_site_fract_z
Si Si1 0.541136 0.673260 0.071316
Si Si2 0.833563 0.333193 0.869523
Si Si3 0.165713 0.824630 0.442609
Si Si4 0.430361 0.667061 0.548956
Si Si5 0.332937 0.830868 0.988251
Si Si6 0.470452 0.172767 0.350774
Si Si7 0.455060 0.827580 0.192545
O O1 0.557599 0.500000 0.077883
O O2 0.497830 0.726538 0.138192
O O3 0.500000 0.712185 0.000000
O O4 0.616946 0.764962 0.072311
O O5 0.750000 0.336474 0.847579
O O6 0.867034 0.500000 0.868212
O O7 0.845729 0.271086 0.945612
O O8 0.870865 0.223182 0.814734
O O9 0.250000 0.773984 0.426082
O O10 0.138402 0.750579 0.514027
O O11 0.108921 0.774716 0.381724
O O12 0.163407 0.000000 0.453079
O O13 0.500000 0.669405 0.500000
O O14 0.405322 0.500000 0.566297
O O15 0.458152 0.747139 0.618096
O O16 0.250000 0.821871 0.961760
O O17 0.354732 0.000000 0.006277
O O18 0.477040 0.208615 0.270288
O O19 0.478590 0.000000 0.366832
O O20 0.465134 0.000000 0.174702
#
# Coordination Sequence:
#
# PCOD8210701 Si02
#       7
#     8   8   8   8   8   8   8
#     4  11  22  35  53  76 102 136 176 220 267 318
#     4  10  20  33  48  69 100 135 169 206 254 313
#     4   9  17  31  53  79 107 139 172 207 247 295
#     4   9  17  30  50  75 102 134 170 208 247 291
#     4  10  20  34  54  77  98 124 163 214 267 314
#     4   9  19  34  51  74 104 139 176 211 254 307
#     4  11  22  34  52  76 103 137 176 221 265 307
#
# _framework density 17.577432999999999
#
# number of rings (size 3 to 8) (size 9 to 14) (size 15 to 20)
#    0.000    2.143    1.429    2.143    0.000    6.000 
#    0.000    1.429    0.000    0.857    0.000    6.000 
#    0.000    0.000    0.000    0.000    0.000    0.000 
#
# Total GULP energy -694207.835247 kJ/mol
# GULP energy per Si atom -12396.568487 kJ/mol
# Density = 1.753743 g / cm^3
# Si number density = 17.577433 Si / 1000 Ang^3
#
#
#
# Elastic Constant Matrix: (Units=GPa)
#
#
# Indices 1 2 3 4 5 6 
#
# 1 61.4087 37.9737 37.5462 0.0000 0.0000 0.0000
# 2 37.9737 71.4810 42.9339 0.0000 0.0000 0.0000
# 3 37.5462 42.9339 88.1586 0.0000 0.0000 0.0000
# 4 0.0000 0.0000 0.0000 19.1482 0.0000 0.0000
# 5 0.0000 0.0000 0.0000 0.0000 23.4793 0.0000
# 6 0.0000 0.0000 0.0000 0.0000 0.0000 28.7128
#
#
#
# Elastic Compliance Matrix: (Units=1/GPa)
#
#
# Indices 1 2 3 4 5 6 
#
# 1 0.026488 -0.010312 -0.006259 0.000000 0.000000 0.000000
# 2 -0.010312 0.023789 -0.007193 0.000000 0.000000 0.000000
# 3 -0.006259 -0.007193 0.017512 0.000000 0.000000 0.000000
# 4 0.000000 0.000000 0.000000 0.052224 0.000000 0.000000
# 5 0.000000 0.000000 0.000000 0.000000 0.042591 0.000000
# 6 0.000000 0.000000 0.000000 0.000000 0.000000 0.034828
#
#
# Mechanical properties :
#
#
# Convention : Reuss Voigt Hill
#
# Bulk Modulus (GPa) = 49.35915 50.88400 50.12158
# Shear Modulus (GPa) = 19.86386 21.10768 20.48577
#
# Velocity S-wave (km/s) = 3.36531 3.46907 3.41758
# Velocity P-wave (km/s) = 6.57589 6.71247 6.64453
#
# Compressibility (1/GPa) = 0.02025967
#
# Stress axis : x y z
#
# Youngs Moduli (GPa) = 37.75291 42.03700 57.10356
#
# Poissons Ratio (x) = 0.43349 0.35741
# Poissons Ratio (y) = 0.38932 0.41076
# Poissons Ratio (z) = 0.23629 0.30238
#
# Static dielectric constant tensor:
#      x y z
#    x 3.441080 0.000000 0.000000 
#    y 0.000000 3.453690 0.000000 
#    z 0.000000 0.000000 3.070740 
# 
# 
# High freq. dielectric constant tensor:
#      x y z
#    x 1.673610 0.000000 0.000000 
#    y 0.000000 1.692430 0.000000 
#    z 0.000000 0.000000 1.651800 
# 
# From -- ./inp_files/33708.got.cif
#   From: 2010.03.12/outbox.cif.g09.slc.cpg/sg51_17_cif.got.tgz:33708.got - 2010.04.16 13:43:02.
