data_PCOD8210812
_publ_section_title
;
Structure prediction by ZEFSAII (Michael W. Deem and Ramdas Pophale) SiO2 
 PCOD8210812
Probable space group: P M M A
;
_chemical_formula_sum "Si O2"
_cell_formula_units_Z 48
_cell_length_a 17.905422
_cell_length_b 9.390529
_cell_length_c 15.543390
_cell_angle_alpha 90.000000
_cell_angle_beta 90.000000
_cell_angle_gamma 90.000000
_cell_volume 2613.487115
_symmetry_space_group_name_H-M "P M M A"
_symmetry_group_IT_number 51
_symmetry_cell_setting 'orthorhombic'
loop_
_space_group_symop_operation_xyz
x,y,z
1/2-x,-y,z
1/2+x,-y,-z
-x,y,-z
-x,-y,-z
1/2+x,y,-z
1/2-x,y,z
x,-y,z
loop_
_atom_site_type_symbol
_atom_site_label
_atom_site_fract_x
_atom_site_fract_y
_atom_site_fract_z
Si Si1 0.911939 0.162976 0.498354
Si Si2 0.338685 0.660098 0.837281
Si Si3 0.161030 0.839340 0.185698
Si Si4 0.661055 0.660445 0.973132
Si Si5 0.838073 0.664813 0.649276
Si Si6 0.664218 0.165555 0.322557
O O1 0.876766 0.268499 0.566763
O O2 0.883067 0.211964 0.405188
O O3 0.000000 0.178540 0.500000
O O4 0.887079 0.000000 0.517714
O O5 0.250000 0.668542 0.835950
O O6 0.366191 0.500000 0.820235
O O7 0.371033 0.757957 0.761208
O O8 0.366556 0.710669 0.931974
O O9 0.250000 0.840276 0.183157
O O10 0.128634 0.766941 0.098942
O O11 0.132679 0.748353 0.266838
O O12 0.129727 0.000000 0.192566
O O13 0.750000 0.661132 0.969911
O O14 0.632626 0.500000 0.954265
O O15 0.750000 0.682811 0.638350
O O16 0.860747 0.500000 0.658309
O O17 0.750000 0.210527 0.338618
O O18 0.657000 0.000000 0.303942
#
# Coordination Sequence:
#
# PCOD8210812 Si02
#       6
#     8   8   8   8   8   8
#     4  10  21  36  52  70  94 125 160 199 244 291
#     4   8  14  24  39  61  90 123 155 187 226 272
#     4   9  16  25  40  64  93 124 156 190 229 274
#     4   8  13  22  36  57  89 124 153 184 224 269
#     4  10  20  33  50  72  97 126 160 198 239 283
#     4   9  17  29  46  68  93 121 154 193 234 276
#
# _framework density 18.366264999999999
#
# number of rings (size 3 to 8) (size 9 to 14) (size 15 to 20)
#    0.000    3.000    0.000    2.500    0.000    5.333 
#    0.000    5.000    0.000    0.000    0.000    1.167 
#    0.000    9.333    0.000    0.000    0.000    0.000 
#
# Total GULP energy -595025.455505 kJ/mol
# GULP energy per Si atom -12396.363656 kJ/mol
# Density = 1.832446 g / cm^3
# Si number density = 18.366265 Si / 1000 Ang^3
#
#
#
# Elastic Constant Matrix: (Units=GPa)
#
#
# Indices 1 2 3 4 5 6 
#
# 1 17.8752 28.2387 28.1259 0.0000 0.0000 0.0000
# 2 28.2387 129.1107 108.1001 0.0000 0.0000 0.0000
# 3 28.1259 108.1001 187.3778 0.0000 0.0000 0.0000
# 4 0.0000 0.0000 0.0000 44.5769 0.0000 0.0000
# 5 0.0000 0.0000 0.0000 0.0000 -2.5091 0.0000
# 6 0.0000 0.0000 0.0000 0.0000 0.0000 11.8762
#
#
#
# Elastic Compliance Matrix: (Units=1/GPa)
#
#
# Indices 1 2 3 4 5 6 
#
# 1 0.087021 -0.015661 -0.004027 0.000000 0.000000 0.000000
# 2 -0.015661 0.017801 -0.007919 0.000000 0.000000 0.000000
# 3 -0.004027 -0.007919 0.010510 0.000000 0.000000 0.000000
# 4 0.000000 0.000000 0.000000 0.022433 0.000000 0.000000
# 5 0.000000 0.000000 0.000000 0.000000 -0.398553 0.000000
# 6 0.000000 0.000000 0.000000 0.000000 0.000000 0.084202
#
#
# Mechanical properties :
#
#
# Convention : Reuss Voigt Hill
#
# Bulk Modulus (GPa) = 16.63404 73.69924 45.16664
# Shear Modulus (GPa) = -49.34197 22.11541 -13.61328
#
# Velocity S-wave (km/s) = -5.18882 3.47382 -2.72547
# Velocity P-wave (km/s) = 5.17899 7.50364 3.83944
#
# Compressibility (1/GPa) = 0.06011768
#
# Stress axis : x y z
#
# Youngs Moduli (GPa) = 11.49145 56.17782 95.15167
#
# Poissons Ratio (x) = 0.87982 0.38317
# Poissons Ratio (y) = 0.17997 0.75346
# Poissons Ratio (z) = 0.04628 0.44485
#
# Static dielectric constant tensor:
#      x y z
#    x 2.769940 0.000000 0.000000 
#    y 0.000000 3.527390 0.000000 
#    z 0.000000 0.000000 3.767480 
# 
# 
# High freq. dielectric constant tensor:
#      x y z
#    x 1.646890 0.000000 0.000000 
#    y 0.000000 1.713400 0.000000 
#    z 0.000000 0.000000 1.731230 
# 
# From -- ./inp_files/25438.got.cif
#   From: 2010.03.12/outbox.cif.g09.slc.cpg/sg51_13_cif.got.tgz:25438.got - 2010.04.16 13:43:02.
