data_PCOD8210011
_publ_section_title
;
Structure prediction by ZEFSAII (Michael W. Deem and Ramdas Pophale) SiO2 
 PCOD8210011
Probable space group: P M M A
;
_chemical_formula_sum "Si O2"
_cell_formula_units_Z 64
_cell_length_a 8.766342
_cell_length_b 20.054459
_cell_length_c 18.385504
_cell_angle_alpha 90.000000
_cell_angle_beta 90.000000
_cell_angle_gamma 90.000000
_cell_volume 3232.249672
_symmetry_space_group_name_H-M "P M M A"
_symmetry_group_IT_number 51
_symmetry_cell_setting 'orthorhombic'
loop_
_space_group_symop_operation_xyz
x,y,z
1/2-x,-y,z
1/2+x,-y,-z
-x,y,-z
-x,-y,-z
1/2+x,y,-z
1/2-x,y,z
x,-y,z
loop_
_atom_site_type_symbol
_atom_site_label
_atom_site_fract_x
_atom_site_fract_y
_atom_site_fract_z
Si Si1 0.428173 0.299122 0.194272
Si Si2 0.430568 0.573620 0.275536
Si Si3 0.430036 0.076894 0.150581
Si Si4 0.579609 0.102848 0.301766
Si Si5 0.911914 0.072895 0.564259
Si Si6 0.430874 0.796914 0.923221
Si Si7 0.077966 0.251675 0.664230
Si Si8 0.931470 0.643481 0.575838
O O1 0.250000 0.293008 0.174769
O O2 0.478625 0.376576 0.209168
O O3 0.523962 0.262154 0.132112
O O4 0.461794 0.263828 0.270008
O O5 0.250000 0.570954 0.277974
O O6 0.499327 0.500000 0.260164
O O7 0.485310 0.597978 0.355562
O O8 0.250000 0.084005 0.141667
O O9 0.475891 0.099579 0.230797
O O10 0.508899 0.129093 0.096155
O O11 0.480889 0.000000 0.134695
O O12 0.750000 0.079935 0.279754
O O13 0.506740 0.057342 0.362868
O O14 0.582956 0.173008 0.343477
O O15 0.750000 0.109647 0.581092
O O16 0.000000 0.113076 0.500000
O O17 0.874612 0.000000 0.532313
O O18 0.250000 0.800584 0.926604
O O19 0.500000 0.775481 0.000000
O O20 0.250000 0.279196 0.679080
O O21 0.006066 0.283978 0.591428
O O22 0.750000 0.647857 0.569459
O O23 0.000000 0.615241 0.500000
#
# Coordination Sequence:
#
# PCOD8210011 Si02
#       8
#     8   8   8   8   8   8   8   8
#     4  10  19  35  61  89 119 154 192 238 286 339
#     4   8  16  32  56  87 120 157 200 243 294 352
#     4  11  24  41  62  89 121 156 195 240 291 351
#     4  11  22  35  55  81 108 144 187 236 291 348
#     4  10  21  36  52  70  95 130 174 228 287 344
#     4  12  25  42  65  92 122 157 195 238 286 346
#     4  10  20  34  53  77 106 144 190 239 288 341
#     4  10  20  33  51  76 111 156 201 250 302 352
#
# _framework density 19.800449
#
# number of rings (size 3 to 8) (size 9 to 14) (size 15 to 20)
#    0.000    1.750    1.250    4.500    0.000    5.750 
#    0.000    0.000    0.000   13.500    0.000    0.000 
#    0.000    0.000    0.000    0.000    0.000    0.000 
#
# Total GULP energy -792940.361770 kJ/mol
# GULP energy per Si atom -12389.693153 kJ/mol
# Density = 1.975538 g / cm^3
# Si number density = 19.800449 Si / 1000 Ang^3
#
#
#
# Elastic Constant Matrix: (Units=GPa)
#
#
# Indices 1 2 3 4 5 6 
#
# 1 107.0457 43.4333 30.3894 0.0000 0.0000 0.0000
# 2 43.4333 115.2629 35.8648 0.0000 0.0000 0.0000
# 3 30.3894 35.8648 93.6901 0.0000 0.0000 0.0000
# 4 0.0000 0.0000 0.0000 10.8173 0.0000 0.0000
# 5 0.0000 0.0000 0.0000 0.0000 34.8315 0.0000
# 6 0.0000 0.0000 0.0000 0.0000 0.0000 15.3909
#
#
#
# Elastic Compliance Matrix: (Units=1/GPa)
#
#
# Indices 1 2 3 4 5 6 
#
# 1 0.011464 -0.003591 -0.002344 0.000000 0.000000 0.000000
# 2 -0.003591 0.010973 -0.003036 0.000000 0.000000 0.000000
# 3 -0.002344 -0.003036 0.012596 0.000000 0.000000 0.000000
# 4 0.000000 0.000000 0.000000 0.092445 0.000000 0.000000
# 5 0.000000 0.000000 0.000000 0.000000 0.028710 0.000000
# 6 0.000000 0.000000 0.000000 0.000000 0.000000 0.064973
#
#
# Mechanical properties :
#
#
# Convention : Reuss Voigt Hill
#
# Bulk Modulus (GPa) = 58.50570 59.48596 58.99583
# Shear Modulus (GPa) = 20.42483 25.96201 23.19342
#
# Velocity S-wave (km/s) = 3.21523 3.62495 3.42622
# Velocity P-wave (km/s) = 6.58752 6.90133 6.74625
#
# Compressibility (1/GPa) = 0.01709235
#
# Stress axis : x y z
#
# Youngs Moduli (GPa) = 87.22875 91.12870 79.39028
#
# Poissons Ratio (x) = 0.32720 0.18609
# Poissons Ratio (y) = 0.31320 0.24103
# Poissons Ratio (z) = 0.20447 0.27667
#
# Static dielectric constant tensor:
#      x y z
#    x 3.856760 0.000000 0.000000 
#    y 0.000000 3.915710 0.000000 
#    z 0.000000 0.000000 3.539480 
# 
# 
# High freq. dielectric constant tensor:
#      x y z
#    x 1.780510 0.000000 0.000000 
#    y 0.000000 1.760730 0.000000 
#    z 0.000000 0.000000 1.754880 
# 
# From -- ./inp_files/28353.got.cif
#   From: 2010.03.12/outbox.cif.g09.slc.cpg/sg51_15_cif.got.tgz:28353.got - 2010.04.16 13:43:02.
