data_PCOD8210269
_publ_section_title
;
Structure prediction by ZEFSAII (Michael W. Deem and Ramdas Pophale) SiO2 
 PCOD8210269
Probable space group: P M M A
;
_chemical_formula_sum "Si O2"
_cell_formula_units_Z 64
_cell_length_a 8.971305
_cell_length_b 16.161703
_cell_length_c 21.595254
_cell_angle_alpha 90.000000
_cell_angle_beta 90.000000
_cell_angle_gamma 90.000000
_cell_volume 3131.129716
_symmetry_space_group_name_H-M "P M M A"
_symmetry_group_IT_number 51
_symmetry_cell_setting 'orthorhombic'
loop_
_space_group_symop_operation_xyz
x,y,z
1/2-x,-y,z
1/2+x,-y,-z
-x,y,-z
-x,-y,-z
1/2+x,y,-z
1/2-x,y,z
x,-y,z
loop_
_atom_site_type_symbol
_atom_site_label
_atom_site_fract_x
_atom_site_fract_y
_atom_site_fract_z
Si Si1 0.417199 0.366642 0.823856
Si Si2 0.912808 0.595046 0.944099
Si Si3 0.914770 0.189647 0.693779
Si Si4 0.577636 0.408378 0.411907
Si Si5 0.081333 0.829262 0.815195
Si Si6 0.427529 0.239040 0.439019
Si Si7 0.922697 0.902495 0.936278
Si Si8 0.414129 0.616903 0.291700
O O1 0.250000 0.398752 0.814788
O O2 0.477129 0.397325 0.887965
O O3 0.422734 0.268393 0.819978
O O4 0.522546 0.411046 0.774074
O O5 0.750000 0.637265 0.933018
O O6 0.885913 0.500000 0.960807
O O7 0.000000 0.640294 0.000000
O O8 0.750000 0.148576 0.695033
O O9 0.980893 0.188301 0.622750
O O10 0.901148 0.285212 0.708846
O O11 0.012965 0.144917 0.747327
O O12 0.750000 0.381807 0.417092
O O13 0.552315 0.500000 0.442550
O O14 0.476546 0.335883 0.440811
O O15 0.531564 0.417057 0.340708
O O16 0.250000 0.863602 0.817196
O O17 0.992335 0.864772 0.873793
O O18 0.500000 0.196247 0.500000
O O19 0.250000 0.237544 0.442704
O O20 0.750000 0.876858 0.939162
O O21 0.944381 0.000000 0.931406
O O22 0.000000 0.869993 0.000000
O O23 0.250000 0.578232 0.302782
#
# Coordination Sequence:
#
# PCOD8210269 Si02
#       8
#     8   8   8   8   8   8   8   8
#     4  10  20  33  50  72  95 121 157 200 248 302
#     4  10  21  36  51  65  83 111 148 193 248 305
#     4   8  16  31  49  70  96 126 161 203 250 297
#     4  10  20  32  45  62  86 118 157 202 252 308
#     4  10  20  33  53  80 107 138 174 213 256 300
#     4  10  20  33  50  70  94 127 165 209 263 318
#     4  10  21  37  57  81 112 150 186 218 253 296
#     4   9  17  30  47  65  86 113 146 189 242 294
#
# _framework density 20.439907999999999
#
# number of rings (size 3 to 8) (size 9 to 14) (size 15 to 20)
#    0.000    2.375    0.000    3.375    0.000    8.750 
#    0.000    0.000    0.000    0.000    0.000    0.000 
#    0.000    0.500    0.000    1.625    0.000    2.000 
#
# Total GULP energy -792901.136990 kJ/mol
# GULP energy per Si atom -12389.080265 kJ/mol
# Density = 2.039339 g / cm^3
# Si number density = 20.439908 Si / 1000 Ang^3
#
#
#
# Elastic Constant Matrix: (Units=GPa)
#
#
# Indices 1 2 3 4 5 6 
#
# 1 135.5452 17.3106 66.3232 0.0000 0.0000 0.0000
# 2 17.3106 12.4501 12.9582 0.0000 0.0000 0.0000
# 3 66.3232 12.9582 180.0958 0.0000 0.0000 0.0000
# 4 0.0000 0.0000 0.0000 -6.8933 0.0000 0.0000
# 5 0.0000 0.0000 0.0000 0.0000 41.9519 0.0000
# 6 0.0000 0.0000 0.0000 0.0000 0.0000 15.6178
#
#
#
# Elastic Compliance Matrix: (Units=1/GPa)
#
#
# Indices 1 2 3 4 5 6 
#
# 1 0.010259 -0.011169 -0.002975 0.000000 0.000000 0.000000
# 2 -0.011169 0.098981 -0.003009 0.000000 0.000000 0.000000
# 3 -0.002975 -0.003009 0.006865 0.000000 0.000000 0.000000
# 4 0.000000 0.000000 0.000000 -0.145069 0.000000 0.000000
# 5 0.000000 0.000000 0.000000 0.000000 0.023837 0.000000
# 6 0.000000 0.000000 0.000000 0.000000 0.000000 0.064030
#
#
# Mechanical properties :
#
#
# Convention : Reuss Voigt Hill
#
# Bulk Modulus (GPa) = 12.22477 57.91945 35.07211
# Shear Modulus (GPa) = 41.50254 25.56856 33.53555
#
# Velocity S-wave (km/s) = 4.51096 3.54066 4.05494
# Velocity P-wave (km/s) = 5.75547 6.71662 6.25454
#
# Compressibility (1/GPa) = 0.08180111
#
# Stress axis : x y z
#
# Youngs Moduli (GPa) = 97.47080 10.10291 145.67627
#
# Poissons Ratio (x) = 0.11284 0.43333
# Poissons Ratio (y) = 1.08863 0.43831
# Poissons Ratio (z) = 0.28994 0.03040
#
# Static dielectric constant tensor:
#      x y z
#    x 4.141330 0.000000 0.000000 
#    y 0.000000 3.270510 0.000000 
#    z 0.000000 0.000000 4.136070 
# 
# 
# High freq. dielectric constant tensor:
#      x y z
#    x 1.812370 0.000000 0.000000 
#    y 0.000000 1.736590 0.000000 
#    z 0.000000 0.000000 1.816530 
# 
# From -- ./inp_files/32301.got.cif
#   From: 2010.03.12/outbox.cif.g09.slc.cpg/sg51_17_cif.got.tgz:32301.got - 2010.04.16 13:43:02.
