data_PCOD8210152
_publ_section_title
;
Structure prediction by ZEFSAII (Michael W. Deem and Ramdas Pophale) SiO2 
 PCOD8210152
Probable space group: P M M A
;
_chemical_formula_sum "Si O2"
_cell_formula_units_Z 56
_cell_length_a 9.327071
_cell_length_b 17.310089
_cell_length_c 23.032668
_cell_angle_alpha 90.000000
_cell_angle_beta 90.000000
_cell_angle_gamma 90.000000
_cell_volume 3718.680198
_symmetry_space_group_name_H-M "P M M A"
_symmetry_group_IT_number 51
_symmetry_cell_setting 'orthorhombic'
loop_
_space_group_symop_operation_xyz
x,y,z
1/2-x,-y,z
1/2+x,-y,-z
-x,y,-z
-x,-y,-z
1/2+x,y,-z
1/2-x,y,z
x,-y,z
loop_
_atom_site_type_symbol
_atom_site_label
_atom_site_fract_x
_atom_site_fract_y
_atom_site_fract_z
Si Si1 0.586377 0.797235 0.777664
Si Si2 0.911318 0.311634 0.148271
Si Si3 0.090523 0.085130 0.117615
Si Si4 0.592319 0.908813 0.552098
Si Si5 0.084576 0.591309 0.058363
Si Si6 0.578620 0.086828 0.680516
Si Si7 0.594139 0.811345 0.049313
O O1 0.750000 0.769612 0.766304
O O2 0.490625 0.721440 0.793689
O O3 0.580581 0.857382 0.829318
O O4 0.522173 0.844822 0.722692
O O5 0.750000 0.342674 0.163718
O O6 0.894526 0.241346 0.104930
O O7 0.007318 0.376415 0.116311
O O8 0.250000 0.086595 0.091402
O O9 0.983297 0.108857 0.066256
O O10 0.049115 0.000000 0.140058
O O11 0.500000 0.871462 0.500000
O O12 0.750000 0.871492 0.547996
O O13 0.524658 0.891627 0.615573
O O14 0.603768 0.000000 0.543456
O O15 0.250000 0.621253 0.054402
O O16 0.082125 0.500000 0.064750
O O17 0.000000 0.616759 0.000000
O O18 0.750000 0.084694 0.682257
O O19 0.523151 0.000000 0.697732
O O20 0.750000 0.830037 0.023860
O O21 0.500000 0.768588 0.000000
#
# Coordination Sequence:
#
# PCOD8210152 Si02
#       7
#     8   8   8   8   8   8   8
#     4   9  16  27  43  59  75  98 130 165 199 235
#     4  10  20  32  45  61  82 105 127 153 187 229
#     4   9  17  28  41  55  69  87 115 153 194 232
#     4   8  13  21  33  50  73 100 131 168 209 250
#     4  10  20  33  50  71  90 106 126 153 187 229
#     4   8  13  22  38  58  77 101 137 178 214 247
#     4  10  20  31  42  55  70  91 118 147 182 224
#
# _framework density 15.059106
#
# number of rings (size 3 to 8) (size 9 to 14) (size 15 to 20)
#    0.000    2.857    0.000    3.000    0.000    6.000 
#    0.000    0.714    0.000    2.143    0.000    0.000 
#    0.000    0.000    0.000    0.000    0.000    0.714 
#
# Total GULP energy -693803.734602 kJ/mol
# GULP energy per Si atom -12389.352404 kJ/mol
# Density = 1.502483 g / cm^3
# Si number density = 15.059106 Si / 1000 Ang^3
#
#
#
# Elastic Constant Matrix: (Units=GPa)
#
#
# Indices 1 2 3 4 5 6 
#
# 1 92.3990 22.4734 34.7872 0.0000 0.0000 0.0000
# 2 22.4734 34.5521 17.9335 0.0000 0.0000 0.0000
# 3 34.7872 17.9335 77.4350 0.0000 0.0000 0.0000
# 4 0.0000 0.0000 0.0000 0.8984 0.0000 0.0000
# 5 0.0000 0.0000 0.0000 0.0000 19.8165 0.0000
# 6 0.0000 0.0000 0.0000 0.0000 0.0000 7.0942
#
#
#
# Elastic Compliance Matrix: (Units=1/GPa)
#
#
# Indices 1 2 3 4 5 6 
#
# 1 0.014299 -0.006782 -0.004853 0.000000 0.000000 0.000000
# 2 -0.006782 0.036112 -0.005317 0.000000 0.000000 0.000000
# 3 -0.004853 -0.005317 0.016326 0.000000 0.000000 0.000000
# 4 0.000000 0.000000 0.000000 1.113071 0.000000 0.000000
# 5 0.000000 0.000000 0.000000 0.000000 0.050463 0.000000
# 6 0.000000 0.000000 0.000000 0.000000 0.000000 0.140959
#
#
# Mechanical properties :
#
#
# Convention : Reuss Voigt Hill
#
# Bulk Modulus (GPa) = 30.45634 39.41937 34.93786
# Shear Modulus (GPa) = 3.53088 14.17465 8.85276
#
# Velocity S-wave (km/s) = 1.53290 3.07134 2.42723
# Velocity P-wave (km/s) = 4.83751 6.22983 5.57728
#
# Compressibility (1/GPa) = 0.03283388
#
# Stress axis : x y z
#
# Youngs Moduli (GPa) = 69.93378 27.69150 61.25316
#
# Poissons Ratio (x) = 0.18779 0.29728
# Poissons Ratio (y) = 0.47426 0.32567
# Poissons Ratio (z) = 0.33941 0.14723
#
# Static dielectric constant tensor:
#      x y z
#    x 3.277730 0.000000 0.000000 
#    y 0.000000 2.676220 0.000000 
#    z 0.000000 0.000000 2.967360 
# 
# 
# High freq. dielectric constant tensor:
#      x y z
#    x 1.575800 0.000000 0.000000 
#    y 0.000000 1.535900 0.000000 
#    z 0.000000 0.000000 1.552930 
# 
# From -- ./inp_files/35066.got.cif
#   From: 2010.03.12/outbox.cif.g09.slc.cpg/sg51_18_cif.got.tgz:35066.got - 2010.04.16 13:43:02.
