data_PCOD8210036
_publ_section_title
;
Structure prediction by ZEFSAII (Michael W. Deem and Ramdas Pophale) SiO2 
 PCOD8210036
Probable space group: P M M A
;
_chemical_formula_sum "Si O2"
_cell_formula_units_Z 44
_cell_length_a 10.162238
_cell_length_b 7.799966
_cell_length_c 28.236060
_cell_angle_alpha 90.000000
_cell_angle_beta 90.000000
_cell_angle_gamma 90.000000
_cell_volume 2238.134427
_symmetry_space_group_name_H-M "P M M A"
_symmetry_group_IT_number 51
_symmetry_cell_setting 'orthorhombic'
loop_
_space_group_symop_operation_xyz
x,y,z
1/2-x,-y,z
1/2+x,-y,-z
-x,y,-z
-x,-y,-z
1/2+x,y,-z
1/2-x,y,z
x,-y,z
loop_
_atom_site_type_symbol
_atom_site_label
_atom_site_fract_x
_atom_site_fract_y
_atom_site_fract_z
Si Si1 0.597470 0.298499 0.308665
Si Si2 0.750000 0.803664 0.056152
Si Si3 0.994218 0.303748 0.891869
Si Si4 0.750000 0.705689 0.949025
Si Si5 0.402631 0.500000 0.456192
Si Si6 0.101127 0.808089 0.386761
Si Si7 0.896340 0.704127 0.203414
O O1 0.750000 0.248612 0.318170
O O2 0.577993 0.500000 0.315719
O O3 0.501215 0.200268 0.343819
O O4 0.554478 0.240996 0.255602
O O5 0.623974 0.709131 0.076811
O O6 0.750000 0.000000 0.072212
O O7 0.750000 0.791542 0.999912
O O8 0.956766 0.500000 0.884428
O O9 0.874708 0.218900 0.920373
O O10 0.013077 0.221322 0.839180
O O11 0.750000 0.500000 0.954846
O O12 0.250000 0.500000 0.472713
O O13 0.500000 0.500000 0.500000
O O14 0.436225 0.329769 0.426526
O O15 0.250000 0.771337 0.368360
O O16 0.092116 0.000000 0.408493
O O17 0.750000 0.777331 0.195225
O O18 0.890846 0.500000 0.200693
#
# Coordination Sequence:
#
# PCOD8210036 Si02
#       7
#     8   4   8   4   4   8   8
#     4   9  17  31  55  86 115 147 190 236 285 341
#     4  12  24  36  54  76  98 138 182 214 268 337
#     4  10  19  36  58  78 104 133 171 223 276 328
#     4  10  22  36  54  80 104 128 172 224 274 329
#     4  10  22  40  62  88 122 160 202 248 297 340
#     4  10  21  38  59  85 121 161 201 242 290 349
#     4   8  14  28  53  81 106 137 176 224 277 329
#
# _framework density 19.659230000000001
#
# number of rings (size 3 to 8) (size 9 to 14) (size 15 to 20)
#    0.000    2.364    1.818    2.455    0.000    4.364 
#    1.636    0.909    0.000    0.000    0.000    0.000 
#    0.000    0.000    0.000    0.000    0.000    0.000 
#
# Total GULP energy -545367.933969 kJ/mol
# GULP energy per Si atom -12394.725772 kJ/mol
# Density = 1.961449 g / cm^3
# Si number density = 19.659230 Si / 1000 Ang^3
#
#
#
# Elastic Constant Matrix: (Units=GPa)
#
#
# Indices 1 2 3 4 5 6 
#
# 1 115.8234 16.6302 76.5313 0.0000 0.0000 0.0000
# 2 16.6302 62.7398 33.8569 0.0000 0.0000 0.0000
# 3 76.5313 33.8569 152.1105 0.0000 0.0000 0.0000
# 4 0.0000 0.0000 0.0000 1.6505 0.0000 0.0000
# 5 0.0000 0.0000 0.0000 0.0000 -26.1310 0.0000
# 6 0.0000 0.0000 0.0000 0.0000 0.0000 17.2296
#
#
#
# Elastic Compliance Matrix: (Units=1/GPa)
#
#
# Indices 1 2 3 4 5 6 
#
# 1 0.012934 0.000095 -0.006529 0.000000 0.000000 0.000000
# 2 0.000095 0.018115 -0.004080 0.000000 0.000000 0.000000
# 3 -0.006529 -0.004080 0.010767 0.000000 0.000000 0.000000
# 4 0.000000 0.000000 0.000000 0.605887 0.000000 0.000000
# 5 0.000000 0.000000 0.000000 0.000000 -0.038269 0.000000
# 6 0.000000 0.000000 0.000000 0.000000 0.000000 0.058040
#
#
# Mechanical properties :
#
#
# Convention : Reuss Voigt Hill
#
# Bulk Modulus (GPa) = 48.10222 64.96785 56.53503
# Shear Modulus (GPa) = 7.18979 12.12683 9.65831
#
# Velocity S-wave (km/s) = 1.91446 2.48634 2.21890
# Velocity P-wave (km/s) = 5.42291 6.43127 5.94850
#
# Compressibility (1/GPa) = 0.02078906
#
# Stress axis : x y z
#
# Youngs Moduli (GPa) = 77.31524 55.20173 92.87655
#
# Poissons Ratio (x) = -0.00523 0.60635
# Poissons Ratio (y) = -0.00732 0.37892
# Poissons Ratio (z) = 0.50476 0.22521
#
# Static dielectric constant tensor:
#      x y z
#    x 3.632070 0.000000 0.000000 
#    y 0.000000 3.393610 0.000000 
#    z 0.000000 0.000000 3.665300 
# 
# 
# High freq. dielectric constant tensor:
#      x y z
#    x 1.758770 0.000000 0.000000 
#    y 0.000000 1.750030 0.000000 
#    z 0.000000 0.000000 1.763730 
# 
# From -- ./inp_files/36838.got.cif
#   From: 2010.03.12/outbox.cif.g09.slc.cpg/sg51_19_cif.got.tgz:36838.got - 2010.04.16 13:43:02.
