data_PCOD8210207
_publ_section_title
;
Structure prediction by ZEFSAII (Michael W. Deem and Ramdas Pophale) SiO2 
 PCOD8210207
Probable space group: P M M A
;
_chemical_formula_sum "Si O2"
_cell_formula_units_Z 48
_cell_length_a 14.515679
_cell_length_b 9.773523
_cell_length_c 19.287039
_cell_angle_alpha 90.000000
_cell_angle_beta 90.000000
_cell_angle_gamma 90.000000
_cell_volume 2736.239157
_symmetry_space_group_name_H-M "P M M A"
_symmetry_group_IT_number 51
_symmetry_cell_setting 'orthorhombic'
loop_
_space_group_symop_operation_xyz
x,y,z
1/2-x,-y,z
1/2+x,-y,-z
-x,y,-z
-x,-y,-z
1/2+x,y,-z
1/2-x,y,z
x,-y,z
loop_
_atom_site_type_symbol
_atom_site_label
_atom_site_fract_x
_atom_site_fract_y
_atom_site_fract_z
Si Si1 0.140778 0.348723 0.005303
Si Si2 0.357824 0.342119 0.850415
Si Si3 0.352989 0.162903 0.502094
Si Si4 0.508292 0.160225 0.235681
Si Si5 0.144549 0.157099 0.126552
Si Si6 0.496872 0.162306 0.391717
O O1 0.250000 0.349724 0.005040
O O2 0.103488 0.500000 0.024166
O O3 0.107474 0.306696 0.928403
O O4 0.103197 0.243488 0.062457
O O5 0.250000 0.313226 0.842930
O O6 0.380135 0.500000 0.833218
O O7 0.408218 0.242800 0.797436
O O8 0.250000 0.226174 0.503603
O O9 0.406994 0.215632 0.433532
O O10 0.409570 0.212193 0.570024
O O11 0.347523 0.000000 0.501187
O O12 0.413507 0.188936 0.195199
O O13 0.494373 0.217306 0.313382
O O14 0.533977 0.000000 0.234664
O O15 0.250000 0.197475 0.143087
O O16 0.136417 0.000000 0.104165
O O17 0.494389 0.000000 0.391681
#
# Coordination Sequence:
#
# PCOD8210207 Si02
#       6
#     8   8   8   8   8   8
#     4   8  15  30  50  67  84 113 157 203 238 271
#     4   9  19  35  51  67  90 121 157 196 237 280
#     4   8  13  23  41  62  85 117 152 184 220 260
#     4  10  20  31  45  69  99 127 153 186 232 281
#     4   9  18  31  45  64  93 126 157 191 233 279
#     4   8  15  26  38  60  93 119 145 183 222 265
#
# _framework density 17.542327
#
# number of rings (size 3 to 8) (size 9 to 14) (size 15 to 20)
#    0.000    3.333    0.000    2.000    0.000    3.667 
#    0.000   10.000    0.000    0.000    0.000    2.333 
#    0.000    1.333    0.000    0.000    0.000    0.000 
#
# Total GULP energy -594933.609932 kJ/mol
# GULP energy per Si atom -12394.450207 kJ/mol
# Density = 1.750240 g / cm^3
# Si number density = 17.542327 Si / 1000 Ang^3
#
#
#
# Elastic Constant Matrix: (Units=GPa)
#
#
# Indices 1 2 3 4 5 6 
#
# 1 107.3807 31.4781 63.8535 0.0000 0.0000 0.0000
# 2 31.4781 40.5270 47.8683 0.0000 0.0000 0.0000
# 3 63.8535 47.8683 162.6442 0.0000 0.0000 0.0000
# 4 0.0000 0.0000 0.0000 -4.7181 0.0000 0.0000
# 5 0.0000 0.0000 0.0000 0.0000 30.7568 0.0000
# 6 0.0000 0.0000 0.0000 0.0000 0.0000 15.3316
#
#
#
# Elastic Compliance Matrix: (Units=1/GPa)
#
#
# Indices 1 2 3 4 5 6 
#
# 1 0.013119 -0.006294 -0.003298 0.000000 0.000000 0.000000
# 2 -0.006294 0.040843 -0.009550 0.000000 0.000000 0.000000
# 3 -0.003298 -0.009550 0.010254 0.000000 0.000000 0.000000
# 4 0.000000 0.000000 0.000000 -0.211951 0.000000 0.000000
# 5 0.000000 0.000000 0.000000 0.000000 0.032513 0.000000
# 6 0.000000 0.000000 0.000000 0.000000 0.000000 0.065225
#
#
# Mechanical properties :
#
#
# Convention : Reuss Voigt Hill
#
# Bulk Modulus (GPa) = 38.56210 66.32797 52.44503
# Shear Modulus (GPa) = -1629.02132 19.43084 -804.79524
#
# Velocity S-wave (km/s) = -30.50638 3.33176 -21.44223
# Velocity P-wave (km/s) = 34.91164 7.25900 24.14673
#
# Compressibility (1/GPa) = 0.02593220
#
# Stress axis : x y z
#
# Youngs Moduli (GPa) = 76.22571 24.48378 97.52564
#
# Poissons Ratio (x) = 0.15411 0.32163
# Poissons Ratio (y) = 0.47980 0.93133
# Poissons Ratio (z) = 0.25139 0.23381
#
# Static dielectric constant tensor:
#      x y z
#    x 3.317280 0.000000 0.000000 
#    y 0.000000 2.990270 0.000000 
#    z 0.000000 0.000000 3.524340 
# 
# 
# High freq. dielectric constant tensor:
#      x y z
#    x 1.681970 0.000000 0.000000 
#    y 0.000000 1.633350 0.000000 
#    z 0.000000 0.000000 1.678120 
# 
# From -- ./inp_files/24056.got.cif
#   From: 2010.03.12/outbox.cif.g09.slc.cpg/sg51_13_cif.got.tgz:24056.got - 2010.04.16 13:43:02.
