data_PCOD8210759
_publ_section_title
;
Structure prediction by ZEFSAII (Michael W. Deem and Ramdas Pophale) SiO2 
 PCOD8210759
Probable space group: P M M A
;
_chemical_formula_sum "Si O2"
_cell_formula_units_Z 64
_cell_length_a 22.956442
_cell_length_b 9.042367
_cell_length_c 18.178196
_cell_angle_alpha 90.000000
_cell_angle_beta 90.000000
_cell_angle_gamma 90.000000
_cell_volume 3773.440352
_symmetry_space_group_name_H-M "P M M A"
_symmetry_group_IT_number 51
_symmetry_cell_setting 'orthorhombic'
loop_
_space_group_symop_operation_xyz
x,y,z
1/2-x,-y,z
1/2+x,-y,-z
-x,y,-z
-x,-y,-z
1/2+x,y,-z
1/2-x,y,z
x,-y,z
loop_
_atom_site_type_symbol
_atom_site_label
_atom_site_fract_x
_atom_site_fract_y
_atom_site_fract_z
Si Si1 0.686025 0.675250 0.073997
Si Si2 0.010302 0.170781 0.416049
Si Si3 0.181879 0.172287 0.227765
Si Si4 0.883697 0.170766 0.362519
Si Si5 0.682704 0.674102 0.233547
Si Si6 0.875509 0.675205 0.636596
Si Si7 0.319404 0.665837 0.082890
Si Si8 0.317088 0.830288 0.494990
O O1 0.750000 0.747431 0.075604
O O2 0.692096 0.500000 0.071740
O O3 0.657099 0.720450 0.152334
O O4 0.654512 0.722136 0.996835
O O5 0.059573 0.271424 0.380545
O O6 0.000000 0.220352 0.500000
O O7 0.952616 0.196355 0.367918
O O8 0.030246 0.000000 0.414392
O O9 0.250000 0.207687 0.239728
O O10 0.144003 0.263586 0.284991
O O11 0.160964 0.222518 0.146718
O O12 0.168769 0.000000 0.237369
O O13 0.859493 0.252975 0.292061
O O14 0.853977 0.232394 0.436722
O O15 0.867332 0.000000 0.354373
O O16 0.750000 0.726027 0.243190
O O17 0.679221 0.500000 0.244642
O O18 0.873888 0.500000 0.638524
O O19 0.830369 0.732836 0.575961
O O20 0.250000 0.663651 0.075218
O O21 0.341753 0.500000 0.101592
O O22 0.250000 0.815130 0.516026
O O23 0.334215 0.000000 0.477413
#
# Coordination Sequence:
#
# PCOD8210759 Si02
#       8
#     8   8   8   8   8   8   8   8
#     4   7  11  22  41  65  95 133 168 193 228 282
#     4  10  20  39  60  71  88 123 166 208 251 298
#     4  10  20  33  49  71 102 136 166 197 240 295
#     4  10  20  34  53  73  93 124 165 206 245 287
#     4   9  17  29  46  71 105 139 166 196 238 289
#     4  12  24  35  51  74  99 124 160 207 250 291
#     4   8  13  24  44  68  95 128 166 203 235 274
#     4  10  20  35  53  71  96 131 166 196 236 294
#
# _framework density 16.960650999999999
#
# number of rings (size 3 to 8) (size 9 to 14) (size 15 to 20)
#    0.000    2.500    1.250    3.750    0.000    4.500 
#    0.000    0.625    0.000    2.250    0.000    0.875 
#    0.000    7.000    0.000    0.000    0.000    0.000 
#
# Total GULP energy -793179.372797 kJ/mol
# GULP energy per Si atom -12393.427700 kJ/mol
# Density = 1.692205 g / cm^3
# Si number density = 16.960651 Si / 1000 Ang^3
#
#
#
# Elastic Constant Matrix: (Units=GPa)
#
#
# Indices 1 2 3 4 5 6 
#
# 1 57.6698 29.6120 37.2283 0.0000 0.0000 0.0000
# 2 29.6120 71.5660 51.4093 0.0000 0.0000 0.0000
# 3 37.2283 51.4093 144.1053 0.0000 0.0000 0.0000
# 4 0.0000 0.0000 0.0000 -156.7852 0.0000 0.0000
# 5 0.0000 0.0000 0.0000 0.0000 6.8779 0.0000
# 6 0.0000 0.0000 0.0000 0.0000 0.0000 20.8340
#
#
#
# Elastic Compliance Matrix: (Units=1/GPa)
#
#
# Indices 1 2 3 4 5 6 
#
# 1 0.023233 -0.007129 -0.003459 0.000000 0.000000 0.000000
# 2 -0.007129 0.020975 -0.005641 0.000000 0.000000 0.000000
# 3 -0.003459 -0.005641 0.009845 0.000000 0.000000 0.000000
# 4 0.000000 0.000000 0.000000 -0.006378 0.000000 0.000000
# 5 0.000000 0.000000 0.000000 0.000000 0.145392 0.000000
# 6 0.000000 0.000000 0.000000 0.000000 0.000000 0.047998
#
#
# Mechanical properties :
#
#
# Convention : Reuss Voigt Hill
#
# Bulk Modulus (GPa) = 46.30414 56.64890 51.47652
# Shear Modulus (GPa) = 17.81116 -15.47521 1.16798
#
# Velocity S-wave (km/s) = 3.24411 -3.02390 0.83074
# Velocity P-wave (km/s) = 6.43370 4.61310 5.59791
#
# Compressibility (1/GPa) = 0.02159634
#
# Stress axis : x y z
#
# Youngs Moduli (GPa) = 43.04149 47.67562 101.56949
#
# Poissons Ratio (x) = 0.33986 0.35133
# Poissons Ratio (y) = 0.30682 0.57298
# Poissons Ratio (z) = 0.14888 0.26895
#
# Static dielectric constant tensor:
#      x y z
#    x 2.887210 0.000000 0.000000 
#    y 0.000000 3.012400 0.000000 
#    z 0.000000 0.000000 3.549060 
# 
# 
# High freq. dielectric constant tensor:
#      x y z
#    x 1.614600 0.000000 0.000000 
#    y 0.000000 1.638350 0.000000 
#    z 0.000000 0.000000 1.670720 
# 
# From -- ./inp_files/30940.got.cif
#   From: 2010.03.12/outbox.cif.g09.slc.cpg/sg51_16_cif.got.tgz:30940.got - 2010.04.16 13:43:02.
