data_PCOD8210755
_publ_section_title
;
Structure prediction by ZEFSAII (Michael W. Deem and Ramdas Pophale) SiO2 
 PCOD8210755
Probable space group: P M M A
;
_chemical_formula_sum "Si O2"
_cell_formula_units_Z 56
_cell_length_a 9.089318
_cell_length_b 15.514075
_cell_length_c 20.231888
_cell_angle_alpha 90.000000
_cell_angle_beta 90.000000
_cell_angle_gamma 90.000000
_cell_volume 2852.946297
_symmetry_space_group_name_H-M "P M M A"
_symmetry_group_IT_number 51
_symmetry_cell_setting 'orthorhombic'
loop_
_space_group_symop_operation_xyz
x,y,z
1/2-x,-y,z
1/2+x,-y,-z
-x,y,-z
-x,-y,-z
1/2+x,y,-z
1/2-x,y,z
x,-y,z
loop_
_atom_site_type_symbol
_atom_site_label
_atom_site_fract_x
_atom_site_fract_y
_atom_site_fract_z
Si Si1 0.918504 0.904579 0.400244
Si Si2 0.419202 0.309320 0.294057
Si Si3 0.074206 0.723832 0.932877
Si Si4 0.582440 0.144955 0.255447
Si Si5 0.576704 0.092164 0.114086
Si Si6 0.579567 0.597702 0.833045
Si Si7 0.076611 0.734686 0.435811
O O1 0.750000 0.878116 0.416505
O O2 0.942109 0.910222 0.321345
O O3 0.028005 0.835000 0.431749
O O4 0.954480 0.000000 0.428408
O O5 0.250000 0.286930 0.302625
O O6 0.488864 0.230984 0.255079
O O7 0.446131 0.391573 0.246620
O O8 0.479470 0.316848 0.369848
O O9 0.250000 0.719641 0.937990
O O10 0.014001 0.821721 0.920747
O O11 0.023682 0.661627 0.873922
O O12 0.000000 0.689935 0.000000
O O13 0.750000 0.175274 0.248104
O O14 0.534753 0.090589 0.191618
O O15 0.750000 0.094115 0.104674
O O16 0.515386 0.000000 0.085116
O O17 0.750000 0.617384 0.849846
O O18 0.537764 0.500000 0.851374
O O19 0.250000 0.729590 0.445751
O O20 0.000000 0.691905 0.500000
#
# Coordination Sequence:
#
# PCOD8210755 Si02
#       7
#     8   8   8   8   8   8   8
#     4   9  17  28  44  68  98 133 175 224 274 323
#     4   9  18  33  54  79 108 137 172 220 273 324
#     4  11  23  39  59  84 116 154 189 229 276 324
#     4   9  15  27  49  75 102 136 178 222 270 321
#     4   9  17  30  51  79 110 146 188 229 270 318
#     4  10  21  39  64  90 114 142 178 224 280 341
#     4  10  20  33  49  71 100 139 179 219 266 322
#
# _framework density 19.628830000000001
#
# number of rings (size 3 to 8) (size 9 to 14) (size 15 to 20)
#    0.000    2.429    1.429    1.286    0.000    3.714 
#    0.000    0.000    0.000    4.714    0.000    0.000 
#    0.000    0.000    0.000    0.000    0.000    0.429 
#
# Total GULP energy -693881.440314 kJ/mol
# GULP energy per Si atom -12390.740006 kJ/mol
# Density = 1.958415 g / cm^3
# Si number density = 19.628830 Si / 1000 Ang^3
#
#
#
# Elastic Constant Matrix: (Units=GPa)
#
#
# Indices 1 2 3 4 5 6 
#
# 1 49.2932 28.3440 38.8177 0.0000 0.0000 0.0000
# 2 28.3440 90.9330 36.4897 0.0000 0.0000 0.0000
# 3 38.8177 36.4897 113.1972 0.0000 0.0000 0.0000
# 4 0.0000 0.0000 0.0000 14.6822 0.0000 0.0000
# 5 0.0000 0.0000 0.0000 0.0000 25.0571 0.0000
# 6 0.0000 0.0000 0.0000 0.0000 0.0000 19.6561
#
#
#
# Elastic Compliance Matrix: (Units=1/GPa)
#
#
# Indices 1 2 3 4 5 6 
#
# 1 0.030473 -0.006093 -0.008486 0.000000 0.000000 0.000000
# 2 -0.006093 0.013849 -0.002375 0.000000 0.000000 0.000000
# 3 -0.008486 -0.002375 0.012510 0.000000 0.000000 0.000000
# 4 0.000000 0.000000 0.000000 0.068109 0.000000 0.000000
# 5 0.000000 0.000000 0.000000 0.000000 0.039909 0.000000
# 6 0.000000 0.000000 0.000000 0.000000 0.000000 0.050875
#
#
# Mechanical properties :
#
#
# Convention : Reuss Voigt Hill
#
# Bulk Modulus (GPa) = 43.62204 51.19181 47.40693
# Shear Modulus (GPa) = 19.43456 21.86389 20.64923
#
# Velocity S-wave (km/s) = 3.15000 3.34108 3.24695
# Velocity P-wave (km/s) = 5.95833 6.40471 6.18555
#
# Compressibility (1/GPa) = 0.02292419
#
# Stress axis : x y z
#
# Youngs Moduli (GPa) = 32.81627 72.20526 79.93884
#
# Poissons Ratio (x) = 0.43997 0.67832
# Poissons Ratio (y) = 0.19996 0.18985
# Poissons Ratio (z) = 0.27846 0.17148
#
# Static dielectric constant tensor:
#      x y z
#    x 3.369180 0.000000 0.000000 
#    y 0.000000 3.725710 0.000000 
#    z 0.000000 0.000000 3.867810 
# 
# 
# High freq. dielectric constant tensor:
#      x y z
#    x 1.743650 0.000000 0.000000 
#    y 0.000000 1.737990 0.000000 
#    z 0.000000 0.000000 1.775860 
# 
# From -- ./inp_files/31914.got.cif
#   From: 2010.03.12/outbox.cif.g09.slc.cpg/sg51_16_cif.got.tgz:31914.got - 2010.04.16 13:43:02.
