data_PCOD8210308
_publ_section_title
;
Structure prediction by ZEFSAII (Michael W. Deem and Ramdas Pophale) SiO2 
 PCOD8210308
Probable space group: P M M A
;
_chemical_formula_sum "Si O2"
_cell_formula_units_Z 56
_cell_length_a 19.199165
_cell_length_b 9.131201
_cell_length_c 18.932104
_cell_angle_alpha 90.000000
_cell_angle_beta 90.000000
_cell_angle_gamma 90.000000
_cell_volume 3319.014313
_symmetry_space_group_name_H-M "P M M A"
_symmetry_group_IT_number 51
_symmetry_cell_setting 'orthorhombic'
loop_
_space_group_symop_operation_xyz
x,y,z
1/2-x,-y,z
1/2+x,-y,-z
-x,y,-z
-x,-y,-z
1/2+x,y,-z
1/2-x,y,z
x,-y,z
loop_
_atom_site_type_symbol
_atom_site_label
_atom_site_fract_x
_atom_site_fract_y
_atom_site_fract_z
Si Si1 0.486567 0.661009 0.283242
Si Si2 0.614198 0.165082 0.110307
Si Si3 0.827317 0.168909 0.380175
Si Si4 0.046251 0.835917 0.154895
Si Si5 0.855992 0.662714 0.240722
Si Si6 0.541518 0.673157 0.430489
Si Si7 0.420023 0.665101 0.022395
O O1 0.451046 0.500000 0.284480
O O2 0.442107 0.769186 0.233572
O O3 0.562028 0.646345 0.249269
O O4 0.494882 0.722626 0.363126
O O5 0.534150 0.162601 0.133644
O O6 0.659977 0.252829 0.167793
O O7 0.642775 0.000000 0.103929
O O8 0.623831 0.244407 0.035124
O O9 0.750000 0.181908 0.414429
O O10 0.823675 0.244892 0.304130
O O11 0.883722 0.246770 0.430710
O O12 0.848983 0.000000 0.370125
O O13 0.089473 0.740497 0.098636
O O14 0.076383 0.000000 0.155463
O O15 0.822436 0.500000 0.238617
O O16 0.500000 0.720038 0.500000
O O17 0.555950 0.500000 0.426765
O O18 0.391023 0.500000 0.026728
O O19 0.500000 0.663988 0.000000
#
# Coordination Sequence:
#
# PCOD8210308 Si02
#       7
#     8   8   8   8   8   8   8
#     4   8  14  24  37  53  74 100 131 168 209 254
#     4   9  15  22  32  47  69  96 128 167 207 245
#     4  10  20  32  46  66  91 118 149 185 225 269
#     4   9  15  21  30  45  66  94 129 166 203 244
#     4   9  16  26  40  56  75 103 139 175 211 252
#     4   9  18  32  49  68  89 115 149 187 228 278
#     4   9  15  21  29  42  63  93 129 166 203 243
#
# _framework density 16.872478999999998
#
# number of rings (size 3 to 8) (size 9 to 14) (size 15 to 20)
#    0.000    3.000    0.000    3.000    0.000   10.000 
#    0.000    0.000    0.000    0.000    0.000    0.000 
#    0.000    0.000    0.000    1.286    0.000   23.714 
#
# Total GULP energy -694099.542502 kJ/mol
# GULP energy per Si atom -12394.634688 kJ/mol
# Density = 1.683408 g / cm^3
# Si number density = 16.872479 Si / 1000 Ang^3
#
#
#
# Elastic Constant Matrix: (Units=GPa)
#
#
# Indices 1 2 3 4 5 6 
#
# 1 34.1120 28.5985 33.9568 0.0000 0.0000 0.0000
# 2 28.5985 135.9018 67.7123 0.0000 0.0000 0.0000
# 3 33.9568 67.7123 133.9056 0.0000 0.0000 0.0000
# 4 0.0000 0.0000 0.0000 24.5542 0.0000 0.0000
# 5 0.0000 0.0000 0.0000 0.0000 6.3866 0.0000
# 6 0.0000 0.0000 0.0000 0.0000 0.0000 6.4868
#
#
#
# Elastic Compliance Matrix: (Units=1/GPa)
#
#
# Indices 1 2 3 4 5 6 
#
# 1 0.041294 -0.004642 -0.008124 0.000000 0.000000 0.000000
# 2 -0.004642 0.010358 -0.004061 0.000000 0.000000 0.000000
# 3 -0.008124 -0.004061 0.011582 0.000000 0.000000 0.000000
# 4 0.000000 0.000000 0.000000 0.040726 0.000000 0.000000
# 5 0.000000 0.000000 0.000000 0.000000 0.156578 0.000000
# 6 0.000000 0.000000 0.000000 0.000000 0.000000 0.154159
#
#
# Mechanical properties :
#
#
# Convention : Reuss Voigt Hill
#
# Bulk Modulus (GPa) = 33.80653 62.71716 48.26184
# Shear Modulus (GPa) = 10.91200 19.06232 14.98716
#
# Velocity S-wave (km/s) = 2.54585 3.36488 2.98360
# Velocity P-wave (km/s) = 5.35927 7.23523 6.36672
#
# Compressibility (1/GPa) = 0.02958009
#
# Stress axis : x y z
#
# Youngs Moduli (GPa) = 24.21644 96.54068 86.34343
#
# Poissons Ratio (x) = 0.44812 0.70150
# Poissons Ratio (y) = 0.11241 0.35063
# Poissons Ratio (z) = 0.19675 0.39203
#
# Static dielectric constant tensor:
#      x y z
#    x 2.531960 0.000000 0.000000 
#    y 0.000000 3.435170 0.000000 
#    z 0.000000 0.000000 3.227350 
# 
# 
# High freq. dielectric constant tensor:
#      x y z
#    x 1.572020 0.000000 0.000000 
#    y 0.000000 1.668090 0.000000 
#    z 0.000000 0.000000 1.643470 
# 
# From -- ./inp_files/33739.got.cif
#   From: 2010.03.12/outbox.cif.g09.slc.cpg/sg51_17_cif.got.tgz:33739.got - 2010.04.16 13:43:02.
