data_PCOD8210210
_publ_section_title
;
Structure prediction by ZEFSAII (Michael W. Deem and Ramdas Pophale) SiO2 
 PCOD8210210
Probable space group: P M M A
;
_chemical_formula_sum "Si O2"
_cell_formula_units_Z 48
_cell_length_a 18.028145
_cell_length_b 9.311129
_cell_length_c 16.229083
_cell_angle_alpha 90.000000
_cell_angle_beta 90.000000
_cell_angle_gamma 90.000000
_cell_volume 2724.252558
_symmetry_space_group_name_H-M "P M M A"
_symmetry_group_IT_number 51
_symmetry_cell_setting 'orthorhombic'
loop_
_space_group_symop_operation_xyz
x,y,z
1/2-x,-y,z
1/2+x,-y,-z
-x,y,-z
-x,-y,-z
1/2+x,y,-z
1/2-x,y,z
x,-y,z
loop_
_atom_site_type_symbol
_atom_site_label
_atom_site_fract_x
_atom_site_fract_y
_atom_site_fract_z
Si Si1 0.163509 0.336859 0.839126
Si Si2 0.480485 0.667711 0.408470
Si Si3 0.396555 0.166156 0.173859
Si Si4 0.048728 0.833787 0.737880
Si Si5 0.335710 0.665653 0.027317
Si Si6 0.167424 0.664731 0.320562
O O1 0.250000 0.322608 0.820208
O O2 0.136932 0.500000 0.823374
O O3 0.122176 0.229749 0.778289
O O4 0.146714 0.293125 0.933225
O O5 0.500000 0.719669 0.500000
O O6 0.497480 0.500000 0.397111
O O7 0.533645 0.754245 0.347742
O O8 0.393864 0.703271 0.389793
O O9 0.481314 0.190913 0.199348
O O10 0.386736 0.235757 0.084409
O O11 0.342241 0.239621 0.239561
O O12 0.375242 0.000000 0.169570
O O13 0.061536 0.000000 0.718323
O O14 0.250000 0.695475 0.047673
O O15 0.355118 0.500000 0.043792
O O16 0.250000 0.692243 0.357082
O O17 0.158007 0.500000 0.292650
#
# Coordination Sequence:
#
# PCOD8210210 Si02
#       6
#     8   8   8   8   8   8
#     4   9  19  36  55  73  95 127 169 212 248 286
#     4   9  18  34  55  76  99 129 165 204 248 298
#     4  10  20  31  45  70 102 133 164 199 241 291
#     4  10  21  35  51  73 101 131 162 199 247 301
#     4   9  18  32  49  70  97 130 168 208 248 287
#     4   9  17  30  49  72  98 128 162 201 244 290
#
# _framework density 17.619512
#
# number of rings (size 3 to 8) (size 9 to 14) (size 15 to 20)
#    0.000    2.667    0.000    2.500    0.000    6.667 
#    0.000    5.833    0.000    3.000    0.000    0.000 
#    0.000    0.000    0.000    0.000    0.000    0.000 
#
# Total GULP energy -595273.599044 kJ/mol
# GULP energy per Si atom -12401.533313 kJ/mol
# Density = 1.757941 g / cm^3
# Si number density = 17.619512 Si / 1000 Ang^3
#
#
#
# Elastic Constant Matrix: (Units=GPa)
#
#
# Indices 1 2 3 4 5 6 
#
# 1 73.9615 43.7234 61.8529 0.0000 0.0000 0.0000
# 2 43.7234 88.0267 67.0504 0.0000 0.0000 0.0000
# 3 61.8529 67.0504 125.3382 0.0000 0.0000 0.0000
# 4 0.0000 0.0000 0.0000 11.7751 0.0000 0.0000
# 5 0.0000 0.0000 0.0000 0.0000 23.1026 0.0000
# 6 0.0000 0.0000 0.0000 0.0000 0.0000 22.9441
#
#
#
# Elastic Compliance Matrix: (Units=1/GPa)
#
#
# Indices 1 2 3 4 5 6 
#
# 1 0.024231 -0.004941 -0.009315 0.000000 0.000000 0.000000
# 2 -0.004941 0.020180 -0.008357 0.000000 0.000000 0.000000
# 3 -0.009315 -0.008357 0.017046 0.000000 0.000000 0.000000
# 4 0.000000 0.000000 0.000000 0.084925 0.000000 0.000000
# 5 0.000000 0.000000 0.000000 0.000000 0.043285 0.000000
# 6 0.000000 0.000000 0.000000 0.000000 0.000000 0.043584
#
#
# Mechanical properties :
#
#
# Convention : Reuss Voigt Hill
#
# Bulk Modulus (GPa) = 61.60787 70.28664 65.94726
# Shear Modulus (GPa) = 17.61266 19.21101 18.41183
#
# Velocity S-wave (km/s) = 3.16509 3.30559 3.23610
# Velocity P-wave (km/s) = 6.95692 7.38561 7.17447
#
# Compressibility (1/GPa) = 0.01623169
#
# Stress axis : x y z
#
# Youngs Moduli (GPa) = 41.26937 49.55398 58.66528
#
# Poissons Ratio (x) = 0.24483 0.54645
# Poissons Ratio (y) = 0.20390 0.49028
# Poissons Ratio (z) = 0.38441 0.41413
#
# Static dielectric constant tensor:
#      x y z
#    x 3.210020 0.000000 0.000000 
#    y 0.000000 3.262010 0.000000 
#    z 0.000000 0.000000 3.138340 
# 
# 
# High freq. dielectric constant tensor:
#      x y z
#    x 1.677300 0.000000 0.000000 
#    y 0.000000 1.681760 0.000000 
#    z 0.000000 0.000000 1.668620 
# 
# From -- ./inp_files/24678.got.cif
#   From: 2010.03.12/outbox.cif.g09.slc.cpg/sg51_13_cif.got.tgz:24678.got - 2010.04.16 13:43:02.
