data_PCOD8210192
_publ_section_title
;
Structure prediction by ZEFSAII (Michael W. Deem and Ramdas Pophale) SiO2 
 PCOD8210192
Probable space group: P M M A
;
_chemical_formula_sum "Si O2"
_cell_formula_units_Z 48
_cell_length_a 17.508682
_cell_length_b 9.281128
_cell_length_c 17.913779
_cell_angle_alpha 90.000000
_cell_angle_beta 90.000000
_cell_angle_gamma 90.000000
_cell_volume 2910.994798
_symmetry_space_group_name_H-M "P M M A"
_symmetry_group_IT_number 51
_symmetry_cell_setting 'orthorhombic'
loop_
_space_group_symop_operation_xyz
x,y,z
1/2-x,-y,z
1/2+x,-y,-z
-x,y,-z
-x,-y,-z
1/2+x,y,-z
1/2-x,y,z
x,-y,z
loop_
_atom_site_type_symbol
_atom_site_label
_atom_site_fract_x
_atom_site_fract_y
_atom_site_fract_z
Si Si1 0.162925 0.166156 0.957371
Si Si2 0.839485 0.332801 0.446764
Si Si3 0.935531 0.337375 0.937450
Si Si4 0.039572 0.168068 0.835551
Si Si5 0.445606 0.830483 0.665861
Si Si6 0.430311 0.158673 0.443159
O O1 0.250000 0.201342 0.937173
O O2 0.113698 0.206928 0.884642
O O3 0.150686 0.000000 0.978770
O O4 0.138915 0.258682 0.029559
O O5 0.750000 0.306253 0.438921
O O6 0.861025 0.500000 0.444929
O O7 0.879982 0.254967 0.377626
O O8 0.867107 0.269806 0.526800
O O9 0.913893 0.500000 0.915320
O O10 0.965759 0.254973 0.864319
O O11 0.000000 0.332200 0.000000
O O12 0.058029 0.216824 0.751710
O O13 0.019270 0.000000 0.839924
O O14 0.530942 0.792360 0.635118
O O15 0.429241 0.000000 0.655123
O O16 0.500000 0.151456 0.500000
O O17 0.392492 0.000000 0.435540
#
# Coordination Sequence:
#
# PCOD8210192 Si02
#       6
#     8   8   8   8   8   8
#     4   9  17  29  46  68  92 119 151 185 222 265
#     4  10  20  31  44  66  94 122 152 185 223 268
#     4   9  17  29  45  65  89 119 154 187 221 264
#     4   9  17  30  48  69  93 119 148 185 226 269
#     4   9  18  31  48  70  93 118 150 187 227 270
#     4   8  15  29  47  66  87 114 151 188 221 263
#
# _framework density 16.489207
#
# number of rings (size 3 to 8) (size 9 to 14) (size 15 to 20)
#    0.000    3.000    0.000    2.000    0.000    8.000 
#    0.000    1.667    0.000    1.000    0.000    2.333 
#    0.000    0.000    0.000    0.000    0.000    0.000 
#
# Total GULP energy -595056.222099 kJ/mol
# GULP energy per Si atom -12397.004627 kJ/mol
# Density = 1.645168 g / cm^3
# Si number density = 16.489207 Si / 1000 Ang^3
#
#
#
# Elastic Constant Matrix: (Units=GPa)
#
#
# Indices 1 2 3 4 5 6 
#
# 1 68.1991 52.5086 72.2522 0.0000 0.0000 0.0000
# 2 52.5086 91.2198 60.7777 0.0000 0.0000 0.0000
# 3 72.2522 60.7777 90.4585 0.0000 0.0000 0.0000
# 4 0.0000 0.0000 0.0000 15.0813 0.0000 0.0000
# 5 0.0000 0.0000 0.0000 0.0000 18.6718 0.0000
# 6 0.0000 0.0000 0.0000 0.0000 0.0000 24.5761
#
#
#
# Elastic Compliance Matrix: (Units=1/GPa)
#
#
# Indices 1 2 3 4 5 6 
#
# 1 0.098259 -0.007730 -0.073289 0.000000 0.000000 0.000000
# 2 -0.007730 0.020456 -0.007570 0.000000 0.000000 0.000000
# 3 -0.073289 -0.007570 0.074680 0.000000 0.000000 0.000000
# 4 0.000000 0.000000 0.000000 0.066307 0.000000 0.000000
# 5 0.000000 0.000000 0.000000 0.000000 0.053557 0.000000
# 6 0.000000 0.000000 0.000000 0.000000 0.000000 0.040690
#
#
# Mechanical properties :
#
#
# Convention : Reuss Voigt Hill
#
# Bulk Modulus (GPa) = 61.66574 68.99494 65.33034
# Shear Modulus (GPa) = 9.31911 15.95510 12.63711
#
# Velocity S-wave (km/s) = 2.37990 3.11402 2.77137
# Velocity P-wave (km/s) = 6.71049 7.40694 7.06730
#
# Compressibility (1/GPa) = 0.01621646
#
# Stress axis : x y z
#
# Youngs Moduli (GPa) = 10.17717 48.88647 13.39054
#
# Poissons Ratio (x) = 0.37787 0.98139
# Poissons Ratio (y) = 0.07866 0.10137
# Poissons Ratio (z) = 0.74588 0.37007
#
# Static dielectric constant tensor:
#      x y z
#    x 3.001040 0.000000 0.000000 
#    y 0.000000 3.184150 0.000000 
#    z 0.000000 0.000000 3.261160 
# 
# 
# High freq. dielectric constant tensor:
#      x y z
#    x 1.614120 0.000000 0.000000 
#    y 0.000000 1.636890 0.000000 
#    z 0.000000 0.000000 1.621420 
# 
# From -- ./inp_files/30018.got.cif
#   From: 2010.03.12/outbox.cif.g09.slc.cpg/sg51_16_cif.got.tgz:30018.got - 2010.04.16 13:43:02.
