data_PCOD8210438
_publ_section_title
;
Structure prediction by ZEFSAII (Michael W. Deem and Ramdas Pophale) SiO2 
 PCOD8210438
Probable space group: P M M A
;
_chemical_formula_sum "Si O2"
_cell_formula_units_Z 64
_cell_length_a 14.073615
_cell_length_b 9.188945
_cell_length_c 25.715627
_cell_angle_alpha 90.000000
_cell_angle_beta 90.000000
_cell_angle_gamma 90.000000
_cell_volume 3325.587936
_symmetry_space_group_name_H-M "P M M A"
_symmetry_group_IT_number 51
_symmetry_cell_setting 'orthorhombic'
loop_
_space_group_symop_operation_xyz
x,y,z
1/2-x,-y,z
1/2+x,-y,-z
-x,y,-z
-x,-y,-z
1/2+x,y,-z
1/2-x,y,z
x,-y,z
loop_
_atom_site_type_symbol
_atom_site_label
_atom_site_fract_x
_atom_site_fract_y
_atom_site_fract_z
Si Si1 0.105824 0.661907 0.480171
Si Si2 0.354190 0.672337 0.868696
Si Si3 0.447692 0.172078 0.381290
Si Si4 0.861196 0.330615 0.715872
Si Si5 0.951064 0.670814 0.825023
Si Si6 0.137213 0.837059 0.080305
Si Si7 0.362159 0.661432 0.983121
Si Si8 0.851971 0.165262 0.422627
O O1 0.147223 0.500000 0.469833
O O2 0.113068 0.755003 0.427430
O O3 0.163310 0.740533 0.525536
O O4 0.000000 0.651172 0.500000
O O5 0.250000 0.734883 0.851451
O O6 0.345091 0.500000 0.873289
O O7 0.437085 0.716491 0.828273
O O8 0.383944 0.730416 0.926135
O O9 0.410683 0.233805 0.327485
O O10 0.559679 0.215645 0.386861
O O11 0.431743 0.000000 0.382867
O O12 0.750000 0.294321 0.719364
O O13 0.878322 0.500000 0.703450
O O14 0.911223 0.283519 0.769231
O O15 0.937954 0.500000 0.834700
O O16 0.890564 0.751799 0.868122
O O17 0.250000 0.839479 0.076508
O O18 0.096067 0.000000 0.083047
O O19 0.093021 0.759771 0.028986
O O20 0.250000 0.652406 0.990341
O O21 0.406393 0.500000 0.988331
O O22 0.750000 0.177307 0.392331
O O23 0.872099 0.000000 0.440394
#
# Coordination Sequence:
#
# PCOD8210438 Si02
#       8
#     8   8   8   8   8   8   8   8
#     4   9  17  30  50  77 109 142 175 213 254 295
#     4   8  15  30  53  79 103 128 163 206 249 298
#     4  10  20  35  56  79 104 139 181 219 256 303
#     4  10  22  39  56  75 101 132 168 214 265 310
#     4  10  20  35  56  77  98 129 169 212 257 306
#     4  10  20  32  47  71 104 137 168 207 254 301
#     4   8  14  27  48  72  99 132 167 201 241 297
#     4   9  18  33  53  79 112 146 177 210 251 302
#
# _framework density 19.244717000000001
#
# number of rings (size 3 to 8) (size 9 to 14) (size 15 to 20)
#    0.000    2.750    0.000    2.250    0.000    5.250 
#    0.000    3.750    0.000    1.875    0.000    0.000 
#    0.000    0.000    0.000    0.000    0.000    0.000 
#
# Total GULP energy -793221.031349 kJ/mol
# GULP energy per Si atom -12394.078615 kJ/mol
# Density = 1.920091 g / cm^3
# Si number density = 19.244717 Si / 1000 Ang^3
#
#
#
# Elastic Constant Matrix: (Units=GPa)
#
#
# Indices 1 2 3 4 5 6 
#
# 1 95.4204 35.1420 60.2812 0.0000 0.0000 0.0000
# 2 35.1420 83.6629 60.8062 0.0000 0.0000 0.0000
# 3 60.2812 60.8062 133.8944 0.0000 0.0000 0.0000
# 4 0.0000 0.0000 0.0000 -1.0374 0.0000 0.0000
# 5 0.0000 0.0000 0.0000 0.0000 25.3357 0.0000
# 6 0.0000 0.0000 0.0000 0.0000 0.0000 13.3559
#
#
#
# Elastic Compliance Matrix: (Units=1/GPa)
#
#
# Indices 1 2 3 4 5 6 
#
# 1 0.014880 -0.002062 -0.005763 0.000000 0.000000 0.000000
# 2 -0.002062 0.018127 -0.007304 0.000000 0.000000 0.000000
# 3 -0.005763 -0.007304 0.013380 0.000000 0.000000 0.000000
# 4 0.000000 0.000000 0.000000 -0.963976 0.000000 0.000000
# 5 0.000000 0.000000 0.000000 0.000000 0.039470 0.000000
# 6 0.000000 0.000000 0.000000 0.000000 0.000000 0.074874
#
#
# Mechanical properties :
#
#
# Convention : Reuss Voigt Hill
#
# Bulk Modulus (GPa) = 61.99600 69.49296 65.74448
# Shear Modulus (GPa) = -6.51371 17.98073 5.73351
#
# Velocity S-wave (km/s) = -1.84174 3.05998 1.72793
# Velocity P-wave (km/s) = 5.26895 6.97662 6.18203
#
# Compressibility (1/GPa) = 0.01613007
#
# Stress axis : x y z
#
# Youngs Moduli (GPa) = 67.20487 55.16529 74.73797
#
# Poissons Ratio (x) = 0.11374 0.43070
# Poissons Ratio (y) = 0.13856 0.54589
# Poissons Ratio (z) = 0.38729 0.40293
#
# Static dielectric constant tensor:
#      x y z
#    x 3.678330 0.000000 0.000000 
#    y 0.000000 3.571510 0.000000 
#    z 0.000000 0.000000 3.392570 
# 
# 
# High freq. dielectric constant tensor:
#      x y z
#    x 1.758120 0.000000 0.000000 
#    y 0.000000 1.733540 0.000000 
#    z 0.000000 0.000000 1.727350 
# 
# From -- ./inp_files/35639.got.cif
#   From: 2010.03.12/outbox.cif.g09.slc.cpg/sg51_18_cif.got.tgz:35639.got - 2010.04.16 13:43:02.
