data_PCOD8210404
_publ_section_title
;
Structure prediction by ZEFSAII (Michael W. Deem and Ramdas Pophale) SiO2 
 PCOD8210404
Probable space group: P M M A
;
_chemical_formula_sum "Si O2"
_cell_formula_units_Z 64
_cell_length_a 19.329736
_cell_length_b 9.223141
_cell_length_c 20.460742
_cell_angle_alpha 90.000000
_cell_angle_beta 90.000000
_cell_angle_gamma 90.000000
_cell_volume 3647.759102
_symmetry_space_group_name_H-M "P M M A"
_symmetry_group_IT_number 51
_symmetry_cell_setting 'orthorhombic'
loop_
_space_group_symop_operation_xyz
x,y,z
1/2-x,-y,z
1/2+x,-y,-z
-x,y,-z
-x,-y,-z
1/2+x,y,-z
1/2-x,y,z
x,-y,z
loop_
_atom_site_type_symbol
_atom_site_label
_atom_site_fract_x
_atom_site_fract_y
_atom_site_fract_z
Si Si1 0.076322 0.334196 0.578454
Si Si2 0.672352 0.171976 0.322312
Si Si3 0.832200 0.161217 0.177821
Si Si4 0.832362 0.664102 0.803652
Si Si5 0.832493 0.164128 0.929325
Si Si6 0.083061 0.666537 0.427868
Si Si7 0.168846 0.167784 0.323968
Si Si8 0.667463 0.336908 0.055076
O O1 0.093620 0.500000 0.595016
O O2 0.120823 0.232573 0.624301
O O3 0.095547 0.299880 0.503828
O O4 0.995978 0.302044 0.591199
O O5 0.750000 0.230337 0.335855
O O6 0.647130 0.220164 0.249757
O O7 0.671936 0.000000 0.326136
O O8 0.750000 0.152850 0.173480
O O9 0.861742 0.267725 0.122146
O O10 0.862638 0.000000 0.165958
O O11 0.750000 0.663931 0.805330
O O12 0.861108 0.500000 0.804348
O O13 0.861346 0.749697 0.866502
O O14 0.859052 0.744698 0.738780
O O15 0.750000 0.163356 0.928623
O O16 0.860982 0.000000 0.927941
O O17 0.860422 0.243608 0.994132
O O18 0.102143 0.500000 0.412200
O O19 0.131914 0.773698 0.388314
O O20 0.250000 0.191656 0.333640
O O21 0.150636 0.000000 0.313539
O O22 0.750000 0.337178 0.055270
O O23 0.638775 0.500000 0.049082
#
# Coordination Sequence:
#
# PCOD8210404 Si02
#       8
#     8   8   8   8   8   8   8   8
#     4   9  19  35  53  71  92 120 155 194 233 276
#     4   9  18  31  47  69  97 126 155 190 234 283
#     4   8  14  25  38  53  79 115 149 181 222 270
#     4   9  16  26  40  58  83 116 151 187 228 272
#     4   9  15  22  33  50  76 112 150 186 225 270
#     4   9  19  36  53  69  92 122 155 191 233 279
#     4  10  20  32  47  70  97 123 154 192 233 279
#     4   9  15  21  31  50  76 108 148 189 225 265
#
# _framework density 17.545017999999999
#
# number of rings (size 3 to 8) (size 9 to 14) (size 15 to 20)
#    0.000    3.000    0.000    3.000    0.000    7.500 
#    0.000    5.000    0.000    0.000    0.000    0.000 
#    0.000    1.000    0.000   10.500    0.000   15.750 
#
# Total GULP energy -793451.712538 kJ/mol
# GULP energy per Si atom -12397.683008 kJ/mol
# Density = 1.750508 g / cm^3
# Si number density = 17.545018 Si / 1000 Ang^3
#
#
#
# Elastic Constant Matrix: (Units=GPa)
#
#
# Indices 1 2 3 4 5 6 
#
# 1 25.4022 30.5344 37.0634 0.0000 0.0000 0.0000
# 2 30.5344 125.4517 77.7956 0.0000 0.0000 0.0000
# 3 37.0634 77.7956 136.0290 0.0000 0.0000 0.0000
# 4 0.0000 0.0000 0.0000 39.1447 0.0000 0.0000
# 5 0.0000 0.0000 0.0000 0.0000 -2.2983 0.0000
# 6 0.0000 0.0000 0.0000 0.0000 0.0000 19.0055
#
#
#
# Elastic Compliance Matrix: (Units=1/GPa)
#
#
# Indices 1 2 3 4 5 6 
#
# 1 0.070291 -0.008107 -0.014515 0.000000 0.000000 0.000000
# 2 -0.008107 0.013287 -0.005390 0.000000 0.000000 0.000000
# 3 -0.014515 -0.005390 0.014389 0.000000 0.000000 0.000000
# 4 0.000000 0.000000 0.000000 0.025546 0.000000 0.000000
# 5 0.000000 0.000000 0.000000 0.000000 -0.435095 0.000000
# 6 0.000000 0.000000 0.000000 0.000000 0.000000 0.052616
#
#
# Mechanical properties :
#
#
# Convention : Reuss Voigt Hill
#
# Bulk Modulus (GPa) = 23.84273 64.18552 44.01412
# Shear Modulus (GPa) = -26.46042 20.60300 -2.92871
#
# Velocity S-wave (km/s) = -3.88770 3.43051 -1.29340
# Velocity P-wave (km/s) = 2.55603 7.23561 4.78648
#
# Compressibility (1/GPa) = 0.04194150
#
# Stress axis : x y z
#
# Youngs Moduli (GPa) = 14.22667 75.26252 69.49847
#
# Poissons Ratio (x) = 0.61016 1.00879
# Poissons Ratio (y) = 0.11534 0.37459
# Poissons Ratio (z) = 0.20650 0.40565
#
# Static dielectric constant tensor:
#      x y z
#    x 2.673570 0.000000 0.000000 
#    y 0.000000 3.366310 0.000000 
#    z 0.000000 0.000000 3.461220 
# 
# 
# High freq. dielectric constant tensor:
#      x y z
#    x 1.609980 0.000000 0.000000 
#    y 0.000000 1.686250 0.000000 
#    z 0.000000 0.000000 1.693850 
# 
# From -- ./inp_files/33814.got.cif
#   From: 2010.03.12/outbox.cif.g09.slc.cpg/sg51_17_cif.got.tgz:33814.got - 2010.04.16 13:43:02.
