data_PCOD8210808
_publ_section_title
;
Structure prediction by ZEFSAII (Michael W. Deem and Ramdas Pophale) SiO2 
 PCOD8210808
Probable space group: P M M A
;
_chemical_formula_sum "Si O2"
_cell_formula_units_Z 48
_cell_length_a 9.089596
_cell_length_b 9.111903
_cell_length_c 31.114316
_cell_angle_alpha 90.000000
_cell_angle_beta 90.000000
_cell_angle_gamma 90.000000
_cell_volume 2576.997082
_symmetry_space_group_name_H-M "P M M A"
_symmetry_group_IT_number 51
_symmetry_cell_setting 'orthorhombic'
loop_
_space_group_symop_operation_xyz
x,y,z
1/2-x,-y,z
1/2+x,-y,-z
-x,y,-z
-x,-y,-z
1/2+x,y,-z
1/2-x,y,z
x,-y,z
loop_
_atom_site_type_symbol
_atom_site_label
_atom_site_fract_x
_atom_site_fract_y
_atom_site_fract_z
Si Si1 0.916342 0.174968 0.041985
Si Si2 0.916366 0.824919 0.873961
Si Si3 0.077668 0.830072 0.295067
Si Si4 0.083992 0.174606 0.790379
Si Si5 0.421965 0.831938 0.542606
Si Si6 0.080943 0.327142 0.628395
O O1 0.750000 0.235390 0.041955
O O2 0.999591 0.234897 0.084069
O O3 0.915995 0.000000 0.041909
O O4 0.000000 0.235301 0.000000
O O5 0.750000 0.764799 0.874335
O O6 0.998805 0.763010 0.831881
O O7 0.916466 0.000000 0.873686
O O8 0.250000 0.805767 0.288816
O O9 0.997809 0.770505 0.252378
O O10 0.021641 0.736790 0.334858
O O11 0.039337 0.000000 0.303330
O O12 0.250000 0.236236 0.790422
O O13 0.084105 0.000000 0.792015
O O14 0.500000 0.770164 0.500000
O O15 0.250000 0.815373 0.535014
O O16 0.474597 0.737256 0.583161
O O17 0.468120 0.000000 0.551181
O O18 0.250000 0.280909 0.637103
O O19 0.062022 0.500000 0.626939
#
# Coordination Sequence:
#
# PCOD8210808 Si02
#       6
#     8   8   8   8   8   8
#     4   9  15  21  28  39  58  88 128 172 219 272
#     4   9  15  22  32  47  69  96 129 174 225 274
#     4  10  20  33  50  72  96 123 158 200 244 290
#     4   9  16  26  41  60  81 107 141 183 231 280
#     4   9  18  33  53  76 102 132 166 203 241 282
#     4  10  21  36  53  74 101 133 167 201 240 288
#
# _framework density 18.626331
#
# number of rings (size 3 to 8) (size 9 to 14) (size 15 to 20)
#    0.000    2.667    0.000    2.500    0.000    9.000 
#    0.000    1.667    0.000    0.000    0.000    0.000 
#    0.000    0.000    0.000    0.000    0.000    0.833 
#
# Total GULP energy -595248.700696 kJ/mol
# GULP energy per Si atom -12401.014598 kJ/mol
# Density = 1.858394 g / cm^3
# Si number density = 18.626331 Si / 1000 Ang^3
#
#
#
# Elastic Constant Matrix: (Units=GPa)
#
#
# Indices 1 2 3 4 5 6 
#
# 1 139.2379 25.3304 92.5132 0.0000 0.0000 0.0000
# 2 25.3304 28.6656 34.7525 0.0000 0.0000 0.0000
# 3 92.5132 34.7525 191.0848 0.0000 0.0000 0.0000
# 4 0.0000 0.0000 0.0000 -2.1097 0.0000 0.0000
# 5 0.0000 0.0000 0.0000 0.0000 44.5741 0.0000
# 6 0.0000 0.0000 0.0000 0.0000 0.0000 12.6391
#
#
#
# Elastic Compliance Matrix: (Units=1/GPa)
#
#
# Indices 1 2 3 4 5 6 
#
# 1 0.010964 -0.004173 -0.004549 0.000000 0.000000 0.000000
# 2 -0.004173 0.046341 -0.006408 0.000000 0.000000 0.000000
# 3 -0.004549 -0.006408 0.008601 0.000000 0.000000 0.000000
# 4 0.000000 0.000000 0.000000 -0.474003 0.000000 0.000000
# 5 0.000000 0.000000 0.000000 0.000000 0.022435 0.000000
# 6 0.000000 0.000000 0.000000 0.000000 0.000000 0.079120
#
#
# Mechanical properties :
#
#
# Convention : Reuss Voigt Hill
#
# Bulk Modulus (GPa) = 28.05364 73.79783 50.92573
# Shear Modulus (GPa) = -18.91060 24.78018 2.93479
#
# Velocity S-wave (km/s) = -3.18977 3.65140 1.25660
# Velocity P-wave (km/s) = 1.23603 7.58176 5.43189
#
# Compressibility (1/GPa) = 0.03564600
#
# Stress axis : x y z
#
# Youngs Moduli (GPa) = 91.21061 21.57931 116.26492
#
# Poissons Ratio (x) = 0.09005 0.52890
# Poissons Ratio (y) = 0.38062 0.74498
# Poissons Ratio (z) = 0.41492 0.13827
#
# Static dielectric constant tensor:
#      x y z
#    x 3.560190 0.000000 0.000000 
#    y 0.000000 2.800350 0.000000 
#    z 0.000000 0.000000 3.645360 
# 
# 
# High freq. dielectric constant tensor:
#      x y z
#    x 1.733530 0.000000 0.000000 
#    y 0.000000 1.653640 0.000000 
#    z 0.000000 0.000000 1.741880 
# 
# From -- ./inp_files/37043.got.cif
#   From: 2010.03.12/outbox.cif.g09.slc.cpg/sg51_19_cif.got.tgz:37043.got - 2010.04.16 13:43:02.
