data_PCOD8210172
_publ_section_title
;
Structure prediction by ZEFSAII (Michael W. Deem and Ramdas Pophale) SiO2 
 PCOD8210172
Probable space group: P M M A
;
_chemical_formula_sum "Si O2"
_cell_formula_units_Z 56
_cell_length_a 9.216419
_cell_length_b 17.193174
_cell_length_c 23.383019
_cell_angle_alpha 90.000000
_cell_angle_beta 90.000000
_cell_angle_gamma 90.000000
_cell_volume 3705.261395
_symmetry_space_group_name_H-M "P M M A"
_symmetry_group_IT_number 51
_symmetry_cell_setting 'orthorhombic'
loop_
_space_group_symop_operation_xyz
x,y,z
1/2-x,-y,z
1/2+x,-y,-z
-x,y,-z
-x,-y,-z
1/2+x,y,-z
1/2-x,y,z
x,-y,z
loop_
_atom_site_type_symbol
_atom_site_label
_atom_site_fract_x
_atom_site_fract_y
_atom_site_fract_z
Si Si1 0.408308 0.091366 0.448523
Si Si2 0.077356 0.910490 0.320570
Si Si3 0.909394 0.689385 0.144136
Si Si4 0.589120 0.089968 0.870232
Si Si5 0.416539 0.591590 0.057576
Si Si6 0.090562 0.819751 0.949613
Si Si7 0.922713 0.820487 0.224743
O O1 0.500000 0.129893 0.500000
O O2 0.250000 0.130087 0.451751
O O3 0.474126 0.106142 0.385589
O O4 0.394731 0.000000 0.458918
O O5 0.250000 0.899882 0.313581
O O6 0.993631 0.843716 0.285135
O O7 0.036182 0.000000 0.303454
O O8 0.750000 0.649737 0.151359
O O9 0.893833 0.760993 0.101805
O O10 0.959290 0.730659 0.204177
O O11 0.020679 0.628102 0.116458
O O12 0.750000 0.129399 0.869647
O O13 0.506015 0.106967 0.929621
O O14 0.491421 0.118745 0.818611
O O15 0.609711 0.000000 0.862541
O O16 0.250000 0.617807 0.050481
O O17 0.431207 0.500000 0.065378
O O18 0.500000 0.618683 0.000000
O O19 0.250000 0.846840 0.970241
O O20 0.000000 0.778128 0.000000
O O21 0.750000 0.831653 0.227129
#
# Coordination Sequence:
#
# PCOD8210172 Si02
#       7
#     8   8   8   8   8   8   8
#     4   8  14  24  37  54  77 104 135 172 212 251
#     4   9  17  28  41  58  81 109 141 177 215 252
#     4   9  19  33  46  61  81 104 128 156 191 231
#     4  10  20  32  44  56  71  94 124 159 200 241
#     4  10  20  32  48  70  90 107 128 154 188 233
#     4  10  20  32  45  60  76  95 122 154 190 234
#     4  10  20  31  43  60  79 101 133 168 201 239
#
# _framework density 15.113644000000001
#
# number of rings (size 3 to 8) (size 9 to 14) (size 15 to 20)
#    0.000    2.571    0.000    4.286    0.000    9.429 
#    0.000    1.429    0.000    0.000    0.000    0.000 
#    0.000    0.000    0.000    0.000    0.000    0.714 
#
# Total GULP energy -693749.277744 kJ/mol
# GULP energy per Si atom -12388.379960 kJ/mol
# Density = 1.507924 g / cm^3
# Si number density = 15.113644 Si / 1000 Ang^3
#
#
#
# Elastic Constant Matrix: (Units=GPa)
#
#
# Indices 1 2 3 4 5 6 
#
# 1 100.4326 28.5760 47.3605 0.0000 0.0000 0.0000
# 2 28.5760 36.2036 23.6862 0.0000 0.0000 0.0000
# 3 47.3605 23.6862 80.7306 0.0000 0.0000 0.0000
# 4 0.0000 0.0000 0.0000 15.4679 0.0000 0.0000
# 5 0.0000 0.0000 0.0000 0.0000 25.6527 0.0000
# 6 0.0000 0.0000 0.0000 0.0000 0.0000 16.4274
#
#
#
# Elastic Compliance Matrix: (Units=1/GPa)
#
#
# Indices 1 2 3 4 5 6 
#
# 1 0.015318 -0.007687 -0.006731 0.000000 0.000000 0.000000
# 2 -0.007687 0.038041 -0.006651 0.000000 0.000000 0.000000
# 3 -0.006731 -0.006651 0.018287 0.000000 0.000000 0.000000
# 4 0.000000 0.000000 0.000000 0.064650 0.000000 0.000000
# 5 0.000000 0.000000 0.000000 0.000000 0.038982 0.000000
# 6 0.000000 0.000000 0.000000 0.000000 0.000000 0.060874
#
#
# Mechanical properties :
#
#
# Convention : Reuss Voigt Hill
#
# Bulk Modulus (GPa) = 33.89031 46.29025 40.09028
# Shear Modulus (GPa) = 17.35346 19.35923 18.35635
#
# Velocity S-wave (km/s) = 3.39218 3.58286 3.48883
# Velocity P-wave (km/s) = 6.14938 6.91451 6.54314
#
# Compressibility (1/GPa) = 0.02950696
#
# Stress axis : x y z
#
# Youngs Moduli (GPa) = 65.28156 26.28755 54.68314
#
# Poissons Ratio (x) = 0.20208 0.36807
# Poissons Ratio (y) = 0.50183 0.36372
# Poissons Ratio (z) = 0.43941 0.17485
#
# Static dielectric constant tensor:
#      x y z
#    x 3.280130 0.000000 0.000000 
#    y 0.000000 2.644480 0.000000 
#    z 0.000000 0.000000 3.094030 
# 
# 
# High freq. dielectric constant tensor:
#      x y z
#    x 1.595500 0.000000 0.000000 
#    y 0.000000 1.529700 0.000000 
#    z 0.000000 0.000000 1.561930 
# 
# From -- ./inp_files/35043.got.cif
#   From: 2010.03.12/outbox.cif.g09.slc.cpg/sg51_18_cif.got.tgz:35043.got - 2010.04.16 13:43:02.
