data_PCOD8210290
_publ_section_title
;
Structure prediction by ZEFSAII (Michael W. Deem and Ramdas Pophale) SiO2 
 PCOD8210290
Probable space group: P M M A
;
_chemical_formula_sum "Si O2"
_cell_formula_units_Z 52
_cell_length_a 9.163115
_cell_length_b 15.551885
_cell_length_c 20.411172
_cell_angle_alpha 90.000000
_cell_angle_beta 90.000000
_cell_angle_gamma 90.000000
_cell_volume 2908.667750
_symmetry_space_group_name_H-M "P M M A"
_symmetry_group_IT_number 51
_symmetry_cell_setting 'orthorhombic'
loop_
_space_group_symop_operation_xyz
x,y,z
1/2-x,-y,z
1/2+x,-y,-z
-x,y,-z
-x,-y,-z
1/2+x,y,-z
1/2-x,y,z
x,-y,z
loop_
_atom_site_type_symbol
_atom_site_label
_atom_site_fract_x
_atom_site_fract_y
_atom_site_fract_z
Si Si1 0.422205 0.769950 0.677403
Si Si2 0.915921 0.647905 0.838783
Si Si3 0.578837 0.902161 0.433484
Si Si4 0.578857 0.186403 0.176817
Si Si5 0.413659 0.100828 0.063158
Si Si6 0.916925 0.500000 0.934371
Si Si7 0.082540 0.596313 0.307461
O O1 0.250000 0.755879 0.676862
O O2 0.475090 0.837418 0.622794
O O3 0.470692 0.812812 0.746630
O O4 0.491948 0.676174 0.662275
O O5 0.750000 0.682978 0.845375
O O6 0.960563 0.583434 0.894742
O O7 0.934316 0.599386 0.770327
O O8 0.034156 0.721390 0.850654
O O9 0.500000 0.874834 0.500000
O O10 0.750000 0.893231 0.445141
O O11 0.537738 0.000000 0.413321
O O12 0.750000 0.168999 0.169816
O O13 0.494597 0.117032 0.132548
O O14 0.250000 0.140638 0.064576
O O15 0.402597 0.000000 0.054044
O O16 0.500000 0.139946 0.000000
O O17 0.750000 0.500000 0.951823
O O18 0.000000 0.500000 0.000000
O O19 0.250000 0.608465 0.329072
O O20 0.028573 0.500000 0.330019
#
# Coordination Sequence:
#
# PCOD8210290 Si02
#       7
#     8   8   8   8   8   4   8
#     4   9  19  33  50  78 110 138 172 213 259 309
#     4   9  17  32  49  65  91 126 163 202 248 299
#     4   9  18  34  55  78 107 143 178 211 253 307
#     4  10  20  33  51  76 103 131 165 204 253 306
#     4  10  21  37  55  73  94 125 166 210 257 308
#     4  10  20  32  46  64  88 122 161 202 249 298
#     4   9  16  29  51  74  97 130 171 213 258 305
#
# _framework density 17.877600000000001
#
# number of rings (size 3 to 8) (size 9 to 14) (size 15 to 20)
#    0.000    2.615    0.769    0.923    0.000    4.308 
#    0.000    3.077    0.000    2.308    0.000    0.000 
#    0.000    0.000    0.000    0.000    0.000    0.000 
#
# Total GULP energy -644479.272654 kJ/mol
# GULP energy per Si atom -12393.832166 kJ/mol
# Density = 1.783691 g / cm^3
# Si number density = 17.877600 Si / 1000 Ang^3
#
#
#
# Elastic Constant Matrix: (Units=GPa)
#
#
# Indices 1 2 3 4 5 6 
#
# 1 59.2483 36.6698 41.5928 0.0000 0.0000 0.0000
# 2 36.6698 89.3626 63.1005 0.0000 0.0000 0.0000
# 3 41.5928 63.1005 107.5841 0.0000 0.0000 0.0000
# 4 0.0000 0.0000 0.0000 26.0399 0.0000 0.0000
# 5 0.0000 0.0000 0.0000 0.0000 28.1747 0.0000
# 6 0.0000 0.0000 0.0000 0.0000 0.0000 30.6771
#
#
#
# Elastic Compliance Matrix: (Units=1/GPa)
#
#
# Indices 1 2 3 4 5 6 
#
# 1 0.024820 -0.005819 -0.006182 0.000000 0.000000 0.000000
# 2 -0.005819 0.020466 -0.009754 0.000000 0.000000 0.000000
# 3 -0.006182 -0.009754 0.017406 0.000000 0.000000 0.000000
# 4 0.000000 0.000000 0.000000 0.038403 0.000000 0.000000
# 5 0.000000 0.000000 0.000000 0.000000 0.035493 0.000000
# 6 0.000000 0.000000 0.000000 0.000000 0.000000 0.032598
#
#
# Mechanical properties :
#
#
# Convention : Reuss Voigt Hill
#
# Bulk Modulus (GPa) = 52.13606 59.88014 56.00810
# Shear Modulus (GPa) = 22.82180 24.63381 23.72780
#
# Velocity S-wave (km/s) = 3.57677 3.71605 3.64708
# Velocity P-wave (km/s) = 6.80322 7.20967 7.00939
#
# Compressibility (1/GPa) = 0.01918058
#
# Stress axis : x y z
#
# Youngs Moduli (GPa) = 40.29032 48.86249 57.45152
#
# Poissons Ratio (x) = 0.28435 0.35519
# Poissons Ratio (y) = 0.23446 0.56037
# Poissons Ratio (z) = 0.24909 0.47659
#
# Static dielectric constant tensor:
#      x y z
#    x 3.409830 0.000000 0.000000 
#    y 0.000000 3.377630 0.000000 
#    z 0.000000 0.000000 3.232730 
# 
# 
# High freq. dielectric constant tensor:
#      x y z
#    x 1.690100 0.000000 0.000000 
#    y 0.000000 1.691150 0.000000 
#    z 0.000000 0.000000 1.674350 
# 
# From -- ./inp_files/31702.got.cif
#   From: 2010.03.12/outbox.cif.g09.slc.cpg/sg51_16_cif.got.tgz:31702.got - 2010.04.16 13:43:02.
