data_PCOD8210283
_publ_section_title
;
Structure prediction by ZEFSAII (Michael W. Deem and Ramdas Pophale) SiO2 
 PCOD8210283
Probable space group: P M M A
;
_chemical_formula_sum "Si O2"
_cell_formula_units_Z 64
_cell_length_a 9.349205
_cell_length_b 18.483494
_cell_length_c 26.552435
_cell_angle_alpha 90.000000
_cell_angle_beta 90.000000
_cell_angle_gamma 90.000000
_cell_volume 4588.419406
_symmetry_space_group_name_H-M "P M M A"
_symmetry_group_IT_number 51
_symmetry_cell_setting 'orthorhombic'
loop_
_space_group_symop_operation_xyz
x,y,z
1/2-x,-y,z
1/2+x,-y,-z
-x,y,-z
-x,-y,-z
1/2+x,y,-z
1/2-x,y,z
x,-y,z
loop_
_atom_site_type_symbol
_atom_site_label
_atom_site_fract_x
_atom_site_fract_y
_atom_site_fract_z
Si Si1 0.086300 0.918606 0.862332
Si Si2 0.411056 0.217768 0.807444
Si Si3 0.582464 0.838928 0.949260
Si Si4 0.085336 0.297583 0.111072
Si Si5 0.411498 0.658789 0.740848
Si Si6 0.583334 0.581798 0.153946
Si Si7 0.407690 0.585822 0.454675
Si Si8 0.080050 0.581656 0.343424
O O1 0.250000 0.916018 0.881953
O O2 0.071959 0.869395 0.811237
O O3 0.983817 0.888700 0.905716
O O4 0.040638 0.000000 0.847998
O O5 0.250000 0.239747 0.826561
O O6 0.532493 0.250690 0.842209
O O7 0.429931 0.254541 0.752254
O O8 0.750000 0.857924 0.954378
O O9 0.561995 0.753041 0.937930
O O10 0.500000 0.858258 0.000000
O O11 0.250000 0.317485 0.118749
O O12 0.996624 0.372576 0.110004
O O13 0.250000 0.640445 0.724240
O O14 0.451695 0.614453 0.791197
O O15 0.515593 0.637780 0.695931
O O16 0.750000 0.585114 0.141972
O O17 0.525780 0.500000 0.152395
O O18 0.500000 0.619984 0.500000
O O19 0.250000 0.619517 0.459721
O O20 0.399095 0.500000 0.460144
O O21 0.472340 0.604305 0.399536
O O22 0.250000 0.585540 0.341031
O O23 0.028446 0.500000 0.330758
#
# Coordination Sequence:
#
# PCOD8210283 Si02
#       8
#     8   8   8   8   8   8   8   8
#     4   9  17  30  48  66  82 102 127 152 179 213
#     4   8  15  28  42  56  77 102 125 150 180 217
#     4  10  20  32  46  63  82 103 125 150 181 217
#     4   9  17  28  42  60  77  95 123 154 182 216
#     4   9  16  25  37  53  74  99 125 152 182 219
#     4   9  17  28  41  57  77 100 124 152 189 229
#     4   8  14  24  35  46  62  87 121 160 199 234
#     4   9  17  26  34  48  72  98 125 162 202 230
#
# _framework density 13.948159
#
# number of rings (size 3 to 8) (size 9 to 14) (size 15 to 20)
#    0.000    3.125    0.000    2.625    0.000    5.500 
#    0.000    1.250    0.000    0.375    0.000    0.000 
#    0.000    0.000    0.000    0.000    0.000    0.625 
#
# Total GULP energy -792865.753766 kJ/mol
# GULP energy per Si atom -12388.527403 kJ/mol
# Density = 1.391641 g / cm^3
# Si number density = 13.948159 Si / 1000 Ang^3
#
#
#
# Elastic Constant Matrix: (Units=GPa)
#
#
# Indices 1 2 3 4 5 6 
#
# 1 53.1539 33.5669 30.8348 0.0000 0.0000 0.0000
# 2 33.5669 97.2999 41.6938 0.0000 0.0000 0.0000
# 3 30.8348 41.6938 61.7147 0.0000 0.0000 0.0000
# 4 0.0000 0.0000 0.0000 10.9111 0.0000 0.0000
# 5 0.0000 0.0000 0.0000 0.0000 21.6574 0.0000
# 6 0.0000 0.0000 0.0000 0.0000 0.0000 16.8485
#
#
#
# Elastic Compliance Matrix: (Units=1/GPa)
#
#
# Indices 1 2 3 4 5 6 
#
# 1 0.028247 -0.005204 -0.010598 0.000000 0.000000 0.000000
# 2 -0.005204 0.015424 -0.007820 0.000000 0.000000 0.000000
# 3 -0.010598 -0.007820 0.026782 0.000000 0.000000 0.000000
# 4 0.000000 0.000000 0.000000 0.091649 0.000000 0.000000
# 5 0.000000 0.000000 0.000000 0.000000 0.046174 0.000000
# 6 0.000000 0.000000 0.000000 0.000000 0.000000 0.059353
#
#
# Mechanical properties :
#
#
# Convention : Reuss Voigt Hill
#
# Bulk Modulus (GPa) = 43.08562 47.15106 45.11834
# Shear Modulus (GPa) = 15.49868 16.95493 16.22681
#
# Velocity S-wave (km/s) = 3.33703 3.49028 3.41451
# Velocity P-wave (km/s) = 6.76791 7.07959 6.92550
#
# Compressibility (1/GPa) = 0.02320960
#
# Stress axis : x y z
#
# Youngs Moduli (GPa) = 35.40170 64.83545 37.33869
#
# Poissons Ratio (x) = 0.33738 0.39571
# Poissons Ratio (y) = 0.18422 0.29200
# Poissons Ratio (z) = 0.37518 0.50702
#
# Static dielectric constant tensor:
#      x y z
#    x 2.836270 0.000000 0.000000 
#    y 0.000000 2.829910 0.000000 
#    z 0.000000 0.000000 2.632850 
# 
# 
# High freq. dielectric constant tensor:
#      x y z
#    x 1.539720 0.000000 0.000000 
#    y 0.000000 1.508790 0.000000 
#    z 0.000000 0.000000 1.498820 
# 
# From -- ./inp_files/36455.got.cif
#   From: 2010.03.12/outbox.cif.g09.slc.cpg/sg51_19_cif.got.tgz:36455.got - 2010.04.16 13:43:02.
