data_PCOD8210667
_publ_section_title
;
Structure prediction by ZEFSAII (Michael W. Deem and Ramdas Pophale) SiO2 
 PCOD8210667
Probable space group: P M M A
;
_chemical_formula_sum "Si O2"
_cell_formula_units_Z 64
_cell_length_a 22.170301
_cell_length_b 9.466588
_cell_length_c 20.051599
_cell_angle_alpha 90.000000
_cell_angle_beta 90.000000
_cell_angle_gamma 90.000000
_cell_volume 4208.371557
_symmetry_space_group_name_H-M "P M M A"
_symmetry_group_IT_number 51
_symmetry_cell_setting 'orthorhombic'
loop_
_space_group_symop_operation_xyz
x,y,z
1/2-x,-y,z
1/2+x,-y,-z
-x,y,-z
-x,-y,-z
1/2+x,y,-z
1/2-x,y,z
x,-y,z
loop_
_atom_site_type_symbol
_atom_site_label
_atom_site_fract_x
_atom_site_fract_y
_atom_site_fract_z
Si Si1 0.963030 0.663862 0.598481
Si Si2 0.028051 0.840579 0.278557
Si Si3 0.319618 0.164583 0.624984
Si Si4 0.590579 0.335256 0.460002
Si Si5 0.608973 0.164269 0.244472
Si Si6 0.040508 0.836444 0.132617
Si Si7 0.429871 0.656534 0.019200
Si Si8 0.082631 0.665974 0.874857
O O1 0.963551 0.500000 0.615403
O O2 0.941707 0.744369 0.664871
O O3 0.029954 0.713854 0.577665
O O4 0.916577 0.696333 0.538718
O O5 0.958295 0.798172 0.268493
O O6 0.064797 0.823361 0.208685
O O7 0.032127 0.000000 0.304450
O O8 0.250000 0.206907 0.622947
O O9 0.352805 0.248524 0.566510
O O10 0.345013 0.206664 0.697372
O O11 0.330163 0.000000 0.611592
O O12 0.602117 0.500000 0.447588
O O13 0.626143 0.260187 0.179834
O O14 0.614219 0.000000 0.224455
O O15 0.086227 0.769492 0.077603
O O16 0.980229 0.746499 0.129734
O O17 0.027816 0.000000 0.114834
O O18 0.414588 0.500000 0.046283
O O19 0.500000 0.665957 0.000000
O O20 0.392328 0.686270 0.950743
O O21 0.074160 0.500000 0.858763
#
# Coordination Sequence:
#
# PCOD8210667 Si02
#       8
#     8   8   8   8   8   8   8   8
#     4   9  17  28  43  61  82 106 133 170 209 247
#     4   9  16  25  37  56  79 104 135 168 201 241
#     4  10  20  33  47  62  82 108 138 173 211 251
#     4   9  18  31  44  62  83 103 134 171 208 251
#     4   9  17  28  39  55  77 100 132 169 203 242
#     4   9  16  23  32  49  74 101 130 162 195 232
#     4   8  14  23  32  46  68  95 130 164 192 226
#     4   9  16  24  35  50  69  96 130 167 199 229
#
# _framework density 15.207782
#
# number of rings (size 3 to 8) (size 9 to 14) (size 15 to 20)
#    0.000    3.000    1.250    3.000    0.000    6.500 
#    0.000    1.250    0.000    0.000    0.000    0.000 
#    0.000    0.000    0.000    1.125    0.000   18.875 
#
# Total GULP energy -793058.905343 kJ/mol
# GULP energy per Si atom -12391.545396 kJ/mol
# Density = 1.517317 g / cm^3
# Si number density = 15.207782 Si / 1000 Ang^3
#
#
#
# Elastic Constant Matrix: (Units=GPa)
#
#
# Indices 1 2 3 4 5 6 
#
# 1 38.3604 25.0100 34.8180 0.0000 0.0000 0.0000
# 2 25.0100 85.5910 72.8026 0.0000 0.0000 0.0000
# 3 34.8180 72.8026 128.8714 0.0000 0.0000 0.0000
# 4 0.0000 0.0000 0.0000 34.9061 0.0000 0.0000
# 5 0.0000 0.0000 0.0000 0.0000 11.3855 0.0000
# 6 0.0000 0.0000 0.0000 0.0000 0.0000 12.7862
#
#
#
# Elastic Compliance Matrix: (Units=1/GPa)
#
#
# Indices 1 2 3 4 5 6 
#
# 1 0.035321 -0.004242 -0.007146 0.000000 0.000000 0.000000
# 2 -0.004242 0.023000 -0.011847 0.000000 0.000000 0.000000
# 3 -0.007146 -0.011847 0.016383 0.000000 0.000000 0.000000
# 4 0.000000 0.000000 0.000000 0.028648 0.000000 0.000000
# 5 0.000000 0.000000 0.000000 0.000000 0.087831 0.000000
# 6 0.000000 0.000000 0.000000 0.000000 0.000000 0.078209
#
#
# Mechanical properties :
#
#
# Convention : Reuss Voigt Hill
#
# Bulk Modulus (GPa) = 35.42007 57.56490 46.49248
# Shear Modulus (GPa) = 15.37160 19.82836 17.59998
#
# Velocity S-wave (km/s) = 3.18271 3.61478 3.40560
# Velocity P-wave (km/s) = 6.07022 7.44020 6.78985
#
# Compressibility (1/GPa) = 0.02823258
#
# Stress axis : x y z
#
# Youngs Moduli (GPa) = 28.31193 43.47795 61.03821
#
# Poissons Ratio (x) = 0.18445 0.43619
# Poissons Ratio (y) = 0.12011 0.72313
# Poissons Ratio (z) = 0.20232 0.51509
#
# Static dielectric constant tensor:
#      x y z
#    x 2.372300 0.000000 0.000000 
#    y 0.000000 3.019120 0.000000 
#    z 0.000000 0.000000 3.474970 
# 
# 
# High freq. dielectric constant tensor:
#      x y z
#    x 1.498080 0.000000 0.000000 
#    y 0.000000 1.591990 0.000000 
#    z 0.000000 0.000000 1.599500 
# 
# From -- ./inp_files/30841.got.cif
#   From: 2010.03.12/outbox.cif.g09.slc.cpg/sg51_16_cif.got.tgz:30841.got - 2010.04.16 13:43:02.
