data_PCOD8210379
_publ_section_title
;
Structure prediction by ZEFSAII (Michael W. Deem and Ramdas Pophale) SiO2 
 PCOD8210379
Probable space group: P M M A
;
_chemical_formula_sum "Si O2"
_cell_formula_units_Z 48
_cell_length_a 9.527148
_cell_length_b 9.487754
_cell_length_c 30.942765
_cell_angle_alpha 90.000000
_cell_angle_beta 90.000000
_cell_angle_gamma 90.000000
_cell_volume 2796.954790
_symmetry_space_group_name_H-M "P M M A"
_symmetry_group_IT_number 51
_symmetry_cell_setting 'orthorhombic'
loop_
_space_group_symop_operation_xyz
x,y,z
1/2-x,-y,z
1/2+x,-y,-z
-x,y,-z
-x,-y,-z
1/2+x,y,-z
1/2-x,y,z
x,-y,z
loop_
_atom_site_type_symbol
_atom_site_label
_atom_site_fract_x
_atom_site_fract_y
_atom_site_fract_z
Si Si1 0.086611 0.164574 0.717152
Si Si2 0.412882 0.664173 0.540921
Si Si3 0.084433 0.663607 0.213559
Si Si4 0.416964 0.156984 0.132950
Si Si5 0.905738 0.167672 0.961729
Si Si6 0.083574 0.844680 0.620310
O O1 0.250000 0.199220 0.724730
O O2 0.039392 0.203754 0.668325
O O3 0.993036 0.261825 0.747205
O O4 0.057378 0.000000 0.726460
O O5 0.500000 0.720577 0.500000
O O6 0.250000 0.699697 0.532904
O O7 0.438224 0.500000 0.548015
O O8 0.473303 0.738615 0.583901
O O9 0.250000 0.686135 0.219527
O O10 0.043763 0.500000 0.212457
O O11 0.030268 0.733721 0.169011
O O12 0.250000 0.151138 0.131227
O O13 0.469693 0.207403 0.085481
O O14 0.474903 0.000000 0.143922
O O15 0.750000 0.231420 0.967145
O O16 0.899272 0.000000 0.965307
O O17 0.000000 0.232855 0.000000
O O18 0.250000 0.850520 0.618793
O O19 0.022208 0.000000 0.610538
#
# Coordination Sequence:
#
# PCOD8210379 Si02
#       6
#     8   8   8   8   8   8
#     4   9  18  33  52  72  93 119 153 192 234 279
#     4   9  17  29  45  65  89 118 150 181 215 257
#     4  10  20  32  47  69  95 123 156 192 230 273
#     4   8  14  26  44  63  85 117 152 183 221 270
#     4   8  13  22  38  60  83 107 139 180 223 264
#     4   8  15  29  48  68  89 114 146 183 221 265
#
# _framework density 17.161521
#
# number of rings (size 3 to 8) (size 9 to 14) (size 15 to 20)
#    0.000    3.333    0.000    2.500    0.000    2.333 
#    0.000    3.333    0.000    6.500    0.000    0.000 
#    0.000    0.000    0.000    0.000    0.000    0.000 
#
# Total GULP energy -594908.356860 kJ/mol
# GULP energy per Si atom -12393.924101 kJ/mol
# Density = 1.712246 g / cm^3
# Si number density = 17.161521 Si / 1000 Ang^3
#
#
#
# Elastic Constant Matrix: (Units=GPa)
#
#
# Indices 1 2 3 4 5 6 
#
# 1 39.4689 34.4743 51.1131 0.0000 0.0000 0.0000
# 2 34.4743 83.7150 83.8470 0.0000 0.0000 0.0000
# 3 51.1131 83.8470 181.9189 0.0000 0.0000 0.0000
# 4 0.0000 0.0000 0.0000 8.8123 0.0000 0.0000
# 5 0.0000 0.0000 0.0000 0.0000 30.8236 0.0000
# 6 0.0000 0.0000 0.0000 0.0000 0.0000 17.8670
#
#
#
# Elastic Compliance Matrix: (Units=1/GPa)
#
#
# Indices 1 2 3 4 5 6 
#
# 1 0.044516 -0.010782 -0.007538 0.000000 0.000000 0.000000
# 2 -0.010782 0.024799 -0.008401 0.000000 0.000000 0.000000
# 3 -0.007538 -0.008401 0.011487 0.000000 0.000000 0.000000
# 4 0.000000 0.000000 0.000000 0.113478 0.000000 0.000000
# 5 0.000000 0.000000 0.000000 0.000000 0.032443 0.000000
# 6 0.000000 0.000000 0.000000 0.000000 0.000000 0.055969
#
#
# Mechanical properties :
#
#
# Convention : Reuss Voigt Hill
#
# Bulk Modulus (GPa) = 36.54896 71.55241 54.05069
# Shear Modulus (GPa) = 14.48211 20.54513 17.51362
#
# Velocity S-wave (km/s) = 2.90810 3.46376 3.19802
# Velocity P-wave (km/s) = 5.71133 7.60137 6.72310
#
# Compressibility (1/GPa) = 0.02736056
#
# Stress axis : x y z
#
# Youngs Moduli (GPa) = 22.46392 40.32370 87.05643
#
# Poissons Ratio (x) = 0.43477 0.65623
# Poissons Ratio (y) = 0.24220 0.73134
# Poissons Ratio (z) = 0.16933 0.33875
#
# Static dielectric constant tensor:
#      x y z
#    x 3.011110 0.000000 0.000000 
#    y 0.000000 3.129840 0.000000 
#    z 0.000000 0.000000 3.599420 
# 
# 
# High freq. dielectric constant tensor:
#      x y z
#    x 1.623150 0.000000 0.000000 
#    y 0.000000 1.640870 0.000000 
#    z 0.000000 0.000000 1.679050 
# 
# From -- ./inp_files/37686.got.cif
#   From: 2010.03.12/outbox.cif.g09.slc.cpg/sg51_19_cif.got.tgz:37686.got - 2010.04.16 13:43:02.
