data_PCOD8210678
_publ_section_title
;
Structure prediction by ZEFSAII (Michael W. Deem and Ramdas Pophale) SiO2 
 PCOD8210678
Probable space group: P M M A
;
_chemical_formula_sum "Si O2"
_cell_formula_units_Z 56
_cell_length_a 9.267214
_cell_length_b 13.675707
_cell_length_c 29.414371
_cell_angle_alpha 90.000000
_cell_angle_beta 90.000000
_cell_angle_gamma 90.000000
_cell_volume 3727.850998
_symmetry_space_group_name_H-M "P M M A"
_symmetry_group_IT_number 51
_symmetry_cell_setting 'orthorhombic'
loop_
_space_group_symop_operation_xyz
x,y,z
1/2-x,-y,z
1/2+x,-y,-z
-x,y,-z
-x,-y,-z
1/2+x,y,-z
1/2-x,y,z
x,-y,z
loop_
_atom_site_type_symbol
_atom_site_label
_atom_site_fract_x
_atom_site_fract_y
_atom_site_fract_z
Si Si1 0.084391 0.109574 0.397826
Si Si2 0.911249 0.883498 0.128767
Si Si3 0.412460 0.116640 0.043410
Si Si4 0.921636 0.109192 0.228013
Si Si5 0.918657 0.795336 0.318554
Si Si6 0.080427 0.704466 0.453444
Si Si7 0.915920 0.610194 0.373424
O O1 0.250000 0.123237 0.383505
O O2 0.045325 0.184373 0.438286
O O3 0.991088 0.129909 0.353363
O O4 0.052460 0.000000 0.415482
O O5 0.750000 0.841644 0.120797
O O6 0.973673 0.852074 0.178436
O O7 0.014530 0.841945 0.089361
O O8 0.905269 0.000000 0.126993
O O9 0.250000 0.157048 0.040718
O O10 0.413420 0.000000 0.043707
O O11 0.500000 0.156416 0.000000
O O12 0.750000 0.104738 0.226379
O O13 0.976543 0.182325 0.267662
O O14 0.982224 0.000000 0.237764
O O15 0.750000 0.816939 0.321139
O O16 0.955027 0.683280 0.331937
O O17 0.250000 0.685799 0.459600
O O18 0.000000 0.682194 0.500000
O O19 0.019375 0.630073 0.415976
O O20 0.750000 0.626232 0.388761
O O21 0.941728 0.500000 0.355991
#
# Coordination Sequence:
#
# PCOD8210678 Si02
#       7
#     8   8   8   8   8   8   8
#     4   9  18  31  44  60  84 109 129 153 187 224
#     4   8  13  21  31  43  62  88 117 150 187 222
#     4   9  15  21  29  41  58  83 118 158 194 224
#     4   8  13  21  35  55  76  97 123 156 190 222
#     4   9  16  27  44  63  80 101 132 163 189 225
#     4  10  20  33  48  65  84 105 129 156 187 225
#     4   9  18  32  48  65  84 104 127 158 194 229
#
# _framework density 15.02206
#
# number of rings (size 3 to 8) (size 9 to 14) (size 15 to 20)
#    0.000    3.143    0.000    2.143    0.000    4.000 
#    0.000    0.714    0.000    2.571    0.000    0.000 
#    0.000    0.000    0.000    0.000    0.000    0.714 
#
# Total GULP energy -694101.639122 kJ/mol
# GULP energy per Si atom -12394.672127 kJ/mol
# Density = 1.498787 g / cm^3
# Si number density = 15.022060 Si / 1000 Ang^3
#
#
#
# Elastic Constant Matrix: (Units=GPa)
#
#
# Indices 1 2 3 4 5 6 
#
# 1 62.9499 18.6020 48.1394 0.0000 0.0000 0.0000
# 2 18.6020 60.0909 32.5403 0.0000 0.0000 0.0000
# 3 48.1394 32.5403 132.0856 0.0000 0.0000 0.0000
# 4 0.0000 0.0000 0.0000 9.8767 0.0000 0.0000
# 5 0.0000 0.0000 0.0000 0.0000 22.0019 0.0000
# 6 0.0000 0.0000 0.0000 0.0000 0.0000 12.5384
#
#
#
# Elastic Compliance Matrix: (Units=1/GPa)
#
#
# Indices 1 2 3 4 5 6 
#
# 1 0.022456 -0.002908 -0.007468 0.000000 0.000000 0.000000
# 2 -0.002908 0.019580 -0.003764 0.000000 0.000000 0.000000
# 3 -0.007468 -0.003764 0.011220 0.000000 0.000000 0.000000
# 4 0.000000 0.000000 0.000000 0.101248 0.000000 0.000000
# 5 0.000000 0.000000 0.000000 0.000000 0.045451 0.000000
# 6 0.000000 0.000000 0.000000 0.000000 0.000000 0.079755
#
#
# Mechanical properties :
#
#
# Convention : Reuss Voigt Hill
#
# Bulk Modulus (GPa) = 40.03738 50.40999 45.22368
# Shear Modulus (GPa) = 15.80711 19.27304 17.54007
#
# Velocity S-wave (km/s) = 3.24737 3.58576 3.42075
# Velocity P-wave (km/s) = 6.38520 7.12557 6.76552
#
# Compressibility (1/GPa) = 0.02497666
#
# Stress axis : x y z
#
# Youngs Moduli (GPa) = 44.53216 51.07307 89.12796
#
# Poissons Ratio (x) = 0.14850 0.66559
# Poissons Ratio (y) = 0.12948 0.33547
# Poissons Ratio (z) = 0.33256 0.19224
#
# Static dielectric constant tensor:
#      x y z
#    x 2.901910 0.000000 0.000000 
#    y 0.000000 2.626780 0.000000 
#    z 0.000000 0.000000 3.131360 
# 
# 
# High freq. dielectric constant tensor:
#      x y z
#    x 1.570050 0.000000 0.000000 
#    y 0.000000 1.524460 0.000000 
#    z 0.000000 0.000000 1.575730 
# 
# From -- ./inp_files/37447.got.cif
#   From: 2010.03.12/outbox.cif.g09.slc.cpg/sg51_19_cif.got.tgz:37447.got - 2010.04.16 13:43:02.
