data_PCOD8210179
_publ_section_title
;
Structure prediction by ZEFSAII (Michael W. Deem and Ramdas Pophale) SiO2 
 PCOD8210179
Probable space group: P M M A
;
_chemical_formula_sum "Si O2"
_cell_formula_units_Z 64
_cell_length_a 24.661485
_cell_length_b 9.255199
_cell_length_c 17.641610
_cell_angle_alpha 90.000000
_cell_angle_beta 90.000000
_cell_angle_gamma 90.000000
_cell_volume 4026.643699
_symmetry_space_group_name_H-M "P M M A"
_symmetry_group_IT_number 51
_symmetry_cell_setting 'orthorhombic'
loop_
_space_group_symop_operation_xyz
x,y,z
1/2-x,-y,z
1/2+x,-y,-z
-x,y,-z
-x,-y,-z
1/2+x,y,-z
1/2-x,y,z
x,-y,z
loop_
_atom_site_type_symbol
_atom_site_label
_atom_site_fract_x
_atom_site_fract_y
_atom_site_fract_z
Si Si1 0.186702 0.168422 0.806215
Si Si2 0.685739 0.165944 0.811644
Si Si3 0.314389 0.337457 0.332837
Si Si4 0.685574 0.159519 0.362194
Si Si5 0.603391 0.667156 0.094013
Si Si6 0.314443 0.338230 0.499091
Si Si7 0.497879 0.163814 0.090041
Si Si8 0.892132 0.667573 0.915351
O O1 0.250000 0.193714 0.820591
O O2 0.170226 0.219523 0.721113
O O3 0.155618 0.267832 0.865340
O O4 0.172097 0.000000 0.817960
O O5 0.750000 0.181079 0.818480
O O6 0.663898 0.229611 0.731726
O O7 0.660646 0.257979 0.879846
O O8 0.667207 0.000000 0.817361
O O9 0.250000 0.342548 0.330599
O O10 0.336737 0.500000 0.318638
O O11 0.332921 0.279516 0.416117
O O12 0.750000 0.155256 0.368889
O O13 0.659499 0.250743 0.430926
O O14 0.661467 0.000000 0.371183
O O15 0.595871 0.500000 0.115774
O O16 0.550560 0.754274 0.122136
O O17 0.612544 0.686010 0.004979
O O18 0.250000 0.332690 0.504816
O O19 0.335843 0.500000 0.507854
O O20 0.445092 0.251408 0.117275
O O21 0.496110 0.000000 0.121818
O O22 0.500000 0.162728 0.000000
O O23 0.895143 0.500000 0.891982
#
# Coordination Sequence:
#
# PCOD8210179 Si02
#       8
#     8   8   8   8   8   8   8   8
#     4   9  18  31  44  60  87 122 154 183 218 259
#     4  10  20  31  43  62  88 118 152 185 216 256
#     4   8  14  25  39  55  79 111 143 175 214 257
#     4   8  14  24  37  54  78 109 143 177 213 252
#     4  10  20  32  47  67  88 112 145 183 222 263
#     4   8  13  21  35  55  77 104 139 175 211 253
#     4   9  17  31  51  70  86 106 136 177 223 265
#     4  10  20  33  48  65  87 114 144 181 223 264
#
# _framework density 15.894129
#
# number of rings (size 3 to 8) (size 9 to 14) (size 15 to 20)
#    0.000    3.000    0.000    3.000    0.000    5.500 
#    0.000    6.250    0.000    0.000    0.000    0.000 
#    0.000    1.000    0.000   10.500    0.000    8.750 
#
# Total GULP energy -793233.322938 kJ/mol
# GULP energy per Si atom -12394.270671 kJ/mol
# Density = 1.585795 g / cm^3
# Si number density = 15.894129 Si / 1000 Ang^3
#
#
#
# Elastic Constant Matrix: (Units=GPa)
#
#
# Indices 1 2 3 4 5 6 
#
# 1 43.5614 41.3957 32.4753 0.0000 0.0000 0.0000
# 2 41.3957 120.0335 56.4301 0.0000 0.0000 0.0000
# 3 32.4753 56.4301 70.3980 0.0000 0.0000 0.0000
# 4 0.0000 0.0000 0.0000 30.5552 0.0000 0.0000
# 5 0.0000 0.0000 0.0000 0.0000 1.2984 0.0000
# 6 0.0000 0.0000 0.0000 0.0000 0.0000 23.8136
#
#
#
# Elastic Compliance Matrix: (Units=1/GPa)
#
#
# Indices 1 2 3 4 5 6 
#
# 1 0.039332 -0.008079 -0.011668 0.000000 0.000000 0.000000
# 2 -0.008079 0.015028 -0.008320 0.000000 0.000000 0.000000
# 3 -0.011668 -0.008320 0.026257 0.000000 0.000000 0.000000
# 4 0.000000 0.000000 0.000000 0.032728 0.000000 0.000000
# 5 0.000000 0.000000 0.000000 0.000000 0.770157 0.000000
# 6 0.000000 0.000000 0.000000 0.000000 0.000000 0.041993
#
#
# Mechanical properties :
#
#
# Convention : Reuss Voigt Hill
#
# Bulk Modulus (GPa) = 40.84417 54.95499 47.89958
# Shear Modulus (GPa) = 5.05158 18.04624 11.54891
#
# Velocity S-wave (km/s) = 1.78470 3.37323 2.69850
# Velocity P-wave (km/s) = 5.47725 7.05849 6.31754
#
# Compressibility (1/GPa) = 0.02448330
#
# Stress axis : x y z
#
# Youngs Moduli (GPa) = 25.42444 66.54071 38.08555
#
# Poissons Ratio (x) = 0.53757 0.44440
# Poissons Ratio (y) = 0.20540 0.31686
# Poissons Ratio (z) = 0.29666 0.55360
#
# Static dielectric constant tensor:
#      x y z
#    x 2.641890 0.000000 0.000000 
#    y 0.000000 3.240280 0.000000 
#    z 0.000000 0.000000 3.148850 
# 
# 
# High freq. dielectric constant tensor:
#      x y z
#    x 1.559710 0.000000 0.000000 
#    y 0.000000 1.620720 0.000000 
#    z 0.000000 0.000000 1.604420 
# 
# From -- ./inp_files/30910.got.cif
#   From: 2010.03.12/outbox.cif.g09.slc.cpg/sg51_16_cif.got.tgz:30910.got - 2010.04.16 13:43:02.
