data_PCOD8210664
_publ_section_title
;
Structure prediction by ZEFSAII (Michael W. Deem and Ramdas Pophale) SiO2 
 PCOD8210664
Probable space group: P M M A
;
_chemical_formula_sum "Si O2"
_cell_formula_units_Z 64
_cell_length_a 9.396650
_cell_length_b 18.878342
_cell_length_c 23.780226
_cell_angle_alpha 90.000000
_cell_angle_beta 90.000000
_cell_angle_gamma 90.000000
_cell_volume 4218.449729
_symmetry_space_group_name_H-M "P M M A"
_symmetry_group_IT_number 51
_symmetry_cell_setting 'orthorhombic'
loop_
_space_group_symop_operation_xyz
x,y,z
1/2-x,-y,z
1/2+x,-y,-z
-x,y,-z
-x,-y,-z
1/2+x,y,-z
1/2-x,y,z
x,-y,z
loop_
_atom_site_type_symbol
_atom_site_label
_atom_site_fract_x
_atom_site_fract_y
_atom_site_fract_z
Si Si1 0.584952 0.151095 0.275379
Si Si2 0.085092 0.918340 0.608435
Si Si3 0.588483 0.915595 0.946887
Si Si4 0.586521 0.916602 0.159895
Si Si5 0.910915 0.729621 0.673900
Si Si6 0.096037 0.419107 0.546948
Si Si7 0.590373 0.576766 0.654668
Si Si8 0.918226 0.205834 0.555261
O O1 0.750000 0.167729 0.270970
O O2 0.551810 0.097170 0.326072
O O3 0.529393 0.117780 0.217401
O O4 0.509175 0.225943 0.284878
O O5 0.250000 0.900601 0.594962
O O6 0.982542 0.871545 0.569515
O O7 0.050436 0.000000 0.596255
O O8 0.750000 0.886470 0.949083
O O9 0.511477 0.887817 0.890577
O O10 0.588758 0.000000 0.948044
O O11 0.500000 0.886082 0.000000
O O12 0.750000 0.896063 0.147167
O O13 0.571270 0.000000 0.166830
O O14 0.750000 0.755364 0.683248
O O15 0.930107 0.646952 0.692565
O O16 0.950411 0.741249 0.607716
O O17 0.250000 0.380982 0.549874
O O18 0.118357 0.500000 0.528037
O O19 0.000000 0.379797 0.500000
O O20 0.024514 0.416020 0.606823
O O21 0.750000 0.579189 0.628700
O O22 0.569068 0.500000 0.686142
O O23 0.750000 0.198974 0.543439
O O24 0.000000 0.235061 0.500000
#
# Coordination Sequence:
#
# PCOD8210664 Si02
#       8
#     8   8   8   8   8   8   8   8
#     4   9  17  29  45  63  82 106 134 163 199 241
#     4   9  17  30  47  64  80  98 123 158 198 238
#     4   9  16  25  37  55  81 113 147 181 215 245
#     4   9  16  26  41  61  84 110 142 178 210 240
#     4   9  19  33  46  61  80 101 125 157 197 239
#     4   9  16  25  37  54  75  95 114 139 173 214
#     4   9  17  30  46  61  77  97 122 152 187 229
#     4  10  20  33  46  59  76  98 124 153 190 239
#
# _framework density 15.171450999999999
#
# number of rings (size 3 to 8) (size 9 to 14) (size 15 to 20)
#    0.000    2.875    0.000    1.500    0.000    7.000 
#    0.000    1.250    0.000    2.250    0.000    0.000 
#    0.000    0.000    0.000    0.000    0.000    0.625 
#
# Total GULP energy -793168.113360 kJ/mol
# GULP energy per Si atom -12393.251771 kJ/mol
# Density = 1.513692 g / cm^3
# Si number density = 15.171451 Si / 1000 Ang^3
#
#
#
# Elastic Constant Matrix: (Units=GPa)
#
#
# Indices 1 2 3 4 5 6 
#
# 1 79.5510 19.7541 33.5457 0.0000 0.0000 0.0000
# 2 19.7541 62.8919 11.4276 0.0000 0.0000 0.0000
# 3 33.5457 11.4276 71.1338 0.0000 0.0000 0.0000
# 4 0.0000 0.0000 0.0000 8.6942 0.0000 0.0000
# 5 0.0000 0.0000 0.0000 0.0000 23.2361 0.0000
# 6 0.0000 0.0000 0.0000 0.0000 0.0000 14.9257
#
#
#
# Elastic Compliance Matrix: (Units=1/GPa)
#
#
# Indices 1 2 3 4 5 6 
#
# 1 0.016570 -0.003898 -0.007188 0.000000 0.000000 0.000000
# 2 -0.003898 0.017296 -0.000940 0.000000 0.000000 0.000000
# 3 -0.007188 -0.000940 0.017599 0.000000 0.000000 0.000000
# 4 0.000000 0.000000 0.000000 0.115019 0.000000 0.000000
# 5 0.000000 0.000000 0.000000 0.000000 0.043036 0.000000
# 6 0.000000 0.000000 0.000000 0.000000 0.000000 0.066998
#
#
# Mechanical properties :
#
#
# Convention : Reuss Voigt Hill
#
# Bulk Modulus (GPa) = 36.48116 38.11462 37.29789
# Shear Modulus (GPa) = 16.14429 19.29451 17.71940
#
# Velocity S-wave (km/s) = 3.26563 3.57005 3.42123
# Velocity P-wave (km/s) = 6.19009 6.49390 6.34382
#
# Compressibility (1/GPa) = 0.02741141
#
# Stress axis : x y z
#
# Youngs Moduli (GPa) = 60.35160 57.81823 56.82252
#
# Poissons Ratio (x) = 0.22540 0.40842
# Poissons Ratio (y) = 0.23528 0.05342
# Poissons Ratio (z) = 0.43379 0.05435
#
# Static dielectric constant tensor:
#      x y z
#    x 3.103650 0.000000 0.000000 
#    y 0.000000 2.844180 0.000000 
#    z 0.000000 0.000000 2.721950 
# 
# 
# High freq. dielectric constant tensor:
#      x y z
#    x 1.595020 0.000000 0.000000 
#    y 0.000000 1.556480 0.000000 
#    z 0.000000 0.000000 1.540040 
# 
# From -- ./inp_files/35176.got.cif
#   From: 2010.03.12/outbox.cif.g09.slc.cpg/sg51_18_cif.got.tgz:35176.got - 2010.04.16 13:43:02.
