data_PCOD8210157
_publ_section_title
;
Structure prediction by ZEFSAII (Michael W. Deem and Ramdas Pophale) SiO2 
 PCOD8210157
Probable space group: P M M A
;
_chemical_formula_sum "Si O2"
_cell_formula_units_Z 64
_cell_length_a 9.290540
_cell_length_b 14.952330
_cell_length_c 29.779649
_cell_angle_alpha 90.000000
_cell_angle_beta 90.000000
_cell_angle_gamma 90.000000
_cell_volume 4136.846491
_symmetry_space_group_name_H-M "P M M A"
_symmetry_group_IT_number 51
_symmetry_cell_setting 'orthorhombic'
loop_
_space_group_symop_operation_xyz
x,y,z
1/2-x,-y,z
1/2+x,-y,-z
-x,y,-z
-x,-y,-z
1/2+x,y,-z
1/2-x,y,z
x,-y,z
loop_
_atom_site_type_symbol
_atom_site_label
_atom_site_fract_x
_atom_site_fract_y
_atom_site_fract_z
Si Si1 0.588256 0.393707 0.958819
Si Si2 0.915065 0.732485 0.606673
Si Si3 0.088101 0.606258 0.139659
Si Si4 0.914673 0.267487 0.713170
Si Si5 0.916866 0.604890 0.455335
Si Si6 0.911541 0.098784 0.393441
Si Si7 0.415865 0.605699 0.775009
Si Si8 0.411557 0.098631 0.713248
O O1 0.750000 0.359902 0.964711
O O2 0.580141 0.500000 0.961541
O O3 0.531341 0.362247 0.909622
O O4 0.500000 0.350210 0.000000
O O5 0.750000 0.724483 0.590992
O O6 0.929086 0.725537 0.659922
O O7 0.009449 0.652480 0.586820
O O8 0.977538 0.826954 0.588375
O O9 0.250000 0.642460 0.148233
O O10 0.091142 0.500000 0.140682
O O11 0.982043 0.642356 0.178189
O O12 0.750000 0.272263 0.728831
O O13 0.001270 0.350331 0.733557
O O14 0.980451 0.174169 0.731638
O O15 0.750000 0.632575 0.459340
O O16 0.934093 0.500000 0.447156
O O17 0.000000 0.635577 0.500000
O O18 0.750000 0.121180 0.410430
O O19 0.913374 0.099127 0.340107
O O20 0.958308 0.000000 0.410829
O O21 0.250000 0.633924 0.773548
O O22 0.435876 0.500000 0.770329
O O23 0.250000 0.119623 0.730372
O O24 0.460393 0.000000 0.730389
#
# Coordination Sequence:
#
# PCOD8210157 Si02
#       8
#     8   8   8   8   8   8   8   8
#     4   8  13  20  31  48  68  90 119 160 208 252
#     4  10  20  32  48  71  95 117 142 173 208 247
#     4   8  14  25  38  50  68  97 132 169 211 256
#     4  10  20  31  44  64  89 116 144 175 210 248
#     4  10  21  37  56  74  91 113 141 174 212 253
#     4   8  14  26  45  68  93 120 146 170 200 240
#     4  10  20  31  42  56  76 107 147 186 219 253
#     4   8  14  26  44  64  86 111 138 171 209 246
#
# _framework density 15.470722
#
# number of rings (size 3 to 8) (size 9 to 14) (size 15 to 20)
#    0.000    3.000    0.000    3.000    0.000    4.500 
#    0.000    7.500    0.000    0.375    0.000    0.000 
#    0.000    0.000    0.000    0.000    0.000    0.625 
#
# Total GULP energy -793220.660066 kJ/mol
# GULP energy per Si atom -12394.072814 kJ/mol
# Density = 1.543551 g / cm^3
# Si number density = 15.470722 Si / 1000 Ang^3
#
#
#
# Elastic Constant Matrix: (Units=GPa)
#
#
# Indices 1 2 3 4 5 6 
#
# 1 120.9877 47.6595 43.7941 0.0000 0.0000 0.0000
# 2 47.6595 52.5817 29.0477 0.0000 0.0000 0.0000
# 3 43.7941 29.0477 47.1117 0.0000 0.0000 0.0000
# 4 0.0000 0.0000 0.0000 1.5422 0.0000 0.0000
# 5 0.0000 0.0000 0.0000 0.0000 26.5802 0.0000
# 6 0.0000 0.0000 0.0000 0.0000 0.0000 23.5708
#
#
#
# Elastic Compliance Matrix: (Units=1/GPa)
#
#
# Indices 1 2 3 4 5 6 
#
# 1 0.014712 -0.008766 -0.008272 0.000000 0.000000 0.000000
# 2 -0.008766 0.034064 -0.012855 0.000000 0.000000 0.000000
# 3 -0.008272 -0.012855 0.036841 0.000000 0.000000 0.000000
# 4 0.000000 0.000000 0.000000 0.648420 0.000000 0.000000
# 5 0.000000 0.000000 0.000000 0.000000 0.037622 0.000000
# 6 0.000000 0.000000 0.000000 0.000000 0.000000 0.042425
#
#
# Mechanical properties :
#
#
# Convention : Reuss Voigt Hill
#
# Bulk Modulus (GPa) = 38.70893 51.29820 45.00357
# Shear Modulus (GPa) = 5.66584 17.01729 11.34157
#
# Velocity S-wave (km/s) = 1.91579 3.32017 2.71052
# Velocity P-wave (km/s) = 5.47437 6.92303 6.24088
#
# Compressibility (1/GPa) = 0.02583383
#
# Stress axis : x y z
#
# Youngs Moduli (GPa) = 67.97000 29.35609 27.14339
#
# Poissons Ratio (x) = 0.25732 0.22452
# Poissons Ratio (y) = 0.59580 0.34893
# Poissons Ratio (z) = 0.56223 0.37737
#
# Static dielectric constant tensor:
#      x y z
#    x 3.174530 0.000000 0.000000 
#    y 0.000000 2.863860 0.000000 
#    z 0.000000 0.000000 2.906050 
# 
# 
# High freq. dielectric constant tensor:
#      x y z
#    x 1.604210 0.000000 0.000000 
#    y 0.000000 1.560690 0.000000 
#    z 0.000000 0.000000 1.566990 
# 
# From -- ./inp_files/37557.got.cif
#   From: 2010.03.12/outbox.cif.g09.slc.cpg/sg51_19_cif.got.tgz:37557.got - 2010.04.16 13:43:02.
