data_PCOD8210007
_publ_section_title
;
Structure prediction by ZEFSAII (Michael W. Deem and Ramdas Pophale) SiO2 
 PCOD8210007
Probable space group: P M M A
;
_chemical_formula_sum "Si O2"
_cell_formula_units_Z 56
_cell_length_a 23.189049
_cell_length_b 8.957055
_cell_length_c 13.710558
_cell_angle_alpha 90.000000
_cell_angle_beta 90.000000
_cell_angle_gamma 90.000000
_cell_volume 2847.759501
_symmetry_space_group_name_H-M "P M M A"
_symmetry_group_IT_number 51
_symmetry_cell_setting 'orthorhombic'
loop_
_space_group_symop_operation_xyz
x,y,z
1/2-x,-y,z
1/2+x,-y,-z
-x,y,-z
-x,-y,-z
1/2+x,y,-z
1/2-x,y,z
x,-y,z
loop_
_atom_site_type_symbol
_atom_site_label
_atom_site_fract_x
_atom_site_fract_y
_atom_site_fract_z
Si Si1 0.146192 0.823293 0.646621
Si Si2 0.412514 0.821575 0.287664
Si Si3 0.813881 0.823382 0.566954
Si Si4 0.944457 0.664804 0.065568
Si Si5 0.250000 0.177357 0.782726
Si Si6 0.968245 0.676889 0.283444
Si Si7 0.368619 0.824467 0.081165
Si Si8 0.750000 0.822172 0.996570
O O1 0.171119 0.774923 0.542450
O O2 0.191973 0.767138 0.727956
O O3 0.085512 0.739878 0.656766
O O4 0.135706 0.000000 0.653673
O O5 0.362080 0.761866 0.358783
O O6 0.472725 0.750435 0.322601
O O7 0.396731 0.759076 0.179635
O O8 0.418152 0.000000 0.290437
O O9 0.750000 0.760630 0.593811
O O10 0.812643 0.000000 0.575036
O O11 0.915992 0.500000 0.073413
O O12 0.960610 0.726632 0.171431
O O13 0.901551 0.780924 0.016857
O O14 0.000000 0.654608 0.000000
O O15 0.250000 0.242091 0.892720
O O16 0.250000 0.000000 0.780054
O O17 0.972404 0.500000 0.296126
O O18 0.368629 0.000000 0.090530
O O19 0.304029 0.763829 0.065937
O O20 0.750000 0.000000 0.005386
#
# Coordination Sequence:
#
# PCOD8210007 Si02
#       8
#     8   8   8   8   4   8   8   4
#     4  10  19  35  61  86 109 141 183 228 276 331
#     4  10  21  35  55  83 113 146 186 229 271 324
#     4   9  18  35  60  87 112 142 182 228 278 330
#     4  10  20  36  55  74 105 149 186 220 265 319
#     4   9  16  30  54  82 110 139 175 223 276 327
#     4  11  23  38  56  80 112 149 185 227 279 328
#     4  10  20  33  53  82 113 145 181 224 271 320
#     4   9  18  30  46  78 116 139 165 219 280 317
#
# _framework density 19.664580999999998
#
# number of rings (size 3 to 8) (size 9 to 14) (size 15 to 20)
#    0.000    2.143    2.143    1.286    1.000    3.143 
#    0.000    4.286    0.000    3.857    0.000    0.000 
#    0.000    0.000    0.000    0.000    0.000    0.000 
#
# Total GULP energy -694311.700471 kJ/mol
# GULP energy per Si atom -12398.423223 kJ/mol
# Density = 1.961982 g / cm^3
# Si number density = 19.664581 Si / 1000 Ang^3
#
#
#
# Elastic Constant Matrix: (Units=GPa)
#
#
# Indices 1 2 3 4 5 6 
#
# 1 175.1564 33.9587 47.7581 0.0000 0.0000 0.0000
# 2 33.9587 27.6833 20.2621 0.0000 0.0000 0.0000
# 3 47.7581 20.2621 61.7982 0.0000 0.0000 0.0000
# 4 0.0000 0.0000 0.0000 31.2814 0.0000 0.0000
# 5 0.0000 0.0000 0.0000 0.0000 34.1682 0.0000
# 6 0.0000 0.0000 0.0000 0.0000 0.0000 3.8540
#
#
#
# Elastic Compliance Matrix: (Units=1/GPa)
#
#
# Indices 1 2 3 4 5 6 
#
# 1 0.008174 -0.007110 -0.003986 0.000000 0.000000 0.000000
# 2 -0.007110 0.053713 -0.012116 0.000000 0.000000 0.000000
# 3 -0.003986 -0.012116 0.023235 0.000000 0.000000 0.000000
# 4 0.000000 0.000000 0.000000 0.031968 0.000000 0.000000
# 5 0.000000 0.000000 0.000000 0.000000 0.029267 0.000000
# 6 0.000000 0.000000 0.000000 0.000000 0.000000 0.259470
#
#
# Mechanical properties :
#
#
# Convention : Reuss Voigt Hill
#
# Bulk Modulus (GPa) = 25.84175 52.06620 38.95397
# Shear Modulus (GPa) = 10.74920 24.70466 17.72693
#
# Velocity S-wave (km/s) = 2.34054 3.54828 3.00570
# Velocity P-wave (km/s) = 4.52482 6.58192 5.64782
#
# Compressibility (1/GPa) = 0.03869707
#
# Stress axis : x y z
#
# Youngs Moduli (GPa) = 122.33180 18.61752 43.03874
#
# Poissons Ratio (x) = 0.13237 0.17156
# Poissons Ratio (y) = 0.86978 0.52148
# Poissons Ratio (z) = 0.48763 0.22558
#
# Static dielectric constant tensor:
#      x y z
#    x 3.631420 0.000000 0.000000 
#    y 0.000000 3.212450 0.000000 
#    z 0.000000 0.000000 3.773780 
# 
# 
# High freq. dielectric constant tensor:
#      x y z
#    x 1.782140 0.000000 0.000000 
#    y 0.000000 1.720760 0.000000 
#    z 0.000000 0.000000 1.769390 
# 
# From -- ./inp_files/25820.got.cif
#   From: 2010.03.12/outbox.cif.g09.slc.cpg/sg51_13_cif.got.tgz:25820.got - 2010.04.16 13:43:02.
