data_PCOD8210184
_publ_section_title
;
Structure prediction by ZEFSAII (Michael W. Deem and Ramdas Pophale) SiO2 
 PCOD8210184
Probable space group: P M M A
;
_chemical_formula_sum "Si O2"
_cell_formula_units_Z 64
_cell_length_a 9.545211
_cell_length_b 13.951196
_cell_length_c 30.933087
_cell_angle_alpha 90.000000
_cell_angle_beta 90.000000
_cell_angle_gamma 90.000000
_cell_volume 4119.269784
_symmetry_space_group_name_H-M "P M M A"
_symmetry_group_IT_number 51
_symmetry_cell_setting 'orthorhombic'
loop_
_space_group_symop_operation_xyz
x,y,z
1/2-x,-y,z
1/2+x,-y,-z
-x,y,-z
-x,-y,-z
1/2+x,y,-z
1/2-x,y,z
x,-y,z
loop_
_atom_site_type_symbol
_atom_site_label
_atom_site_fract_x
_atom_site_fract_y
_atom_site_fract_z
Si Si1 0.593142 0.385945 0.214771
Si Si2 0.593838 0.895782 0.383310
Si Si3 0.908849 0.614300 0.959678
Si Si4 0.405696 0.387526 0.291505
Si Si5 0.090863 0.310628 0.634095
Si Si6 0.411606 0.389247 0.541306
Si Si7 0.592719 0.386055 0.118700
Si Si8 0.597226 0.109702 0.535675
O O1 0.750000 0.348720 0.224884
O O2 0.591826 0.500000 0.216846
O O3 0.488244 0.342126 0.250555
O O4 0.546940 0.351926 0.166744
O O5 0.750000 0.892414 0.404531
O O6 0.578393 0.802494 0.352851
O O7 0.474764 0.884624 0.418383
O O8 0.575106 0.000000 0.359395
O O9 0.750000 0.654204 0.962498
O O10 0.906104 0.500000 0.959568
O O11 0.982210 0.654533 0.916117
O O12 0.000000 0.652165 0.000000
O O13 0.250000 0.342037 0.293575
O O14 0.393706 0.500000 0.284901
O O15 0.486976 0.369019 0.335803
O O16 0.250000 0.347623 0.641460
O O17 0.048150 0.327263 0.583874
O O18 0.500000 0.353333 0.500000
O O19 0.250000 0.374947 0.529324
O O20 0.445780 0.500000 0.551862
O O21 0.750000 0.348973 0.108049
O O22 0.593569 0.500000 0.116663
O O23 0.500000 0.162448 0.500000
O O24 0.750000 0.159978 0.537754
O O25 0.617956 0.000000 0.521425
#
# Coordination Sequence:
#
# PCOD8210184 Si02
#       8
#     8   8   8   8   8   8   8   8
#     4   8  14  25  40  55  72  96 122 149 187 236
#     4   9  18  32  47  63  83 104 128 159 192 226
#     4   9  15  20  26  37  55  81 113 150 190 229
#     4  10  20  31  44  64  86 104 125 158 196 231
#     4  10  20  33  49  66  83 106 132 156 189 233
#     4   9  18  32  48  64  81 102 128 156 185 220
#     4   8  13  21  32  45  61  83 113 147 184 228
#     4   9  16  26  41  59  78 101 126 150 177 208
#
# _framework density 15.536733999999999
#
# number of rings (size 3 to 8) (size 9 to 14) (size 15 to 20)
#    0.000    3.000    0.000    2.250    0.000    6.250 
#    0.000    5.000    0.000    0.000    0.000    0.000 
#    0.000    0.000    0.000    0.000    0.000    0.000 
#
# Total GULP energy -793005.111587 kJ/mol
# GULP energy per Si atom -12390.704869 kJ/mol
# Density = 1.550137 g / cm^3
# Si number density = 15.536734 Si / 1000 Ang^3
#
#
#
# Elastic Constant Matrix: (Units=GPa)
#
#
# Indices 1 2 3 4 5 6 
#
# 1 119.4633 8.2003 63.9464 0.0000 0.0000 0.0000
# 2 8.2003 28.4469 6.8666 0.0000 0.0000 0.0000
# 3 63.9464 6.8666 102.3621 0.0000 0.0000 0.0000
# 4 0.0000 0.0000 0.0000 1.5334 0.0000 0.0000
# 5 0.0000 0.0000 0.0000 0.0000 27.6809 0.0000
# 6 0.0000 0.0000 0.0000 0.0000 0.0000 7.5116
#
#
#
# Elastic Compliance Matrix: (Units=1/GPa)
#
#
# Indices 1 2 3 4 5 6 
#
# 1 0.012663 -0.001770 -0.007792 0.000000 0.000000 0.000000
# 2 -0.001770 0.035979 -0.001308 0.000000 0.000000 0.000000
# 3 -0.007792 -0.001308 0.014725 0.000000 0.000000 0.000000
# 4 0.000000 0.000000 0.000000 0.652161 0.000000 0.000000
# 5 0.000000 0.000000 0.000000 0.000000 0.036126 0.000000
# 6 0.000000 0.000000 0.000000 0.000000 0.000000 0.133127
#
#
# Mechanical properties :
#
#
# Convention : Reuss Voigt Hill
#
# Bulk Modulus (GPa) = 24.02252 45.36653 34.69452
# Shear Modulus (GPa) = 5.43244 18.76244 12.09744
#
# Velocity S-wave (km/s) = 1.87193 3.47885 2.79343
# Velocity P-wave (km/s) = 4.49082 6.73791 5.72568
#
# Compressibility (1/GPa) = 0.04162761
#
# Stress axis : x y z
#
# Youngs Moduli (GPa) = 78.96902 27.79397 67.91280
#
# Poissons Ratio (x) = 0.04918 0.52918
# Poissons Ratio (y) = 0.13974 0.08884
# Poissons Ratio (z) = 0.61533 0.03636
#
# Static dielectric constant tensor:
#      x y z
#    x 3.275070 0.000000 0.000000 
#    y 0.000000 2.622970 0.000000 
#    z 0.000000 0.000000 2.940840 
# 
# 
# High freq. dielectric constant tensor:
#      x y z
#    x 1.611210 0.000000 0.000000 
#    y 0.000000 1.531100 0.000000 
#    z 0.000000 0.000000 1.576120 
# 
# From -- ./inp_files/37648.got.cif
#   From: 2010.03.12/outbox.cif.g09.slc.cpg/sg51_19_cif.got.tgz:37648.got - 2010.04.16 13:43:02.
