data_PCOD8210065
_publ_section_title
;
Structure prediction by ZEFSAII (Michael W. Deem and Ramdas Pophale) SiO2 
 PCOD8210065
Probable space group: P M M A
;
_chemical_formula_sum "Si O2"
_cell_formula_units_Z 56
_cell_length_a 18.500822
_cell_length_b 9.005961
_cell_length_c 17.043563
_cell_angle_alpha 90.000000
_cell_angle_beta 90.000000
_cell_angle_gamma 90.000000
_cell_volume 2839.758950
_symmetry_space_group_name_H-M "P M M A"
_symmetry_group_IT_number 51
_symmetry_cell_setting 'orthorhombic'
loop_
_space_group_symop_operation_xyz
x,y,z
1/2-x,-y,z
1/2+x,-y,-z
-x,y,-z
-x,-y,-z
1/2+x,y,-z
1/2-x,y,z
x,-y,z
loop_
_atom_site_type_symbol
_atom_site_label
_atom_site_fract_x
_atom_site_fract_y
_atom_site_fract_z
Si Si1 0.940488 0.823941 0.659270
Si Si2 0.913595 0.675783 0.098948
Si Si3 0.549225 0.829295 0.837912
Si Si4 0.666681 0.673739 0.553562
Si Si5 0.079346 0.324502 0.600866
Si Si6 0.167434 0.170588 0.040982
Si Si7 0.830247 0.323574 0.251589
O O1 0.950090 0.768320 0.748901
O O2 0.863923 0.764008 0.627738
O O3 0.002187 0.755780 0.603333
O O4 0.941759 0.000000 0.654351
O O5 0.918567 0.500000 0.096133
O O6 0.867644 0.734141 0.172775
O O7 0.994223 0.738643 0.107285
O O8 0.874726 0.730480 0.021192
O O9 0.629096 0.809934 0.874578
O O10 0.524672 0.000000 0.839082
O O11 0.750000 0.716947 0.540817
O O12 0.657877 0.500000 0.570217
O O13 0.622511 0.721722 0.476513
O O14 0.065929 0.500000 0.604593
O O15 0.125282 0.264799 0.674316
O O16 0.250000 0.225549 0.049017
O O17 0.164131 0.000000 0.013387
O O18 0.750000 0.255743 0.255307
O O19 0.826762 0.500000 0.253267
#
# Coordination Sequence:
#
# PCOD8210065 Si02
#       7
#     8   8   8   8   8   8   8
#     4  11  23  38  59  86 117 152 193 241 289 337
#     4  11  21  35  58  88 119 148 185 235 290 342
#     4  10  22  40  60  82 112 154 200 237 277 340
#     4  10  22  39  60  86 115 150 194 240 286 342
#     4  10  19  36  60  84 113 151 193 233 281 345
#     4  10  22  40  60  81 110 151 195 238 285 340
#     4   9  17  30  52  82 114 147 182 224 276 334
#
# _framework density 19.719985000000001
#
# number of rings (size 3 to 8) (size 9 to 14) (size 15 to 20)
#    0.000    1.857    1.429    2.571    0.000    8.571 
#    0.000    1.429    0.000    2.143    0.000    0.000 
#    0.000    0.000    0.000    0.000    0.000    0.000 
#
# Total GULP energy -694607.399632 kJ/mol
# GULP energy per Si atom -12403.703565 kJ/mol
# Density = 1.967510 g / cm^3
# Si number density = 19.719985 Si / 1000 Ang^3
#
#
#
# Elastic Constant Matrix: (Units=GPa)
#
#
# Indices 1 2 3 4 5 6 
#
# 1 138.8607 43.6383 65.8027 0.0000 0.0000 0.0000
# 2 43.6383 54.5608 38.2993 0.0000 0.0000 0.0000
# 3 65.8027 38.2993 93.3405 0.0000 0.0000 0.0000
# 4 0.0000 0.0000 0.0000 29.2775 0.0000 0.0000
# 5 0.0000 0.0000 0.0000 0.0000 30.6427 0.0000
# 6 0.0000 0.0000 0.0000 0.0000 0.0000 25.8730
#
#
#
# Elastic Compliance Matrix: (Units=1/GPa)
#
#
# Indices 1 2 3 4 5 6 
#
# 1 0.011717 -0.005019 -0.006201 0.000000 0.000000 0.000000
# 2 -0.005019 0.027892 -0.007907 0.000000 0.000000 0.000000
# 3 -0.006201 -0.007907 0.018329 0.000000 0.000000 0.000000
# 4 0.000000 0.000000 0.000000 0.034156 0.000000 0.000000
# 5 0.000000 0.000000 0.000000 0.000000 0.032634 0.000000
# 6 0.000000 0.000000 0.000000 0.000000 0.000000 0.038650
#
#
# Mechanical properties :
#
#
# Convention : Reuss Voigt Hill
#
# Bulk Modulus (GPa) = 50.79760 64.69361 57.74561
# Shear Modulus (GPa) = 24.01608 26.42676 25.22142
#
# Velocity S-wave (km/s) = 3.49356 3.66471 3.58016
# Velocity P-wave (km/s) = 6.48758 7.12630 6.81443
#
# Compressibility (1/GPa) = 0.01968597
#
# Stress axis : x y z
#
# Youngs Moduli (GPa) = 85.34509 35.85225 54.55743
#
# Poissons Ratio (x) = 0.17993 0.33831
# Poissons Ratio (y) = 0.42831 0.43137
# Poissons Ratio (z) = 0.52923 0.28347
#
# Static dielectric constant tensor:
#      x y z
#    x 3.749240 0.000000 0.000000 
#    y 0.000000 3.320400 0.000000 
#    z 0.000000 0.000000 3.699890 
# 
# 
# High freq. dielectric constant tensor:
#      x y z
#    x 1.779690 0.000000 0.000000 
#    y 0.000000 1.745620 0.000000 
#    z 0.000000 0.000000 1.776640 
# 
# From -- ./inp_files/25694.got.cif
#   From: 2010.03.12/outbox.cif.g09.slc.cpg/sg51_13_cif.got.tgz:25694.got - 2010.04.16 13:43:02.
