data_PCOD8210471
_publ_section_title
;
Structure prediction by ZEFSAII (Michael W. Deem and Ramdas Pophale) SiO2 
 PCOD8210471
Probable space group: P M M A
;
_chemical_formula_sum "Si O2"
_cell_formula_units_Z 44
_cell_length_a 9.123072
_cell_length_b 7.735056
_cell_length_c 30.133285
_cell_angle_alpha 90.000000
_cell_angle_beta 90.000000
_cell_angle_gamma 90.000000
_cell_volume 2126.429770
_symmetry_space_group_name_H-M "P M M A"
_symmetry_group_IT_number 51
_symmetry_cell_setting 'orthorhombic'
loop_
_space_group_symop_operation_xyz
x,y,z
1/2-x,-y,z
1/2+x,-y,-z
-x,y,-z
-x,-y,-z
1/2+x,y,-z
1/2-x,y,z
x,-y,z
loop_
_atom_site_type_symbol
_atom_site_label
_atom_site_fract_x
_atom_site_fract_y
_atom_site_fract_z
Si Si1 0.921308 0.000000 0.453466
Si Si2 0.911466 0.801760 0.213123
Si Si3 0.079319 0.697899 0.612024
Si Si4 0.084958 0.206433 0.129540
Si Si5 0.583666 0.702938 0.701436
Si Si6 0.415598 0.205958 0.956896
O O1 0.967979 0.173531 0.427275
O O2 0.000000 0.000000 0.500000
O O3 0.750000 0.000000 0.462570
O O4 0.750000 0.713612 0.216462
O O5 0.005830 0.716605 0.173446
O O6 0.994822 0.791425 0.259462
O O7 0.889660 0.000000 0.200718
O O8 0.250000 0.719380 0.623645
O O9 0.043292 0.500000 0.597926
O O10 0.988726 0.755116 0.654979
O O11 0.250000 0.279764 0.128319
O O12 0.998140 0.275603 0.086684
O O13 0.088349 0.000000 0.130194
O O14 0.750000 0.771585 0.701803
O O15 0.576701 0.500000 0.708826
O O16 0.250000 0.277881 0.957044
O O17 0.414652 0.000000 0.957285
O O18 0.500000 0.277658 0.000000
#
# Coordination Sequence:
#
# PCOD8210471 Si02
#       6
#     4   8   8   8   8   8
#     4  10  22  38  58  86 116 148 190 232 277 332
#     4  10  20  32  48  71  99 133 170 208 255 312
#     4   9  19  37  58  80 111 149 186 229 278 328
#     4   9  16  26  39  57  85 119 157 203 254 307
#     4  10  21  36  54  78 106 136 173 217 264 314
#     4   9  15  22  33  50  75 111 155 200 249 307
#
# _framework density 20.691960000000002
#
# number of rings (size 3 to 8) (size 9 to 14) (size 15 to 20)
#    0.000    2.545    0.000    2.182    1.273    7.636 
#    0.000    0.000    0.000    0.000    0.000    0.000 
#    0.000    0.727    0.000    2.727    0.000    6.000 
#
# Total GULP energy -545588.448645 kJ/mol
# GULP energy per Si atom -12399.737469 kJ/mol
# Density = 2.064486 g / cm^3
# Si number density = 20.691960 Si / 1000 Ang^3
#
#
#
# Elastic Constant Matrix: (Units=GPa)
#
#
# Indices 1 2 3 4 5 6 
#
# 1 182.2646 25.6606 106.4969 0.0000 0.0000 0.0000
# 2 25.6606 44.3119 40.5428 0.0000 0.0000 0.0000
# 3 106.4969 40.5428 192.7773 0.0000 0.0000 0.0000
# 4 0.0000 0.0000 0.0000 -19.1285 0.0000 0.0000
# 5 0.0000 0.0000 0.0000 0.0000 48.7675 0.0000
# 6 0.0000 0.0000 0.0000 0.0000 0.0000 9.4889
#
#
#
# Elastic Compliance Matrix: (Units=1/GPa)
#
#
# Indices 1 2 3 4 5 6 
#
# 1 0.008121 -0.000741 -0.004331 0.000000 0.000000 0.000000
# 2 -0.000741 0.028012 -0.005482 0.000000 0.000000 0.000000
# 3 -0.004331 -0.005482 0.008733 0.000000 0.000000 0.000000
# 4 0.000000 0.000000 0.000000 -0.052278 0.000000 0.000000
# 5 0.000000 0.000000 0.000000 0.000000 0.020505 0.000000
# 6 0.000000 0.000000 0.000000 0.000000 0.000000 0.105386
#
#
# Mechanical properties :
#
#
# Convention : Reuss Voigt Hill
#
# Bulk Modulus (GPa) = 42.08903 84.97271 63.53087
# Shear Modulus (GPa) = 33.89693 24.26915 29.08304
#
# Velocity S-wave (km/s) = 4.05182 3.42845 3.75310
# Velocity P-wave (km/s) = 6.50189 7.53837 7.03923
#
# Compressibility (1/GPa) = 0.02375916
#
# Stress axis : x y z
#
# Youngs Moduli (GPa) = 123.13441 35.69915 114.51252
#
# Poissons Ratio (x) = 0.02644 0.49592
# Poissons Ratio (y) = 0.09119 0.62776
# Poissons Ratio (z) = 0.53326 0.19570
#
# Static dielectric constant tensor:
#      x y z
#    x 4.069360 0.000000 0.000000 
#    y 0.000000 3.429670 0.000000 
#    z 0.000000 0.000000 3.708700 
# 
# 
# High freq. dielectric constant tensor:
#      x y z
#    x 1.821300 0.000000 0.000000 
#    y 0.000000 1.777180 0.000000 
#    z 0.000000 0.000000 1.811170 
# 
# From -- ./inp_files/36746.got.cif
#   From: 2010.03.12/outbox.cif.g09.slc.cpg/sg51_19_cif.got.tgz:36746.got - 2010.04.16 13:43:02.
