data_PCOD8210247
_publ_section_title
;
Structure prediction by ZEFSAII (Michael W. Deem and Ramdas Pophale) SiO2 
 PCOD8210247
Probable space group: P M M A
;
_chemical_formula_sum "Si O2"
_cell_formula_units_Z 40
_cell_length_a 9.342797
_cell_length_b 13.105323
_cell_length_c 19.768982
_cell_angle_alpha 90.000000
_cell_angle_beta 90.000000
_cell_angle_gamma 90.000000
_cell_volume 2420.521518
_symmetry_space_group_name_H-M "P M M A"
_symmetry_group_IT_number 51
_symmetry_cell_setting 'orthorhombic'
loop_
_space_group_symop_operation_xyz
x,y,z
1/2-x,-y,z
1/2+x,-y,-z
-x,y,-z
-x,-y,-z
1/2+x,y,-z
1/2-x,y,z
x,-y,z
loop_
_atom_site_type_symbol
_atom_site_label
_atom_site_fract_x
_atom_site_fract_y
_atom_site_fract_z
Si Si1 0.084403 0.884217 0.932827
Si Si2 0.093146 0.620597 0.439713
Si Si3 0.419259 0.707729 0.830510
Si Si4 0.419319 0.618283 0.288337
Si Si5 0.907514 0.616283 0.940852
O O1 0.250000 0.871435 0.950607
O O2 0.043733 0.814702 0.867824
O O3 0.046000 0.000000 0.912180
O O4 0.000000 0.850866 0.000000
O O5 0.250000 0.669181 0.446755
O O6 0.102718 0.500000 0.449072
O O7 0.032724 0.644606 0.365012
O O8 0.000000 0.669893 0.500000
O O9 0.250000 0.687501 0.827067
O O10 0.488506 0.698028 0.756268
O O11 0.500543 0.620307 0.872591
O O12 0.250000 0.636397 0.277889
O O13 0.456318 0.500000 0.271495
O O14 0.750000 0.668615 0.933938
O O15 0.882385 0.500000 0.960782
O O16 0.000000 0.671363 0.000000
#
# Coordination Sequence:
#
# PCOD8210247 Si02
#       5
#     8   8   8   8   8
#     4   9  19  35  51  66  84 106 136 177 224 270
#     4   8  14  25  41  60  83 114 150 182 210 241
#     4  11  21  30  44  65  86 110 141 177 216 257
#     4   9  18  31  44  61  90 125 153 177 210 251
#     4  10  20  32  44  58  80 111 143 174 208 247
#
# _framework density 16.525364
#
# number of rings (size 3 to 8) (size 9 to 14) (size 15 to 20)
#    0.000    2.600    0.000    3.600    0.000    8.000 
#    0.000    2.000    0.000    0.000    0.000    0.000 
#    0.000    0.800    0.000    1.800    0.000    2.800 
#
# Total GULP energy -495657.960737 kJ/mol
# GULP energy per Si atom -12391.449018 kJ/mol
# Density = 1.648775 g / cm^3
# Si number density = 16.525364 Si / 1000 Ang^3
#
#
#
# Elastic Constant Matrix: (Units=GPa)
#
#
# Indices 1 2 3 4 5 6 
#
# 1 101.5847 33.7212 71.1846 0.0000 0.0000 0.0000
# 2 33.7212 55.8989 37.9186 0.0000 0.0000 0.0000
# 3 71.1846 37.9186 141.5713 0.0000 0.0000 0.0000
# 4 0.0000 0.0000 0.0000 14.2981 0.0000 0.0000
# 5 0.0000 0.0000 0.0000 0.0000 34.1838 0.0000
# 6 0.0000 0.0000 0.0000 0.0000 0.0000 12.6699
#
#
#
# Elastic Compliance Matrix: (Units=1/GPa)
#
#
# Indices 1 2 3 4 5 6 
#
# 1 0.016368 -0.005244 -0.006825 0.000000 0.000000 0.000000
# 2 -0.005244 0.023541 -0.003669 0.000000 0.000000 0.000000
# 3 -0.006825 -0.003669 0.011478 0.000000 0.000000 0.000000
# 4 0.000000 0.000000 0.000000 0.069939 0.000000 0.000000
# 5 0.000000 0.000000 0.000000 0.000000 0.029254 0.000000
# 6 0.000000 0.000000 0.000000 0.000000 0.000000 0.078927
#
#
# Mechanical properties :
#
#
# Convention : Reuss Voigt Hill
#
# Bulk Modulus (GPa) = 50.22272 64.96711 57.59491
# Shear Modulus (GPa) = 18.68321 22.64572 20.66447
#
# Velocity S-wave (km/s) = 3.36605 3.70586 3.54003
# Velocity P-wave (km/s) = 6.75014 7.59671 7.18590
#
# Compressibility (1/GPa) = 0.01991131
#
# Stress axis : x y z
#
# Youngs Moduli (GPa) = 61.09659 42.47836 87.12226
#
# Poissons Ratio (x) = 0.22275 0.59464
# Poissons Ratio (y) = 0.32038 0.31962
# Poissons Ratio (z) = 0.41701 0.15584
#
# Static dielectric constant tensor:
#      x y z
#    x 3.418010 0.000000 0.000000 
#    y 0.000000 2.801910 0.000000 
#    z 0.000000 0.000000 3.204460 
# 
# 
# High freq. dielectric constant tensor:
#      x y z
#    x 1.647220 0.000000 0.000000 
#    y 0.000000 1.587620 0.000000 
#    z 0.000000 0.000000 1.631070 
# 
# From -- ./inp_files/31514.got.cif
#   From: 2010.03.12/outbox.cif.g09.slc.cpg/sg51_16_cif.got.tgz:31514.got - 2010.04.16 13:43:02.
