data_PCOD8210277
_publ_section_title
;
Structure prediction by ZEFSAII (Michael W. Deem and Ramdas Pophale) SiO2 
 PCOD8210277
Probable space group: P M M A
;
_chemical_formula_sum "Si O2"
_cell_formula_units_Z 64
_cell_length_a 8.919894
_cell_length_b 14.236412
_cell_length_c 31.220999
_cell_angle_alpha 90.000000
_cell_angle_beta 90.000000
_cell_angle_gamma 90.000000
_cell_volume 3964.669929
_symmetry_space_group_name_H-M "P M M A"
_symmetry_group_IT_number 51
_symmetry_cell_setting 'orthorhombic'
loop_
_space_group_symop_operation_xyz
x,y,z
1/2-x,-y,z
1/2+x,-y,-z
-x,y,-z
-x,-y,-z
1/2+x,y,-z
1/2-x,y,z
x,-y,z
loop_
_atom_site_type_symbol
_atom_site_label
_atom_site_fract_x
_atom_site_fract_y
_atom_site_fract_z
Si Si1 0.926286 0.108181 0.043622
Si Si2 0.928515 0.894383 0.211029
Si Si3 0.073911 0.108982 0.370931
Si Si4 0.075215 0.393048 0.258545
Si Si5 0.581354 0.888439 0.457958
Si Si6 0.927711 0.781242 0.293793
Si Si7 0.422775 0.604696 0.830983
Si Si8 0.926048 0.791254 0.127162
O O1 0.750000 0.121741 0.039065
O O2 0.994322 0.169271 0.082888
O O3 0.968964 0.000000 0.052208
O O4 0.000000 0.145356 0.000000
O O5 0.750000 0.893833 0.210274
O O6 0.986289 0.837012 0.252048
O O7 0.993348 0.846796 0.167936
O O8 0.991307 0.000000 0.213989
O O9 0.250000 0.126838 0.370050
O O10 0.011228 0.143678 0.416472
O O11 0.994776 0.170267 0.335189
O O12 0.034431 0.000000 0.362925
O O13 0.250000 0.370536 0.261466
O O14 0.039665 0.500000 0.272095
O O15 0.986231 0.325542 0.290898
O O16 0.023379 0.374936 0.210075
O O17 0.500000 0.846776 0.500000
O O18 0.750000 0.848059 0.455388
O O19 0.585454 0.000000 0.460911
O O20 0.750000 0.781864 0.297367
O O21 0.250000 0.617591 0.816554
O O22 0.451671 0.500000 0.849397
O O23 0.463001 0.680252 0.867851
O O24 0.750000 0.810291 0.125746
#
# Coordination Sequence:
#
# PCOD8210277 Si02
#       8
#     8   8   8   8   8   8   8   8
#     4   9  17  29  46  65  86 112 143 179 219 265
#     4   9  16  25  40  64  90 115 147 185 220 258
#     4  10  20  32  45  64  95 133 167 199 238 285
#     4  10  20  33  48  66  90 120 153 190 235 284
#     4   9  16  27  44  65  89 120 162 208 249 287
#     4  11  20  31  47  67  92 123 159 197 233 275
#     4   9  16  28  47  69  89 109 142 187 228 268
#     4   9  15  26  44  67  88 111 145 183 223 266
#
# _framework density 16.142579000000001
#
# number of rings (size 3 to 8) (size 9 to 14) (size 15 to 20)
#    0.000    2.500    1.250    2.250    0.000    5.000 
#    0.000    0.625    0.000    0.375    0.000    0.000 
#    0.000    0.500    0.000    1.875    0.000    2.875 
#
# Total GULP energy -793515.282920 kJ/mol
# GULP energy per Si atom -12398.676296 kJ/mol
# Density = 1.610584 g / cm^3
# Si number density = 16.142579 Si / 1000 Ang^3
#
#
#
# Elastic Constant Matrix: (Units=GPa)
#
#
# Indices 1 2 3 4 5 6 
#
# 1 60.1805 37.7283 45.6900 0.0000 0.0000 0.0000
# 2 37.7283 100.1902 67.8060 0.0000 0.0000 0.0000
# 3 45.6900 67.8060 143.1068 0.0000 0.0000 0.0000
# 4 0.0000 0.0000 0.0000 11.6484 0.0000 0.0000
# 5 0.0000 0.0000 0.0000 0.0000 25.5319 0.0000
# 6 0.0000 0.0000 0.0000 0.0000 0.0000 17.5528
#
#
#
# Elastic Compliance Matrix: (Units=1/GPa)
#
#
# Indices 1 2 3 4 5 6 
#
# 1 0.023927 -0.005653 -0.004961 0.000000 0.000000 0.000000
# 2 -0.005653 0.016028 -0.005789 0.000000 0.000000 0.000000
# 3 -0.004961 -0.005789 0.011315 0.000000 0.000000 0.000000
# 4 0.000000 0.000000 0.000000 0.085849 0.000000 0.000000
# 5 0.000000 0.000000 0.000000 0.000000 0.039167 0.000000
# 6 0.000000 0.000000 0.000000 0.000000 0.000000 0.056971
#
#
# Mechanical properties :
#
#
# Convention : Reuss Voigt Hill
#
# Bulk Modulus (GPa) = 54.16115 67.32513 60.74314
# Shear Modulus (GPa) = 18.36775 21.09682 19.73228
#
# Velocity S-wave (km/s) = 3.37685 3.61904 3.50004
# Velocity P-wave (km/s) = 6.98776 7.69807 7.35150
#
# Compressibility (1/GPa) = 0.01846342
#
# Stress axis : x y z
#
# Youngs Moduli (GPa) = 41.79412 62.39171 88.38014
#
# Poissons Ratio (x) = 0.35268 0.43844
# Poissons Ratio (y) = 0.23625 0.51167
# Poissons Ratio (z) = 0.20733 0.36121
#
# Static dielectric constant tensor:
#      x y z
#    x 2.955150 0.000000 0.000000 
#    y 0.000000 3.088170 0.000000 
#    z 0.000000 0.000000 3.098170 
# 
# 
# High freq. dielectric constant tensor:
#      x y z
#    x 1.607750 0.000000 0.000000 
#    y 0.000000 1.602920 0.000000 
#    z 0.000000 0.000000 1.610760 
# 
# From -- ./inp_files/37543.got.cif
#   From: 2010.03.12/outbox.cif.g09.slc.cpg/sg51_19_cif.got.tgz:37543.got - 2010.04.16 13:43:02.
