data_PCOD8210446
_publ_section_title
;
Structure prediction by ZEFSAII (Michael W. Deem and Ramdas Pophale) SiO2 
 PCOD8210446
Probable space group: P M M A
;
_chemical_formula_sum "Si O2"
_cell_formula_units_Z 52
_cell_length_a 8.898044
_cell_length_b 15.285627
_cell_length_c 22.740233
_cell_angle_alpha 90.000000
_cell_angle_beta 90.000000
_cell_angle_gamma 90.000000
_cell_volume 3092.948701
_symmetry_space_group_name_H-M "P M M A"
_symmetry_group_IT_number 51
_symmetry_cell_setting 'orthorhombic'
loop_
_space_group_symop_operation_xyz
x,y,z
1/2-x,-y,z
1/2+x,-y,-z
-x,y,-z
-x,-y,-z
1/2+x,y,-z
1/2-x,y,z
x,-y,z
loop_
_atom_site_type_symbol
_atom_site_label
_atom_site_fract_x
_atom_site_fract_y
_atom_site_fract_z
Si Si1 0.572098 0.600748 0.821648
Si Si2 0.418001 0.603274 0.942752
Si Si3 0.074380 0.500000 0.438356
Si Si4 0.925980 0.901388 0.687777
Si Si5 0.081007 0.851405 0.440600
Si Si6 0.921295 0.676864 0.618186
Si Si7 0.426211 0.736799 0.732138
O O1 0.750000 0.609426 0.820304
O O2 0.524493 0.500000 0.806246
O O3 0.514148 0.628081 0.885756
O O4 0.502303 0.670121 0.777163
O O5 0.250000 0.642926 0.937413
O O6 0.407161 0.500000 0.949967
O O7 0.500000 0.643787 0.000000
O O8 0.250000 0.500000 0.448291
O O9 0.020474 0.584033 0.403102
O O10 0.000000 0.500000 0.500000
O O11 0.750000 0.876821 0.687753
O O12 0.986336 0.891541 0.620285
O O13 0.008119 0.836098 0.733758
O O14 0.955478 0.000000 0.709701
O O15 0.250000 0.885081 0.447545
O O16 0.071611 0.746051 0.435289
O O17 0.000000 0.883477 0.500000
O O18 0.750000 0.672554 0.643127
O O19 0.039337 0.702393 0.667520
O O20 0.250000 0.739593 0.744883
#
# Coordination Sequence:
#
# PCOD8210446 Si02
#       7
#     8   8   4   8   8   8   8
#     4  10  20  33  50  71  99 138 177 209 243 287
#     4   9  16  27  44  68 100 136 174 212 247 283
#     4  10  20  32  48  66  86 114 153 198 241 286
#     4   9  19  37  56  71  92 124 158 192 239 300
#     4   9  17  29  46  67  91 115 144 184 233 290
#     4   9  19  34  47  62  87 122 158 192 236 290
#     4  11  22  34  50  73  99 124 157 204 249 290
#
# _framework density 16.812436000000002
#
# number of rings (size 3 to 8) (size 9 to 14) (size 15 to 20)
#    0.000    2.462    0.000    3.692    1.077    6.462 
#    0.000    0.000    0.000    0.000    0.000    0.000 
#    0.000    0.615    0.000    2.308    0.000    3.538 
#
# Total GULP energy -644509.963356 kJ/mol
# GULP energy per Si atom -12394.422372 kJ/mol
# Density = 1.677417 g / cm^3
# Si number density = 16.812436 Si / 1000 Ang^3
#
#
#
# Elastic Constant Matrix: (Units=GPa)
#
#
# Indices 1 2 3 4 5 6 
#
# 1 85.5172 34.8984 42.5825 0.0000 0.0000 0.0000
# 2 34.8984 100.7448 35.9900 0.0000 0.0000 0.0000
# 3 42.5825 35.9900 82.6162 0.0000 0.0000 0.0000
# 4 0.0000 0.0000 0.0000 11.1660 0.0000 0.0000
# 5 0.0000 0.0000 0.0000 0.0000 31.2767 0.0000
# 6 0.0000 0.0000 0.0000 0.0000 0.0000 17.6513
#
#
#
# Elastic Compliance Matrix: (Units=1/GPa)
#
#
# Indices 1 2 3 4 5 6 
#
# 1 0.016549 -0.003180 -0.007144 0.000000 0.000000 0.000000
# 2 -0.003180 0.012367 -0.003748 0.000000 0.000000 0.000000
# 3 -0.007144 -0.003748 0.017419 0.000000 0.000000 0.000000
# 4 0.000000 0.000000 0.000000 0.089557 0.000000 0.000000
# 5 0.000000 0.000000 0.000000 0.000000 0.031973 0.000000
# 6 0.000000 0.000000 0.000000 0.000000 0.000000 0.056653
#
#
# Mechanical properties :
#
#
# Convention : Reuss Voigt Hill
#
# Bulk Modulus (GPa) = 54.97684 55.09110 55.03397
# Shear Modulus (GPa) = 19.32545 22.37930 20.85237
#
# Velocity S-wave (km/s) = 3.39407 3.65240 3.52560
# Velocity P-wave (km/s) = 6.93763 7.11519 7.02697
#
# Compressibility (1/GPa) = 0.01818948
#
# Stress axis : x y z
#
# Youngs Moduli (GPa) = 60.42725 80.86219 57.40776
#
# Poissons Ratio (x) = 0.25717 0.41013
# Poissons Ratio (y) = 0.19218 0.21517
# Poissons Ratio (z) = 0.43171 0.30308
#
# Static dielectric constant tensor:
#      x y z
#    x 3.143300 0.000000 0.000000 
#    y 0.000000 3.224540 0.000000 
#    z 0.000000 0.000000 3.043430 
# 
# 
# High freq. dielectric constant tensor:
#      x y z
#    x 1.649070 0.000000 0.000000 
#    y 0.000000 1.631070 0.000000 
#    z 0.000000 0.000000 1.626490 
# 
# From -- ./inp_files/31786.got.cif
#   From: 2010.03.12/outbox.cif.g09.slc.cpg/sg51_16_cif.got.tgz:31786.got - 2010.04.16 13:43:02.
