data_PCOD8210194
_publ_section_title
;
Structure prediction by ZEFSAII (Michael W. Deem and Ramdas Pophale) SiO2 
 PCOD8210194
Probable space group: P M M A
;
_chemical_formula_sum "Si O2"
_cell_formula_units_Z 56
_cell_length_a 9.116316
_cell_length_b 15.108697
_cell_length_c 24.448162
_cell_angle_alpha 90.000000
_cell_angle_beta 90.000000
_cell_angle_gamma 90.000000
_cell_volume 3367.383636
_symmetry_space_group_name_H-M "P M M A"
_symmetry_group_IT_number 51
_symmetry_cell_setting 'orthorhombic'
loop_
_space_group_symop_operation_xyz
x,y,z
1/2-x,-y,z
1/2+x,-y,-z
-x,y,-z
-x,-y,-z
1/2+x,y,-z
1/2-x,y,z
x,-y,z
loop_
_atom_site_type_symbol
_atom_site_label
_atom_site_fract_x
_atom_site_fract_y
_atom_site_fract_z
Si Si1 0.082217 0.267479 0.131800
Si Si2 0.421054 0.603392 0.661595
Si Si3 0.414798 0.902593 0.738478
Si Si4 0.920719 0.603038 0.055107
Si Si5 0.084217 0.605340 0.447054
Si Si6 0.414748 0.902637 0.868425
Si Si7 0.417887 0.267738 0.261354
O O1 0.250000 0.276964 0.113483
O O2 0.064030 0.274519 0.196572
O O3 0.987761 0.346187 0.106510
O O4 0.023495 0.172980 0.109372
O O5 0.250000 0.624392 0.656139
O O6 0.450336 0.500000 0.670848
O O7 0.500190 0.638313 0.606886
O O8 0.487587 0.653250 0.713502
O O9 0.250000 0.882737 0.717526
O O10 0.416493 0.902349 0.803452
O O11 0.523284 0.826780 0.716286
O O12 0.466036 0.000000 0.717527
O O13 0.750000 0.624951 0.049738
O O14 0.949736 0.500000 0.065607
O O15 0.000000 0.635257 0.000000
O O16 0.250000 0.642302 0.446505
O O17 0.084816 0.500000 0.449211
O O18 0.000000 0.643477 0.500000
O O19 0.250000 0.882666 0.889375
O O20 0.465919 0.000000 0.889418
O O21 0.250000 0.277419 0.279652
#
# Coordination Sequence:
#
# PCOD8210194 Si02
#       7
#     8   8   8   8   8   8   8
#     4  10  20  32  48  71  97 124 153 186 226 274
#     4  10  20  32  45  62  88 124 162 197 233 273
#     4   8  14  26  44  64  87 117 152 189 227 267
#     4  10  21  37  56  74  91 114 148 191 234 273
#     4   9  16  27  44  64  86 114 151 193 233 273
#     4   8  14  26  45  68  93 121 152 184 219 263
#     4  10  20  31  44  66  96 127 156 188 228 274
#
# _framework density 16.630122
#
# number of rings (size 3 to 8) (size 9 to 14) (size 15 to 20)
#    0.000    2.714    0.000    3.000    0.000    6.286 
#    0.000    5.714    0.000    0.429    0.000    0.000 
#    0.000    0.571    0.000    2.143    0.000    3.286 
#
# Total GULP energy -694285.749978 kJ/mol
# GULP energy per Si atom -12397.959821 kJ/mol
# Density = 1.659227 g / cm^3
# Si number density = 16.630122 Si / 1000 Ang^3
#
#
#
# Elastic Constant Matrix: (Units=GPa)
#
#
# Indices 1 2 3 4 5 6 
#
# 1 129.5901 60.9774 40.8418 0.0000 0.0000 0.0000
# 2 60.9774 80.4646 35.2337 0.0000 0.0000 0.0000
# 3 40.8418 35.2337 42.1496 0.0000 0.0000 0.0000
# 4 0.0000 0.0000 0.0000 2.4016 0.0000 0.0000
# 5 0.0000 0.0000 0.0000 0.0000 28.0580 0.0000
# 6 0.0000 0.0000 0.0000 0.0000 0.0000 27.9832
#
#
#
# Elastic Compliance Matrix: (Units=1/GPa)
#
#
# Indices 1 2 3 4 5 6 
#
# 1 0.013176 -0.006932 -0.006973 0.000000 0.000000 0.000000
# 2 -0.006932 0.023250 -0.012718 0.000000 0.000000 0.000000
# 3 -0.006973 -0.012718 0.041113 0.000000 0.000000 0.000000
# 4 0.000000 0.000000 0.000000 0.416388 0.000000 0.000000
# 5 0.000000 0.000000 0.000000 0.000000 0.035640 0.000000
# 6 0.000000 0.000000 0.000000 0.000000 0.000000 0.035736
#
#
# Mechanical properties :
#
#
# Convention : Reuss Voigt Hill
#
# Bulk Modulus (GPa) = 41.16405 58.47890 49.82148
# Shear Modulus (GPa) = 7.97898 19.36533 13.67216
#
# Velocity S-wave (km/s) = 2.19279 3.41614 2.87040
# Velocity P-wave (km/s) = 5.58727 7.12747 6.40384
#
# Compressibility (1/GPa) = 0.02429304
#
# Stress axis : x y z
#
# Youngs Moduli (GPa) = 75.89695 43.01099 24.32325
#
# Poissons Ratio (x) = 0.29814 0.16960
# Poissons Ratio (y) = 0.52609 0.30935
# Poissons Ratio (z) = 0.52920 0.54703
#
# Static dielectric constant tensor:
#      x y z
#    x 3.335350 0.000000 0.000000 
#    y 0.000000 3.209350 0.000000 
#    z 0.000000 0.000000 2.833740 
# 
# 
# High freq. dielectric constant tensor:
#      x y z
#    x 1.655470 0.000000 0.000000 
#    y 0.000000 1.627870 0.000000 
#    z 0.000000 0.000000 1.603170 
# 
# From -- ./inp_files/31995.got.cif
#   From: 2010.03.12/outbox.cif.g09.slc.cpg/sg51_16_cif.got.tgz:31995.got - 2010.04.16 13:43:02.
