data_PCOD8210945
_publ_section_title
;
Structure prediction by ZEFSAII (Michael W. Deem and Ramdas Pophale) SiO2 
 PCOD8210945
Probable space group: P M M A
;
_chemical_formula_sum "Si O2"
_cell_formula_units_Z 48
_cell_length_a 9.165186
_cell_length_b 9.720832
_cell_length_c 31.112180
_cell_angle_alpha 90.000000
_cell_angle_beta 90.000000
_cell_angle_gamma 90.000000
_cell_volume 2771.884713
_symmetry_space_group_name_H-M "P M M A"
_symmetry_group_IT_number 51
_symmetry_cell_setting 'orthorhombic'
loop_
_space_group_symop_operation_xyz
x,y,z
1/2-x,-y,z
1/2+x,-y,-z
-x,y,-z
-x,-y,-z
1/2+x,y,-z
1/2-x,y,z
x,-y,z
loop_
_atom_site_type_symbol
_atom_site_label
_atom_site_fract_x
_atom_site_fract_y
_atom_site_fract_z
Si Si1 0.923739 0.846877 0.708224
Si Si2 0.920586 0.658273 0.955678
Si Si3 0.087992 0.163186 0.197696
Si Si4 0.411324 0.336044 0.460087
Si Si5 0.575409 0.346387 0.633727
Si Si6 0.418928 0.837765 0.885528
O O1 0.750000 0.851327 0.705358
O O2 0.967116 0.786189 0.755293
O O3 0.989843 0.751230 0.670800
O O4 0.987978 0.000000 0.701737
O O5 0.750000 0.690247 0.961065
O O6 0.947381 0.500000 0.942298
O O7 0.987020 0.757437 0.920190
O O8 0.000000 0.692784 0.000000
O O9 0.250000 0.222510 0.187169
O O10 0.974415 0.210570 0.161354
O O11 0.098416 0.000000 0.199822
O O12 0.500000 0.272529 0.500000
O O13 0.250000 0.274100 0.464166
O O14 0.406547 0.500000 0.462864
O O15 0.478991 0.295169 0.413460
O O16 0.750000 0.345716 0.633635
O O17 0.517790 0.500000 0.643040
O O18 0.250000 0.797634 0.889897
O O19 0.443724 0.000000 0.892351
#
# Coordination Sequence:
#
# PCOD8210945 Si02
#       6
#     8   8   8   8   8   8
#     4   8  13  22  38  58  78 104 139 174 210 256
#     4  10  21  37  56  76  99 129 162 194 232 278
#     4   8  14  26  44  65  89 116 146 183 224 263
#     4   8  13  21  34  52  73  98 129 164 203 248
#     4   8  13  21  34  54  78 100 126 167 213 250
#     4  10  20  33  51  75 100 127 160 196 233 272
#
# _framework density 17.316739999999999
#
# number of rings (size 3 to 8) (size 9 to 14) (size 15 to 20)
#    0.000    3.333    0.000    3.000    0.000    2.333 
#    0.000    0.833    0.000    4.500    0.000    0.000 
#    0.000    0.000    0.000    0.000    0.000    0.000 
#
# Total GULP energy -594819.024239 kJ/mol
# GULP energy per Si atom -12392.063005 kJ/mol
# Density = 1.727733 g / cm^3
# Si number density = 17.316740 Si / 1000 Ang^3
#
#
#
# Elastic Constant Matrix: (Units=GPa)
#
#
# Indices 1 2 3 4 5 6 
#
# 1 69.5264 28.3444 60.0194 0.0000 0.0000 0.0000
# 2 28.3444 50.6665 60.7283 0.0000 0.0000 0.0000
# 3 60.0194 60.7283 173.4877 0.0000 0.0000 0.0000
# 4 0.0000 0.0000 0.0000 28.4473 0.0000 0.0000
# 5 0.0000 0.0000 0.0000 0.0000 25.5672 0.0000
# 6 0.0000 0.0000 0.0000 0.0000 0.0000 14.6235
#
#
#
# Elastic Compliance Matrix: (Units=1/GPa)
#
#
# Indices 1 2 3 4 5 6 
#
# 1 0.021307 -0.005314 -0.005511 0.000000 0.000000 0.000000
# 2 -0.005314 0.035329 -0.010528 0.000000 0.000000 0.000000
# 3 -0.005511 -0.010528 0.011356 0.000000 0.000000 0.000000
# 4 0.000000 0.000000 0.000000 0.035153 0.000000 0.000000
# 5 0.000000 0.000000 0.000000 0.000000 0.039113 0.000000
# 6 0.000000 0.000000 0.000000 0.000000 0.000000 0.068383
#
#
# Mechanical properties :
#
#
# Convention : Reuss Voigt Hill
#
# Bulk Modulus (GPa) = 39.54939 65.76274 52.65606
# Shear Modulus (GPa) = 19.10034 23.36683 21.23358
#
# Velocity S-wave (km/s) = 3.32474 3.67737 3.50550
# Velocity P-wave (km/s) = 6.13408 7.48930 6.84531
#
# Compressibility (1/GPa) = 0.02528484
#
# Stress axis : x y z
#
# Youngs Moduli (GPa) = 46.93278 28.30564 88.05922
#
# Poissons Ratio (x) = 0.15042 0.48531
# Poissons Ratio (y) = 0.24941 0.92709
# Poissons Ratio (z) = 0.25865 0.29800
#
# Static dielectric constant tensor:
#      x y z
#    x 3.479790 0.000000 0.000000 
#    y 0.000000 3.011150 0.000000 
#    z 0.000000 0.000000 3.695030 
# 
# 
# High freq. dielectric constant tensor:
#      x y z
#    x 1.634590 0.000000 0.000000 
#    y 0.000000 1.627910 0.000000 
#    z 0.000000 0.000000 1.688390 
# 
# From -- ./inp_files/36149.got.cif
#   From: 2010.03.12/outbox.cif.g09.slc.cpg/sg51_19_cif.got.tgz:36149.got - 2010.04.16 13:43:02.
