data_PCOD8210543
_publ_section_title
;
Structure prediction by ZEFSAII (Michael W. Deem and Ramdas Pophale) SiO2 
 PCOD8210543
Probable space group: P M M A
;
_chemical_formula_sum "Si O2"
_cell_formula_units_Z 36
_cell_length_a 8.726693
_cell_length_b 23.393967
_cell_length_c 9.560136
_cell_angle_alpha 90.000000
_cell_angle_beta 90.000000
_cell_angle_gamma 90.000000
_cell_volume 1951.720579
_symmetry_space_group_name_H-M "P M M A"
_symmetry_group_IT_number 51
_symmetry_cell_setting 'orthorhombic'
loop_
_space_group_symop_operation_xyz
x,y,z
1/2-x,-y,z
1/2+x,-y,-z
-x,y,-z
-x,-y,-z
1/2+x,y,-z
1/2-x,y,z
x,-y,z
loop_
_atom_site_type_symbol
_atom_site_label
_atom_site_fract_x
_atom_site_fract_y
_atom_site_fract_z
Si Si1 0.569551 0.000000 0.652932
Si Si2 0.070514 0.438143 0.347076
Si Si3 0.432030 0.102649 0.150526
Si Si4 0.568420 0.222535 0.149203
Si Si5 0.569609 0.674632 0.346970
O O1 0.500000 0.000000 0.500000
O O2 0.514197 0.055794 0.737230
O O3 0.750000 0.000000 0.637649
O O4 0.250000 0.426742 0.358627
O O5 0.038326 0.500000 0.272417
O O6 0.000000 0.440733 0.500000
O O7 0.992577 0.383619 0.271174
O O8 0.250000 0.105971 0.136945
O O9 0.497626 0.163105 0.203239
O O10 0.500000 0.085959 0.000000
O O11 0.750000 0.216270 0.137129
O O12 0.517492 0.271487 0.256130
O O13 0.500000 0.239368 0.000000
O O14 0.500000 0.682324 0.500000
O O15 0.750000 0.670458 0.358815
#
# Coordination Sequence:
#
# PCOD8210543 Si02
#       5
#     4   8   8   8   8
#     4  10  23  38  54  80 110 138 169 206 252 300
#     4   9  16  26  43  68  97 129 165 205 249 297
#     4  10  20  36  57  79 102 133 172 210 249 297
#     4  10  21  36  54  77 102 133 172 210 251 299
#     4  10  20  32  49  74 102 132 167 207 253 302
#
# _framework density 18.445263000000001
#
# number of rings (size 3 to 8) (size 9 to 14) (size 15 to 20)
#    0.000    2.222    0.000    5.667    0.000    7.556 
#    0.000    4.444    0.000    0.667    0.000    0.000 
#    0.000    0.000    0.000    0.000    0.000    0.000 
#
# Total GULP energy -446232.532333 kJ/mol
# GULP energy per Si atom -12395.348120 kJ/mol
# Density = 1.840328 g / cm^3
# Si number density = 18.445263 Si / 1000 Ang^3
#
#
#
# Elastic Constant Matrix: (Units=GPa)
#
#
# Indices 1 2 3 4 5 6 
#
# 1 85.7656 67.5673 37.4740 0.0000 0.0000 0.0000
# 2 67.5673 204.2825 95.4672 0.0000 0.0000 0.0000
# 3 37.4740 95.4672 86.2531 0.0000 0.0000 0.0000
# 4 0.0000 0.0000 0.0000 13.1153 0.0000 0.0000
# 5 0.0000 0.0000 0.0000 0.0000 26.3031 0.0000
# 6 0.0000 0.0000 0.0000 0.0000 0.0000 7.9729
#
#
#
# Elastic Compliance Matrix: (Units=1/GPa)
#
#
# Indices 1 2 3 4 5 6 
#
# 1 0.015979 -0.004227 -0.002263 0.000000 0.000000 0.000000
# 2 -0.004227 0.011259 -0.010625 0.000000 0.000000 0.000000
# 3 -0.002263 -0.010625 0.024337 0.000000 0.000000 0.000000
# 4 0.000000 0.000000 0.000000 0.076247 0.000000 0.000000
# 5 0.000000 0.000000 0.000000 0.000000 0.038018 0.000000
# 6 0.000000 0.000000 0.000000 0.000000 0.000000 0.125425
#
#
# Mechanical properties :
#
#
# Convention : Reuss Voigt Hill
#
# Bulk Modulus (GPa) = 57.65808 86.36869 72.01338
# Shear Modulus (GPa) = 15.09311 21.19776 18.14544
#
# Velocity S-wave (km/s) = 2.86364 3.39370 3.13987
# Velocity P-wave (km/s) = 6.50083 7.89191 7.22990
#
# Compressibility (1/GPa) = 0.01734362
#
# Stress axis : x y z
#
# Youngs Moduli (GPa) = 62.58208 88.82048 41.08999
#
# Poissons Ratio (x) = 0.37548 0.09300
# Poissons Ratio (y) = 0.26456 0.43657
# Poissons Ratio (z) = 0.14164 0.94369
#
# Static dielectric constant tensor:
#      x y z
#    x 3.481780 0.000000 0.000000 
#    y 0.000000 4.209380 0.000000 
#    z 0.000000 0.000000 3.154820 
# 
# 
# High freq. dielectric constant tensor:
#      x y z
#    x 1.731010 0.000000 0.000000 
#    y 0.000000 1.742240 0.000000 
#    z 0.000000 0.000000 1.674670 
# 
# From -- ./inp_files/5448.got.cif
#   From: 2010.03.12/outbox.cif.g09.slc.cpg/sg51_3_cif.got.tgz:5448.got - 2010.04.16 13:43:02.
