data_PCOD8210887
_publ_section_title
;
Structure prediction by ZEFSAII (Michael W. Deem and Ramdas Pophale) SiO2 
 PCOD8210887
Probable space group: P M M A
;
_chemical_formula_sum "Si O2"
_cell_formula_units_Z 48
_cell_length_a 9.017612
_cell_length_b 9.031868
_cell_length_c 30.976460
_cell_angle_alpha 90.000000
_cell_angle_beta 90.000000
_cell_angle_gamma 90.000000
_cell_volume 2522.905083
_symmetry_space_group_name_H-M "P M M A"
_symmetry_group_IT_number 51
_symmetry_cell_setting 'orthorhombic'
loop_
_space_group_symop_operation_xyz
x,y,z
1/2-x,-y,z
1/2+x,-y,-z
-x,y,-z
-x,-y,-z
1/2+x,y,-z
1/2-x,y,z
x,-y,z
loop_
_atom_site_type_symbol
_atom_site_label
_atom_site_fract_x
_atom_site_fract_y
_atom_site_fract_z
Si Si1 0.083067 0.676169 0.541974
Si Si2 0.420971 0.826366 0.878121
Si Si3 0.926198 0.666835 0.207516
Si Si4 0.076139 0.330184 0.044271
Si Si5 0.578925 0.826072 0.293369
Si Si6 0.424291 0.670453 0.371488
O O1 0.250000 0.738627 0.542775
O O2 0.083092 0.500000 0.539855
O O3 0.000000 0.741258 0.500000
O O4 0.999157 0.730197 0.584791
O O5 0.250000 0.782442 0.886223
O O6 0.485141 0.748317 0.835246
O O7 0.517360 0.774307 0.918231
O O8 0.439551 0.000000 0.871665
O O9 0.750000 0.669938 0.207295
O O10 0.988343 0.500000 0.207969
O O11 0.984079 0.750680 0.249978
O O12 0.250000 0.306989 0.038953
O O13 0.035577 0.500000 0.055201
O O14 0.000000 0.279721 0.000000
O O15 0.750000 0.782213 0.301593
O O16 0.481026 0.770298 0.332710
O O17 0.559808 0.000000 0.287966
O O18 0.250000 0.689442 0.376776
O O19 0.468098 0.500000 0.362586
#
# Coordination Sequence:
#
# PCOD8210887 Si02
#       6
#     8   8   8   8   8   8
#     4   9  16  27  46  73 104 136 171 214 262 310
#     4  10  20  34  54  81 112 144 177 215 262 316
#     4   9  17  31  54  81 107 137 174 216 261 310
#     4  10  21  37  57  80 106 139 180 224 268 314
#     4  10  20  34  53  77 105 137 174 216 262 313
#     4  10  20  33  50  74 104 138 177 219 262 310
#
# _framework density 19.025687000000001
#
# number of rings (size 3 to 8) (size 9 to 14) (size 15 to 20)
#    0.000    2.333    0.000    3.000    0.000    8.333 
#    0.000    0.833    0.000    5.500    0.000    0.000 
#    0.000    0.000    0.000    0.000    0.000    0.000 
#
# Total GULP energy -595347.753775 kJ/mol
# GULP energy per Si atom -12403.078204 kJ/mol
# Density = 1.898238 g / cm^3
# Si number density = 19.025687 Si / 1000 Ang^3
#
#
#
# Elastic Constant Matrix: (Units=GPa)
#
#
# Indices 1 2 3 4 5 6 
#
# 1 82.2030 33.7137 58.5684 0.0000 0.0000 0.0000
# 2 33.7137 77.8947 58.5311 0.0000 0.0000 0.0000
# 3 58.5684 58.5311 173.1760 0.0000 0.0000 0.0000
# 4 0.0000 0.0000 0.0000 5.8272 0.0000 0.0000
# 5 0.0000 0.0000 0.0000 0.0000 30.2428 0.0000
# 6 0.0000 0.0000 0.0000 0.0000 0.0000 22.0006
#
#
#
# Elastic Compliance Matrix: (Units=1/GPa)
#
#
# Indices 1 2 3 4 5 6 
#
# 1 0.016932 -0.004055 -0.004356 0.000000 0.000000 0.000000
# 2 -0.004055 0.018179 -0.004773 0.000000 0.000000 0.000000
# 3 -0.004356 -0.004773 0.008861 0.000000 0.000000 0.000000
# 4 0.000000 0.000000 0.000000 0.171608 0.000000 0.000000
# 5 0.000000 0.000000 0.000000 0.000000 0.033066 0.000000
# 6 0.000000 0.000000 0.000000 0.000000 0.000000 0.045453
#
#
# Mechanical properties :
#
#
# Convention : Reuss Voigt Hill
#
# Bulk Modulus (GPa) = 56.80504 70.54444 63.67474
# Shear Modulus (GPa) = 15.32172 23.77817 19.54994
#
# Velocity S-wave (km/s) = 2.84089 3.53908 3.20903
# Velocity P-wave (km/s) = 6.37830 7.33888 6.87538
#
# Compressibility (1/GPa) = 0.01760407
#
# Stress axis : x y z
#
# Youngs Moduli (GPa) = 59.06144 55.00728 112.85748
#
# Poissons Ratio (x) = 0.22307 0.49157
# Poissons Ratio (y) = 0.23951 0.53866
# Poissons Ratio (z) = 0.25725 0.26254
#
# Static dielectric constant tensor:
#      x y z
#    x 3.337050 0.000000 0.000000 
#    y 0.000000 3.317950 0.000000 
#    z 0.000000 0.000000 3.660620 
# 
# 
# High freq. dielectric constant tensor:
#      x y z
#    x 1.723400 0.000000 0.000000 
#    y 0.000000 1.722150 0.000000 
#    z 0.000000 0.000000 1.756980 
# 
# From -- ./inp_files/36936.got.cif
#   From: 2010.03.12/outbox.cif.g09.slc.cpg/sg51_19_cif.got.tgz:36936.got - 2010.04.16 13:43:02.
