data_PCOD8210150
_publ_section_title
;
Structure prediction by ZEFSAII (Michael W. Deem and Ramdas Pophale) SiO2 
 PCOD8210150
Probable space group: P M M A
;
_chemical_formula_sum "Si O2"
_cell_formula_units_Z 64
_cell_length_a 9.196505
_cell_length_b 15.335027
_cell_length_c 30.173130
_cell_angle_alpha 90.000000
_cell_angle_beta 90.000000
_cell_angle_gamma 90.000000
_cell_volume 4255.275865
_symmetry_space_group_name_H-M "P M M A"
_symmetry_group_IT_number 51
_symmetry_cell_setting 'orthorhombic'
loop_
_space_group_symop_operation_xyz
x,y,z
1/2-x,-y,z
1/2+x,-y,-z
-x,y,-z
-x,-y,-z
1/2+x,y,-z
1/2-x,y,z
x,-y,z
loop_
_atom_site_type_symbol
_atom_site_label
_atom_site_fract_x
_atom_site_fract_y
_atom_site_fract_z
Si Si1 0.414112 0.103802 0.457634
Si Si2 0.919937 0.099771 0.370711
Si Si3 0.583962 0.219164 0.195970
Si Si4 0.419250 0.898429 0.129756
Si Si5 0.919120 0.404682 0.706342
Si Si6 0.585656 0.896237 0.042494
Si Si7 0.585387 0.592933 0.204000
Si Si8 0.418386 0.761701 0.700850
O O1 0.500000 0.141853 0.500000
O O2 0.250000 0.140198 0.458273
O O3 0.493261 0.135770 0.413088
O O4 0.414835 0.000000 0.459499
O O5 0.750000 0.108916 0.381418
O O6 0.967840 0.155588 0.328075
O O7 0.961232 0.000000 0.360011
O O8 0.750000 0.188175 0.188317
O O9 0.475519 0.153201 0.172333
O O10 0.559698 0.317908 0.176114
O O11 0.543965 0.218712 0.247981
O O12 0.250000 0.879895 0.122290
O O13 0.504604 0.864093 0.086651
O O14 0.449539 0.000000 0.138184
O O15 0.750000 0.383307 0.705826
O O16 0.950217 0.500000 0.684011
O O17 0.971045 0.408910 0.756763
O O18 0.000824 0.324836 0.682312
O O19 0.750000 0.859648 0.042388
O O20 0.586481 0.000000 0.040538
O O21 0.500000 0.858568 0.000000
O O22 0.750000 0.599662 0.223681
O O23 0.569460 0.500000 0.177145
O O24 0.250000 0.743120 0.694568
#
# Coordination Sequence:
#
# PCOD8210150 Si02
#       8
#     8   8   8   8   8   8   8   8
#     4   9  16  26  41  60  80 103 132 167 208 249
#     4   9  17  29  43  59  81 109 141 175 207 241
#     4   9  17  28  42  60  81 108 142 175 206 241
#     4  10  20  31  41  56  81 113 146 176 205 238
#     4   9  16  25  39  59  80 102 130 167 210 249
#     4   9  16  27  44  63  81 102 130 167 210 251
#     4   8  14  26  43  60  78 101 130 166 209 254
#     4   9  18  30  43  59  80 110 144 174 206 244
#
# _framework density 15.040153999999999
#
# number of rings (size 3 to 8) (size 9 to 14) (size 15 to 20)
#    0.000    3.000    0.000    2.250    0.000    7.500 
#    0.000    1.250    0.000    1.500    0.000    0.000 
#    0.000    1.000    0.000    3.000    0.000    4.625 
#
# Total GULP energy -793049.733137 kJ/mol
# GULP energy per Si atom -12391.402080 kJ/mol
# Density = 1.500592 g / cm^3
# Si number density = 15.040154 Si / 1000 Ang^3
#
#
#
# Elastic Constant Matrix: (Units=GPa)
#
#
# Indices 1 2 3 4 5 6 
#
# 1 85.9648 45.8221 46.9836 0.0000 0.0000 0.0000
# 2 45.8221 77.3728 45.2513 0.0000 0.0000 0.0000
# 3 46.9836 45.2513 76.0932 0.0000 0.0000 0.0000
# 4 0.0000 0.0000 0.0000 1.3582 0.0000 0.0000
# 5 0.0000 0.0000 0.0000 0.0000 24.2400 0.0000
# 6 0.0000 0.0000 0.0000 0.0000 0.0000 20.2939
#
#
#
# Elastic Compliance Matrix: (Units=1/GPa)
#
#
# Indices 1 2 3 4 5 6 
#
# 1 0.019756 -0.007001 -0.008035 0.000000 0.000000 0.000000
# 2 -0.007001 0.022297 -0.008937 0.000000 0.000000 0.000000
# 3 -0.008035 -0.008937 0.023418 0.000000 0.000000 0.000000
# 4 0.000000 0.000000 0.000000 0.736246 0.000000 0.000000
# 5 0.000000 0.000000 0.000000 0.000000 0.041254 0.000000
# 6 0.000000 0.000000 0.000000 0.000000 0.000000 0.049276
#
#
# Mechanical properties :
#
#
# Convention : Reuss Voigt Hill
#
# Bulk Modulus (GPa) = 57.06114 57.28274 57.17194
# Shear Modulus (GPa) = 5.28522 15.93667 10.61095
#
# Velocity S-wave (km/s) = 1.87662 3.25869 2.65902
# Velocity P-wave (km/s) = 6.53584 7.23381 6.89366
#
# Compressibility (1/GPa) = 0.01752506
#
# Stress axis : x y z
#
# Youngs Moduli (GPa) = 50.61829 44.84840 42.70242
#
# Poissons Ratio (x) = 0.31396 0.34311
# Poissons Ratio (y) = 0.35436 0.38165
# Poissons Ratio (z) = 0.40672 0.40083
#
# Static dielectric constant tensor:
#      x y z
#    x 2.997750 0.000000 0.000000 
#    y 0.000000 3.002720 0.000000 
#    z 0.000000 0.000000 2.712000 
# 
# 
# High freq. dielectric constant tensor:
#      x y z
#    x 1.587510 0.000000 0.000000 
#    y 0.000000 1.554110 0.000000 
#    z 0.000000 0.000000 1.540270 
# 
# From -- ./inp_files/35086.got.cif
#   From: 2010.03.12/outbox.cif.g09.slc.cpg/sg51_18_cif.got.tgz:35086.got - 2010.04.16 13:43:02.
