data_PCOD8210847
_publ_section_title
;
Structure prediction by ZEFSAII (Michael W. Deem and Ramdas Pophale) SiO2 
 PCOD8210847
Probable space group: P M M A
;
_chemical_formula_sum "Si O2"
_cell_formula_units_Z 48
_cell_length_a 9.534805
_cell_length_b 28.455836
_cell_length_c 9.891845
_cell_angle_alpha 90.000000
_cell_angle_beta 90.000000
_cell_angle_gamma 90.000000
_cell_volume 2683.863767
_symmetry_space_group_name_H-M "P M M A"
_symmetry_group_IT_number 51
_symmetry_cell_setting 'orthorhombic'
loop_
_space_group_symop_operation_xyz
x,y,z
1/2-x,-y,z
1/2+x,-y,-z
-x,y,-z
-x,-y,-z
1/2+x,y,-z
1/2-x,y,z
x,-y,z
loop_
_atom_site_type_symbol
_atom_site_label
_atom_site_fract_x
_atom_site_fract_y
_atom_site_fract_z
Si Si1 0.087293 0.055565 0.131149
Si Si2 0.496452 0.386118 0.839095
Si Si3 0.583898 0.104893 0.365430
Si Si4 0.590437 0.786093 0.371773
Si Si5 0.750000 0.551893 0.151785
Si Si6 0.250000 0.553688 0.171119
Si Si7 0.583595 0.715014 0.137290
O O1 0.250000 0.074033 0.126413
O O2 0.997522 0.076489 0.252172
O O3 0.089109 0.000000 0.147020
O O4 0.000000 0.071335 0.000000
O O5 0.377404 0.420101 0.786791
O O6 0.626457 0.413340 0.775627
O O7 0.473399 0.332623 0.790581
O O8 0.500000 0.383620 0.000000
O O9 0.500000 0.091343 0.500000
O O10 0.750000 0.091124 0.374651
O O11 0.566279 0.159812 0.334028
O O12 0.500000 0.770166 0.500000
O O13 0.750000 0.776248 0.412845
O O14 0.548193 0.756806 0.239698
O O15 0.750000 0.500000 0.212726
O O16 0.750000 0.549720 0.989979
O O17 0.250000 0.500000 0.230000
O O18 0.750000 0.710429 0.105741
O O19 0.500000 0.725947 0.000000
#
# Coordination Sequence:
#
# PCOD8210847 Si02
#       7
#     8   8   8   8   4   4   8
#     4  10  21  37  57  82 114 150 186 224 267 316
#     4   9  16  25  38  58  90 124 158 200 244 296
#     4  10  20  36  58  81 109 142 180 227 273 319
#     4   9  20  38  56  78 105 136 175 219 264 312
#     4   9  14  22  36  56  83 123 161 191 238 297
#     4   9  16  24  36  56  87 125 161 197 240 297
#     4  10  20  33  50  73 103 134 168 209 256 309
#
# _framework density 17.884663
#
# number of rings (size 3 to 8) (size 9 to 14) (size 15 to 20)
#    0.000    2.500    0.833    1.500    3.500    5.333 
#    0.000    1.667    0.000    0.000    0.000    0.000 
#    0.000    4.000    0.000    0.000    0.000    0.000 
#
# Total GULP energy -594730.599293 kJ/mol
# GULP energy per Si atom -12390.220819 kJ/mol
# Density = 1.784396 g / cm^3
# Si number density = 17.884663 Si / 1000 Ang^3
#
#
#
# Elastic Constant Matrix: (Units=GPa)
#
#
# Indices 1 2 3 4 5 6 
#
# 1 143.0587 24.7556 48.3769 0.0000 0.0000 0.0000
# 2 24.7556 18.5341 28.3373 0.0000 0.0000 0.0000
# 3 48.3769 28.3373 78.8130 0.0000 0.0000 0.0000
# 4 0.0000 0.0000 0.0000 -17.0005 0.0000 0.0000
# 5 0.0000 0.0000 0.0000 0.0000 25.2086 0.0000
# 6 0.0000 0.0000 0.0000 0.0000 0.0000 29.4178
#
#
#
# Elastic Compliance Matrix: (Units=1/GPa)
#
#
# Indices 1 2 3 4 5 6 
#
# 1 0.009357 -0.008254 -0.002776 0.000000 0.000000 0.000000
# 2 -0.008254 0.127108 -0.040635 0.000000 0.000000 0.000000
# 3 -0.002776 -0.040635 0.029003 0.000000 0.000000 0.000000
# 4 0.000000 0.000000 0.000000 -0.058822 0.000000 0.000000
# 5 0.000000 0.000000 0.000000 0.000000 0.039669 0.000000
# 6 0.000000 0.000000 0.000000 0.000000 0.000000 0.033993
#
#
# Mechanical properties :
#
#
# Convention : Reuss Voigt Hill
#
# Bulk Modulus (GPa) = 16.09341 49.26059 32.67700
# Shear Modulus (GPa) = 16.42841 16.78757 16.60799
#
# Velocity S-wave (km/s) = 3.03409 3.06708 3.05063
# Velocity P-wave (km/s) = 4.61435 6.33608 5.54248
#
# Compressibility (1/GPa) = 0.06213723
#
# Stress axis : x y z
#
# Youngs Moduli (GPa) = 106.87024 7.86733 34.47972
#
# Poissons Ratio (x) = 0.06494 0.09571
# Poissons Ratio (y) = 0.88212 1.40109
# Poissons Ratio (z) = 0.29665 0.31969
#
# Static dielectric constant tensor:
#      x y z
#    x 3.673980 0.000000 0.000000 
#    y 0.000000 3.463480 0.000000 
#    z 0.000000 0.000000 2.942360 
# 
# 
# High freq. dielectric constant tensor:
#      x y z
#    x 1.713190 0.000000 0.000000 
#    y 0.000000 1.701310 0.000000 
#    z 0.000000 0.000000 1.645350 
# 
# From -- ./inp_files/6163.got.cif
#   From: 2010.03.12/outbox.cif.g09.slc.cpg/sg51_4_cif.got.tgz:6163.got - 2010.04.16 13:43:02.
