data_PCOD8210888
_publ_section_title
;
Structure prediction by ZEFSAII (Michael W. Deem and Ramdas Pophale) SiO2 
 PCOD8210888
Probable space group: P M M A
;
_chemical_formula_sum "Si O2"
_cell_formula_units_Z 64
_cell_length_a 8.953490
_cell_length_b 28.547938
_cell_length_c 13.764042
_cell_angle_alpha 90.000000
_cell_angle_beta 90.000000
_cell_angle_gamma 90.000000
_cell_volume 3518.139751
_symmetry_space_group_name_H-M "P M M A"
_symmetry_group_IT_number 51
_symmetry_cell_setting 'orthorhombic'
loop_
_space_group_symop_operation_xyz
x,y,z
1/2-x,-y,z
1/2+x,-y,-z
-x,y,-z
-x,-y,-z
1/2+x,y,-z
1/2-x,y,z
x,-y,z
loop_
_atom_site_type_symbol
_atom_site_label
_atom_site_fract_x
_atom_site_fract_y
_atom_site_fract_z
Si Si1 0.924044 0.554104 0.398399
Si Si2 0.415973 0.055592 0.592981
Si Si3 0.428614 0.278043 0.603233
Si Si4 0.425516 0.365388 0.294417
Si Si5 0.074150 0.228490 0.224538
Si Si6 0.578465 0.684487 0.900261
Si Si7 0.425761 0.947488 0.211362
Si Si8 0.576102 0.141491 0.900999
O O1 0.750000 0.566837 0.404636
O O2 0.949257 0.500000 0.372057
O O3 0.000000 0.567186 0.500000
O O4 0.005141 0.583742 0.314639
O O5 0.500000 0.077290 0.500000
O O6 0.250000 0.076709 0.596360
O O7 0.501530 0.070510 0.689606
O O8 0.410773 0.000000 0.584027
O O9 0.500000 0.265313 0.500000
O O10 0.250000 0.279607 0.596337
O O11 0.490767 0.328023 0.637907
O O12 0.480167 0.237528 0.678001
O O13 0.250000 0.363766 0.319070
O O14 0.454164 0.354948 0.180904
O O15 0.250000 0.234654 0.247949
O O16 0.024493 0.265535 0.141847
O O17 0.033464 0.176968 0.185511
O O18 0.750000 0.687399 0.926777
O O19 0.500000 0.670784 0.000000
O O20 0.250000 0.946587 0.228474
O O21 0.474601 0.911171 0.127862
O O22 0.479875 0.000000 0.182584
O O23 0.750000 0.143624 0.921062
O O24 0.500000 0.157068 0.000000
#
# Coordination Sequence:
#
# PCOD8210888 Si02
#       8
#     8   8   8   8   8   8   8   8
#     4  10  20  33  50  74 104 139 179 222 266 312
#     4   9  16  27  46  71  96 123 155 193 237 284
#     4  11  21  34  54  79 107 139 171 206 251 303
#     4  10  20  34  51  75 107 141 177 217 261 307
#     4   9  19  36  53  74 103 132 166 206 250 299
#     4   9  18  31  50  74  99 127 161 207 256 302
#     4   9  18  33  51  73 102 134 168 206 248 294
#     4  10  21  36  55  76 101 133 167 208 254 300
#
# _framework density 18.191431999999999
#
# number of rings (size 3 to 8) (size 9 to 14) (size 15 to 20)
#    0.000    2.375    0.000    3.750    0.000    6.000 
#    0.000    0.625    0.000    0.375    0.000    0.000 
#    0.000    0.000    0.000    0.000    0.000    0.000 
#
# Total GULP energy -793598.912232 kJ/mol
# GULP energy per Si atom -12399.983004 kJ/mol
# Density = 1.815003 g / cm^3
# Si number density = 18.191432 Si / 1000 Ang^3
#
#
#
# Elastic Constant Matrix: (Units=GPa)
#
#
# Indices 1 2 3 4 5 6 
#
# 1 93.0315 45.8513 61.2850 0.0000 0.0000 0.0000
# 2 45.8513 92.2649 53.7009 0.0000 0.0000 0.0000
# 3 61.2850 53.7009 126.1665 0.0000 0.0000 0.0000
# 4 0.0000 0.0000 0.0000 19.8359 0.0000 0.0000
# 5 0.0000 0.0000 0.0000 0.0000 36.1032 0.0000
# 6 0.0000 0.0000 0.0000 0.0000 0.0000 22.3980
#
#
#
# Elastic Compliance Matrix: (Units=1/GPa)
#
#
# Indices 1 2 3 4 5 6 
#
# 1 0.017351 -0.004941 -0.006325 0.000000 0.000000 0.000000
# 2 -0.004941 0.015815 -0.004331 0.000000 0.000000 0.000000
# 3 -0.006325 -0.004331 0.012842 0.000000 0.000000 0.000000
# 4 0.000000 0.000000 0.000000 0.050414 0.000000 0.000000
# 5 0.000000 0.000000 0.000000 0.000000 0.027698 0.000000
# 6 0.000000 0.000000 0.000000 0.000000 0.000000 0.044647
#
#
# Mechanical properties :
#
#
# Convention : Reuss Voigt Hill
#
# Bulk Modulus (GPa) = 67.50902 70.34858 68.92880
# Shear Modulus (GPa) = 24.40228 25.70915 25.05571
#
# Velocity S-wave (km/s) = 3.66651 3.76341 3.71527
# Velocity P-wave (km/s) = 7.42397 7.59207 7.50849
#
# Compressibility (1/GPa) = 0.01481284
#
# Stress axis : x y z
#
# Youngs Moduli (GPa) = 57.63341 63.23197 77.87022
#
# Poissons Ratio (x) = 0.31245 0.49253
# Poissons Ratio (y) = 0.28478 0.33727
# Poissons Ratio (z) = 0.36453 0.27387
#
# Static dielectric constant tensor:
#      x y z
#    x 3.383640 0.000000 0.000000 
#    y 0.000000 3.293040 0.000000 
#    z 0.000000 0.000000 3.304060 
# 
# 
# High freq. dielectric constant tensor:
#      x y z
#    x 1.710010 0.000000 0.000000 
#    y 0.000000 1.687140 0.000000 
#    z 0.000000 0.000000 1.700910 
# 
# From -- ./inp_files/14849.got.cif
#   From: 2010.03.12/outbox.cif.g09.slc.cpg/sg51_8_cif.got.tgz:14849.got - 2010.04.16 13:43:02.
