data_PCOD8210788
_publ_section_title
;
Structure prediction by ZEFSAII (Michael W. Deem and Ramdas Pophale) SiO2 
 PCOD8210788
Probable space group: P M M A
;
_chemical_formula_sum "Si O2"
_cell_formula_units_Z 48
_cell_length_a 9.065597
_cell_length_b 15.736282
_cell_length_c 18.691035
_cell_angle_alpha 90.000000
_cell_angle_beta 90.000000
_cell_angle_gamma 90.000000
_cell_volume 2666.440454
_symmetry_space_group_name_H-M "P M M A"
_symmetry_group_IT_number 51
_symmetry_cell_setting 'orthorhombic'
loop_
_space_group_symop_operation_xyz
x,y,z
1/2-x,-y,z
1/2+x,-y,-z
-x,y,-z
-x,-y,-z
1/2+x,y,-z
1/2-x,y,z
x,-y,z
loop_
_atom_site_type_symbol
_atom_site_label
_atom_site_fract_x
_atom_site_fract_y
_atom_site_fract_z
Si Si1 0.583751 0.821340 0.573036
Si Si2 0.419339 0.905784 0.692371
Si Si3 0.077309 0.184708 0.924823
Si Si4 0.921290 0.000000 0.073947
Si Si5 0.577388 0.258009 0.220002
Si Si6 0.418459 0.350669 0.338803
Si Si7 0.573114 0.500000 0.421861
O O1 0.500000 0.808689 0.500000
O O2 0.750000 0.847458 0.556055
O O3 0.512569 0.895925 0.619920
O O4 0.573523 0.733553 0.614973
O O5 0.250000 0.894964 0.670391
O O6 0.464276 0.834931 0.749661
O O7 0.448621 0.000000 0.724940
O O8 0.250000 0.188738 0.940359
O O9 0.034692 0.254390 0.864339
O O10 0.035520 0.091020 0.890700
O O11 0.000000 0.205680 0.000000
O O12 0.750000 0.000000 0.059426
O O13 0.000000 0.000000 0.000000
O O14 0.750000 0.277900 0.230881
O O15 0.483257 0.331013 0.259600
O O16 0.250000 0.383711 0.331610
O O17 0.521294 0.418543 0.377632
O O18 0.750000 0.500000 0.430085
O O19 0.500000 0.500000 0.500000
#
# Coordination Sequence:
#
# PCOD8210788 Si02
#       7
#     8   8   8   4   8   8   4
#     4  10  20  33  50  69  93 125 160 202 248 293
#     4   9  18  31  47  66  89 123 168 212 254 299
#     4   9  17  28  45  69  99 134 175 220 265 312
#     4   8  14  24  38  60  92 128 167 214 263 308
#     4   9  18  32  50  72 100 135 173 215 260 307
#     4  10  21  37  55  78 106 135 167 204 250 305
#     4  12  24  38  60  88 115 140 167 202 246 302
#
# _framework density 18.001528
#
# number of rings (size 3 to 8) (size 9 to 14) (size 15 to 20)
#    0.000    2.500    0.000    2.250    1.167    4.667 
#    0.000    0.000    0.000    0.000    0.000    0.583 
#    0.000    0.000    0.000    0.000    0.000    0.000 
#
# Total GULP energy -594787.045118 kJ/mol
# GULP energy per Si atom -12391.396773 kJ/mol
# Density = 1.796056 g / cm^3
# Si number density = 18.001528 Si / 1000 Ang^3
#
#
#
# Elastic Constant Matrix: (Units=GPa)
#
#
# Indices 1 2 3 4 5 6 
#
# 1 88.6164 32.3285 49.3364 0.0000 0.0000 0.0000
# 2 32.3285 60.9880 30.5142 0.0000 0.0000 0.0000
# 3 49.3364 30.5142 114.6319 0.0000 0.0000 0.0000
# 4 0.0000 0.0000 0.0000 20.5348 0.0000 0.0000
# 5 0.0000 0.0000 0.0000 0.0000 28.8051 0.0000
# 6 0.0000 0.0000 0.0000 0.0000 0.0000 22.3896
#
#
#
# Elastic Compliance Matrix: (Units=1/GPa)
#
#
# Indices 1 2 3 4 5 6 
#
# 1 0.016553 -0.006010 -0.005524 0.000000 0.000000 0.000000
# 2 -0.006010 0.021098 -0.003029 0.000000 0.000000 0.000000
# 3 -0.005524 -0.003029 0.011908 0.000000 0.000000 0.000000
# 4 0.000000 0.000000 0.000000 0.048698 0.000000 0.000000
# 5 0.000000 0.000000 0.000000 0.000000 0.034716 0.000000
# 6 0.000000 0.000000 0.000000 0.000000 0.000000 0.044664
#
#
# Mechanical properties :
#
#
# Convention : Reuss Voigt Hill
#
# Bulk Modulus (GPa) = 48.94606 54.28828 51.61717
# Shear Modulus (GPa) = 23.41104 24.48305 23.94705
#
# Velocity S-wave (km/s) = 3.61016 3.69189 3.65126
# Velocity P-wave (km/s) = 6.68032 6.95676 6.81994
#
# Compressibility (1/GPa) = 0.02043065
#
# Stress axis : x y z
#
# Youngs Moduli (GPa) = 60.41262 47.39709 83.98013
#
# Poissons Ratio (x) = 0.28487 0.46393
# Poissons Ratio (y) = 0.36310 0.25441
# Poissons Ratio (z) = 0.33373 0.14359
#
# Static dielectric constant tensor:
#      x y z
#    x 3.451330 0.000000 0.000000 
#    y 0.000000 3.095100 0.000000 
#    z 0.000000 0.000000 3.366120 
# 
# 
# High freq. dielectric constant tensor:
#      x y z
#    x 1.698640 0.000000 0.000000 
#    y 0.000000 1.671410 0.000000 
#    z 0.000000 0.000000 1.691710 
# 
# From -- ./inp_files/27638.got.cif
#   From: 2010.03.12/outbox.cif.g09.slc.cpg/sg51_14_cif.got.tgz:27638.got - 2010.04.16 13:43:02.
