data_PCOD8210902
_publ_section_title
;
Structure prediction by ZEFSAII (Michael W. Deem and Ramdas Pophale) SiO2 
 PCOD8210902
Probable space group: P M M A
;
_chemical_formula_sum "Si O2"
_cell_formula_units_Z 56
_cell_length_a 19.540224
_cell_length_b 9.421052
_cell_length_c 17.130444
_cell_angle_alpha 90.000000
_cell_angle_beta 90.000000
_cell_angle_gamma 90.000000
_cell_volume 3153.534295
_symmetry_space_group_name_H-M "P M M A"
_symmetry_group_IT_number 51
_symmetry_cell_setting 'orthorhombic'
loop_
_space_group_symop_operation_xyz
x,y,z
1/2-x,-y,z
1/2+x,-y,-z
-x,y,-z
-x,-y,-z
1/2+x,y,-z
1/2-x,y,z
x,-y,z
loop_
_atom_site_type_symbol
_atom_site_label
_atom_site_fract_x
_atom_site_fract_y
_atom_site_fract_z
Si Si1 0.547113 0.665164 0.884282
Si Si2 0.827602 0.838271 0.168066
Si Si3 0.828873 0.666734 0.447512
Si Si4 0.910385 0.166166 0.318256
Si Si5 0.098744 0.335296 0.950667
Si Si6 0.828217 0.162838 0.602444
Si Si7 0.061861 0.164425 0.269676
O O1 0.547960 0.500000 0.863179
O O2 0.471566 0.713528 0.909724
O O3 0.572555 0.750772 0.809882
O O4 0.597551 0.697370 0.956963
O O5 0.750000 0.817753 0.195727
O O6 0.875665 0.784173 0.237771
O O7 0.839887 0.749815 0.089356
O O8 0.844522 0.000000 0.147776
O O9 0.750000 0.695850 0.424029
O O10 0.844652 0.500000 0.450994
O O11 0.878962 0.740130 0.386493
O O12 0.845320 0.734293 0.531069
O O13 0.990690 0.200662 0.312679
O O14 0.896067 0.000000 0.334874
O O15 0.111193 0.500000 0.935981
O O16 0.750000 0.181920 0.630012
O O17 0.876565 0.208244 0.673569
O O18 0.842542 0.000000 0.577069
O O19 0.064197 0.000000 0.247284
#
# Coordination Sequence:
#
# PCOD8210902 Si02
#       7
#     8   8   8   8   8   8   8
#     4   9  18  33  53  76 103 134 170 213 260 307
#     4  10  20  33  50  75 107 141 176 216 262 307
#     4  10  21  36  54  77 104 137 178 216 254 308
#     4  10  20  34  52  76 107 140 174 213 260 311
#     4   9  18  33  52  74 101 137 176 211 254 309
#     4   9  19  37  58  77 101 135 172 213 264 316
#     4  10  20  34  55  82 106 134 175 217 259 312
#
# _framework density 17.757853000000001
#
# number of rings (size 3 to 8) (size 9 to 14) (size 15 to 20)
#    0.000    2.429    1.429    1.714    0.000    4.571 
#    0.000    5.000    0.000    2.571    0.000    0.000 
#    0.000    0.000    0.000    0.000    0.000    0.000 
#
# Total GULP energy -694491.730479 kJ/mol
# GULP energy per Si atom -12401.638044 kJ/mol
# Density = 1.771743 g / cm^3
# Si number density = 17.757853 Si / 1000 Ang^3
#
#
#
# Elastic Constant Matrix: (Units=GPa)
#
#
# Indices 1 2 3 4 5 6 
#
# 1 88.3682 45.8548 67.9258 0.0000 0.0000 0.0000
# 2 45.8548 74.6316 72.9323 0.0000 0.0000 0.0000
# 3 67.9258 72.9323 135.7731 0.0000 0.0000 0.0000
# 4 0.0000 0.0000 0.0000 29.4022 0.0000 0.0000
# 5 0.0000 0.0000 0.0000 0.0000 27.6217 0.0000
# 6 0.0000 0.0000 0.0000 0.0000 0.0000 22.7047
#
#
#
# Elastic Compliance Matrix: (Units=1/GPa)
#
#
# Indices 1 2 3 4 5 6 
#
# 1 0.019264 -0.005090 -0.006904 0.000000 0.000000 0.000000
# 2 -0.005090 0.029549 -0.013327 0.000000 0.000000 0.000000
# 3 -0.006904 -0.013327 0.017978 0.000000 0.000000 0.000000
# 4 0.000000 0.000000 0.000000 0.034011 0.000000 0.000000
# 5 0.000000 0.000000 0.000000 0.000000 0.036203 0.000000
# 6 0.000000 0.000000 0.000000 0.000000 0.000000 0.044044
#
#
# Mechanical properties :
#
#
# Convention : Reuss Voigt Hill
#
# Bulk Modulus (GPa) = 61.91444 74.68874 68.30159
# Shear Modulus (GPa) = 21.09059 23.41636 22.25348
#
# Velocity S-wave (km/s) = 3.45001 3.63526 3.54384
# Velocity P-wave (km/s) = 7.12823 7.73117 7.43582
#
# Compressibility (1/GPa) = 0.01615132
#
# Stress axis : x y z
#
# Youngs Moduli (GPa) = 51.91061 33.84159 55.62505
#
# Poissons Ratio (x) = 0.17224 0.38401
# Poissons Ratio (y) = 0.26421 0.74129
# Poissons Ratio (z) = 0.35837 0.45099
#
# Static dielectric constant tensor:
#      x y z
#    x 3.247410 0.000000 0.000000 
#    y 0.000000 3.232860 0.000000 
#    z 0.000000 0.000000 3.249220 
# 
# 
# High freq. dielectric constant tensor:
#      x y z
#    x 1.678530 0.000000 0.000000 
#    y 0.000000 1.684500 0.000000 
#    z 0.000000 0.000000 1.686640 
# 
# From -- ./inp_files/25613.got.cif
#   From: 2010.03.12/outbox.cif.g09.slc.cpg/sg51_13_cif.got.tgz:25613.got - 2010.04.16 13:43:02.
