data_PCOD8210969
_publ_section_title
;
Structure prediction by ZEFSAII (Michael W. Deem and Ramdas Pophale) SiO2 
 PCOD8210969
Probable space group: P M M A
;
_chemical_formula_sum "Si O2"
_cell_formula_units_Z 64
_cell_length_a 29.414966
_cell_length_b 8.889470
_cell_length_c 14.710565
_cell_angle_alpha 90.000000
_cell_angle_beta 90.000000
_cell_angle_gamma 90.000000
_cell_volume 3846.569403
_symmetry_space_group_name_H-M "P M M A"
_symmetry_group_IT_number 51
_symmetry_cell_setting 'orthorhombic'
loop_
_space_group_symop_operation_xyz
x,y,z
1/2-x,-y,z
1/2+x,-y,-z
-x,y,-z
-x,-y,-z
1/2+x,y,-z
1/2-x,y,z
x,-y,z
loop_
_atom_site_type_symbol
_atom_site_label
_atom_site_fract_x
_atom_site_fract_y
_atom_site_fract_z
Si Si1 0.032774 0.324993 0.674900
Si Si2 0.559534 0.821994 0.634108
Si Si3 0.609891 0.675485 0.465825
Si Si4 0.199683 0.670649 0.309504
Si Si5 0.432539 0.172950 0.052269
Si Si6 0.888330 0.673539 0.794252
Si Si7 0.301150 0.176267 0.497243
Si Si8 0.530199 0.826428 0.136283
O O1 0.020326 0.500000 0.670498
O O2 0.078751 0.288386 0.620581
O O3 0.041530 0.277679 0.778478
O O4 0.992252 0.234282 0.626472
O O5 0.590261 0.753754 0.555267
O O6 0.578577 0.772122 0.731549
O O7 0.560259 0.000000 0.626354
O O8 0.612660 0.500000 0.486662
O O9 0.660509 0.738151 0.443867
O O10 0.250000 0.694768 0.268474
O O11 0.193678 0.500000 0.346233
O O12 0.164115 0.704957 0.229834
O O13 0.190855 0.783636 0.391991
O O14 0.394879 0.276190 0.101213
O O15 0.480425 0.209098 0.099144
O O16 0.419403 0.000000 0.066181
O O17 0.434359 0.210680 0.944894
O O18 0.901531 0.500000 0.781670
O O19 0.250000 0.225495 0.527325
O O20 0.307835 0.000000 0.510245
O O21 0.533949 0.000000 0.166261
#
# Coordination Sequence:
#
# PCOD8210969 Si02
#       8
#     8   8   8   8   8   8   8   8
#     4  11  23  36  51  72 100 132 171 213 249 293
#     4  12  23  34  49  70 100 137 173 207 243 291
#     4  11  23  37  51  71 100 135 170 207 251 298
#     4   9  18  32  49  69  98 134 165 199 247 298
#     4   9  18  32  50  72  98 129 163 199 244 295
#     4  11  20  30  49  75 101 131 168 205 245 295
#     4  10  20  33  51  75  99 126 165 209 249 294
#     4   9  18  33  51  71  97 129 164 202 246 293
#
# _framework density 16.638200999999999
#
# number of rings (size 3 to 8) (size 9 to 14) (size 15 to 20)
#    0.000    1.750    2.500    3.750    0.000    5.250 
#    0.000    1.250    0.000    0.000    0.000    0.875 
#    0.000    3.000    0.000    0.000    0.000    0.000 
#
# Total GULP energy -793644.034951 kJ/mol
# GULP energy per Si atom -12400.688046 kJ/mol
# Density = 1.660033 g / cm^3
# Si number density = 16.638201 Si / 1000 Ang^3
#
#
#
# Elastic Constant Matrix: (Units=GPa)
#
#
# Indices 1 2 3 4 5 6 
#
# 1 113.7959 52.2001 36.7385 0.0000 0.0000 0.0000
# 2 52.2001 86.4947 27.1192 0.0000 0.0000 0.0000
# 3 36.7385 27.1192 56.0243 0.0000 0.0000 0.0000
# 4 0.0000 0.0000 0.0000 25.9228 0.0000 0.0000
# 5 0.0000 0.0000 0.0000 0.0000 22.6537 0.0000
# 6 0.0000 0.0000 0.0000 0.0000 0.0000 24.3172
#
#
#
# Elastic Compliance Matrix: (Units=1/GPa)
#
#
# Indices 1 2 3 4 5 6 
#
# 1 0.013594 -0.006377 -0.005828 0.000000 0.000000 0.000000
# 2 -0.006377 0.016622 -0.003864 0.000000 0.000000 0.000000
# 3 -0.005828 -0.003864 0.023541 0.000000 0.000000 0.000000
# 4 0.000000 0.000000 0.000000 0.038576 0.000000 0.000000
# 5 0.000000 0.000000 0.000000 0.000000 0.044143 0.000000
# 6 0.000000 0.000000 0.000000 0.000000 0.000000 0.041123
#
#
# Mechanical properties :
#
#
# Convention : Reuss Voigt Hill
#
# Bulk Modulus (GPa) = 46.25422 54.27005 50.26214
# Shear Modulus (GPa) = 23.04745 23.92922 23.48833
#
# Velocity S-wave (km/s) = 3.72588 3.79649 3.76135
# Velocity P-wave (km/s) = 6.80955 7.20460 7.00986
#
# Compressibility (1/GPa) = 0.02161965
#
# Stress axis : x y z
#
# Youngs Moduli (GPa) = 73.55967 60.16300 42.47834
#
# Poissons Ratio (x) = 0.38367 0.24755
# Poissons Ratio (y) = 0.46910 0.16414
# Poissons Ratio (z) = 0.42869 0.23247
#
# Static dielectric constant tensor:
#      x y z
#    x 3.268640 0.000000 0.000000 
#    y 0.000000 3.184480 0.000000 
#    z 0.000000 0.000000 3.086700 
# 
# 
# High freq. dielectric constant tensor:
#      x y z
#    x 1.631800 0.000000 0.000000 
#    y 0.000000 1.651450 0.000000 
#    z 0.000000 0.000000 1.615500 
# 
# From -- ./inp_files/26674.got.cif
#   From: 2010.03.12/outbox.cif.g09.slc.cpg/sg51_14_cif.got.tgz:26674.got - 2010.04.16 13:43:02.
