data_PCOD8210388
_publ_section_title
;
Structure prediction by ZEFSAII (Michael W. Deem and Ramdas Pophale) SiO2 
 PCOD8210388
Probable space group: P M M A
;
_chemical_formula_sum "Si O2"
_cell_formula_units_Z 64
_cell_length_a 9.512301
_cell_length_b 17.579860
_cell_length_c 22.070304
_cell_angle_alpha 90.000000
_cell_angle_beta 90.000000
_cell_angle_gamma 90.000000
_cell_volume 3690.704818
_symmetry_space_group_name_H-M "P M M A"
_symmetry_group_IT_number 51
_symmetry_cell_setting 'orthorhombic'
loop_
_space_group_symop_operation_xyz
x,y,z
1/2-x,-y,z
1/2+x,-y,-z
-x,y,-z
-x,-y,-z
1/2+x,y,-z
1/2-x,y,z
x,-y,z
loop_
_atom_site_type_symbol
_atom_site_label
_atom_site_fract_x
_atom_site_fract_y
_atom_site_fract_z
Si Si1 0.490587 0.823518 0.748449
Si Si2 0.084326 0.803216 0.060654
Si Si3 0.085916 0.413938 0.759964
Si Si4 0.094821 0.298496 0.659115
Si Si5 0.581275 0.222674 0.562031
Si Si6 0.906883 0.087113 0.138022
Si Si7 0.088421 0.082983 0.360151
Si Si8 0.404651 0.697402 0.169228
O O1 0.391767 0.772416 0.705537
O O2 0.401680 0.869731 0.797692
O O3 0.573468 0.883738 0.707236
O O4 0.596935 0.766661 0.782542
O O5 0.250000 0.816775 0.048712
O O6 0.057746 0.730323 0.103267
O O7 0.020090 0.878380 0.091807
O O8 0.000000 0.785387 0.000000
O O9 0.250000 0.410902 0.774046
O O10 0.029572 0.500000 0.757146
O O11 0.051864 0.374496 0.695623
O O12 0.012653 0.369280 0.814906
O O13 0.250000 0.307869 0.629367
O O14 0.974839 0.286760 0.608552
O O15 0.500000 0.235344 0.500000
O O16 0.750000 0.230225 0.554898
O O17 0.531749 0.141029 0.588707
O O18 0.750000 0.093509 0.109980
O O19 0.949896 0.000000 0.149078
O O20 0.250000 0.071034 0.373475
O O21 0.012501 0.000000 0.365570
O O22 0.250000 0.661207 0.169352
#
# Coordination Sequence:
#
# PCOD8210388 Si02
#       8
#     8   8   8   8   8   8   8   8
#     4   9  16  28  47  69  96 126 160 197 240 290
#     4  10  21  36  53  71  93 125 167 209 247 288
#     4   9  18  32  52  80 110 135 155 180 224 281
#     4   9  17  30  50  73  98 126 156 191 230 276
#     4  10  20  33  49  67  90 122 163 205 241 281
#     4  10  20  32  47  69  97 128 163 205 252 299
#     4   9  17  28  43  65  93 124 157 198 248 294
#     4   9  18  31  49  75 101 127 161 198 236 281
#
# _framework density 17.340862000000001
#
# number of rings (size 3 to 8) (size 9 to 14) (size 15 to 20)
#    0.000    2.625    0.000    1.875    0.000    8.000 
#    0.000    0.000    0.000    7.875    0.000    0.000 
#    0.000    0.000    0.000    0.000    0.000    0.000 
#
# Total GULP energy -793246.225740 kJ/mol
# GULP energy per Si atom -12394.472277 kJ/mol
# Density = 1.730139 g / cm^3
# Si number density = 17.340862 Si / 1000 Ang^3
#
#
#
# Elastic Constant Matrix: (Units=GPa)
#
#
# Indices 1 2 3 4 5 6 
#
# 1 91.0479 46.5682 55.0632 0.0000 0.0000 0.0000
# 2 46.5682 116.5166 47.9200 0.0000 0.0000 0.0000
# 3 55.0632 47.9200 107.2657 0.0000 0.0000 0.0000
# 4 0.0000 0.0000 0.0000 11.4513 0.0000 0.0000
# 5 0.0000 0.0000 0.0000 0.0000 28.5041 0.0000
# 6 0.0000 0.0000 0.0000 0.0000 0.0000 22.0422
#
#
#
# Elastic Compliance Matrix: (Units=1/GPa)
#
#
# Indices 1 2 3 4 5 6 
#
# 1 0.017329 -0.004003 -0.007107 0.000000 0.000000 0.000000
# 2 -0.004003 0.011439 -0.003055 0.000000 0.000000 0.000000
# 3 -0.007107 -0.003055 0.014336 0.000000 0.000000 0.000000
# 4 0.000000 0.000000 0.000000 0.087326 0.000000 0.000000
# 5 0.000000 0.000000 0.000000 0.000000 0.035083 0.000000
# 6 0.000000 0.000000 0.000000 0.000000 0.000000 0.045368
#
#
# Mechanical properties :
#
#
# Convention : Reuss Voigt Hill
#
# Bulk Modulus (GPa) = 67.69231 68.21478 67.95355
# Shear Modulus (GPa) = 20.48043 23.41810 21.94926
#
# Velocity S-wave (km/s) = 3.44037 3.67884 3.56160
# Velocity P-wave (km/s) = 7.40963 7.58078 7.49569
#
# Compressibility (1/GPa) = 0.01477273
#
# Stress axis : x y z
#
# Youngs Moduli (GPa) = 57.70736 87.42113 69.75416
#
# Poissons Ratio (x) = 0.34993 0.49576
# Poissons Ratio (y) = 0.23099 0.21313
# Poissons Ratio (z) = 0.41014 0.26711
#
# Static dielectric constant tensor:
#      x y z
#    x 3.166020 0.000000 0.000000 
#    y 0.000000 3.349260 0.000000 
#    z 0.000000 0.000000 3.154830 
# 
# 
# High freq. dielectric constant tensor:
#      x y z
#    x 1.667730 0.000000 0.000000 
#    y 0.000000 1.654320 0.000000 
#    z 0.000000 0.000000 1.659340 
# 
# From -- ./inp_files/32355.got.cif
#   From: 2010.03.12/outbox.cif.g09.slc.cpg/sg51_17_cif.got.tgz:32355.got - 2010.04.16 13:43:02.
