data_PCOD8210042
_publ_section_title
;
Structure prediction by ZEFSAII (Michael W. Deem and Ramdas Pophale) SiO2 
 PCOD8210042
Probable space group: P M M A
;
_chemical_formula_sum "Si O2"
_cell_formula_units_Z 40
_cell_length_a 18.754642
_cell_length_b 8.968047
_cell_length_c 12.372296
_cell_angle_alpha 90.000000
_cell_angle_beta 90.000000
_cell_angle_gamma 90.000000
_cell_volume 2080.927530
_symmetry_space_group_name_H-M "P M M A"
_symmetry_group_IT_number 51
_symmetry_cell_setting 'orthorhombic'
loop_
_space_group_symop_operation_xyz
x,y,z
1/2-x,-y,z
1/2+x,-y,-z
-x,y,-z
-x,-y,-z
1/2+x,y,-z
1/2-x,y,z
x,-y,z
loop_
_atom_site_type_symbol
_atom_site_label
_atom_site_fract_x
_atom_site_fract_y
_atom_site_fract_z
Si Si1 0.912461 0.323435 0.666345
Si Si2 0.070913 0.326130 0.935169
Si Si3 0.667643 0.171427 0.475225
Si Si4 0.170828 0.676553 0.125071
Si Si5 0.557629 0.173035 0.291186
O O1 0.920580 0.500000 0.668082
O O2 0.862370 0.277059 0.568124
O O3 0.877358 0.261887 0.777089
O O4 0.990580 0.254133 0.654019
O O5 0.071742 0.500000 0.904506
O O6 0.075723 0.232522 0.826884
O O7 0.137294 0.279039 0.010077
O O8 0.000000 0.285470 0.000000
O O9 0.750000 0.210876 0.455389
O O10 0.626551 0.204443 0.364242
O O11 0.657447 0.000000 0.510891
O O12 0.250000 0.746225 0.132252
O O13 0.174418 0.500000 0.135843
O O14 0.539050 0.000000 0.283960
#
# Coordination Sequence:
#
# PCOD8210042 Si02
#       5
#     8   8   8   8   8
#     4  11  21  37  61  88 116 148 193 246 292 342
#     4  10  19  36  58  82 113 148 186 235 291 341
#     4  10  23  42  59  80 117 158 192 235 291 346
#     4   9  18  33  55  83 114 147 183 231 293 347
#     4  11  23  38  59  85 115 154 197 236 286 350
#
# _framework density 19.222197000000001
#
# number of rings (size 3 to 8) (size 9 to 14) (size 15 to 20)
#    0.000    1.800    2.000    2.400    0.000    6.400 
#    0.000    0.000    0.000    2.400    0.000    0.000 
#    0.000    0.000    0.000    0.000    0.000    0.000 
#
# Total GULP energy -496143.996596 kJ/mol
# GULP energy per Si atom -12403.599915 kJ/mol
# Density = 1.917845 g / cm^3
# Si number density = 19.222197 Si / 1000 Ang^3
#
#
#
# Elastic Constant Matrix: (Units=GPa)
#
#
# Indices 1 2 3 4 5 6 
#
# 1 145.2818 52.6486 74.9747 0.0000 0.0000 0.0000
# 2 52.6486 69.6014 55.7608 0.0000 0.0000 0.0000
# 3 74.9747 55.7608 123.4170 0.0000 0.0000 0.0000
# 4 0.0000 0.0000 0.0000 30.9881 0.0000 0.0000
# 5 0.0000 0.0000 0.0000 0.0000 29.6019 0.0000
# 6 0.0000 0.0000 0.0000 0.0000 0.0000 19.6722
#
#
#
# Elastic Compliance Matrix: (Units=1/GPa)
#
#
# Indices 1 2 3 4 5 6 
#
# 1 0.010893 -0.004605 -0.004537 0.000000 0.000000 0.000000
# 2 -0.004605 0.024465 -0.008256 0.000000 0.000000 0.000000
# 3 -0.004537 -0.008256 0.014589 0.000000 0.000000 0.000000
# 4 0.000000 0.000000 0.000000 0.032270 0.000000 0.000000
# 5 0.000000 0.000000 0.000000 0.000000 0.033782 0.000000
# 6 0.000000 0.000000 0.000000 0.000000 0.000000 0.050833
#
#
# Mechanical properties :
#
#
# Convention : Reuss Voigt Hill
#
# Bulk Modulus (GPa) = 66.00140 78.34094 72.17117
# Shear Modulus (GPa) = 24.19201 26.38017 25.28609
#
# Velocity S-wave (km/s) = 3.55145 3.70858 3.63087
# Velocity P-wave (km/s) = 7.15735 7.69299 7.43000
#
# Compressibility (1/GPa) = 0.01515119
#
# Stress axis : x y z
#
# Youngs Moduli (GPa) = 91.79808 40.87413 68.54562
#
# Poissons Ratio (x) = 0.18824 0.31099
# Poissons Ratio (y) = 0.42277 0.56590
# Poissons Ratio (z) = 0.41648 0.33745
#
# Static dielectric constant tensor:
#      x y z
#    x 3.780870 0.000000 0.000000 
#    y 0.000000 3.330870 0.000000 
#    z 0.000000 0.000000 3.564390 
# 
# 
# High freq. dielectric constant tensor:
#      x y z
#    x 1.759990 0.000000 0.000000 
#    y 0.000000 1.728170 0.000000 
#    z 0.000000 0.000000 1.757310 
# 
# From -- ./inp_files/17077.got.cif
#   From: 2010.03.12/outbox.cif.g09.slc.cpg/sg51_9_cif.got.tgz:17077.got - 2010.04.16 13:43:02.
