data_PCOD8210718
_publ_section_title
;
Structure prediction by ZEFSAII (Michael W. Deem and Ramdas Pophale) SiO2 
 PCOD8210718
Probable space group: P M M A
;
_chemical_formula_sum "Si O2"
_cell_formula_units_Z 56
_cell_length_a 18.483045
_cell_length_b 9.224770
_cell_length_c 18.872086
_cell_angle_alpha 90.000000
_cell_angle_beta 90.000000
_cell_angle_gamma 90.000000
_cell_volume 3217.725369
_symmetry_space_group_name_H-M "P M M A"
_symmetry_group_IT_number 51
_symmetry_cell_setting 'orthorhombic'
loop_
_space_group_symop_operation_xyz
x,y,z
1/2-x,-y,z
1/2+x,-y,-z
-x,y,-z
-x,-y,-z
1/2+x,y,-z
1/2-x,y,z
x,-y,z
loop_
_atom_site_type_symbol
_atom_site_label
_atom_site_fract_x
_atom_site_fract_y
_atom_site_fract_z
Si Si1 0.169100 0.673518 0.083428
Si Si2 0.664295 0.658563 0.067830
Si Si3 0.540250 0.831367 0.569871
Si Si4 0.832448 0.669300 0.637086
Si Si5 0.585670 0.330118 0.779488
Si Si6 0.333062 0.328043 0.778238
Si Si7 0.041457 0.830939 0.713079
O O1 0.250000 0.730939 0.098764
O O2 0.169835 0.500000 0.080385
O O3 0.118241 0.727623 0.146680
O O4 0.140361 0.735309 0.006556
O O5 0.750000 0.640088 0.064122
O O6 0.627894 0.500000 0.070020
O O7 0.645104 0.734549 0.142918
O O8 0.500000 0.772428 0.500000
O O9 0.616400 0.750098 0.580689
O O10 0.486136 0.799538 0.634244
O O11 0.558779 0.000000 0.562637
O O12 0.750000 0.723880 0.628053
O O13 0.838376 0.500000 0.621118
O O14 0.857381 0.704255 0.717093
O O15 0.567286 0.500000 0.781843
O O16 0.512355 0.241575 0.769343
O O17 0.250000 0.292232 0.760959
O O18 0.346619 0.500000 0.774393
O O19 0.380541 0.244195 0.720413
O O20 0.047552 0.000000 0.729346
#
# Coordination Sequence:
#
# PCOD8210718 Si02
#       7
#     8   8   8   8   8   8   8
#     4   8  12  20  39  67  93 117 151 193 229 259
#     4   7  11  21  39  64  90 114 146 190 231 262
#     4   9  19  36  54  70  91 122 158 191 224 267
#     4   9  17  29  47  74 103 126 151 185 226 273
#     4   9  16  27  45  68  95 125 153 184 223 266
#     4   9  17  31  51  71  90 115 150 192 233 271
#     4  10  20  33  49  68  90 117 149 185 226 273
#
# _framework density 17.403597999999999
#
# number of rings (size 3 to 8) (size 9 to 14) (size 15 to 20)
#    0.000    3.286    0.000    2.571    0.000    3.143 
#    0.000    1.429    0.000   10.714    0.000    2.000 
#    0.000    0.000    0.000    0.000    0.000    0.000 
#
# Total GULP energy -693888.574662 kJ/mol
# GULP energy per Si atom -12390.867405 kJ/mol
# Density = 1.736399 g / cm^3
# Si number density = 17.403598 Si / 1000 Ang^3
#
#
#
# Elastic Constant Matrix: (Units=GPa)
#
#
# Indices 1 2 3 4 5 6 
#
# 1 114.7003 46.4314 57.6161 0.0000 0.0000 0.0000
# 2 46.4314 42.9723 32.0905 0.0000 0.0000 0.0000
# 3 57.6161 32.0905 84.0787 0.0000 0.0000 0.0000
# 4 0.0000 0.0000 0.0000 15.9493 0.0000 0.0000
# 5 0.0000 0.0000 0.0000 0.0000 27.4996 0.0000
# 6 0.0000 0.0000 0.0000 0.0000 0.0000 14.5724
#
#
#
# Elastic Compliance Matrix: (Units=1/GPa)
#
#
# Indices 1 2 3 4 5 6 
#
# 1 0.017929 -0.014262 -0.006843 0.000000 0.000000 0.000000
# 2 -0.014262 0.043893 -0.006979 0.000000 0.000000 0.000000
# 3 -0.006843 -0.006979 0.019246 0.000000 0.000000 0.000000
# 4 0.000000 0.000000 0.000000 0.062699 0.000000 0.000000
# 5 0.000000 0.000000 0.000000 0.000000 0.036364 0.000000
# 6 0.000000 0.000000 0.000000 0.000000 0.000000 0.068623
#
#
# Mechanical properties :
#
#
# Convention : Reuss Voigt Hill
#
# Bulk Modulus (GPa) = 40.16052 57.11415 48.63734
# Shear Modulus (GPa) = 15.96307 18.64515 17.30411
#
# Velocity S-wave (km/s) = 3.03186 3.27668 3.15665
# Velocity P-wave (km/s) = 5.94831 6.87053 6.42598
#
# Compressibility (1/GPa) = 0.02490007
#
# Stress axis : x y z
#
# Youngs Moduli (GPa) = 55.77550 22.78254 51.95785
#
# Poissons Ratio (x) = 0.32493 0.35552
# Poissons Ratio (y) = 0.79549 0.36263
# Poissons Ratio (z) = 0.38165 0.15901
#
# Static dielectric constant tensor:
#      x y z
#    x 3.134810 0.000000 0.000000 
#    y 0.000000 2.881070 0.000000 
#    z 0.000000 0.000000 3.461640 
# 
# 
# High freq. dielectric constant tensor:
#      x y z
#    x 1.659980 0.000000 0.000000 
#    y 0.000000 1.631540 0.000000 
#    z 0.000000 0.000000 1.674660 
# 
# From -- ./inp_files/33722.got.cif
#   From: 2010.03.12/outbox.cif.g09.slc.cpg/sg51_17_cif.got.tgz:33722.got - 2010.04.16 13:43:02.
