data_PCOD8210252
_publ_section_title
;
Structure prediction by ZEFSAII (Michael W. Deem and Ramdas Pophale) SiO2 
 PCOD8210252
Probable space group: P M M A
;
_chemical_formula_sum "Si O2"
_cell_formula_units_Z 64
_cell_length_a 13.854935
_cell_length_b 14.260003
_cell_length_c 20.899575
_cell_angle_alpha 90.000000
_cell_angle_beta 90.000000
_cell_angle_gamma 90.000000
_cell_volume 4129.158599
_symmetry_space_group_name_H-M "P M M A"
_symmetry_group_IT_number 51
_symmetry_cell_setting 'orthorhombic'
loop_
_space_group_symop_operation_xyz
x,y,z
1/2-x,-y,z
1/2+x,-y,-z
-x,y,-z
-x,-y,-z
1/2+x,y,-z
1/2-x,y,z
x,-y,z
loop_
_atom_site_type_symbol
_atom_site_label
_atom_site_fract_x
_atom_site_fract_y
_atom_site_fract_z
Si Si1 0.144287 0.717256 0.404464
Si Si2 0.856374 0.611576 0.967805
Si Si3 0.607321 0.395902 0.475758
Si Si4 0.635833 0.105843 0.382831
Si Si5 0.453755 0.611436 0.903512
Si Si6 0.864126 0.898840 0.526450
Si Si7 0.445037 0.295440 0.650063
Si Si8 0.639698 0.611387 0.226125
O O1 0.250000 0.723557 0.369927
O O2 0.164521 0.655139 0.467562
O O3 0.101889 0.818296 0.425669
O O4 0.059951 0.681144 0.357646
O O5 0.750000 0.651835 0.950617
O O6 0.853790 0.500000 0.969037
O O7 0.935383 0.645130 0.915341
O O8 0.887264 0.647956 0.038145
O O9 0.500000 0.404317 0.500000
O O10 0.650475 0.500000 0.463730
O O11 0.614622 0.336505 0.410384
O O12 0.750000 0.125304 0.379727
O O13 0.593781 0.115405 0.455136
O O14 0.580103 0.185040 0.341672
O O15 0.614275 0.000000 0.357230
O O16 0.449510 0.500000 0.901738
O O17 0.413336 0.652081 0.837015
O O18 0.750000 0.895645 0.519375
O O19 0.897644 0.000000 0.553839
O O20 0.415097 0.348837 0.713201
O O21 0.750000 0.646014 0.225477
O O22 0.634057 0.500000 0.228414
#
# Coordination Sequence:
#
# PCOD8210252 Si02
#       8
#     8   8   8   8   8   8   8   8
#     4  10  20  32  44  60  81 103 131 171 217 258
#     4   8  12  20  38  62  86 111 138 169 204 239
#     4   9  18  31  44  57  73  96 132 177 216 248
#     4   9  17  29  46  67  86 101 124 165 216 266
#     4   8  14  24  38  59  85 111 141 173 202 235
#     4   8  14  26  44  64  83  99 119 156 210 268
#     4  11  20  31  46  62  80 107 140 171 206 254
#     4  10  20  32  45  60  81 111 145 179 209 240
#
# _framework density 15.499525999999999
#
# number of rings (size 3 to 8) (size 9 to 14) (size 15 to 20)
#    0.000    2.875    1.250    2.625    0.000    3.250 
#    0.000    1.875    0.000    0.750    0.000    0.000 
#    0.000    0.000    0.000    2.250    0.000    4.250 
#
# Total GULP energy -793025.485833 kJ/mol
# GULP energy per Si atom -12391.023216 kJ/mol
# Density = 1.546425 g / cm^3
# Si number density = 15.499526 Si / 1000 Ang^3
#
#
#
# Elastic Constant Matrix: (Units=GPa)
#
#
# Indices 1 2 3 4 5 6 
#
# 1 107.3329 16.4820 46.9111 0.0000 0.0000 0.0000
# 2 16.4820 53.5620 15.0590 0.0000 0.0000 0.0000
# 3 46.9111 15.0590 81.0005 0.0000 0.0000 0.0000
# 4 0.0000 0.0000 0.0000 3.5891 0.0000 0.0000
# 5 0.0000 0.0000 0.0000 0.0000 19.2611 0.0000
# 6 0.0000 0.0000 0.0000 0.0000 0.0000 5.5620
#
#
#
# Elastic Compliance Matrix: (Units=1/GPa)
#
#
# Indices 1 2 3 4 5 6 
#
# 1 0.012662 -0.001936 -0.006973 0.000000 0.000000 0.000000
# 2 -0.001936 0.019996 -0.002596 0.000000 0.000000 0.000000
# 3 -0.006973 -0.002596 0.016867 0.000000 0.000000 0.000000
# 4 0.000000 0.000000 0.000000 0.278619 0.000000 0.000000
# 5 0.000000 0.000000 0.000000 0.000000 0.051918 0.000000
# 6 0.000000 0.000000 0.000000 0.000000 0.000000 0.179793
#
#
# Mechanical properties :
#
#
# Convention : Reuss Voigt Hill
#
# Bulk Modulus (GPa) = 37.71642 44.31107 41.01374
# Shear Modulus (GPa) = 8.45020 16.57867 12.51443
#
# Velocity S-wave (km/s) = 2.33747 3.27406 2.84457
# Velocity P-wave (km/s) = 5.62776 6.55312 6.10799
#
# Compressibility (1/GPa) = 0.02651365
#
# Stress axis : x y z
#
# Youngs Moduli (GPa) = 78.97813 50.01102 59.28829
#
# Poissons Ratio (x) = 0.09681 0.41342
# Poissons Ratio (y) = 0.15288 0.15393
# Poissons Ratio (z) = 0.55072 0.12985
#
# Static dielectric constant tensor:
#      x y z
#    x 3.132690 0.000000 0.000000 
#    y 0.000000 3.091020 0.000000 
#    z 0.000000 0.000000 2.733320 
# 
# 
# High freq. dielectric constant tensor:
#      x y z
#    x 1.613160 0.000000 0.000000 
#    y 0.000000 1.563060 0.000000 
#    z 0.000000 0.000000 1.545620 
# 
# From -- ./inp_files/29970.got.cif
#   From: 2010.03.12/outbox.cif.g09.slc.cpg/sg51_15_cif.got.tgz:29970.got - 2010.04.16 13:43:02.
