data_PCOD8210750
_publ_section_title
;
Structure prediction by ZEFSAII (Michael W. Deem and Ramdas Pophale) SiO2 
 PCOD8210750
Probable space group: P M M A
;
_chemical_formula_sum "Si O2"
_cell_formula_units_Z 40
_cell_length_a 18.114704
_cell_length_b 9.319172
_cell_length_c 13.446857
_cell_angle_alpha 90.000000
_cell_angle_beta 90.000000
_cell_angle_gamma 90.000000
_cell_volume 2270.018286
_symmetry_space_group_name_H-M "P M M A"
_symmetry_group_IT_number 51
_symmetry_cell_setting 'orthorhombic'
loop_
_space_group_symop_operation_xyz
x,y,z
1/2-x,-y,z
1/2+x,-y,-z
-x,y,-z
-x,-y,-z
1/2+x,y,-z
1/2-x,y,z
x,-y,z
loop_
_atom_site_type_symbol
_atom_site_label
_atom_site_fract_x
_atom_site_fract_y
_atom_site_fract_z
Si Si1 0.959967 0.668443 0.694599
Si Si2 0.166704 0.833583 0.813813
Si Si3 0.037552 0.667094 0.899274
Si Si4 0.590905 0.834485 0.391106
Si Si5 0.335271 0.832477 0.401662
O O1 0.955982 0.500000 0.673505
O O2 0.983988 0.702925 0.807222
O O3 0.880017 0.739805 0.679106
O O4 0.017447 0.738759 0.617044
O O5 0.250000 0.780616 0.830179
O O6 0.145210 0.801876 0.700146
O O7 0.115169 0.747244 0.889119
O O8 0.158039 0.000000 0.838878
O O9 0.055497 0.500000 0.905241
O O10 0.000000 0.722928 0.000000
O O11 0.635733 0.792284 0.489004
O O12 0.565510 0.000000 0.392766
O O13 0.250000 0.788404 0.393915
O O14 0.346450 0.000000 0.379021
#
# Coordination Sequence:
#
# PCOD8210750 Si02
#       5
#     8   8   8   8   8
#     4  10  20  33  50  72  96 123 159 202 243 282
#     4   9  17  30  50  77 103 123 151 197 246 285
#     4   9  19  36  54  70  92 126 165 200 238 289
#     4   9  17  31  51  72  97 130 162 191 229 281
#     4  10  20  33  49  70  98 133 167 193 224 276
#
# _framework density 17.621003000000002
#
# number of rings (size 3 to 8) (size 9 to 14) (size 15 to 20)
#    0.000    2.600    0.000    1.800    0.000    7.600 
#    0.000    1.000    0.000    9.600    0.000    0.000 
#    0.000    0.000    0.000    0.000    0.000    0.000 
#
# Total GULP energy -496122.959132 kJ/mol
# GULP energy per Si atom -12403.073978 kJ/mol
# Density = 1.758090 g / cm^3
# Si number density = 17.621003 Si / 1000 Ang^3
#
#
#
# Elastic Constant Matrix: (Units=GPa)
#
#
# Indices 1 2 3 4 5 6 
#
# 1 165.1628 69.1117 66.9584 0.0000 0.0000 0.0000
# 2 69.1117 66.0470 42.6691 0.0000 0.0000 0.0000
# 3 66.9584 42.6691 80.5323 0.0000 0.0000 0.0000
# 4 0.0000 0.0000 0.0000 25.6271 0.0000 0.0000
# 5 0.0000 0.0000 0.0000 0.0000 23.6294 0.0000
# 6 0.0000 0.0000 0.0000 0.0000 0.0000 19.6791
#
#
#
# Elastic Compliance Matrix: (Units=1/GPa)
#
#
# Indices 1 2 3 4 5 6 
#
# 1 0.011984 -0.009279 -0.005047 0.000000 0.000000 0.000000
# 2 -0.009279 0.030205 -0.008289 0.000000 0.000000 0.000000
# 3 -0.005047 -0.008289 0.021006 0.000000 0.000000 0.000000
# 4 0.000000 0.000000 0.000000 0.039021 0.000000 0.000000
# 5 0.000000 0.000000 0.000000 0.000000 0.042320 0.000000
# 6 0.000000 0.000000 0.000000 0.000000 0.000000 0.050815
#
#
# Mechanical properties :
#
#
# Convention : Reuss Voigt Hill
#
# Bulk Modulus (GPa) = 55.66656 74.35783 65.01219
# Shear Modulus (GPa) = 20.27824 22.65399 21.46612
#
# Velocity S-wave (km/s) = 3.39602 3.58945 3.49408
# Velocity P-wave (km/s) = 6.85835 7.71161 7.29746
#
# Compressibility (1/GPa) = 0.01796411
#
# Stress axis : x y z
#
# Youngs Moduli (GPa) = 83.44742 33.10695 47.60568
#
# Poissons Ratio (x) = 0.30719 0.24029
# Poissons Ratio (y) = 0.77429 0.39460
# Poissons Ratio (z) = 0.42120 0.27442
#
# Static dielectric constant tensor:
#      x y z
#    x 3.379690 0.000000 0.000000 
#    y 0.000000 3.214520 0.000000 
#    z 0.000000 0.000000 3.214980 
# 
# 
# High freq. dielectric constant tensor:
#      x y z
#    x 1.684370 0.000000 0.000000 
#    y 0.000000 1.677120 0.000000 
#    z 0.000000 0.000000 1.668600 
# 
# From -- ./inp_files/17090.got.cif
#   From: 2010.03.12/outbox.cif.g09.slc.cpg/sg51_9_cif.got.tgz:17090.got - 2010.04.16 13:43:02.
