data_PCOD8210522
_publ_section_title
;
Structure prediction by ZEFSAII (Michael W. Deem and Ramdas Pophale) SiO2 
 PCOD8210522
Probable space group: P M M A
;
_chemical_formula_sum "Si O2"
_cell_formula_units_Z 48
_cell_length_a 9.304614
_cell_length_b 7.709537
_cell_length_c 34.335092
_cell_angle_alpha 90.000000
_cell_angle_beta 90.000000
_cell_angle_gamma 90.000000
_cell_volume 2463.002619
_symmetry_space_group_name_H-M "P M M A"
_symmetry_group_IT_number 51
_symmetry_cell_setting 'orthorhombic'
loop_
_space_group_symop_operation_xyz
x,y,z
1/2-x,-y,z
1/2+x,-y,-z
-x,y,-z
-x,-y,-z
1/2+x,y,-z
1/2-x,y,z
x,-y,z
loop_
_atom_site_type_symbol
_atom_site_label
_atom_site_fract_x
_atom_site_fract_y
_atom_site_fract_z
Si Si1 0.917076 0.198926 0.098437
Si Si2 0.421338 0.000000 0.459253
Si Si3 0.908199 0.801048 0.245642
Si Si4 0.089234 0.205785 0.174641
Si Si5 0.411204 0.703908 0.317888
Si Si6 0.917305 0.500000 0.040044
Si Si7 0.579309 0.691779 0.595412
O O1 0.750000 0.218572 0.109266
O O2 0.960305 0.325804 0.063314
O O3 0.006747 0.261049 0.135687
O O4 0.953312 0.000000 0.086583
O O5 0.500000 0.000000 0.500000
O O6 0.475534 0.169489 0.435963
O O7 0.250000 0.000000 0.464950
O O8 0.750000 0.712293 0.246934
O O9 0.006018 0.713690 0.211995
O O10 0.982122 0.790373 0.287533
O O11 0.888264 0.000000 0.234440
O O12 0.250000 0.284148 0.173806
O O13 0.096706 0.000000 0.177960
O O14 0.250000 0.779041 0.312022
O O15 0.409182 0.500000 0.311316
O O16 0.469883 0.747736 0.361213
O O17 0.750000 0.500000 0.030515
O O18 0.000000 0.500000 0.000000
O O19 0.750000 0.684452 0.595770
O O20 0.518468 0.500000 0.584661
#
# Coordination Sequence:
#
# PCOD8210522 Si02
#       7
#     8   4   8   8   8   4   8
#     4   9  18  35  57  78 105 142 178 217 269 325
#     4  10  20  34  54  80 106 136 172 214 266 320
#     4  10  20  32  48  74 107 142 176 214 262 317
#     4   9  17  31  52  77 103 135 179 224 263 309
#     4   9  18  33  52  74  99 130 175 224 264 308
#     4  10  22  38  56  82 112 140 176 220 268 324
#     4   8  16  32  53  76 102 134 173 216 262 315
#
# _framework density 19.488408
#
# number of rings (size 3 to 8) (size 9 to 14) (size 15 to 20)
#    0.000    2.833    0.000    2.000    1.167    4.667 
#    1.500    0.833    0.000    1.000    0.000    0.000 
#    0.000    0.000    0.000    0.000    0.000    0.000 
#
# Total GULP energy -595050.858538 kJ/mol
# GULP energy per Si atom -12396.892886 kJ/mol
# Density = 1.944405 g / cm^3
# Si number density = 19.488408 Si / 1000 Ang^3
#
#
#
# Elastic Constant Matrix: (Units=GPa)
#
#
# Indices 1 2 3 4 5 6 
#
# 1 102.0001 34.0997 77.4676 0.0000 0.0000 0.0000
# 2 34.0997 78.7224 65.2791 0.0000 0.0000 0.0000
# 3 77.4676 65.2791 178.5268 0.0000 0.0000 0.0000
# 4 0.0000 0.0000 0.0000 3.3859 0.0000 0.0000
# 5 0.0000 0.0000 0.0000 0.0000 38.0132 0.0000
# 6 0.0000 0.0000 0.0000 0.0000 0.0000 12.2469
#
#
#
# Elastic Compliance Matrix: (Units=1/GPa)
#
#
# Indices 1 2 3 4 5 6 
#
# 1 0.014754 -0.001553 -0.005834 0.000000 0.000000 0.000000
# 2 -0.001553 0.018394 -0.006052 0.000000 0.000000 0.000000
# 3 -0.005834 -0.006052 0.010346 0.000000 0.000000 0.000000
# 4 0.000000 0.000000 0.000000 0.295346 0.000000 0.000000
# 5 0.000000 0.000000 0.000000 0.000000 0.026307 0.000000
# 6 0.000000 0.000000 0.000000 0.000000 0.000000 0.081653
#
#
# Mechanical properties :
#
#
# Convention : Reuss Voigt Hill
#
# Bulk Modulus (GPa) = 60.18428 79.21577 69.70003
# Shear Modulus (GPa) = 10.43368 22.88937 16.66152
#
# Velocity S-wave (km/s) = 2.31634 3.43083 2.92712
# Velocity P-wave (km/s) = 6.17276 7.51199 6.87507
#
# Compressibility (1/GPa) = 0.01661564
#
# Stress axis : x y z
#
# Youngs Moduli (GPa) = 67.77712 54.36537 96.65513
#
# Poissons Ratio (x) = 0.08443 0.56393
# Poissons Ratio (y) = 0.10525 0.58496
# Poissons Ratio (z) = 0.39544 0.32902
#
# Static dielectric constant tensor:
#      x y z
#    x 3.560330 0.000000 0.000000 
#    y 0.000000 3.106200 0.000000 
#    z 0.000000 0.000000 3.534500 
# 
# 
# High freq. dielectric constant tensor:
#      x y z
#    x 1.739830 0.000000 0.000000 
#    y 0.000000 1.750850 0.000000 
#    z 0.000000 0.000000 1.756800 
# 
# From -- ./inp_files/37170.got.cif
#   From: 2010.03.12/outbox.cif.g09.slc.cpg/sg51_19_cif.got.tgz:37170.got - 2010.04.16 13:43:02.
