data_PCOD8210045
_publ_section_title
;
Structure prediction by ZEFSAII (Michael W. Deem and Ramdas Pophale) SiO2 
 PCOD8210045
Probable space group: P M M A
;
_chemical_formula_sum "Si O2"
_cell_formula_units_Z 64
_cell_length_a 15.262746
_cell_length_b 9.165809
_cell_length_c 23.811315
_cell_angle_alpha 90.000000
_cell_angle_beta 90.000000
_cell_angle_gamma 90.000000
_cell_volume 3331.093785
_symmetry_space_group_name_H-M "P M M A"
_symmetry_group_IT_number 51
_symmetry_cell_setting 'orthorhombic'
loop_
_space_group_symop_operation_xyz
x,y,z
1/2-x,-y,z
1/2+x,-y,-z
-x,y,-z
-x,-y,-z
1/2+x,y,-z
1/2-x,y,z
x,-y,z
loop_
_atom_site_type_symbol
_atom_site_label
_atom_site_fract_x
_atom_site_fract_y
_atom_site_fract_z
Si Si1 0.343288 0.829477 0.237639
Si Si2 0.648772 0.327910 0.509708
Si Si3 0.013427 0.173790 0.701938
Si Si4 0.408119 0.168224 0.117983
Si Si5 0.918134 0.328258 0.106524
Si Si6 0.987950 0.327114 0.415066
Si Si7 0.847711 0.165152 0.206882
Si Si8 0.849922 0.835829 0.004320
O O1 0.250000 0.764338 0.258731
O O2 0.423060 0.760958 0.272592
O O3 0.346392 0.801399 0.170890
O O4 0.346332 0.000000 0.249402
O O5 0.750000 0.262465 0.512540
O O6 0.657989 0.500000 0.511024
O O7 0.583968 0.278125 0.560734
O O8 0.594748 0.280642 0.454094
O O9 0.089023 0.225282 0.744611
O O10 0.030249 0.246522 0.642639
O O11 0.013182 0.000000 0.694993
O O12 0.487744 0.277405 0.127234
O O13 0.440406 0.000000 0.117584
O O14 0.357826 0.208233 0.060810
O O15 0.908796 0.500000 0.106325
O O16 0.849330 0.261466 0.150436
O O17 0.905473 0.271648 0.043041
O O18 0.987846 0.500000 0.406641
O O19 0.750000 0.171266 0.231473
O O20 0.874881 0.000000 0.190558
O O21 0.750000 0.823063 0.022885
O O22 0.885069 0.000000 0.013703
#
# Coordination Sequence:
#
# PCOD8210045 Si02
#       8
#     8   8   8   8   8   8   8   8
#     4   9  17  32  56  81 104 135 178 224 270 322
#     4   8  15  31  54  78 107 145 185 222 260 303
#     4  10  20  35  54  80 113 144 175 220 277 323
#     4  10  19  36  59  79 101 135 181 224 268 324
#     4  12  24  36  53  78 109 141 175 219 279 337
#     4   9  18  32  53  80 107 141 185 224 258 308
#     4  10  21  39  60  78 101 141 189 229 268 322
#     4  10  21  36  56  81 104 132 177 228 273 327
#
# _framework density 19.212909
#
# number of rings (size 3 to 8) (size 9 to 14) (size 15 to 20)
#    0.000    2.250    1.250    3.000    0.000    7.000 
#    0.000    1.250    0.000    2.625    0.000    0.000 
#    0.000    0.000    0.000    0.000    0.000    0.000 
#
# Total GULP energy -793206.622063 kJ/mol
# GULP energy per Si atom -12393.853470 kJ/mol
# Density = 1.916918 g / cm^3
# Si number density = 19.212909 Si / 1000 Ang^3
#
#
#
# Elastic Constant Matrix: (Units=GPa)
#
#
# Indices 1 2 3 4 5 6 
#
# 1 112.0328 17.9465 22.9799 0.0000 0.0000 0.0000
# 2 17.9465 54.5367 29.9271 0.0000 0.0000 0.0000
# 3 22.9799 29.9271 98.9300 0.0000 0.0000 0.0000
# 4 0.0000 0.0000 0.0000 8.9804 0.0000 0.0000
# 5 0.0000 0.0000 0.0000 0.0000 19.0684 0.0000
# 6 0.0000 0.0000 0.0000 0.0000 0.0000 3.7394
#
#
#
# Elastic Compliance Matrix: (Units=1/GPa)
#
#
# Indices 1 2 3 4 5 6 
#
# 1 0.009612 -0.002324 -0.001530 0.000000 0.000000 0.000000
# 2 -0.002324 0.022548 -0.006281 0.000000 0.000000 0.000000
# 3 -0.001530 -0.006281 0.012364 0.000000 0.000000 0.000000
# 4 0.000000 0.000000 0.000000 0.111353 0.000000 0.000000
# 5 0.000000 0.000000 0.000000 0.000000 0.052443 0.000000
# 6 0.000000 0.000000 0.000000 0.000000 0.000000 0.267421
#
#
# Mechanical properties :
#
#
# Convention : Reuss Voigt Hill
#
# Bulk Modulus (GPa) = 41.22989 45.24519 43.23754
# Shear Modulus (GPa) = 9.91879 19.33404 14.62641
#
# Velocity S-wave (km/s) = 2.27459 3.17567 2.76212
# Velocity P-wave (km/s) = 5.32958 6.08663 5.72064
#
# Compressibility (1/GPa) = 0.02425425
#
# Stress axis : x y z
#
# Youngs Moduli (GPa) = 104.03709 44.35054 80.88258
#
# Poissons Ratio (x) = 0.10305 0.12374
# Poissons Ratio (y) = 0.24173 0.50803
# Poissons Ratio (z) = 0.15916 0.27857
#
# Static dielectric constant tensor:
#      x y z
#    x 3.890820 0.000000 0.000000 
#    y 0.000000 3.086700 0.000000 
#    z 0.000000 0.000000 3.488860 
# 
# 
# High freq. dielectric constant tensor:
#      x y z
#    x 1.761440 0.000000 0.000000 
#    y 0.000000 1.701470 0.000000 
#    z 0.000000 0.000000 1.745800 
# 
# From -- ./inp_files/35708.got.cif
#   From: 2010.03.12/outbox.cif.g09.slc.cpg/sg51_18_cif.got.tgz:35708.got - 2010.04.16 13:43:02.
