data_PCOD8210285
_publ_section_title
;
Structure prediction by ZEFSAII (Michael W. Deem and Ramdas Pophale) SiO2 
 PCOD8210285
Probable space group: P M M A
;
_chemical_formula_sum "Si O2"
_cell_formula_units_Z 52
_cell_length_a 9.167157
_cell_length_b 18.149591
_cell_length_c 18.901319
_cell_angle_alpha 90.000000
_cell_angle_beta 90.000000
_cell_angle_gamma 90.000000
_cell_volume 3144.804294
_symmetry_space_group_name_H-M "P M M A"
_symmetry_group_IT_number 51
_symmetry_cell_setting 'orthorhombic'
loop_
_space_group_symop_operation_xyz
x,y,z
1/2-x,-y,z
1/2+x,-y,-z
-x,y,-z
-x,-y,-z
1/2+x,y,-z
1/2-x,y,z
x,-y,z
loop_
_atom_site_type_symbol
_atom_site_label
_atom_site_fract_x
_atom_site_fract_y
_atom_site_fract_z
Si Si1 0.081667 0.806075 0.331660
Si Si2 0.417598 0.417196 0.687267
Si Si3 0.920088 0.659886 0.073655
Si Si4 0.082156 0.500000 0.928246
Si Si5 0.082367 0.663601 0.427108
Si Si6 0.579789 0.720209 0.218639
Si Si7 0.418179 0.913371 0.571329
O O1 0.250000 0.827773 0.321404
O O2 0.060927 0.739442 0.385628
O O3 0.014847 0.783865 0.255614
O O4 0.993578 0.875693 0.361382
O O5 0.250000 0.407953 0.664396
O O6 0.447973 0.500000 0.715577
O O7 0.514833 0.403059 0.617970
O O8 0.458150 0.359642 0.748532
O O9 0.750000 0.665671 0.056600
O O10 0.957551 0.578497 0.107816
O O11 0.963099 0.717595 0.135355
O O12 0.000000 0.677731 0.000000
O O13 0.250000 0.500000 0.946822
O O14 0.000000 0.500000 0.000000
O O15 0.250000 0.645516 0.441774
O O16 0.000000 0.672160 0.500000
O O17 0.750000 0.738539 0.228880
O O18 0.500000 0.888462 0.500000
O O19 0.250000 0.888462 0.565103
O O20 0.432111 0.000000 0.583252
#
# Coordination Sequence:
#
# PCOD8210285 Si02
#       7
#     8   8   8   4   8   8   8
#     4  10  20  33  49  69  94 124 156 191 229 273
#     4   9  18  31  46  62  80 107 146 190 235 279
#     4   9  17  28  44  65  90 119 152 193 238 286
#     4   8  14  24  38  58  84 112 145 184 231 284
#     4  10  20  32  46  63  83 110 146 186 229 273
#     4   9  18  31  47  66  89 120 155 193 236 282
#     4  10  20  33  51  76 104 132 160 190 225 267
#
# _framework density 16.535209999999999
#
# number of rings (size 3 to 8) (size 9 to 14) (size 15 to 20)
#    0.000    2.615    0.000    1.846    1.077    5.231 
#    0.000    0.000    0.000    0.000    0.000    0.000 
#    0.000    0.615    0.000    2.000    0.000    2.462 
#
# Total GULP energy -644512.398539 kJ/mol
# GULP energy per Si atom -12394.469203 kJ/mol
# Density = 1.649758 g / cm^3
# Si number density = 16.535210 Si / 1000 Ang^3
#
#
#
# Elastic Constant Matrix: (Units=GPa)
#
#
# Indices 1 2 3 4 5 6 
#
# 1 91.9532 33.8943 54.0297 0.0000 0.0000 0.0000
# 2 33.8943 46.9549 31.0881 0.0000 0.0000 0.0000
# 3 54.0297 31.0881 107.7742 0.0000 0.0000 0.0000
# 4 0.0000 0.0000 0.0000 21.6079 0.0000 0.0000
# 5 0.0000 0.0000 0.0000 0.0000 26.3503 0.0000
# 6 0.0000 0.0000 0.0000 0.0000 0.0000 21.5528
#
#
#
# Elastic Compliance Matrix: (Units=1/GPa)
#
#
# Indices 1 2 3 4 5 6 
#
# 1 0.017844 -0.008600 -0.006465 0.000000 0.000000 0.000000
# 2 -0.008600 0.030470 -0.004478 0.000000 0.000000 0.000000
# 3 -0.006465 -0.004478 0.013811 0.000000 0.000000 0.000000
# 4 0.000000 0.000000 0.000000 0.046279 0.000000 0.000000
# 5 0.000000 0.000000 0.000000 0.000000 0.037950 0.000000
# 6 0.000000 0.000000 0.000000 0.000000 0.000000 0.046398
#
#
# Mechanical properties :
#
#
# Convention : Reuss Voigt Hill
#
# Bulk Modulus (GPa) = 43.40394 53.85628 48.63011
# Shear Modulus (GPa) = 20.87536 22.41355 21.64445
#
# Velocity S-wave (km/s) = 3.55699 3.68571 3.62192
# Velocity P-wave (km/s) = 6.57084 7.12418 6.85310
#
# Compressibility (1/GPa) = 0.02303938
#
# Stress axis : x y z
#
# Youngs Moduli (GPa) = 56.04218 32.81945 72.40527
#
# Poissons Ratio (x) = 0.28226 0.46808
# Poissons Ratio (y) = 0.48198 0.32421
# Poissons Ratio (z) = 0.36229 0.14695
#
# Static dielectric constant tensor:
#      x y z
#    x 3.213990 0.000000 0.000000 
#    y 0.000000 2.876830 0.000000 
#    z 0.000000 0.000000 3.016490 
# 
# 
# High freq. dielectric constant tensor:
#      x y z
#    x 1.643640 0.000000 0.000000 
#    y 0.000000 1.607190 0.000000 
#    z 0.000000 0.000000 1.623260 
# 
# From -- ./inp_files/27914.got.cif
#   From: 2010.03.12/outbox.cif.g09.slc.cpg/sg51_14_cif.got.tgz:27914.got - 2010.04.16 13:43:02.
