data_PCOD8210414
_publ_section_title
;
Structure prediction by ZEFSAII (Michael W. Deem and Ramdas Pophale) SiO2 
 PCOD8210414
Probable space group: P M M A
;
_chemical_formula_sum "Si O2"
_cell_formula_units_Z 64
_cell_length_a 18.929364
_cell_length_b 9.163557
_cell_length_c 21.134787
_cell_angle_alpha 90.000000
_cell_angle_beta 90.000000
_cell_angle_gamma 90.000000
_cell_volume 3666.046620
_symmetry_space_group_name_H-M "P M M A"
_symmetry_group_IT_number 51
_symmetry_cell_setting 'orthorhombic'
loop_
_space_group_symop_operation_xyz
x,y,z
1/2-x,-y,z
1/2+x,-y,-z
-x,y,-z
-x,-y,-z
1/2+x,y,-z
1/2-x,y,z
x,-y,z
loop_
_atom_site_type_symbol
_atom_site_label
_atom_site_fract_x
_atom_site_fract_y
_atom_site_fract_z
Si Si1 0.024982 0.671813 0.568427
Si Si2 0.593438 0.670805 0.146537
Si Si3 0.169138 0.831166 0.960954
Si Si4 0.477116 0.836049 0.312650
Si Si5 0.668021 0.834241 0.892894
Si Si6 0.561959 0.329435 0.806163
Si Si7 0.326336 0.333620 0.618790
Si Si8 0.864726 0.162953 0.263683
O O1 0.012983 0.500000 0.576825
O O2 0.108091 0.715469 0.574814
O O3 0.000000 0.726339 0.500000
O O4 0.976898 0.752426 0.620394
O O5 0.608076 0.500000 0.149083
O O6 0.615079 0.732335 0.078375
O O7 0.511640 0.708027 0.159224
O O8 0.642836 0.747450 0.198880
O O9 0.250000 0.789572 0.945024
O O10 0.155304 0.000000 0.944991
O O11 0.153100 0.799118 0.034044
O O12 0.429660 0.751136 0.261428
O O13 0.555183 0.839495 0.285727
O O14 0.447650 0.000000 0.322352
O O15 0.750000 0.812718 0.877124
O O16 0.624734 0.721638 0.850975
O O17 0.644736 0.000000 0.877447
O O18 0.568758 0.500000 0.792790
O O19 0.250000 0.317471 0.583207
O O20 0.339574 0.500000 0.639808
O O21 0.319427 0.239060 0.682035
O O22 0.835705 0.000000 0.252351
#
# Coordination Sequence:
#
# PCOD8210414 Si02
#       8
#     8   8   8   8   8   8   8   8
#     4   9  17  30  49  72  98 129 162 195 235 284
#     4  10  20  32  47  70  99 129 161 198 241 289
#     4   9  19  35  51  67  91 125 164 204 245 293
#     4   9  17  30  49  72  96 122 155 194 234 278
#     4   9  19  36  55  73  94 123 161 204 251 301
#     4  10  20  33  51  75 101 127 158 200 246 291
#     4   9  17  29  45  66  93 124 158 195 233 275
#     4   9  17  29  45  65  90 121 156 192 231 277
#
# _framework density 17.457497
#
# number of rings (size 3 to 8) (size 9 to 14) (size 15 to 20)
#    0.000    2.750    0.000    2.250    0.000    7.000 
#    0.000    3.750    0.000    0.750    0.000    1.750 
#    0.000    0.000    0.000    0.000    0.000    0.000 
#
# Total GULP energy -793477.031289 kJ/mol
# GULP energy per Si atom -12398.078614 kJ/mol
# Density = 1.741776 g / cm^3
# Si number density = 17.457497 Si / 1000 Ang^3
#
#
#
# Elastic Constant Matrix: (Units=GPa)
#
#
# Indices 1 2 3 4 5 6 
#
# 1 63.5473 37.1656 51.5173 0.0000 0.0000 0.0000
# 2 37.1656 92.2930 59.4772 0.0000 0.0000 0.0000
# 3 51.5173 59.4772 118.8845 0.0000 0.0000 0.0000
# 4 0.0000 0.0000 0.0000 30.5395 0.0000 0.0000
# 5 0.0000 0.0000 0.0000 0.0000 18.6039 0.0000
# 6 0.0000 0.0000 0.0000 0.0000 0.0000 23.0185
#
#
#
# Elastic Compliance Matrix: (Units=1/GPa)
#
#
# Indices 1 2 3 4 5 6 
#
# 1 0.025544 -0.004653 -0.008741 0.000000 0.000000 0.000000
# 2 -0.004653 0.016838 -0.006408 0.000000 0.000000 0.000000
# 3 -0.008741 -0.006408 0.015405 0.000000 0.000000 0.000000
# 4 0.000000 0.000000 0.000000 0.032744 0.000000 0.000000
# 5 0.000000 0.000000 0.000000 0.000000 0.053752 0.000000
# 6 0.000000 0.000000 0.000000 0.000000 0.000000 0.043443
#
#
# Mechanical properties :
#
#
# Convention : Reuss Voigt Hill
#
# Bulk Modulus (GPa) = 54.99552 63.44943 59.22247
# Shear Modulus (GPa) = 21.42308 22.87002 22.14655
#
# Velocity S-wave (km/s) = 3.50688 3.62337 3.56560
# Velocity P-wave (km/s) = 6.92593 7.34364 7.13784
#
# Compressibility (1/GPa) = 0.01818330
#
# Stress axis : x y z
#
# Youngs Moduli (GPa) = 39.14770 59.38879 64.91308
#
# Poissons Ratio (x) = 0.27635 0.56743
# Poissons Ratio (y) = 0.18216 0.41594
# Poissons Ratio (z) = 0.34220 0.38054
#
# Static dielectric constant tensor:
#      x y z
#    x 3.057520 0.000000 0.000000 
#    y 0.000000 3.332320 0.000000 
#    z 0.000000 0.000000 3.177380 
# 
# 
# High freq. dielectric constant tensor:
#      x y z
#    x 1.653110 0.000000 0.000000 
#    y 0.000000 1.680950 0.000000 
#    z 0.000000 0.000000 1.662510 
# 
# From -- ./inp_files/30631.got.cif
#   From: 2010.03.12/outbox.cif.g09.slc.cpg/sg51_16_cif.got.tgz:30631.got - 2010.04.16 13:43:02.
