data_PCOD8210246
_publ_section_title
;
Structure prediction by ZEFSAII (Michael W. Deem and Ramdas Pophale) SiO2 
 PCOD8210246
Probable space group: P M M A
;
_chemical_formula_sum "Si O2"
_cell_formula_units_Z 64
_cell_length_a 8.959482
_cell_length_b 29.645622
_cell_length_c 15.409066
_cell_angle_alpha 90.000000
_cell_angle_beta 90.000000
_cell_angle_gamma 90.000000
_cell_volume 4092.793032
_symmetry_space_group_name_H-M "P M M A"
_symmetry_group_IT_number 51
_symmetry_cell_setting 'orthorhombic'
loop_
_space_group_symop_operation_xyz
x,y,z
1/2-x,-y,z
1/2+x,-y,-z
-x,y,-z
-x,-y,-z
1/2+x,y,-z
1/2-x,y,z
x,-y,z
loop_
_atom_site_type_symbol
_atom_site_label
_atom_site_fract_x
_atom_site_fract_y
_atom_site_fract_z
Si Si1 0.579001 0.211290 0.240539
Si Si2 0.918327 0.788030 0.585596
Si Si3 0.420912 0.104446 0.758407
Si Si4 0.577060 0.366685 0.907324
Si Si5 0.075217 0.948146 0.089187
Si Si6 0.075907 0.733127 0.093287
Si Si7 0.924360 0.451025 0.093763
Si Si8 0.581510 0.104553 0.585269
O O1 0.750000 0.227113 0.240261
O O2 0.504408 0.229219 0.329152
O O3 0.565049 0.157849 0.233644
O O4 0.494911 0.231395 0.158395
O O5 0.750000 0.769145 0.587882
O O6 0.917702 0.841724 0.582750
O O7 0.000000 0.768811 0.500000
O O8 0.250000 0.088546 0.761969
O O9 0.512210 0.082739 0.835636
O O10 0.491594 0.087019 0.668612
O O11 0.750000 0.377953 0.917515
O O12 0.552705 0.317179 0.865672
O O13 0.499120 0.408461 0.854391
O O14 0.500000 0.364459 0.000000
O O15 0.250000 0.939976 0.080516
O O16 0.036571 0.000000 0.109936
O O17 0.000000 0.932604 0.000000
O O18 0.250000 0.743839 0.081615
O O19 0.000000 0.738424 0.000000
O O20 0.750000 0.441733 0.083571
O O21 0.951953 0.500000 0.139781
O O22 0.000000 0.452683 0.000000
O O23 0.500000 0.085252 0.500000
O O24 0.750000 0.085750 0.588665
#
# Coordination Sequence:
#
# PCOD8210246 Si02
#       8
#     8   8   8   8   8   8   8   8
#     4  10  20  32  46  66  90 116 147 180 214 253
#     4   9  16  27  44  65  89 115 142 175 213 252
#     4  10  20  33  50  72  95 118 145 177 213 253
#     4   9  16  25  37  51  68  95 132 171 211 254
#     4  10  21  37  56  75  93 115 144 177 215 259
#     4  10  20  32  44  58  79 111 149 185 220 258
#     4   9  15  21  31  48  68  90 120 162 210 254
#     4   9  16  27  45  69  96 123 148 174 206 246
#
# _framework density 15.637244000000001
#
# number of rings (size 3 to 8) (size 9 to 14) (size 15 to 20)
#    0.000    2.500    0.000    3.750    0.000    8.000 
#    0.000    0.000    0.000    0.375    0.000    0.000 
#    0.000    0.000    0.000    0.000    0.000    0.625 
#
# Total GULP energy -793240.741465 kJ/mol
# GULP energy per Si atom -12394.386585 kJ/mol
# Density = 1.560165 g / cm^3
# Si number density = 15.637244 Si / 1000 Ang^3
#
#
#
# Elastic Constant Matrix: (Units=GPa)
#
#
# Indices 1 2 3 4 5 6 
#
# 1 122.8559 28.6558 51.5909 0.0000 0.0000 0.0000
# 2 28.6558 27.4667 28.0376 0.0000 0.0000 0.0000
# 3 51.5909 28.0376 100.0286 0.0000 0.0000 0.0000
# 4 0.0000 0.0000 0.0000 -0.5181 0.0000 0.0000
# 5 0.0000 0.0000 0.0000 0.0000 28.6380 0.0000
# 6 0.0000 0.0000 0.0000 0.0000 0.0000 20.4411
#
#
#
# Elastic Compliance Matrix: (Units=1/GPa)
#
#
# Indices 1 2 3 4 5 6 
#
# 1 0.011632 -0.008421 -0.003639 0.000000 0.000000 0.000000
# 2 -0.008421 0.057096 -0.011661 0.000000 0.000000 0.000000
# 3 -0.003639 -0.011661 0.015142 0.000000 0.000000 0.000000
# 4 0.000000 0.000000 0.000000 -1.930035 0.000000 0.000000
# 5 0.000000 0.000000 0.000000 0.000000 0.034919 0.000000
# 6 0.000000 0.000000 0.000000 0.000000 0.000000 0.048921
#
#
# Mechanical properties :
#
#
# Convention : Reuss Voigt Hill
#
# Bulk Modulus (GPa) = 27.45032 51.87999 39.66515
# Shear Modulus (GPa) = -2.93644 19.18334 8.12345
#
# Velocity S-wave (km/s) = -1.37183 3.50633 2.28171
# Velocity P-wave (km/s) = 3.88373 7.04569 5.68881
#
# Compressibility (1/GPa) = 0.03642945
#
# Stress axis : x y z
#
# Youngs Moduli (GPa) = 85.97084 17.51437 66.03981
#
# Poissons Ratio (x) = 0.14749 0.24031
# Poissons Ratio (y) = 0.72395 0.77006
# Poissons Ratio (z) = 0.31284 0.20423
#
# Static dielectric constant tensor:
#      x y z
#    x 3.236160 0.000000 0.000000 
#    y 0.000000 3.325810 0.000000 
#    z 0.000000 0.000000 3.089280 
# 
# 
# High freq. dielectric constant tensor:
#      x y z
#    x 1.626520 0.000000 0.000000 
#    y 0.000000 1.576080 0.000000 
#    z 0.000000 0.000000 1.565740 
# 
# From -- ./inp_files/22567.got.cif
#   From: 2010.03.12/outbox.cif.g09.slc.cpg/sg51_12_cif.got.tgz:22567.got - 2010.04.16 13:43:02.
