data_PCOD8210526
_publ_section_title
;
Structure prediction by ZEFSAII (Michael W. Deem and Ramdas Pophale) SiO2 
 PCOD8210526
Probable space group: P M M A
;
_chemical_formula_sum "Si O2"
_cell_formula_units_Z 64
_cell_length_a 9.627471
_cell_length_b 17.061343
_cell_length_c 18.295478
_cell_angle_alpha 90.000000
_cell_angle_beta 90.000000
_cell_angle_gamma 90.000000
_cell_volume 3005.171032
_symmetry_space_group_name_H-M "P M M A"
_symmetry_group_IT_number 51
_symmetry_cell_setting 'orthorhombic'
loop_
_space_group_symop_operation_xyz
x,y,z
1/2-x,-y,z
1/2+x,-y,-z
-x,y,-z
-x,-y,-z
1/2+x,y,-z
1/2-x,y,z
x,-y,z
loop_
_atom_site_type_symbol
_atom_site_label
_atom_site_fract_x
_atom_site_fract_y
_atom_site_fract_z
Si Si1 0.901981 0.411237 0.439642
Si Si2 0.089397 0.910345 0.306408
Si Si3 0.591948 0.830208 0.190254
Si Si4 0.603273 0.088858 0.054781
Si Si5 0.591520 0.409422 0.828324
Si Si6 0.091925 0.350009 0.328571
Si Si7 0.407186 0.203142 0.428593
Si Si8 0.584579 0.307429 0.074099
O O1 0.750000 0.369915 0.435691
O O2 0.878761 0.500000 0.464476
O O3 0.000000 0.367490 0.500000
O O4 0.981368 0.410408 0.362701
O O5 0.250000 0.906288 0.282671
O O6 0.071349 0.881714 0.390246
O O7 0.008519 0.845723 0.257883
O O8 0.033430 0.000000 0.300015
O O9 0.750000 0.823578 0.219541
O O10 0.564662 0.907146 0.139838
O O11 0.555715 0.758935 0.135532
O O12 0.750000 0.134124 0.044457
O O13 0.618656 0.000000 0.029424
O O14 0.500000 0.133319 0.000000
O O15 0.750000 0.398189 0.856140
O O16 0.565770 0.500000 0.806395
O O17 0.566054 0.352557 0.758205
O O18 0.483514 0.386193 0.891889
O O19 0.250000 0.376431 0.346089
O O20 0.057406 0.266266 0.364946
O O21 0.500000 0.211067 0.500000
O O22 0.250000 0.213750 0.455385
O O23 0.750000 0.319314 0.059778
O O24 0.500000 0.287555 0.000000
#
# Coordination Sequence:
#
# PCOD8210526 Si02
#       8
#     8   8   8   8   8   8   8   8
#     4  10  20  32  48  74 110 151 193 238 288 345
#     4  10  22  40  62  88 118 155 200 248 297 351
#     4  10  21  37  58  86 118 152 192 240 296 355
#     4   9  17  29  46  71 106 146 186 228 274 329
#     4  10  22  41  65  91 120 158 202 247 299 359
#     4  10  20  36  59  85 114 149 190 239 295 354
#     4  10  22  39  59  86 119 154 195 243 293 348
#     4  11  24  41  63  91 123 160 202 249 300 355
#
# _framework density 21.296624000000001
#
# number of rings (size 3 to 8) (size 9 to 14) (size 15 to 20)
#    0.000    2.000    0.000    3.000    0.000    7.750 
#    0.000    1.250    0.000    0.000    0.000    0.000 
#    0.000    0.000    0.000    0.000    0.000    0.000 
#
# Total GULP energy -792888.682726 kJ/mol
# GULP energy per Si atom -12388.885668 kJ/mol
# Density = 2.124815 g / cm^3
# Si number density = 21.296624 Si / 1000 Ang^3
#
#
#
# Elastic Constant Matrix: (Units=GPa)
#
#
# Indices 1 2 3 4 5 6 
#
# 1 132.0043 39.2670 70.7573 0.0000 0.0000 0.0000
# 2 39.2670 74.6023 46.6517 0.0000 0.0000 0.0000
# 3 70.7573 46.6517 104.1006 0.0000 0.0000 0.0000
# 4 0.0000 0.0000 0.0000 27.8043 0.0000 0.0000
# 5 0.0000 0.0000 0.0000 0.0000 40.2403 0.0000
# 6 0.0000 0.0000 0.0000 0.0000 0.0000 22.4382
#
#
#
# Elastic Compliance Matrix: (Units=1/GPa)
#
#
# Indices 1 2 3 4 5 6 
#
# 1 0.012070 -0.001699 -0.007443 0.000000 0.000000 0.000000
# 2 -0.001699 0.018863 -0.007298 0.000000 0.000000 0.000000
# 3 -0.007443 -0.007298 0.017936 0.000000 0.000000 0.000000
# 4 0.000000 0.000000 0.000000 0.035966 0.000000 0.000000
# 5 0.000000 0.000000 0.000000 0.000000 0.024851 0.000000
# 6 0.000000 0.000000 0.000000 0.000000 0.000000 0.044567
#
#
# Mechanical properties :
#
#
# Convention : Reuss Voigt Hill
#
# Bulk Modulus (GPa) = 62.54544 69.33992 65.94268
# Shear Modulus (GPa) = 25.97916 28.36529 27.17223
#
# Velocity S-wave (km/s) = 3.49646 3.65350 3.57584
# Velocity P-wave (km/s) = 6.76260 7.10121 6.93397
#
# Compressibility (1/GPa) = 0.01598838
#
# Stress axis : x y z
#
# Youngs Moduli (GPa) = 82.84676 53.01508 55.75465
#
# Poissons Ratio (x) = 0.09007 0.41498
# Poissons Ratio (y) = 0.14075 0.40691
# Poissons Ratio (z) = 0.61662 0.38692
#
# Static dielectric constant tensor:
#      x y z
#    x 4.087900 0.000000 0.000000 
#    y 0.000000 3.762330 0.000000 
#    z 0.000000 0.000000 3.812110 
# 
# 
# High freq. dielectric constant tensor:
#      x y z
#    x 1.838470 0.000000 0.000000 
#    y 0.000000 1.827790 0.000000 
#    z 0.000000 0.000000 1.826920 
# 
# From -- ./inp_files/32393.got.cif
#   From: 2010.03.12/outbox.cif.g09.slc.cpg/sg51_17_cif.got.tgz:32393.got - 2010.04.16 13:43:02.
