data_PCOD8210326
_publ_section_title
;
Structure prediction by ZEFSAII (Michael W. Deem and Ramdas Pophale) SiO2 
 PCOD8210326
Probable space group: P M M A
;
_chemical_formula_sum "Si O2"
_cell_formula_units_Z 40
_cell_length_a 18.236694
_cell_length_b 9.176333
_cell_length_c 13.961943
_cell_angle_alpha 90.000000
_cell_angle_beta 90.000000
_cell_angle_gamma 90.000000
_cell_volume 2336.474992
_symmetry_space_group_name_H-M "P M M A"
_symmetry_group_IT_number 51
_symmetry_cell_setting 'orthorhombic'
loop_
_space_group_symop_operation_xyz
x,y,z
1/2-x,-y,z
1/2+x,-y,-z
-x,y,-z
-x,-y,-z
1/2+x,y,-z
1/2-x,y,z
x,-y,z
loop_
_atom_site_type_symbol
_atom_site_label
_atom_site_fract_x
_atom_site_fract_y
_atom_site_fract_z
Si Si1 0.832093 0.167543 0.314293
Si Si2 0.872677 0.662267 0.131207
Si Si3 0.582136 0.836745 0.959898
Si Si4 0.035458 0.672038 0.599871
Si Si5 0.034961 0.339648 0.208246
O O1 0.750000 0.178142 0.357316
O O2 0.831129 0.244305 0.211018
O O3 0.887460 0.245389 0.387746
O O4 0.856389 0.000000 0.300766
O O5 0.838103 0.500000 0.124277
O O6 0.957236 0.648541 0.157062
O O7 0.865280 0.742455 0.028896
O O8 0.585530 0.769806 0.852544
O O9 0.613383 0.000000 0.954274
O O10 0.500000 0.837763 0.000000
O O11 0.051738 0.500000 0.605559
O O12 0.000000 0.719276 0.500000
O O13 0.978157 0.717836 0.683431
O O14 0.071924 0.500000 0.209872
#
# Coordination Sequence:
#
# PCOD8210326 Si02
#       5
#     8   8   8   8   8
#     4  10  20  32  46  67  95 124 154 190 234 286
#     4   9  16  26  41  60  84 115 148 181 218 263
#     4   9  15  22  35  57  85 114 142 172 209 256
#     4   9  18  32  49  69  93 122 158 201 246 287
#     4   8  14  24  38  58  85 114 144 181 223 266
#
# _framework density 17.119806000000001
#
# number of rings (size 3 to 8) (size 9 to 14) (size 15 to 20)
#    0.000    3.000    0.000    3.000    0.000    9.200 
#    0.000    0.000    0.000    0.000    0.000    1.400 
#    0.000    8.000    0.000    0.000    0.000    0.000 
#
# Total GULP energy -495801.125254 kJ/mol
# GULP energy per Si atom -12395.028131 kJ/mol
# Density = 1.708084 g / cm^3
# Si number density = 17.119806 Si / 1000 Ang^3
#
#
#
# Elastic Constant Matrix: (Units=GPa)
#
#
# Indices 1 2 3 4 5 6 
#
# 1 44.3572 35.5960 38.0671 0.0000 0.0000 0.0000
# 2 35.5960 122.3498 63.5347 0.0000 0.0000 0.0000
# 3 38.0671 63.5347 139.4952 0.0000 0.0000 0.0000
# 4 0.0000 0.0000 0.0000 20.2690 0.0000 0.0000
# 5 0.0000 0.0000 0.0000 0.0000 11.0100 0.0000
# 6 0.0000 0.0000 0.0000 0.0000 0.0000 12.9531
#
#
#
# Elastic Compliance Matrix: (Units=1/GPa)
#
#
# Indices 1 2 3 4 5 6 
#
# 1 0.032894 -0.006429 -0.006048 0.000000 0.000000 0.000000
# 2 -0.006429 0.011962 -0.003694 0.000000 0.000000 0.000000
# 3 -0.006048 -0.003694 0.010502 0.000000 0.000000 0.000000
# 4 0.000000 0.000000 0.000000 0.049336 0.000000 0.000000
# 5 0.000000 0.000000 0.000000 0.000000 0.090827 0.000000
# 6 0.000000 0.000000 0.000000 0.000000 0.000000 0.077201
#
#
# Mechanical properties :
#
#
# Convention : Reuss Voigt Hill
#
# Bulk Modulus (GPa) = 43.44962 64.51086 53.98024
# Shear Modulus (GPa) = 15.98789 20.11338 18.05064
#
# Velocity S-wave (km/s) = 3.05926 3.43134 3.25063
# Velocity P-wave (km/s) = 6.15741 7.31181 6.75930
#
# Compressibility (1/GPa) = 0.02301516
#
# Stress axis : x y z
#
# Youngs Moduli (GPa) = 30.40047 83.59887 95.22407
#
# Poissons Ratio (x) = 0.53749 0.57594
# Poissons Ratio (y) = 0.19545 0.35173
# Poissons Ratio (z) = 0.18387 0.30879
#
# Static dielectric constant tensor:
#      x y z
#    x 2.680900 0.000000 0.000000 
#    y 0.000000 3.440300 0.000000 
#    z 0.000000 0.000000 3.270870 
# 
# 
# High freq. dielectric constant tensor:
#      x y z
#    x 1.600790 0.000000 0.000000 
#    y 0.000000 1.674330 0.000000 
#    z 0.000000 0.000000 1.649170 
# 
# From -- ./inp_files/23724.got.cif
#   From: 2010.03.12/outbox.cif.g09.slc.cpg/sg51_12_cif.got.tgz:23724.got - 2010.04.16 13:43:02.
