data_PCOD8210595
_publ_section_title
;
Structure prediction by ZEFSAII (Michael W. Deem and Ramdas Pophale) SiO2 
 PCOD8210595
Probable space group: P M M A
;
_chemical_formula_sum "Si O2"
_cell_formula_units_Z 64
_cell_length_a 15.005168
_cell_length_b 18.005250
_cell_length_c 12.361295
_cell_angle_alpha 90.000000
_cell_angle_beta 90.000000
_cell_angle_gamma 90.000000
_cell_volume 3339.673334
_symmetry_space_group_name_H-M "P M M A"
_symmetry_group_IT_number 51
_symmetry_cell_setting 'orthorhombic'
loop_
_space_group_symop_operation_xyz
x,y,z
1/2-x,-y,z
1/2+x,-y,-z
-x,y,-z
-x,-y,-z
1/2+x,y,-z
1/2-x,y,z
x,-y,z
loop_
_atom_site_type_symbol
_atom_site_label
_atom_site_fract_x
_atom_site_fract_y
_atom_site_fract_z
Si Si1 0.143483 0.825258 0.737862
Si Si2 0.911261 0.725824 0.063807
Si Si3 0.995703 0.913677 0.628104
Si Si4 0.486350 0.584251 0.825694
Si Si5 0.856099 0.204226 0.674317
Si Si6 0.424093 0.419074 0.583972
Si Si7 0.652601 0.678909 0.851269
Si Si8 0.151032 0.271639 0.544838
O O1 0.250000 0.842551 0.735039
O O2 0.118236 0.791371 0.854889
O O3 0.107931 0.765396 0.650294
O O4 0.085753 0.896495 0.698989
O O5 0.922075 0.644880 0.119520
O O6 0.837307 0.713183 0.971655
O O7 0.000000 0.750589 0.000000
O O8 0.911144 0.872021 0.681719
O O9 0.000000 0.893429 0.500000
O O10 0.976495 0.000000 0.642156
O O11 0.471011 0.500000 0.871221
O O12 0.468801 0.585304 0.699664
O O13 0.588281 0.607769 0.848280
O O14 0.750000 0.187737 0.674807
O O15 0.884758 0.256159 0.773921
O O16 0.893047 0.247310 0.567828
O O17 0.500000 0.399032 0.500000
O O18 0.381975 0.500000 0.563054
O O19 0.346938 0.359748 0.564104
O O20 0.750000 0.652951 0.811186
O O21 0.250000 0.240820 0.538150
#
# Coordination Sequence:
#
# PCOD8210595 Si02
#       8
#     8   8   8   8   8   8   8   8
#     4  11  22  38  60  88 119 154 193 241 291 343
#     4  10  20  36  59  82 108 149 197 243 289 339
#     4  11  23  37  59  91 123 155 184 221 285 356
#     4  10  20  34  51  75 108 146 187 234 292 345
#     4  10  21  38  59  87 117 150 193 240 288 343
#     4  10  20  32  50  76 107 146 186 232 288 346
#     4  10  21  35  55  80 107 142 189 239 283 335
#     4  10  20  33  55  81 107 146 190 236 287 340
#
# _framework density 19.163551999999999
#
# number of rings (size 3 to 8) (size 9 to 14) (size 15 to 20)
#    0.000    1.750    2.500    2.625    1.750    3.250 
#    0.000    1.250    0.000    9.000    0.000    3.500 
#    0.000    0.000    0.000    0.000    0.000    0.000 
#
# Total GULP energy -793009.140246 kJ/mol
# GULP energy per Si atom -12390.767816 kJ/mol
# Density = 1.911993 g / cm^3
# Si number density = 19.163552 Si / 1000 Ang^3
#
#
#
# Elastic Constant Matrix: (Units=GPa)
#
#
# Indices 1 2 3 4 5 6 
#
# 1 55.0181 16.8258 18.8293 0.0000 0.0000 0.0000
# 2 16.8258 73.6393 27.7129 0.0000 0.0000 0.0000
# 3 18.8293 27.7129 103.5710 0.0000 0.0000 0.0000
# 4 0.0000 0.0000 0.0000 14.4648 0.0000 0.0000
# 5 0.0000 0.0000 0.0000 0.0000 24.1874 0.0000
# 6 0.0000 0.0000 0.0000 0.0000 0.0000 14.5267
#
#
#
# Elastic Compliance Matrix: (Units=1/GPa)
#
#
# Indices 1 2 3 4 5 6 
#
# 1 0.020203 -0.003596 -0.002711 0.000000 0.000000 0.000000
# 2 -0.003596 0.015740 -0.003558 0.000000 0.000000 0.000000
# 3 -0.002711 -0.003558 0.011100 0.000000 0.000000 0.000000
# 4 0.000000 0.000000 0.000000 0.069134 0.000000 0.000000
# 5 0.000000 0.000000 0.000000 0.000000 0.041344 0.000000
# 6 0.000000 0.000000 0.000000 0.000000 0.000000 0.068839
#
#
# Mechanical properties :
#
#
# Convention : Reuss Voigt Hill
#
# Bulk Modulus (GPa) = 36.61105 39.88491 38.24798
# Shear Modulus (GPa) = 19.59293 21.89314 20.74304
#
# Velocity S-wave (km/s) = 3.20098 3.38366 3.29359
# Velocity P-wave (km/s) = 5.72780 6.01029 5.87075
#
# Compressibility (1/GPa) = 0.02731416
#
# Stress axis : x y z
#
# Youngs Moduli (GPa) = 49.49675 63.53101 90.08982
#
# Poissons Ratio (x) = 0.22846 0.24421
# Poissons Ratio (y) = 0.17800 0.32053
# Poissons Ratio (z) = 0.13417 0.22604
#
# Static dielectric constant tensor:
#      x y z
#    x 3.265240 0.000000 0.000000 
#    y 0.000000 3.357130 0.000000 
#    z 0.000000 0.000000 4.441720 
# 
# 
# High freq. dielectric constant tensor:
#      x y z
#    x 1.739550 0.000000 0.000000 
#    y 0.000000 1.724290 0.000000 
#    z 0.000000 0.000000 1.757810 
# 
# From -- ./inp_files/16840.got.cif
#   From: 2010.03.12/outbox.cif.g09.slc.cpg/sg51_9_cif.got.tgz:16840.got - 2010.04.16 13:43:02.
