data_PCOD8210205
_publ_section_title
;
Structure prediction by ZEFSAII (Michael W. Deem and Ramdas Pophale) SiO2 
 PCOD8210205
Probable space group: P M M A
;
_chemical_formula_sum "Si O2"
_cell_formula_units_Z 48
_cell_length_a 9.561582
_cell_length_b 9.493719
_cell_length_c 30.906666
_cell_angle_alpha 90.000000
_cell_angle_beta 90.000000
_cell_angle_gamma 90.000000
_cell_volume 2805.551763
_symmetry_space_group_name_H-M "P M M A"
_symmetry_group_IT_number 51
_symmetry_cell_setting 'orthorhombic'
loop_
_space_group_symop_operation_xyz
x,y,z
1/2-x,-y,z
1/2+x,-y,-z
-x,y,-z
-x,-y,-z
1/2+x,y,-z
1/2-x,y,z
x,-y,z
loop_
_atom_site_type_symbol
_atom_site_label
_atom_site_fract_x
_atom_site_fract_y
_atom_site_fract_z
Si Si1 0.916068 0.157850 0.283781
Si Si2 0.912011 0.664363 0.459040
Si Si3 0.415955 0.158272 0.620865
Si Si4 0.096395 0.833513 0.037369
Si Si5 0.585458 0.335770 0.203171
Si Si6 0.414784 0.162196 0.134481
O O1 0.750000 0.157404 0.284490
O O2 0.971330 0.204317 0.331446
O O3 0.970397 0.266665 0.247782
O O4 0.970144 0.000000 0.272813
O O5 0.750000 0.702404 0.467111
O O6 0.933799 0.500000 0.451456
O O7 0.974362 0.739762 0.416396
O O8 0.000000 0.718346 0.500000
O O9 0.250000 0.166474 0.620974
O O10 0.466360 0.000000 0.610722
O O11 0.250000 0.767045 0.031614
O O12 0.039720 0.800349 0.085395
O O13 0.105801 0.000000 0.031337
O O14 0.000000 0.765717 0.000000
O O15 0.750000 0.308593 0.196633
O O16 0.549828 0.500000 0.204890
O O17 0.503305 0.265607 0.164045
O O18 0.250000 0.188177 0.141001
O O19 0.451820 0.000000 0.145281
#
# Coordination Sequence:
#
# PCOD8210205 Si02
#       6
#     8   8   8   8   8   8
#     4   8  14  26  44  65  89 115 144 183 229 270
#     4   9  17  28  42  61  85 113 144 177 214 257
#     4   8  14  25  42  64  87 111 142 180 220 261
#     4   8  14  25  42  66  93 117 145 184 227 269
#     4  10  20  31  45  69  97 122 152 191 231 271
#     4   9  18  32  49  69  94 125 158 189 225 273
#
# _framework density 17.108934000000001
#
# number of rings (size 3 to 8) (size 9 to 14) (size 15 to 20)
#    0.000    3.333    0.000    2.500    0.000    3.000 
#    0.000    5.000    0.000    1.500    0.000    4.667 
#    0.000    0.000    0.000    0.000    0.000    0.000 
#
# Total GULP energy -594878.386454 kJ/mol
# GULP energy per Si atom -12393.299718 kJ/mol
# Density = 1.706999 g / cm^3
# Si number density = 17.108934 Si / 1000 Ang^3
#
#
#
# Elastic Constant Matrix: (Units=GPa)
#
#
# Indices 1 2 3 4 5 6 
#
# 1 38.2912 34.8929 53.1873 0.0000 0.0000 0.0000
# 2 34.8929 84.9701 81.9900 0.0000 0.0000 0.0000
# 3 53.1873 81.9900 174.9603 0.0000 0.0000 0.0000
# 4 0.0000 0.0000 0.0000 10.7594 0.0000 0.0000
# 5 0.0000 0.0000 0.0000 0.0000 23.9485 0.0000
# 6 0.0000 0.0000 0.0000 0.0000 0.0000 16.9158
#
#
#
# Elastic Compliance Matrix: (Units=1/GPa)
#
#
# Indices 1 2 3 4 5 6 
#
# 1 0.050030 -0.010714 -0.010188 0.000000 0.000000 0.000000
# 2 -0.010714 0.023778 -0.007886 0.000000 0.000000 0.000000
# 3 -0.010188 -0.007886 0.012508 0.000000 0.000000 0.000000
# 4 0.000000 0.000000 0.000000 0.092942 0.000000 0.000000
# 5 0.000000 0.000000 0.000000 0.000000 0.041756 0.000000
# 6 0.000000 0.000000 0.000000 0.000000 0.000000 0.059116
#
#
# Mechanical properties :
#
#
# Convention : Reuss Voigt Hill
#
# Bulk Modulus (GPa) = 34.79424 70.92910 52.86167
# Shear Modulus (GPa) = 14.39732 18.86817 16.63275
#
# Velocity S-wave (km/s) = 2.90402 3.32448 3.12134
# Velocity P-wave (km/s) = 5.62366 7.50224 6.62982
#
# Compressibility (1/GPa) = 0.02874039
#
# Stress axis : x y z
#
# Youngs Moduli (GPa) = 19.98781 42.05635 79.94778
#
# Poissons Ratio (x) = 0.45059 0.81453
# Poissons Ratio (y) = 0.21415 0.63044
# Poissons Ratio (z) = 0.20364 0.33164
#
# Static dielectric constant tensor:
#      x y z
#    x 3.030930 0.000000 0.000000 
#    y 0.000000 3.062300 0.000000 
#    z 0.000000 0.000000 3.609770 
# 
# 
# High freq. dielectric constant tensor:
#      x y z
#    x 1.618850 0.000000 0.000000 
#    y 0.000000 1.638850 0.000000 
#    z 0.000000 0.000000 1.676830 
# 
# From -- ./inp_files/36504.got.cif
#   From: 2010.03.12/outbox.cif.g09.slc.cpg/sg51_19_cif.got.tgz:36504.got - 2010.04.16 13:43:02.
