data_PCOD8210181
_publ_section_title
;
Structure prediction by ZEFSAII (Michael W. Deem and Ramdas Pophale) SiO2 
 PCOD8210181
Probable space group: P M M A
;
_chemical_formula_sum "Si O2"
_cell_formula_units_Z 56
_cell_length_a 18.726231
_cell_length_b 9.391037
_cell_length_c 17.788899
_cell_angle_alpha 90.000000
_cell_angle_beta 90.000000
_cell_angle_gamma 90.000000
_cell_volume 3128.333154
_symmetry_space_group_name_H-M "P M M A"
_symmetry_group_IT_number 51
_symmetry_cell_setting 'orthorhombic'
loop_
_space_group_symop_operation_xyz
x,y,z
1/2-x,-y,z
1/2+x,-y,-z
-x,y,-z
-x,-y,-z
1/2+x,y,-z
1/2-x,y,z
x,-y,z
loop_
_atom_site_type_symbol
_atom_site_label
_atom_site_fract_x
_atom_site_fract_y
_atom_site_fract_z
Si Si1 0.666454 0.168542 0.348881
Si Si2 0.041551 0.157681 0.310206
Si Si3 0.042081 0.332456 0.575803
Si Si4 0.064247 0.664256 0.948680
Si Si5 0.830340 0.662205 0.922738
Si Si6 0.417121 0.158194 0.799289
Si Si7 0.830075 0.164161 0.785489
O O1 0.750000 0.211339 0.357804
O O2 0.617777 0.249584 0.411779
O O3 0.638610 0.211786 0.265402
O O4 0.655415 0.000000 0.361103
O O5 0.123281 0.191829 0.288981
O O6 0.013983 0.284246 0.361601
O O7 0.996494 0.155111 0.233708
O O8 0.035400 0.000000 0.348650
O O9 0.057737 0.500000 0.581729
O O10 0.000000 0.292535 0.500000
O O11 0.047332 0.500000 0.930028
O O12 0.080487 0.740461 0.870699
O O13 0.134783 0.686641 0.996978
O O14 0.000000 0.727653 0.000000
O O15 0.750000 0.713881 0.933674
O O16 0.836944 0.500000 0.896849
O O17 0.865308 0.753307 0.855790
O O18 0.394108 0.000000 0.825471
O O19 0.750000 0.219243 0.767932
O O20 0.830365 0.000000 0.807772
#
# Coordination Sequence:
#
# PCOD8210181 Si02
#       7
#     8   8   8   8   8   8   8
#     4   9  19  37  59  82 108 138 173 213 258 309
#     4   9  18  33  52  73  99 130 163 202 248 298
#     4  10  21  36  55  81 110 138 169 205 245 293
#     4  10  20  31  43  63  92 126 166 211 255 300
#     4   9  18  31  44  60  87 123 159 196 244 300
#     4   9  18  31  48  71  96 125 164 209 255 302
#     4   9  17  30  49  72  95 121 160 208 251 293
#
# _framework density 17.900905999999999
#
# number of rings (size 3 to 8) (size 9 to 14) (size 15 to 20)
#    0.000    2.714    0.000    2.143    0.000    5.714 
#    0.000    0.714    0.000    2.571    0.000    0.000 
#    0.000    0.000    0.000    0.000    0.000    0.000 
#
# Total GULP energy -694000.313763 kJ/mol
# GULP energy per Si atom -12392.862746 kJ/mol
# Density = 1.786016 g / cm^3
# Si number density = 17.900906 Si / 1000 Ang^3
#
#
#
# Elastic Constant Matrix: (Units=GPa)
#
#
# Indices 1 2 3 4 5 6 
#
# 1 104.4084 43.9048 54.8351 0.0000 0.0000 0.0000
# 2 43.9048 64.3186 48.8843 0.0000 0.0000 0.0000
# 3 54.8351 48.8843 86.7688 0.0000 0.0000 0.0000
# 4 0.0000 0.0000 0.0000 19.5846 0.0000 0.0000
# 5 0.0000 0.0000 0.0000 0.0000 19.9512 0.0000
# 6 0.0000 0.0000 0.0000 0.0000 0.0000 22.8258
#
#
#
# Elastic Compliance Matrix: (Units=1/GPa)
#
#
# Indices 1 2 3 4 5 6 
#
# 1 0.015349 -0.005430 -0.006641 0.000000 0.000000 0.000000
# 2 -0.005430 0.029111 -0.012969 0.000000 0.000000 0.000000
# 3 -0.006641 -0.012969 0.023028 0.000000 0.000000 0.000000
# 4 0.000000 0.000000 0.000000 0.051060 0.000000 0.000000
# 5 0.000000 0.000000 0.000000 0.000000 0.050122 0.000000
# 6 0.000000 0.000000 0.000000 0.000000 0.000000 0.043810
#
#
# Mechanical properties :
#
#
# Convention : Reuss Voigt Hill
#
# Bulk Modulus (GPa) = 57.44394 61.19380 59.31887
# Shear Modulus (GPa) = 18.63138 19.66377 19.14758
#
# Velocity S-wave (km/s) = 3.22965 3.31793 3.27409
# Velocity P-wave (km/s) = 6.78728 6.99551 6.89218
#
# Compressibility (1/GPa) = 0.01740828
#
# Stress axis : x y z
#
# Youngs Moduli (GPa) = 65.15114 34.35083 43.42486
#
# Poissons Ratio (x) = 0.18653 0.28837
# Poissons Ratio (y) = 0.35378 0.56319
# Poissons Ratio (z) = 0.43265 0.44550
#
# Static dielectric constant tensor:
#      x y z
#    x 3.584330 0.000000 0.000000 
#    y 0.000000 3.276550 0.000000 
#    z 0.000000 0.000000 3.134350 
# 
# 
# High freq. dielectric constant tensor:
#      x y z
#    x 1.699280 0.000000 0.000000 
#    y 0.000000 1.688130 0.000000 
#    z 0.000000 0.000000 1.673490 
# 
# From -- ./inp_files/25733.got.cif
#   From: 2010.03.12/outbox.cif.g09.slc.cpg/sg51_13_cif.got.tgz:25733.got - 2010.04.16 13:43:02.
