data_PCOD8210122
_publ_section_title
;
Structure prediction by ZEFSAII (Michael W. Deem and Ramdas Pophale) SiO2 
 PCOD8210122
Probable space group: P M M A
;
_chemical_formula_sum "Si O2"
_cell_formula_units_Z 38
_cell_length_a 15.332229
_cell_length_b 11.236331
_cell_length_c 11.665192
_cell_angle_alpha 90.000000
_cell_angle_beta 90.000000
_cell_angle_gamma 90.000000
_cell_volume 2009.655948
_symmetry_space_group_name_H-M "P M M A"
_symmetry_group_IT_number 51
_symmetry_cell_setting 'orthorhombic'
loop_
_space_group_symop_operation_xyz
x,y,z
1/2-x,-y,z
1/2+x,-y,-z
-x,y,-z
-x,-y,-z
1/2+x,y,-z
1/2-x,y,z
x,-y,z
loop_
_atom_site_type_symbol
_atom_site_label
_atom_site_fract_x
_atom_site_fract_y
_atom_site_fract_z
Si Si1 0.652234 0.000000 0.189470
Si Si2 0.750000 0.747609 0.866430
Si Si3 0.094282 0.747398 0.743420
Si Si4 0.850966 0.364998 0.484641
Si Si5 0.250000 0.360933 0.884523
Si Si6 0.750000 0.000000 0.966892
Si Si7 0.911216 0.638613 0.736489
O O1 0.597047 0.887439 0.231624
O O2 0.750000 0.000000 0.245355
O O3 0.664313 0.000000 0.050469
O O4 0.834675 0.709060 0.797535
O O5 0.750000 0.888985 0.881560
O O6 0.750000 0.688862 0.989443
O O7 0.113429 0.725630 0.609675
O O8 0.165197 0.681888 0.819272
O O9 0.001155 0.695209 0.779658
O O10 0.750000 0.340268 0.511356
O O11 0.864260 0.500000 0.439340
O O12 0.905301 0.344857 0.599986
O O13 0.250000 0.500000 0.889344
O O14 0.905855 0.500000 0.770458
#
# Coordination Sequence:
#
# PCOD8210122 Si02
#       7
#     4   4   8   8   4   2   8
#     4  10  20  45  64  87 126 169 211 267 317 361
#     4  12  24  45  64  86 131 174 215 256 320 381
#     4  12  22  39  67  96 125 166 217 261 314 379
#     4  10  19  37  65  94 131 171 204 254 324 386
#     4  12  22  37  62  92 121 155 209 271 316 371
#     4  10  22  48  68  82 120 178 224 256 310 378
#     4  11  24  41  63  98 136 169 205 265 330 381
#
# _framework density 18.908709000000002
#
# number of rings (size 3 to 8) (size 9 to 14) (size 15 to 20)
#    0.316    0.632    5.263    3.474    0.000    3.368 
#    0.000    6.316    0.000    0.000    0.000    0.000 
#    0.000    0.000    0.000    0.000    0.000    0.000 
#
# Total GULP energy -471336.378134 kJ/mol
# GULP energy per Si atom -12403.588898 kJ/mol
# Density = 1.886567 g / cm^3
# Si number density = 18.908709 Si / 1000 Ang^3
#
#
#
# Elastic Constant Matrix: (Units=GPa)
#
#
# Indices 1 2 3 4 5 6 
#
# 1 126.0289 52.9044 36.4586 0.0000 0.0000 0.0000
# 2 52.9044 179.4051 58.3778 0.0000 0.0000 0.0000
# 3 36.4586 58.3778 90.4782 0.0000 0.0000 0.0000
# 4 0.0000 0.0000 0.0000 40.8793 0.0000 0.0000
# 5 0.0000 0.0000 0.0000 0.0000 17.8785 0.0000
# 6 0.0000 0.0000 0.0000 0.0000 0.0000 28.1381
#
#
#
# Elastic Compliance Matrix: (Units=1/GPa)
#
#
# Indices 1 2 3 4 5 6 
#
# 1 0.009501 -0.001970 -0.002558 0.000000 0.000000 0.000000
# 2 -0.001970 0.007463 -0.004022 0.000000 0.000000 0.000000
# 3 -0.002558 -0.004022 0.014678 0.000000 0.000000 0.000000
# 4 0.000000 0.000000 0.000000 0.024462 0.000000 0.000000
# 5 0.000000 0.000000 0.000000 0.000000 0.055933 0.000000
# 6 0.000000 0.000000 0.000000 0.000000 0.000000 0.035539
#
#
# Mechanical properties :
#
#
# Convention : Reuss Voigt Hill
#
# Bulk Modulus (GPa) = 68.75519 76.82154 72.78837
# Shear Modulus (GPa) = 29.49431 33.92394 31.70913
#
# Velocity S-wave (km/s) = 3.95375 4.24027 4.09951
# Velocity P-wave (km/s) = 7.56858 8.04294 7.80937
#
# Compressibility (1/GPa) = 0.01454436
#
# Stress axis : x y z
#
# Youngs Moduli (GPa) = 105.24747 133.98569 68.12875
#
# Poissons Ratio (x) = 0.26389 0.17426
# Poissons Ratio (y) = 0.20729 0.27401
# Poissons Ratio (z) = 0.26921 0.53888
#
# Static dielectric constant tensor:
#      x y z
#    x 3.502480 0.000000 0.000000 
#    y 0.000000 3.565130 0.000000 
#    z 0.000000 0.000000 3.429820 
# 
# 
# High freq. dielectric constant tensor:
#      x y z
#    x 1.741230 0.000000 0.000000 
#    y 0.000000 1.733600 0.000000 
#    z 0.000000 0.000000 1.734910 
# 
# From -- ./inp_files/16260.got.cif
#   From: 2010.03.12/outbox.cif.g09.slc.cpg/sg51_9_cif.got.tgz:16260.got - 2010.04.16 13:43:02.
