data_PCOD8210104
_publ_section_title
;
Structure prediction by ZEFSAII (Michael W. Deem and Ramdas Pophale) SiO2 
 PCOD8210104
Probable space group: P M M A
;
_chemical_formula_sum "Si O2"
_cell_formula_units_Z 48
_cell_length_a 8.791131
_cell_length_b 10.313712
_cell_length_c 28.059139
_cell_angle_alpha 90.000000
_cell_angle_beta 90.000000
_cell_angle_gamma 90.000000
_cell_volume 2544.099497
_symmetry_space_group_name_H-M "P M M A"
_symmetry_group_IT_number 51
_symmetry_cell_setting 'orthorhombic'
loop_
_space_group_symop_operation_xyz
x,y,z
1/2-x,-y,z
1/2+x,-y,-z
-x,y,-z
-x,-y,-z
1/2+x,y,-z
1/2-x,y,z
x,-y,z
loop_
_atom_site_type_symbol
_atom_site_label
_atom_site_fract_x
_atom_site_fract_y
_atom_site_fract_z
Si Si1 0.072217 0.353773 0.048057
Si Si2 0.070965 0.000000 0.801959
Si Si3 0.929612 0.752081 0.351754
Si Si4 0.070077 0.243559 0.147933
Si Si5 0.424124 0.500000 0.308333
Si Si6 0.578508 0.500000 0.804040
Si Si7 0.571829 0.353653 0.451883
Si Si8 0.569794 0.000000 0.697430
O O1 0.250000 0.358614 0.040322
O O2 0.010725 0.500000 0.057832
O O3 0.031315 0.260538 0.092154
O O4 0.000000 0.295100 0.000000
O O5 0.022187 0.123460 0.832214
O O6 0.250000 0.000000 0.793830
O O7 0.992931 0.000000 0.750611
O O8 0.750000 0.767485 0.343880
O O9 0.971376 0.738232 0.407632
O O10 0.985962 0.625138 0.325111
O O11 0.015339 0.875011 0.331173
O O12 0.250000 0.222697 0.156948
O O13 0.003869 0.369300 0.175571
O O14 0.250000 0.500000 0.327081
O O15 0.428044 0.500000 0.252051
O O16 0.750000 0.500000 0.824135
O O17 0.500000 0.294868 0.500000
O O18 0.750000 0.358389 0.459113
O O19 0.509829 0.500000 0.442383
O O20 0.750000 0.000000 0.700230
#
# Coordination Sequence:
#
# PCOD8210104 Si02
#       8
#     8   4   8   8   4   4   8   4
#     4   9  17  31  55  86 118 151 187 233 290 346
#     4  12  26  42  59  84 117 156 195 238 296 354
#     4  11  22  40  61  86 121 158 196 246 304 352
#     4  10  19  37  61  84 113 152 194 239 289 346
#     4  11  21  33  56  89 118 152 197 247 296 354
#     4   9  18  33  56  83 109 138 186 241 286 336
#     4   9  18  34  57  87 120 155 192 238 294 349
#     4  12  26  44  63  86 115 156 205 246 294 362
#
# _framework density 18.867186
#
# number of rings (size 3 to 8) (size 9 to 14) (size 15 to 20)
#    0.000    1.833    1.667    3.250    0.000    3.333 
#    0.000    2.083    0.000    0.000    0.000    0.000 
#    0.000    0.000    0.000    0.000    0.000    0.000 
#
# Total GULP energy -595202.267883 kJ/mol
# GULP energy per Si atom -12400.047248 kJ/mol
# Density = 1.882424 g / cm^3
# Si number density = 18.867186 Si / 1000 Ang^3
#
#
#
# Elastic Constant Matrix: (Units=GPa)
#
#
# Indices 1 2 3 4 5 6 
#
# 1 89.2711 53.1094 64.6042 0.0000 0.0000 0.0000
# 2 53.1094 143.1443 73.8408 0.0000 0.0000 0.0000
# 3 64.6042 73.8408 149.8627 0.0000 0.0000 0.0000
# 4 0.0000 0.0000 0.0000 26.6022 0.0000 0.0000
# 5 0.0000 0.0000 0.0000 0.0000 34.8301 0.0000
# 6 0.0000 0.0000 0.0000 0.0000 0.0000 29.5968
#
#
#
# Elastic Compliance Matrix: (Units=1/GPa)
#
#
# Indices 1 2 3 4 5 6 
#
# 1 0.017489 -0.003485 -0.005822 0.000000 0.000000 0.000000
# 2 -0.003485 0.010061 -0.003455 0.000000 0.000000 0.000000
# 3 -0.005822 -0.003455 0.010885 0.000000 0.000000 0.000000
# 4 0.000000 0.000000 0.000000 0.037591 0.000000 0.000000
# 5 0.000000 0.000000 0.000000 0.000000 0.028711 0.000000
# 6 0.000000 0.000000 0.000000 0.000000 0.000000 0.033787
#
#
# Mechanical properties :
#
#
# Convention : Reuss Voigt Hill
#
# Bulk Modulus (GPa) = 77.45681 85.04298 81.24990
# Shear Modulus (GPa) = 29.69976 30.92072 30.31024
#
# Velocity S-wave (km/s) = 3.97186 4.05268 4.01247
# Velocity P-wave (km/s) = 7.88524 8.18971 8.03892
#
# Compressibility (1/GPa) = 0.01291042
#
# Stress axis : x y z
#
# Youngs Moduli (GPa) = 57.18034 99.39034 91.87139
#
# Poissons Ratio (x) = 0.34642 0.53485
# Poissons Ratio (y) = 0.19930 0.31741
# Poissons Ratio (z) = 0.33289 0.34339
#
# Static dielectric constant tensor:
#      x y z
#    x 3.430470 0.000000 0.000000 
#    y 0.000000 3.391910 0.000000 
#    z 0.000000 0.000000 3.702500 
# 
# 
# High freq. dielectric constant tensor:
#      x y z
#    x 1.724210 0.000000 0.000000 
#    y 0.000000 1.721990 0.000000 
#    z 0.000000 0.000000 1.750720 
# 
# From -- ./inp_files/37273.got.cif
#   From: 2010.03.12/outbox.cif.g09.slc.cpg/sg51_19_cif.got.tgz:37273.got - 2010.04.16 13:43:02.
