data_PCOD8210216
_publ_section_title
;
Structure prediction by ZEFSAII (Michael W. Deem and Ramdas Pophale) SiO2 
 PCOD8210216
Probable space group: P M M A
;
_chemical_formula_sum "Si O2"
_cell_formula_units_Z 64
_cell_length_a 9.146425
_cell_length_b 23.201585
_cell_length_c 18.977305
_cell_angle_alpha 90.000000
_cell_angle_beta 90.000000
_cell_angle_gamma 90.000000
_cell_volume 4027.203443
_symmetry_space_group_name_H-M "P M M A"
_symmetry_group_IT_number 51
_symmetry_cell_setting 'orthorhombic'
loop_
_space_group_symop_operation_xyz
x,y,z
1/2-x,-y,z
1/2+x,-y,-z
-x,y,-z
-x,-y,-z
1/2+x,y,-z
1/2-x,y,z
x,-y,z
loop_
_atom_site_type_symbol
_atom_site_label
_atom_site_fract_x
_atom_site_fract_y
_atom_site_fract_z
Si Si1 0.581025 0.432710 0.428533
Si Si2 0.918930 0.168268 0.307444
Si Si3 0.579728 0.769747 0.573854
Si Si4 0.079707 0.752165 0.931855
Si Si5 0.923718 0.935741 0.214378
Si Si6 0.417843 0.717775 0.779520
Si Si7 0.077784 0.115278 0.930874
Si Si8 0.580069 0.656015 0.662067
O O1 0.500000 0.414503 0.500000
O O2 0.750000 0.414927 0.436084
O O3 0.562521 0.500000 0.413072
O O4 0.507905 0.399724 0.363616
O O5 0.750000 0.163352 0.330371
O O6 0.979350 0.108904 0.273646
O O7 0.939584 0.217747 0.249278
O O8 0.014703 0.180570 0.376400
O O9 0.500000 0.771962 0.500000
O O10 0.750000 0.781550 0.562966
O O11 0.549590 0.707665 0.607923
O O12 0.250000 0.747438 0.946173
O O13 0.036323 0.716982 0.861584
O O14 0.032696 0.818242 0.920972
O O15 0.000000 0.725085 0.000000
O O16 0.750000 0.931751 0.211892
O O17 0.982671 0.918850 0.137067
O O18 0.978024 0.000000 0.233890
O O19 0.250000 0.698539 0.769393
O O20 0.521330 0.672929 0.739131
O O21 0.250000 0.107561 0.939946
O O22 0.000000 0.089338 0.000000
O O23 0.750000 0.640683 0.667698
#
# Coordination Sequence:
#
# PCOD8210216 Si02
#       8
#     8   8   8   8   8   8   8   8
#     4  10  20  33  49  69  96 132 168 196 222 255
#     4   9  16  29  47  64  84 111 143 179 222 271
#     4  10  20  32  47  69  92 114 141 177 222 268
#     4   9  16  26  41  61  86 118 152 185 224 272
#     4   9  16  27  45  65  84 110 146 184 220 267
#     4   9  16  28  45  63  87 119 153 188 229 273
#     4   9  16  27  41  60  85 114 148 182 218 262
#     4  10  20  31  46  70  97 123 154 190 227 265
#
# _framework density 15.891920000000001
#
# number of rings (size 3 to 8) (size 9 to 14) (size 15 to 20)
#    0.000    2.625    1.250    1.500    0.000    4.000 
#    0.000    0.625    0.000    1.500    0.000    0.000 
#    0.000    0.500    0.000    1.625    0.000    2.000 
#
# Total GULP energy -793603.343741 kJ/mol
# GULP energy per Si atom -12400.052246 kJ/mol
# Density = 1.585575 g / cm^3
# Si number density = 15.891920 Si / 1000 Ang^3
#
#
#
# Elastic Constant Matrix: (Units=GPa)
#
#
# Indices 1 2 3 4 5 6 
#
# 1 74.8098 37.8763 55.7909 0.0000 0.0000 0.0000
# 2 37.8763 61.6791 42.0875 0.0000 0.0000 0.0000
# 3 55.7909 42.0875 118.3190 0.0000 0.0000 0.0000
# 4 0.0000 0.0000 0.0000 24.0407 0.0000 0.0000
# 5 0.0000 0.0000 0.0000 0.0000 30.5455 0.0000
# 6 0.0000 0.0000 0.0000 0.0000 0.0000 15.7996
#
#
#
# Elastic Compliance Matrix: (Units=1/GPa)
#
#
# Indices 1 2 3 4 5 6 
#
# 1 0.024072 -0.009292 -0.008045 0.000000 0.000000 0.000000
# 2 -0.009292 0.024997 -0.004510 0.000000 0.000000 0.000000
# 3 -0.008045 -0.004510 0.013850 0.000000 0.000000 0.000000
# 4 0.000000 0.000000 0.000000 0.041596 0.000000 0.000000
# 5 0.000000 0.000000 0.000000 0.000000 0.032738 0.000000
# 6 0.000000 0.000000 0.000000 0.000000 0.000000 0.063293
#
#
# Mechanical properties :
#
#
# Convention : Reuss Voigt Hill
#
# Bulk Modulus (GPa) = 52.02120 58.47970 55.25045
# Shear Modulus (GPa) = 19.94830 22.01404 20.98117
#
# Velocity S-wave (km/s) = 3.54679 3.72591 3.63745
# Velocity P-wave (km/s) = 7.04119 7.44232 7.24454
#
# Compressibility (1/GPa) = 0.01922293
#
# Stress axis : x y z
#
# Youngs Moduli (GPa) = 41.54234 40.00514 72.20471
#
# Poissons Ratio (x) = 0.37175 0.58090
# Poissons Ratio (y) = 0.38603 0.32564
# Poissons Ratio (z) = 0.33421 0.18042
#
# Static dielectric constant tensor:
#      x y z
#    x 2.960660 0.000000 0.000000 
#    y 0.000000 2.851460 0.000000 
#    z 0.000000 0.000000 3.084580 
# 
# 
# High freq. dielectric constant tensor:
#      x y z
#    x 1.604170 0.000000 0.000000 
#    y 0.000000 1.578550 0.000000 
#    z 0.000000 0.000000 1.609060 
# 
# From -- ./inp_files/28629.got.cif
#   From: 2010.03.12/outbox.cif.g09.slc.cpg/sg51_15_cif.got.tgz:28629.got - 2010.04.16 13:43:02.
