data_PCOD8210200
_publ_section_title
;
Structure prediction by ZEFSAII (Michael W. Deem and Ramdas Pophale) SiO2 
 PCOD8210200
Probable space group: P M M A
;
_chemical_formula_sum "Si O2"
_cell_formula_units_Z 64
_cell_length_a 15.099564
_cell_length_b 9.306613
_cell_length_c 24.388761
_cell_angle_alpha 90.000000
_cell_angle_beta 90.000000
_cell_angle_gamma 90.000000
_cell_volume 3427.250117
_symmetry_space_group_name_H-M "P M M A"
_symmetry_group_IT_number 51
_symmetry_cell_setting 'orthorhombic'
loop_
_space_group_symop_operation_xyz
x,y,z
1/2-x,-y,z
1/2+x,-y,-z
-x,y,-z
-x,-y,-z
1/2+x,y,-z
1/2-x,y,z
x,-y,z
loop_
_atom_site_type_symbol
_atom_site_label
_atom_site_fract_x
_atom_site_fract_y
_atom_site_fract_z
Si Si1 0.009119 0.170503 0.802693
Si Si2 0.651466 0.828220 0.874730
Si Si3 0.650783 0.171879 0.109925
Si Si4 0.145265 0.843487 0.007539
Si Si5 0.851250 0.666412 0.613129
Si Si6 0.147878 0.666609 0.597805
Si Si7 0.509487 0.666178 0.309240
Si Si8 0.144976 0.161470 0.492515
O O1 0.086503 0.227847 0.842509
O O2 0.022861 0.238352 0.743833
O O3 0.915737 0.223574 0.827899
O O4 0.012289 0.000000 0.796504
O O5 0.750000 0.773401 0.858975
O O6 0.621174 0.764493 0.934732
O O7 0.651107 0.000000 0.879702
O O8 0.750000 0.225996 0.123720
O O9 0.648936 0.000000 0.106304
O O10 0.618028 0.233931 0.050034
O O11 0.250000 0.862914 0.005923
O O12 0.099374 0.000000 0.008428
O O13 0.750000 0.707022 0.628767
O O14 0.858687 0.500000 0.596435
O O15 0.887541 0.757036 0.561798
O O16 0.913876 0.701987 0.664502
O O17 0.250000 0.704380 0.611379
O O18 0.137230 0.500000 0.582386
O O19 0.088730 0.707818 0.649837
O O20 0.110672 0.756914 0.546458
O O21 0.515064 0.500000 0.292634
O O22 0.250000 0.161527 0.493142
O O23 0.106629 0.000000 0.492269
#
# Coordination Sequence:
#
# PCOD8210200 Si02
#       8
#     8   8   8   8   8   8   8   8
#     4  10  20  31  45  67  92 120 156 194 233 276
#     4   8  14  25  41  64  94 122 148 185 233 280
#     4   8  14  25  41  64  94 122 148 185 233 280
#     4   7  10  19  37  61  90 120 146 178 226 280
#     4   9  18  34  54  72  93 124 158 191 228 271
#     4   9  18  34  54  72  93 124 158 191 228 271
#     4  10  22  37  50  67  92 124 165 202 227 264
#     4   9  17  30  51  80 107 125 146 183 233 284
#
# _framework density 18.673864999999999
#
# number of rings (size 3 to 8) (size 9 to 14) (size 15 to 20)
#    0.000    3.250    0.000    1.875    0.000    4.500 
#    0.000    5.000    0.000    0.000    0.000    1.750 
#    0.000    3.000    0.000    0.000    0.000    0.000 
#
# Total GULP energy -793040.040741 kJ/mol
# GULP energy per Si atom -12391.250637 kJ/mol
# Density = 1.863136 g / cm^3
# Si number density = 18.673865 Si / 1000 Ang^3
#
#
#
# Elastic Constant Matrix: (Units=GPa)
#
#
# Indices 1 2 3 4 5 6 
#
# 1 44.2107 3.2228 -0.3835 0.0000 0.0000 0.0000
# 2 3.2228 35.3159 22.7801 0.0000 0.0000 0.0000
# 3 -0.3835 22.7801 77.5317 0.0000 0.0000 0.0000
# 4 0.0000 0.0000 0.0000 0.9570 0.0000 0.0000
# 5 0.0000 0.0000 0.0000 0.0000 28.0553 0.0000
# 6 0.0000 0.0000 0.0000 0.0000 0.0000 10.6244
#
#
#
# Elastic Compliance Matrix: (Units=1/GPa)
#
#
# Indices 1 2 3 4 5 6 
#
# 1 0.022821 -0.002659 0.000894 0.000000 0.000000 0.000000
# 2 -0.002659 0.035247 -0.010369 0.000000 0.000000 0.000000
# 3 0.000894 -0.010369 0.015949 0.000000 0.000000 0.000000
# 4 0.000000 0.000000 0.000000 1.044882 0.000000 0.000000
# 5 0.000000 0.000000 0.000000 0.000000 0.035644 0.000000
# 6 0.000000 0.000000 0.000000 0.000000 0.000000 0.094123
#
#
# Mechanical properties :
#
#
# Convention : Reuss Voigt Hill
#
# Bulk Modulus (GPa) = 20.10136 23.14413 21.62274
# Shear Modulus (GPa) = 3.87742 16.68996 10.28369
#
# Velocity S-wave (km/s) = 1.44253 2.99283 2.34924
# Velocity P-wave (km/s) = 3.68271 4.93593 4.35464
#
# Compressibility (1/GPa) = 0.04974789
#
# Stress axis : x y z
#
# Youngs Moduli (GPa) = 43.82009 28.37108 62.69961
#
# Poissons Ratio (x) = 0.07545 -0.05607
# Poissons Ratio (y) = 0.11653 0.65016
# Poissons Ratio (z) = -0.03919 0.29419
#
# Static dielectric constant tensor:
#      x y z
#    x 3.534340 0.000000 0.000000 
#    y 0.000000 2.990740 0.000000 
#    z 0.000000 0.000000 3.531270 
# 
# 
# High freq. dielectric constant tensor:
#      x y z
#    x 1.726310 0.000000 0.000000 
#    y 0.000000 1.666780 0.000000 
#    z 0.000000 0.000000 1.729680 
# 
# From -- ./inp_files/35677.got.cif
#   From: 2010.03.12/outbox.cif.g09.slc.cpg/sg51_18_cif.got.tgz:35677.got - 2010.04.16 13:43:02.
