data_PCOD8210101
_publ_section_title
;
Structure prediction by ZEFSAII (Michael W. Deem and Ramdas Pophale) SiO2 
 PCOD8210101
Probable space group: P M M A
;
_chemical_formula_sum "Si O2"
_cell_formula_units_Z 48
_cell_length_a 19.029559
_cell_length_b 8.517433
_cell_length_c 14.972909
_cell_angle_alpha 90.000000
_cell_angle_beta 90.000000
_cell_angle_gamma 90.000000
_cell_volume 2426.853917
_symmetry_space_group_name_H-M "P M M A"
_symmetry_group_IT_number 51
_symmetry_cell_setting 'orthorhombic'
loop_
_space_group_symop_operation_xyz
x,y,z
1/2-x,-y,z
1/2+x,-y,-z
-x,y,-z
-x,-y,-z
1/2+x,y,-z
1/2-x,y,z
x,-y,z
loop_
_atom_site_type_symbol
_atom_site_label
_atom_site_fract_x
_atom_site_fract_y
_atom_site_fract_z
Si Si1 0.573434 0.818507 0.048817
Si Si2 0.442846 0.319697 0.761428
Si Si3 0.089440 0.183407 0.281615
Si Si4 0.168793 0.818428 0.633443
Si Si5 0.170157 0.318003 0.445522
Si Si6 0.828810 0.186729 0.891636
O O1 0.577714 0.714906 0.136879
O O2 0.584497 0.000000 0.075177
O O3 0.500000 0.794583 0.000000
O O4 0.633955 0.756421 0.982327
O O5 0.465225 0.500000 0.752010
O O6 0.506765 0.211070 0.729191
O O7 0.375589 0.286669 0.700712
O O8 0.117720 0.276522 0.366318
O O9 0.129005 0.249981 0.194127
O O10 0.104079 0.000000 0.295344
O O11 0.250000 0.774792 0.648842
O O12 0.147159 0.780778 0.531891
O O13 0.153824 0.000000 0.652963
O O14 0.250000 0.275521 0.417090
O O15 0.163015 0.500000 0.469674
O O16 0.750000 0.254723 0.889426
O O17 0.829303 0.000000 0.889091
#
# Coordination Sequence:
#
# PCOD8210101 Si02
#       6
#     8   8   8   8   8   8
#     4  10  19  37  60  83 114 154 199 244 293 351
#     4  12  25  39  59  88 122 157 196 244 306 364
#     4  11  21  37  60  87 119 157 205 249 291 350
#     4  10  22  42  66  89 114 152 203 250 292 349
#     4  10  21  38  60  89 126 161 192 239 304 360
#     4   9  18  33  57  87 115 148 196 251 296 339
#
# _framework density 19.778694000000002
#
# number of rings (size 3 to 8) (size 9 to 14) (size 15 to 20)
#    0.000    1.667    1.667    3.500    0.000    4.333 
#    0.000    5.000    0.000    2.000    0.000    0.000 
#    0.000    0.000    0.000    0.000    0.000    0.000 
#
# Total GULP energy -595460.667902 kJ/mol
# GULP energy per Si atom -12405.430581 kJ/mol
# Density = 1.973368 g / cm^3
# Si number density = 19.778694 Si / 1000 Ang^3
#
#
#
# Elastic Constant Matrix: (Units=GPa)
#
#
# Indices 1 2 3 4 5 6 
#
# 1 100.2757 17.9431 51.6572 0.0000 0.0000 0.0000
# 2 17.9431 49.0898 20.8504 0.0000 0.0000 0.0000
# 3 51.6572 20.8504 115.8033 0.0000 0.0000 0.0000
# 4 0.0000 0.0000 0.0000 -77.1430 0.0000 0.0000
# 5 0.0000 0.0000 0.0000 0.0000 36.8573 0.0000
# 6 0.0000 0.0000 0.0000 0.0000 0.0000 22.6055
#
#
#
# Elastic Compliance Matrix: (Units=1/GPa)
#
#
# Indices 1 2 3 4 5 6 
#
# 1 0.013230 -0.002522 -0.005448 0.000000 0.000000 0.000000
# 2 -0.002522 0.022538 -0.002933 0.000000 0.000000 0.000000
# 3 -0.005448 -0.002933 0.011593 0.000000 0.000000 0.000000
# 4 0.000000 0.000000 0.000000 -0.012963 0.000000 0.000000
# 5 0.000000 0.000000 0.000000 0.000000 0.027132 0.000000
# 6 0.000000 0.000000 0.000000 0.000000 0.000000 0.044237
#
#
# Mechanical properties :
#
#
# Convention : Reuss Voigt Hill
#
# Bulk Modulus (GPa) = 39.12856 49.56335 44.34596
# Shear Modulus (GPa) = 36.73986 8.11182 22.42584
#
# Velocity S-wave (km/s) = 4.31460 2.02736 3.37090
# Velocity P-wave (km/s) = 6.68186 5.53115 6.13355
#
# Compressibility (1/GPa) = 0.02555678
#
# Stress axis : x y z
#
# Youngs Moduli (GPa) = 75.58511 44.36864 86.25555
#
# Poissons Ratio (x) = 0.11190 0.46988
# Poissons Ratio (y) = 0.19063 0.25299
# Poissons Ratio (z) = 0.41175 0.13013
#
# Static dielectric constant tensor:
#      x y z
#    x 3.671880 0.000000 0.000000 
#    y 0.000000 3.370700 0.000000 
#    z 0.000000 0.000000 3.693440 
# 
# 
# High freq. dielectric constant tensor:
#      x y z
#    x 1.773780 0.000000 0.000000 
#    y 0.000000 1.757070 0.000000 
#    z 0.000000 0.000000 1.780450 
# 
# From -- ./inp_files/24683.got.cif
#   From: 2010.03.12/outbox.cif.g09.slc.cpg/sg51_13_cif.got.tgz:24683.got - 2010.04.16 13:43:02.
