data_PCOD8210569
_publ_section_title
;
Structure prediction by ZEFSAII (Michael W. Deem and Ramdas Pophale) SiO2 
 PCOD8210569
Probable space group: P M M A
;
_chemical_formula_sum "Si O2"
_cell_formula_units_Z 56
_cell_length_a 14.022500
_cell_length_b 9.191661
_cell_length_c 23.031497
_cell_angle_alpha 90.000000
_cell_angle_beta 90.000000
_cell_angle_gamma 90.000000
_cell_volume 2968.531177
_symmetry_space_group_name_H-M "P M M A"
_symmetry_group_IT_number 51
_symmetry_cell_setting 'orthorhombic'
loop_
_space_group_symop_operation_xyz
x,y,z
1/2-x,-y,z
1/2+x,-y,-z
-x,y,-z
-x,-y,-z
1/2+x,y,-z
1/2-x,y,z
x,-y,z
loop_
_atom_site_type_symbol
_atom_site_label
_atom_site_fract_x
_atom_site_fract_y
_atom_site_fract_z
Si Si1 0.647612 0.834546 0.587726
Si Si2 0.356841 0.667285 0.079603
Si Si3 0.861528 0.669100 0.258368
Si Si4 0.045055 0.667290 0.861695
Si Si5 0.893473 0.338343 0.478767
Si Si6 0.137331 0.164673 0.966312
Si Si7 0.945358 0.172043 0.367978
O O1 0.750000 0.821868 0.621636
O O2 0.663043 0.740622 0.529821
O O3 0.558091 0.784425 0.627178
O O4 0.627974 0.000000 0.568053
O O5 0.250000 0.718373 0.098306
O O6 0.354647 0.500000 0.060108
O O7 0.430247 0.690545 0.133053
O O8 0.397857 0.756767 0.024970
O O9 0.750000 0.702752 0.249451
O O10 0.878336 0.500000 0.273130
O O11 0.919257 0.717158 0.201212
O O12 0.904570 0.767049 0.308654
O O13 0.073105 0.500000 0.872252
O O14 0.097623 0.761096 0.909363
O O15 0.851219 0.500000 0.467454
O O16 0.885753 0.244690 0.420088
O O17 0.000000 0.350666 0.500000
O O18 0.250000 0.174770 0.963180
O O19 0.100515 0.000000 0.968672
O O20 0.929828 0.000000 0.369995
#
# Coordination Sequence:
#
# PCOD8210569 Si02
#       7
#     8   8   8   8   8   8   8
#     4   9  18  33  53  78 108 139 170 206 251 304
#     4   9  18  33  53  77 105 136 169 205 249 305
#     4  10  22  39  56  74  99 132 170 214 261 305
#     4  10  20  35  55  76 100 134 174 213 254 301
#     4   9  17  30  50  76 105 135 168 208 252 296
#     4  10  20  32  49  77 110 139 168 207 255 303
#     4  10  20  35  55  77 103 137 175 213 253 301
#
# _framework density 18.864549
#
# number of rings (size 3 to 8) (size 9 to 14) (size 15 to 20)
#    0.000    2.429    0.000    2.143    0.000    7.714 
#    0.000    0.714    0.000    0.857    0.000    0.000 
#    0.000    0.000    0.000    0.000    0.000    0.000 
#
# Total GULP energy -694185.455291 kJ/mol
# GULP energy per Si atom -12396.168844 kJ/mol
# Density = 1.882161 g / cm^3
# Si number density = 18.864549 Si / 1000 Ang^3
#
#
#
# Elastic Constant Matrix: (Units=GPa)
#
#
# Indices 1 2 3 4 5 6 
#
# 1 68.7139 40.4775 59.3226 0.0000 0.0000 0.0000
# 2 40.4775 92.1022 59.8286 0.0000 0.0000 0.0000
# 3 59.3226 59.8286 122.5298 0.0000 0.0000 0.0000
# 4 0.0000 0.0000 0.0000 10.1639 0.0000 0.0000
# 5 0.0000 0.0000 0.0000 0.0000 24.0861 0.0000
# 6 0.0000 0.0000 0.0000 0.0000 0.0000 16.3731
#
#
#
# Elastic Compliance Matrix: (Units=1/GPa)
#
#
# Indices 1 2 3 4 5 6 
#
# 1 0.026395 -0.004832 -0.010420 0.000000 0.000000 0.000000
# 2 -0.004832 0.016785 -0.005857 0.000000 0.000000 0.000000
# 3 -0.010420 -0.005857 0.016066 0.000000 0.000000 0.000000
# 4 0.000000 0.000000 0.000000 0.098388 0.000000 0.000000
# 5 0.000000 0.000000 0.000000 0.000000 0.041518 0.000000
# 6 0.000000 0.000000 0.000000 0.000000 0.000000 0.061076
#
#
# Mechanical properties :
#
#
# Convention : Reuss Voigt Hill
#
# Bulk Modulus (GPa) = 58.72085 66.95593 62.83839
# Shear Modulus (GPa) = 16.22743 18.37245 17.29994
#
# Velocity S-wave (km/s) = 2.93611 3.12415 3.03159
# Velocity P-wave (km/s) = 6.53372 6.97020 6.75549
#
# Compressibility (1/GPa) = 0.01702973
#
# Stress axis : x y z
#
# Youngs Moduli (GPa) = 37.88580 59.57573 62.24386
#
# Poissons Ratio (x) = 0.28784 0.64858
# Poissons Ratio (y) = 0.18305 0.36455
# Poissons Ratio (z) = 0.39477 0.34892
#
# Static dielectric constant tensor:
#      x y z
#    x 3.738800 0.000000 0.000000 
#    y 0.000000 3.637160 0.000000 
#    z 0.000000 0.000000 3.267280 
# 
# 
# High freq. dielectric constant tensor:
#      x y z
#    x 1.748320 0.000000 0.000000 
#    y 0.000000 1.736060 0.000000 
#    z 0.000000 0.000000 1.704660 
# 
# From -- ./inp_files/33494.got.cif
#   From: 2010.03.12/outbox.cif.g09.slc.cpg/sg51_17_cif.got.tgz:33494.got - 2010.04.16 13:43:02.
