data_PCOD8210920
_publ_section_title
;
Structure prediction by ZEFSAII (Michael W. Deem and Ramdas Pophale) SiO2 
 PCOD8210920
Probable space group: P M M A
;
_chemical_formula_sum "Si O2"
_cell_formula_units_Z 48
_cell_length_a 18.815153
_cell_length_b 9.186285
_cell_length_c 14.865340
_cell_angle_alpha 90.000000
_cell_angle_beta 90.000000
_cell_angle_gamma 90.000000
_cell_volume 2569.345549
_symmetry_space_group_name_H-M "P M M A"
_symmetry_group_IT_number 51
_symmetry_cell_setting 'orthorhombic'
loop_
_space_group_symop_operation_xyz
x,y,z
1/2-x,-y,z
1/2+x,-y,-z
-x,y,-z
-x,-y,-z
1/2+x,y,-z
1/2-x,y,z
x,-y,z
loop_
_atom_site_type_symbol
_atom_site_label
_atom_site_fract_x
_atom_site_fract_y
_atom_site_fract_z
Si Si1 0.067601 0.326291 0.670870
Si Si2 0.102122 0.328272 0.056602
Si Si3 0.170530 0.833507 0.205366
Si Si4 0.548429 0.671998 0.128210
Si Si5 0.425197 0.171357 0.369056
Si Si6 0.167600 0.830918 0.542097
O O1 0.064338 0.500000 0.664065
O O2 0.071766 0.269782 0.774256
O O3 0.138260 0.266627 0.623580
O O4 0.998456 0.259211 0.622340
O O5 0.110333 0.500000 0.065515
O O6 0.165290 0.253520 0.111631
O O7 0.029491 0.270308 0.102328
O O8 0.103346 0.280681 0.951090
O O9 0.250000 0.814688 0.243594
O O10 0.116185 0.774188 0.280316
O O11 0.153468 0.000000 0.184182
O O12 0.544499 0.500000 0.130236
O O13 0.375615 0.210396 0.452945
O O14 0.442014 0.000000 0.365948
O O15 0.250000 0.792644 0.526584
O O16 0.157619 0.000000 0.566483
#
# Coordination Sequence:
#
# PCOD8210920 Si02
#       6
#     8   8   8   8   8   8
#     4  11  21  35  57  85 111 136 173 227 276 313
#     4   9  16  32  54  74 100 138 179 213 253 314
#     4  10  20  33  50  77 112 143 174 221 275 318
#     4   8  16  31  53  77 103 135 172 215 260 309
#     4  10  20  36  57  79 105 142 183 219 262 322
#     4  10  22  40  58  76 104 145 186 219 259 319
#
# _framework density 18.681799999999999
#
# number of rings (size 3 to 8) (size 9 to 14) (size 15 to 20)
#    0.000    2.333    1.667    2.500    0.000    5.333 
#    0.000    4.167    0.000    8.000    0.000    0.000 
#    0.000    0.000    0.000    0.000    0.000    0.000 
#
# Total GULP energy -595093.150554 kJ/mol
# GULP energy per Si atom -12397.773970 kJ/mol
# Density = 1.863928 g / cm^3
# Si number density = 18.681800 Si / 1000 Ang^3
#
#
#
# Elastic Constant Matrix: (Units=GPa)
#
#
# Indices 1 2 3 4 5 6 
#
# 1 75.1951 29.1438 47.7293 0.0000 0.0000 0.0000
# 2 29.1438 47.4661 41.7752 0.0000 0.0000 0.0000
# 3 47.7293 41.7752 132.8869 0.0000 0.0000 0.0000
# 4 0.0000 0.0000 0.0000 26.6050 0.0000 0.0000
# 5 0.0000 0.0000 0.0000 0.0000 26.6781 0.0000
# 6 0.0000 0.0000 0.0000 0.0000 0.0000 22.1311
#
#
#
# Elastic Compliance Matrix: (Units=1/GPa)
#
#
# Indices 1 2 3 4 5 6 
#
# 1 0.019146 -0.007885 -0.004398 0.000000 0.000000 0.000000
# 2 -0.007885 0.032373 -0.007345 0.000000 0.000000 0.000000
# 3 -0.004398 -0.007345 0.011414 0.000000 0.000000 0.000000
# 4 0.000000 0.000000 0.000000 0.037587 0.000000 0.000000
# 5 0.000000 0.000000 0.000000 0.000000 0.037484 0.000000
# 6 0.000000 0.000000 0.000000 0.000000 0.000000 0.045185
#
#
# Mechanical properties :
#
#
# Convention : Reuss Voigt Hill
#
# Bulk Modulus (GPa) = 42.23417 54.76053 48.49735
# Shear Modulus (GPa) = 21.70718 24.20949 22.95833
#
# Velocity S-wave (km/s) = 3.41243 3.60375 3.50939
# Velocity P-wave (km/s) = 6.17919 6.83314 6.51438
#
# Compressibility (1/GPa) = 0.02367751
#
# Stress axis : x y z
#
# Youngs Moduli (GPa) = 52.22916 30.88957 87.61233
#
# Poissons Ratio (x) = 0.24356 0.38533
# Poissons Ratio (y) = 0.41182 0.64352
# Poissons Ratio (z) = 0.22971 0.22689
#
# Static dielectric constant tensor:
#      x y z
#    x 3.299480 0.000000 0.000000 
#    y 0.000000 3.161840 0.000000 
#    z 0.000000 0.000000 3.785550 
# 
# 
# High freq. dielectric constant tensor:
#      x y z
#    x 1.711200 0.000000 0.000000 
#    y 0.000000 1.702250 0.000000 
#    z 0.000000 0.000000 1.737490 
# 
# From -- ./inp_files/24738.got.cif
#   From: 2010.03.12/outbox.cif.g09.slc.cpg/sg51_13_cif.got.tgz:24738.got - 2010.04.16 13:43:02.
