data_PCOD8210432
_publ_section_title
;
Structure prediction by ZEFSAII (Michael W. Deem and Ramdas Pophale) SiO2 
 PCOD8210432
Probable space group: P M M A
;
_chemical_formula_sum "Si O2"
_cell_formula_units_Z 48
_cell_length_a 8.857237
_cell_length_b 15.117722
_cell_length_c 18.922160
_cell_angle_alpha 90.000000
_cell_angle_beta 90.000000
_cell_angle_gamma 90.000000
_cell_volume 2533.700813
_symmetry_space_group_name_H-M "P M M A"
_symmetry_group_IT_number 51
_symmetry_cell_setting 'orthorhombic'
loop_
_space_group_symop_operation_xyz
x,y,z
1/2-x,-y,z
1/2+x,-y,-z
-x,y,-z
-x,-y,-z
1/2+x,y,-z
1/2-x,y,z
x,-y,z
loop_
_atom_site_type_symbol
_atom_site_label
_atom_site_fract_x
_atom_site_fract_y
_atom_site_fract_z
Si Si1 0.570789 0.098400 0.317722
Si Si2 0.429555 0.097852 0.840397
Si Si3 0.429471 0.753450 0.575144
Si Si4 0.928309 0.263875 0.074826
Si Si5 0.573708 0.397696 0.659602
Si Si6 0.575626 0.601677 0.194672
O O1 0.750000 0.101994 0.317730
O O2 0.510803 0.119333 0.238626
O O3 0.507366 0.171440 0.371553
O O4 0.516509 0.000000 0.340738
O O5 0.250000 0.101284 0.839006
O O6 0.491883 0.170550 0.895177
O O7 0.484900 0.000000 0.864081
O O8 0.500000 0.775629 0.500000
O O9 0.250000 0.753652 0.569631
O O10 0.484222 0.657787 0.601230
O O11 0.750000 0.261054 0.065879
O O12 0.978236 0.341033 0.128210
O O13 0.000000 0.285182 0.000000
O O14 0.750000 0.378654 0.652070
O O15 0.534161 0.500000 0.645843
O O16 0.521079 0.369504 0.737696
O O17 0.750000 0.620650 0.213170
O O18 0.547756 0.500000 0.174505
#
# Coordination Sequence:
#
# PCOD8210432 Si02
#       6
#     8   8   8   8   8   8
#     4   8  15  30  53  78 101 130 172 217 258 303
#     4   8  14  27  48  71  94 124 165 209 249 293
#     4  11  22  35  53  78 109 143 175 210 255 306
#     4  10  20  32  47  71 102 135 169 205 249 299
#     4  10  21  37  57  80 104 132 170 216 263 310
#     4   9  18  34  55  76  98 128 168 211 254 304
#
# _framework density 18.944618999999999
#
# number of rings (size 3 to 8) (size 9 to 14) (size 15 to 20)
#    0.000    2.667    0.000    3.000    0.000    5.667 
#    0.000    0.000    0.000    1.500    0.000    4.667 
#    0.000    0.000    0.000    0.000    0.000    0.000 
#
# Total GULP energy -595162.579209 kJ/mol
# GULP energy per Si atom -12399.220400 kJ/mol
# Density = 1.890150 g / cm^3
# Si number density = 18.944619 Si / 1000 Ang^3
#
#
#
# Elastic Constant Matrix: (Units=GPa)
#
#
# Indices 1 2 3 4 5 6 
#
# 1 36.9483 17.0951 16.1061 0.0000 0.0000 0.0000
# 2 17.0951 75.6365 26.7589 0.0000 0.0000 0.0000
# 3 16.1061 26.7589 72.0527 0.0000 0.0000 0.0000
# 4 0.0000 0.0000 0.0000 23.9883 0.0000 0.0000
# 5 0.0000 0.0000 0.0000 0.0000 31.5643 0.0000
# 6 0.0000 0.0000 0.0000 0.0000 0.0000 15.2850
#
#
#
# Elastic Compliance Matrix: (Units=1/GPa)
#
#
# Indices 1 2 3 4 5 6 
#
# 1 0.031778 -0.005376 -0.005107 0.000000 0.000000 0.000000
# 2 -0.005376 0.016130 -0.004789 0.000000 0.000000 0.000000
# 3 -0.005107 -0.004789 0.016799 0.000000 0.000000 0.000000
# 4 0.000000 0.000000 0.000000 0.041687 0.000000 0.000000
# 5 0.000000 0.000000 0.000000 0.000000 0.031681 0.000000
# 6 0.000000 0.000000 0.000000 0.000000 0.000000 0.065424
#
#
# Mechanical properties :
#
#
# Convention : Reuss Voigt Hill
#
# Bulk Modulus (GPa) = 29.27032 33.83975 31.55504
# Shear Modulus (GPa) = 20.37237 22.47935 21.42586
#
# Velocity S-wave (km/s) = 3.28283 3.44842 3.36664
# Velocity P-wave (km/s) = 5.46382 5.81005 5.63959
#
# Compressibility (1/GPa) = 0.03416430
#
# Stress axis : x y z
#
# Youngs Moduli (GPa) = 31.46807 61.99505 59.52800
#
# Poissons Ratio (x) = 0.33326 0.30401
# Poissons Ratio (y) = 0.16916 0.28507
# Poissons Ratio (z) = 0.16071 0.29689
#
# Static dielectric constant tensor:
#      x y z
#    x 3.102280 0.000000 0.000000 
#    y 0.000000 3.804080 0.000000 
#    z 0.000000 0.000000 3.518570 
# 
# 
# High freq. dielectric constant tensor:
#      x y z
#    x 1.698900 0.000000 0.000000 
#    y 0.000000 1.750810 0.000000 
#    z 0.000000 0.000000 1.733860 
# 
# From -- ./inp_files/27521.got.cif
#   From: 2010.03.12/outbox.cif.g09.slc.cpg/sg51_14_cif.got.tgz:27521.got - 2010.04.16 13:43:02.
