data_PCOD8210003
_publ_section_title
;
Structure prediction by ZEFSAII (Michael W. Deem and Ramdas Pophale) SiO2 
 PCOD8210003
Probable space group: P M M A
;
_chemical_formula_sum "Si O2"
_cell_formula_units_Z 48
_cell_length_a 18.779694
_cell_length_b 13.916543
_cell_length_c 9.147194
_cell_angle_alpha 90.000000
_cell_angle_beta 90.000000
_cell_angle_gamma 90.000000
_cell_volume 2390.604691
_symmetry_space_group_name_H-M "P M M A"
_symmetry_group_IT_number 51
_symmetry_cell_setting 'orthorhombic'
loop_
_space_group_symop_operation_xyz
x,y,z
1/2-x,-y,z
1/2+x,-y,-z
-x,y,-z
-x,-y,-z
1/2+x,y,-z
1/2-x,y,z
x,-y,z
loop_
_atom_site_type_symbol
_atom_site_label
_atom_site_fract_x
_atom_site_fract_y
_atom_site_fract_z
Si Si1 0.830314 0.612614 0.886471
Si Si2 0.666286 0.298904 0.582800
Si Si3 0.333686 0.895551 0.288420
Si Si4 0.432200 0.727852 0.905943
Si Si5 0.440851 0.388244 0.621710
Si Si6 0.332042 0.110236 0.950349
O O1 0.750000 0.652101 0.911246
O O2 0.833619 0.500000 0.906798
O O3 0.855451 0.637982 0.723175
O O4 0.881468 0.656936 0.005848
O O5 0.750000 0.298548 0.557164
O O6 0.636982 0.189719 0.608492
O O7 0.633106 0.346773 0.439735
O O8 0.250000 0.903808 0.308854
O O9 0.367903 0.000000 0.328793
O O10 0.349235 0.869173 0.120256
O O11 0.461385 0.671912 0.764778
O O12 0.385940 0.821817 0.859805
O O13 0.500000 0.760526 0.000000
O O14 0.500000 0.370520 0.500000
O O15 0.432816 0.500000 0.662295
O O16 0.250000 0.134968 0.913367
O O17 0.347850 0.000000 0.909602
#
# Coordination Sequence:
#
# PCOD8210003 Si02
#       6
#     8   8   8   8   8   8
#     4  10  20  35  58  87 116 148 195 251 301 353
#     4  10  19  35  60  87 116 151 192 238 291 352
#     4   8  14  28  56  90 117 145 183 227 278 341
#     4  12  24  38  61  88 117 154 201 253 301 350
#     4  11  26  44  58  77 115 162 204 242 295 360
#     4   9  18  36  63  93 123 153 189 238 296 354
#
# _framework density 20.078602
#
# number of rings (size 3 to 8) (size 9 to 14) (size 15 to 20)
#    0.000    2.000    1.667    3.500    0.000    5.333 
#    0.000    0.833    0.000    3.000    0.000    0.000 
#    0.000    0.000    0.000    0.000    0.000    0.000 
#
# Total GULP energy -595147.954690 kJ/mol
# GULP energy per Si atom -12398.915723 kJ/mol
# Density = 2.003290 g / cm^3
# Si number density = 20.078602 Si / 1000 Ang^3
#
#
#
# Elastic Constant Matrix: (Units=GPa)
#
#
# Indices 1 2 3 4 5 6 
#
# 1 73.1810 53.4637 32.1080 0.0000 0.0000 0.0000
# 2 53.4637 125.0312 35.6937 0.0000 0.0000 0.0000
# 3 32.1080 35.6937 60.4857 0.0000 0.0000 0.0000
# 4 0.0000 0.0000 0.0000 27.7694 0.0000 0.0000
# 5 0.0000 0.0000 0.0000 0.0000 27.8759 0.0000
# 6 0.0000 0.0000 0.0000 0.0000 0.0000 15.3943
#
#
#
# Elastic Compliance Matrix: (Units=1/GPa)
#
#
# Indices 1 2 3 4 5 6 
#
# 1 0.022382 -0.007431 -0.007496 0.000000 0.000000 0.000000
# 2 -0.007431 0.012085 -0.003187 0.000000 0.000000 0.000000
# 3 -0.007496 -0.003187 0.022393 0.000000 0.000000 0.000000
# 4 0.000000 0.000000 0.000000 0.036011 0.000000 0.000000
# 5 0.000000 0.000000 0.000000 0.000000 0.035873 0.000000
# 6 0.000000 0.000000 0.000000 0.000000 0.000000 0.064959
#
#
# Mechanical properties :
#
#
# Convention : Reuss Voigt Hill
#
# Bulk Modulus (GPa) = 48.46834 55.69208 52.08021
# Shear Modulus (GPa) = 21.11394 23.37007 22.24200
#
# Velocity S-wave (km/s) = 3.24630 3.41534 3.33189
# Velocity P-wave (km/s) = 6.18409 6.58407 6.38721
#
# Compressibility (1/GPa) = 0.02063203
#
# Stress axis : x y z
#
# Youngs Moduli (GPa) = 44.67788 82.74515 44.65670
#
# Poissons Ratio (x) = 0.61486 0.33476
# Poissons Ratio (y) = 0.33199 0.14233
# Poissons Ratio (z) = 0.33492 0.26373
#
# Static dielectric constant tensor:
#      x y z
#    x 3.553100 0.000000 0.000000 
#    y 0.000000 4.129450 0.000000 
#    z 0.000000 0.000000 3.401790 
# 
# 
# High freq. dielectric constant tensor:
#      x y z
#    x 1.768260 0.000000 0.000000 
#    y 0.000000 1.803710 0.000000 
#    z 0.000000 0.000000 1.752080 
# 
# From -- ./inp_files/9598.got.cif
#   From: 2010.03.12/outbox.cif.g09.slc.cpg/sg51_5_cif.got.tgz:9598.got - 2010.04.16 13:43:02.
