data_PCOD8210095
_publ_section_title
;
Structure prediction by ZEFSAII (Michael W. Deem and Ramdas Pophale) SiO2 
 PCOD8210095
Probable space group: P M M A
;
_chemical_formula_sum "Si O2"
_cell_formula_units_Z 48
_cell_length_a 15.133954
_cell_length_b 16.800415
_cell_length_c 9.709643
_cell_angle_alpha 90.000000
_cell_angle_beta 90.000000
_cell_angle_gamma 90.000000
_cell_volume 2468.741863
_symmetry_space_group_name_H-M "P M M A"
_symmetry_group_IT_number 51
_symmetry_cell_setting 'orthorhombic'
loop_
_space_group_symop_operation_xyz
x,y,z
1/2-x,-y,z
1/2+x,-y,-z
-x,y,-z
-x,-y,-z
1/2+x,y,-z
1/2-x,y,z
x,-y,z
loop_
_atom_site_type_symbol
_atom_site_label
_atom_site_fract_x
_atom_site_fract_y
_atom_site_fract_z
Si Si1 0.148120 0.271687 0.785221
Si Si2 0.846706 0.341664 0.737661
Si Si3 0.601087 0.225238 0.508162
Si Si4 0.017189 0.589912 0.841503
Si Si5 0.650092 0.801168 0.942556
Si Si6 0.855427 0.910097 0.707614
O O1 0.250000 0.294309 0.818201
O O2 0.142739 0.223224 0.643566
O O3 0.090821 0.352151 0.777171
O O4 0.108242 0.213814 0.905819
O O5 0.750000 0.383918 0.743758
O O6 0.849586 0.292472 0.596076
O O7 0.926080 0.404367 0.753571
O O8 0.857124 0.281913 0.864257
O O9 0.500000 0.249985 0.500000
O O10 0.610943 0.137983 0.574754
O O11 0.052694 0.500000 0.827112
O O12 0.000000 0.611653 0.000000
O O13 0.750000 0.828463 0.965755
O O14 0.605164 0.870023 0.848289
O O15 0.750000 0.905926 0.709397
O O16 0.890734 0.000000 0.697713
#
# Coordination Sequence:
#
# PCOD8210095 Si02
#       6
#     8   8   8   8   8   8
#     4  11  21  37  58  85 116 150 195 241 288 343
#     4  10  19  37  58  81 111 151 199 236 277 342
#     4  11  21  35  59  85 115 152 195 242 288 344
#     4  11  23  37  58  89 118 147 188 241 299 344
#     4   8  16  31  56  80 104 146 193 232 275 333
#     4   9  18  35  57  83 116 154 194 235 284 343
#
# _framework density 19.443102
#
# number of rings (size 3 to 8) (size 9 to 14) (size 15 to 20)
#    0.000    2.000    3.333    2.500    0.000    1.000 
#    0.000    4.167    0.000    6.000    0.000    0.000 
#    0.000    0.000    0.000    0.000    0.000    0.000 
#
# Total GULP energy -594971.890236 kJ/mol
# GULP energy per Si atom -12395.247713 kJ/mol
# Density = 1.939885 g / cm^3
# Si number density = 19.443102 Si / 1000 Ang^3
#
#
#
# Elastic Constant Matrix: (Units=GPa)
#
#
# Indices 1 2 3 4 5 6 
#
# 1 82.1404 31.5970 20.8410 0.0000 0.0000 0.0000
# 2 31.5970 97.3711 54.2880 0.0000 0.0000 0.0000
# 3 20.8410 54.2880 153.0076 0.0000 0.0000 0.0000
# 4 0.0000 0.0000 0.0000 18.4113 0.0000 0.0000
# 5 0.0000 0.0000 0.0000 0.0000 25.3867 0.0000
# 6 0.0000 0.0000 0.0000 0.0000 0.0000 20.5889
#
#
#
# Elastic Compliance Matrix: (Units=1/GPa)
#
#
# Indices 1 2 3 4 5 6 
#
# 1 0.013927 -0.004315 -0.000366 0.000000 0.000000 0.000000
# 2 -0.004315 0.014140 -0.004429 0.000000 0.000000 0.000000
# 3 -0.000366 -0.004429 0.008157 0.000000 0.000000 0.000000
# 4 0.000000 0.000000 0.000000 0.054314 0.000000 0.000000
# 5 0.000000 0.000000 0.000000 0.000000 0.039391 0.000000
# 6 0.000000 0.000000 0.000000 0.000000 0.000000 0.048570
#
#
# Mechanical properties :
#
#
# Convention : Reuss Voigt Hill
#
# Bulk Modulus (GPa) = 55.54594 60.66345 58.10470
# Shear Modulus (GPa) = 24.66452 27.93025 26.29738
#
# Velocity S-wave (km/s) = 3.56553 3.79425 3.68167
# Velocity P-wave (km/s) = 6.75138 7.10375 6.92981
#
# Compressibility (1/GPa) = 0.01800311
#
# Stress axis : x y z
#
# Youngs Moduli (GPa) = 71.80241 70.72293 122.59535
#
# Poissons Ratio (x) = 0.30519 0.04486
# Poissons Ratio (y) = 0.30985 0.54298
# Poissons Ratio (z) = 0.02627 0.31324
#
# Static dielectric constant tensor:
#      x y z
#    x 3.538450 0.000000 0.000000 
#    y 0.000000 3.336420 0.000000 
#    z 0.000000 0.000000 3.754730 
# 
# 
# High freq. dielectric constant tensor:
#      x y z
#    x 1.750850 0.000000 0.000000 
#    y 0.000000 1.724190 0.000000 
#    z 0.000000 0.000000 1.763970 
# 
# From -- ./inp_files/8202.got.cif
#   From: 2010.03.12/outbox.cif.g09.slc.cpg/sg51_5_cif.got.tgz:8202.got - 2010.04.16 13:43:02.
