data_PCOD8210239
_publ_section_title
;
Structure prediction by ZEFSAII (Michael W. Deem and Ramdas Pophale) SiO2 
 PCOD8210239
Probable space group: P M M A
;
_chemical_formula_sum "Si O2"
_cell_formula_units_Z 64
_cell_length_a 21.608167
_cell_length_b 9.389896
_cell_length_c 19.115410
_cell_angle_alpha 90.000000
_cell_angle_beta 90.000000
_cell_angle_gamma 90.000000
_cell_volume 3878.486886
_symmetry_space_group_name_H-M "P M M A"
_symmetry_group_IT_number 51
_symmetry_cell_setting 'orthorhombic'
loop_
_space_group_symop_operation_xyz
x,y,z
1/2-x,-y,z
1/2+x,-y,-z
-x,y,-z
-x,-y,-z
1/2+x,y,-z
1/2-x,y,z
x,-y,z
loop_
_atom_site_type_symbol
_atom_site_label
_atom_site_fract_x
_atom_site_fract_y
_atom_site_fract_z
Si Si1 0.492909 0.330905 0.178259
Si Si2 0.488549 0.833154 0.322707
Si Si3 0.117130 0.667173 0.904278
Si Si4 0.628844 0.164595 0.341894
Si Si5 0.180082 0.664562 0.533551
Si Si6 0.057595 0.666760 0.449456
Si Si7 0.180008 0.157465 0.800873
Si Si8 0.935851 0.343258 0.959280
O O1 0.484908 0.500000 0.192520
O O2 0.480207 0.241764 0.247816
O O3 0.560428 0.298296 0.147694
O O4 0.444908 0.273505 0.117599
O O5 0.556499 0.810791 0.355169
O O6 0.443725 0.757854 0.378322
O O7 0.472444 0.000000 0.314744
O O8 0.128663 0.500000 0.909855
O O9 0.175327 0.744047 0.869385
O O10 0.108803 0.732686 0.983344
O O11 0.671080 0.249483 0.395489
O O12 0.642059 0.222389 0.264075
O O13 0.647713 0.000000 0.347930
O O14 0.250000 0.695788 0.503877
O O15 0.173175 0.500000 0.552913
O O16 0.124906 0.707546 0.480837
O O17 0.053517 0.500000 0.431107
O O18 0.000000 0.708713 0.500000
O O19 0.250000 0.150440 0.776299
O O20 0.154604 0.000000 0.819358
O O21 0.909434 0.500000 0.944328
O O22 0.000000 0.358777 0.000000
#
# Coordination Sequence:
#
# PCOD8210239 Si02
#       8
#     8   8   8   8   8   8   8   8
#     4   9  16  28  47  68  93 123 153 187 236 290
#     4  11  21  31  48  73 100 129 163 200 238 284
#     4   9  16  27  45  66  89 118 156 199 236 274
#     4  10  20  33  48  66  95 133 167 198 234 283
#     4  10  21  36  54  75  96 121 160 207 245 284
#     4  10  20  35  53  72  97 128 160 196 246 299
#     4  10  20  32  43  59  91 133 169 197 232 280
#     4   7  12  24  42  65  89 115 146 181 224 273
#
# _framework density 16.501280999999999
#
# number of rings (size 3 to 8) (size 9 to 14) (size 15 to 20)
#    0.000    2.500    2.500    2.250    0.000    2.750 
#    0.000    0.625    0.000    2.250    0.000    0.875 
#    0.000    3.000    0.000    0.000    0.000    0.000 
#
# Total GULP energy -792864.477172 kJ/mol
# GULP energy per Si atom -12388.507456 kJ/mol
# Density = 1.646372 g / cm^3
# Si number density = 16.501281 Si / 1000 Ang^3
#
#
#
# Elastic Constant Matrix: (Units=GPa)
#
#
# Indices 1 2 3 4 5 6 
#
# 1 71.0951 26.6243 42.0646 0.0000 0.0000 0.0000
# 2 26.6243 52.9192 52.4424 0.0000 0.0000 0.0000
# 3 42.0646 52.4424 112.9439 0.0000 0.0000 0.0000
# 4 0.0000 0.0000 0.0000 1.3260 0.0000 0.0000
# 5 0.0000 0.0000 0.0000 0.0000 23.1691 0.0000
# 6 0.0000 0.0000 0.0000 0.0000 0.0000 15.9616
#
#
#
# Elastic Compliance Matrix: (Units=1/GPa)
#
#
# Indices 1 2 3 4 5 6 
#
# 1 0.018633 -0.004626 -0.004792 0.000000 0.000000 0.000000
# 2 -0.004626 0.036152 -0.015063 0.000000 0.000000 0.000000
# 3 -0.004792 -0.015063 0.017633 0.000000 0.000000 0.000000
# 4 0.000000 0.000000 0.000000 0.754145 0.000000 0.000000
# 5 0.000000 0.000000 0.000000 0.000000 0.043161 0.000000
# 6 0.000000 0.000000 0.000000 0.000000 0.000000 0.062650
#
#
# Mechanical properties :
#
#
# Convention : Reuss Voigt Hill
#
# Bulk Modulus (GPa) = 42.63347 53.24676 47.94011
# Shear Modulus (GPa) = 5.05482 15.81312 10.43397
#
# Velocity S-wave (km/s) = 1.75212 3.09900 2.51731
# Velocity P-wave (km/s) = 5.47593 6.71888 6.12899
#
# Compressibility (1/GPa) = 0.02345575
#
# Stress axis : x y z
#
# Youngs Moduli (GPa) = 53.66775 27.66134 56.71279
#
# Poissons Ratio (x) = 0.12796 0.27175
# Poissons Ratio (y) = 0.24827 0.85427
# Poissons Ratio (z) = 0.25716 0.41667
#
# Static dielectric constant tensor:
#      x y z
#    x 3.020290 0.000000 0.000000 
#    y 0.000000 2.967830 0.000000 
#    z 0.000000 0.000000 3.190570 
# 
# 
# High freq. dielectric constant tensor:
#      x y z
#    x 1.603970 0.000000 0.000000 
#    y 0.000000 1.621670 0.000000 
#    z 0.000000 0.000000 1.636190 
# 
# From -- ./inp_files/30870.got.cif
#   From: 2010.03.12/outbox.cif.g09.slc.cpg/sg51_16_cif.got.tgz:30870.got - 2010.04.16 13:43:02.
