data_PCOD8210661
_publ_section_title
;
Structure prediction by ZEFSAII (Michael W. Deem and Ramdas Pophale) SiO2 
 PCOD8210661
Probable space group: P M M A
;
_chemical_formula_sum "Si O2"
_cell_formula_units_Z 56
_cell_length_a 8.908341
_cell_length_b 15.049008
_cell_length_c 30.911767
_cell_angle_alpha 90.000000
_cell_angle_beta 90.000000
_cell_angle_gamma 90.000000
_cell_volume 4144.083879
_symmetry_space_group_name_H-M "P M M A"
_symmetry_group_IT_number 51
_symmetry_cell_setting 'orthorhombic'
loop_
_space_group_symop_operation_xyz
x,y,z
1/2-x,-y,z
1/2+x,-y,-z
-x,y,-z
-x,-y,-z
1/2+x,y,-z
1/2-x,y,z
x,-y,z
loop_
_atom_site_type_symbol
_atom_site_label
_atom_site_fract_x
_atom_site_fract_y
_atom_site_fract_z
Si Si1 0.419062 0.894045 0.957177
Si Si2 0.080917 0.894057 0.128468
Si Si3 0.074269 0.596454 0.546601
Si Si4 0.928325 0.769681 0.547272
Si Si5 0.922414 0.105053 0.386498
Si Si6 0.580788 0.105994 0.214206
Si Si7 0.581167 0.105676 0.700360
O O1 0.250000 0.858030 0.956915
O O2 0.501638 0.856887 0.914617
O O3 0.422172 0.000000 0.957188
O O4 0.500000 0.856890 0.000000
O O5 0.250000 0.857967 0.129380
O O6 0.996053 0.857134 0.170689
O O7 0.078160 0.000000 0.128368
O O8 0.250000 0.618371 0.542029
O O9 0.051283 0.500000 0.570097
O O10 0.000000 0.589848 0.500000
O O11 0.990767 0.678763 0.570251
O O12 0.750000 0.766984 0.543724
O O13 0.000000 0.780557 0.500000
O O14 0.978363 0.852894 0.575745
O O15 0.750000 0.134939 0.390766
O O16 0.983986 0.138605 0.340319
O O17 0.939794 0.000000 0.390967
O O18 0.750000 0.142054 0.215978
O O19 0.492318 0.143547 0.255768
O O20 0.578660 0.000000 0.214306
O O21 0.750000 0.142995 0.696227
O O22 0.582720 0.000000 0.702130
#
# Coordination Sequence:
#
# PCOD8210661 Si02
#       7
#     8   8   8   8   8   8   8
#     4   9  15  21  27  34  45  62  83 106 134 172
#     4   9  15  21  28  38  51  66  85 111 143 178
#     4   9  16  27  44  64  84 103 122 145 173 205
#     4  11  21  32  46  62  81 102 124 150 177 208
#     4  10  20  33  46  58  74  97 124 152 180 211
#     4   9  15  22  32  45  59  74  93 119 152 188
#     4   9  16  26  39  53  67  83 105 133 165 200
#
# _framework density 13.513239
#
# number of rings (size 3 to 8) (size 9 to 14) (size 15 to 20)
#    0.000    2.571    0.000    4.714    0.000    8.857 
#    0.000    0.000    0.000    0.000    0.000    0.000 
#    0.000    0.000    0.000    0.000    0.000    0.000 
#
# Total GULP energy -694117.083541 kJ/mol
# GULP energy per Si atom -12394.947920 kJ/mol
# Density = 1.348248 g / cm^3
# Si number density = 13.513239 Si / 1000 Ang^3
#
#
#
# Elastic Constant Matrix: (Units=GPa)
#
#
# Indices 1 2 3 4 5 6 
#
# 1 133.3136 22.2307 54.1114 0.0000 0.0000 0.0000
# 2 22.2307 21.3648 21.7298 0.0000 0.0000 0.0000
# 3 54.1114 21.7298 98.4055 0.0000 0.0000 0.0000
# 4 0.0000 0.0000 0.0000 0.2471 0.0000 0.0000
# 5 0.0000 0.0000 0.0000 0.0000 28.5314 0.0000
# 6 0.0000 0.0000 0.0000 0.0000 0.0000 12.2376
#
#
#
# Elastic Compliance Matrix: (Units=1/GPa)
#
#
# Indices 1 2 3 4 5 6 
#
# 1 0.010290 -0.006387 -0.004248 0.000000 0.000000 0.000000
# 2 -0.006387 0.064327 -0.010693 0.000000 0.000000 0.000000
# 3 -0.004248 -0.010693 0.014859 0.000000 0.000000 0.000000
# 4 0.000000 0.000000 0.000000 4.047153 0.000000 0.000000
# 5 0.000000 0.000000 0.000000 0.000000 0.035049 0.000000
# 6 0.000000 0.000000 0.000000 0.000000 0.000000 0.081715
#
#
# Mechanical properties :
#
#
# Convention : Reuss Voigt Hill
#
# Bulk Modulus (GPa) = 21.35777 49.91419 35.63598
# Shear Modulus (GPa) = 1.15965 18.53736 9.84851
#
# Velocity S-wave (km/s) = 0.92737 3.70779 2.70257
# Velocity P-wave (km/s) = 4.12142 7.43960 6.01389
#
# Compressibility (1/GPa) = 0.04682136
#
# Stress axis : x y z
#
# Youngs Moduli (GPa) = 97.17735 15.54558 67.29840
#
# Poissons Ratio (x) = 0.09929 0.28590
# Poissons Ratio (y) = 0.62065 0.71960
# Poissons Ratio (z) = 0.41283 0.16622
#
# Static dielectric constant tensor:
#      x y z
#    x 2.944530 0.000000 0.000000 
#    y 0.000000 2.415000 0.000000 
#    z 0.000000 0.000000 2.738240 
# 
# 
# High freq. dielectric constant tensor:
#      x y z
#    x 1.541100 0.000000 0.000000 
#    y 0.000000 1.433940 0.000000 
#    z 0.000000 0.000000 1.509930 
# 
# From -- ./inp_files/37459.got.cif
#   From: 2010.03.12/outbox.cif.g09.slc.cpg/sg51_19_cif.got.tgz:37459.got - 2010.04.16 13:43:02.
