data_PCOD8210258
_publ_section_title
;
Structure prediction by ZEFSAII (Michael W. Deem and Ramdas Pophale) SiO2 
 PCOD8210258
Probable space group: P M M A
;
_chemical_formula_sum "Si O2"
_cell_formula_units_Z 44
_cell_length_a 8.832391
_cell_length_b 16.312463
_cell_length_c 15.901226
_cell_angle_alpha 90.000000
_cell_angle_beta 90.000000
_cell_angle_gamma 90.000000
_cell_volume 2291.017657
_symmetry_space_group_name_H-M "P M M A"
_symmetry_group_IT_number 51
_symmetry_cell_setting 'orthorhombic'
loop_
_space_group_symop_operation_xyz
x,y,z
1/2-x,-y,z
1/2+x,-y,-z
-x,y,-z
-x,-y,-z
1/2+x,y,-z
1/2-x,y,z
x,-y,z
loop_
_atom_site_type_symbol
_atom_site_label
_atom_site_fract_x
_atom_site_fract_y
_atom_site_fract_z
Si Si1 0.068737 0.268597 0.415223
Si Si2 0.425210 0.313731 0.758491
Si Si3 0.073282 0.088253 0.381695
Si Si4 0.577086 0.597155 0.913458
Si Si5 0.577168 0.000000 0.085946
Si Si6 0.422705 0.871846 0.782592
O O1 0.250000 0.273706 0.414746
O O2 0.006438 0.173571 0.418486
O O3 0.000000 0.309884 0.500000
O O4 0.007332 0.316701 0.332998
O O5 0.250000 0.337485 0.744867
O O6 0.497093 0.373571 0.827537
O O7 0.445210 0.223979 0.797144
O O8 0.250000 0.089167 0.396895
O O9 0.037523 0.090242 0.283813
O O10 0.008976 0.000000 0.418109
O O11 0.750000 0.627993 0.913289
O O12 0.566972 0.500000 0.912145
O O13 0.500000 0.630299 0.000000
O O14 0.531253 0.083320 0.132529
O O15 0.750000 0.000000 0.066274
O O16 0.500000 0.000000 0.000000
O O17 0.250000 0.891959 0.754731
#
# Coordination Sequence:
#
# PCOD8210258 Si02
#       6
#     8   8   8   8   4   8
#     4  10  20  34  51  75 108 145 187 233 279 330
#     4  10  20  35  57  83 110 144 184 226 276 330
#     4   9  17  29  47  69  94 128 173 224 276 325
#     4  10  21  38  61  89 119 148 178 217 268 326
#     4  10  20  32  44  62  91 128 171 218 265 312
#     4   9  18  32  48  67  94 131 175 220 265 317
#
# _framework density 19.205438999999998
#
# number of rings (size 3 to 8) (size 9 to 14) (size 15 to 20)
#    0.000    2.364    0.909    1.636    0.000    4.364 
#    0.000    1.818    0.000    0.545    0.000    0.000 
#    0.000    0.000    0.000    0.000    0.000    0.000 
#
# Total GULP energy -545077.346124 kJ/mol
# GULP energy per Si atom -12388.121503 kJ/mol
# Density = 1.916173 g / cm^3
# Si number density = 19.205439 Si / 1000 Ang^3
#
#
#
# Elastic Constant Matrix: (Units=GPa)
#
#
# Indices 1 2 3 4 5 6 
#
# 1 82.8480 19.9937 58.5424 0.0000 0.0000 0.0000
# 2 19.9937 27.9075 24.6536 0.0000 0.0000 0.0000
# 3 58.5424 24.6536 162.9817 0.0000 0.0000 0.0000
# 4 0.0000 0.0000 0.0000 -51.2200 0.0000 0.0000
# 5 0.0000 0.0000 0.0000 0.0000 36.8395 0.0000
# 6 0.0000 0.0000 0.0000 0.0000 0.0000 20.6748
#
#
#
# Elastic Compliance Matrix: (Units=1/GPa)
#
#
# Indices 1 2 3 4 5 6 
#
# 1 0.017640 -0.008126 -0.005107 0.000000 0.000000 0.000000
# 2 -0.008126 0.045103 -0.003904 0.000000 0.000000 0.000000
# 3 -0.005107 -0.003904 0.008561 0.000000 0.000000 0.000000
# 4 0.000000 0.000000 0.000000 -0.019524 0.000000 0.000000
# 5 0.000000 0.000000 0.000000 0.000000 0.027145 0.000000
# 6 0.000000 0.000000 0.000000 0.000000 0.000000 0.048368
#
#
# Mechanical properties :
#
#
# Convention : Reuss Voigt Hill
#
# Bulk Modulus (GPa) = 27.00527 53.34627 40.17577
# Shear Modulus (GPa) = 28.75051 12.62870 20.68960
#
# Velocity S-wave (km/s) = 3.87330 2.56707 3.28575
# Velocity P-wave (km/s) = 5.83910 6.05173 5.94637
#
# Compressibility (1/GPa) = 0.03702981
#
# Stress axis : x y z
#
# Youngs Moduli (GPa) = 56.68882 22.17150 116.81463
#
# Poissons Ratio (x) = 0.18017 0.59658
# Poissons Ratio (y) = 0.46067 0.45600
# Poissons Ratio (z) = 0.28951 0.08655
#
# Static dielectric constant tensor:
#      x y z
#    x 3.516360 0.000000 0.000000 
#    y 0.000000 3.528690 0.000000 
#    z 0.000000 0.000000 3.478350 
# 
# 
# High freq. dielectric constant tensor:
#      x y z
#    x 1.748740 0.000000 0.000000 
#    y 0.000000 1.723180 0.000000 
#    z 0.000000 0.000000 1.750670 
# 
# From -- ./inp_files/20926.got.cif
#   From: 2010.03.12/outbox.cif.g09.slc.cpg/sg51_11_cif.got.tgz:20926.got - 2010.04.16 13:43:02.
