data_PCOD8210324
_publ_section_title
;
Structure prediction by ZEFSAII (Michael W. Deem and Ramdas Pophale) SiO2 
 PCOD8210324
Probable space group: P M M A
;
_chemical_formula_sum "Si O2"
_cell_formula_units_Z 56
_cell_length_a 17.442921
_cell_length_b 9.838581
_cell_length_c 18.817089
_cell_angle_alpha 90.000000
_cell_angle_beta 90.000000
_cell_angle_gamma 90.000000
_cell_volume 3229.268218
_symmetry_space_group_name_H-M "P M M A"
_symmetry_group_IT_number 51
_symmetry_cell_setting 'orthorhombic'
loop_
_space_group_symop_operation_xyz
x,y,z
1/2-x,-y,z
1/2+x,-y,-z
-x,y,-z
-x,-y,-z
1/2+x,y,-z
1/2-x,y,z
x,-y,z
loop_
_atom_site_type_symbol
_atom_site_label
_atom_site_fract_x
_atom_site_fract_y
_atom_site_fract_z
Si Si1 0.915236 0.654657 0.724175
Si Si2 0.532089 0.157569 0.924097
Si Si3 0.837220 0.655334 0.868477
Si Si4 0.161633 0.348372 0.421171
Si Si5 0.915855 0.840110 0.472363
Si Si6 0.956555 0.156770 0.219981
Si Si7 0.164741 0.841244 0.670913
O O1 0.945364 0.500000 0.723721
O O2 0.850954 0.673835 0.784598
O O3 0.880830 0.698659 0.649607
O O4 0.985379 0.753496 0.735932
O O5 0.607730 0.245742 0.912169
O O6 0.466346 0.186952 0.864336
O O7 0.556274 0.000000 0.922983
O O8 0.500000 0.201568 0.000000
O O9 0.750000 0.695849 0.885633
O O10 0.853925 0.500000 0.891491
O O11 0.250000 0.348955 0.402457
O O12 0.135156 0.500000 0.444869
O O13 0.146279 0.239541 0.481844
O O14 0.895333 0.796559 0.391174
O O15 0.000000 0.793978 0.500000
O O16 0.905223 0.000000 0.484398
O O17 0.872231 0.193023 0.251442
O O18 0.975841 0.000000 0.236107
O O19 0.250000 0.772268 0.665281
O O20 0.177223 0.000000 0.663272
#
# Coordination Sequence:
#
# PCOD8210324 Si02
#       7
#     8   8   8   8   8   8   8
#     4   9  17  30  48  69  95 125 154 188 232 280
#     4   9  18  32  49  72 101 127 153 192 241 287
#     4   9  17  30  49  72  96 125 161 195 229 277
#     4  10  20  32  46  67  95 124 153 188 233 283
#     4  10  20  33  49  68  90 118 156 201 244 283
#     4   9  17  31  51  71  91 119 157 194 227 275
#     4   9  17  30  48  68  90 119 157 199 238 277
#
# _framework density 17.341391000000002
#
# number of rings (size 3 to 8) (size 9 to 14) (size 15 to 20)
#    0.000    2.714    0.000    1.714    0.000    5.143 
#    0.000    1.429    0.000    6.429    0.000    0.000 
#    0.000    0.000    0.000    0.000    0.000    0.000 
#
# Total GULP energy -694052.240971 kJ/mol
# GULP energy per Si atom -12393.790017 kJ/mol
# Density = 1.730192 g / cm^3
# Si number density = 17.341391 Si / 1000 Ang^3
#
#
#
# Elastic Constant Matrix: (Units=GPa)
#
#
# Indices 1 2 3 4 5 6 
#
# 1 108.4271 31.5879 60.9404 0.0000 0.0000 0.0000
# 2 31.5879 45.6000 38.2026 0.0000 0.0000 0.0000
# 3 60.9404 38.2026 117.7150 0.0000 0.0000 0.0000
# 4 0.0000 0.0000 0.0000 18.3089 0.0000 0.0000
# 5 0.0000 0.0000 0.0000 0.0000 19.4525 0.0000
# 6 0.0000 0.0000 0.0000 0.0000 0.0000 23.9429
#
#
#
# Elastic Compliance Matrix: (Units=1/GPa)
#
#
# Indices 1 2 3 4 5 6 
#
# 1 0.013759 -0.004895 -0.005535 0.000000 0.000000 0.000000
# 2 -0.004895 0.031860 -0.007806 0.000000 0.000000 0.000000
# 3 -0.005535 -0.007806 0.013894 0.000000 0.000000 0.000000
# 4 0.000000 0.000000 0.000000 0.054618 0.000000 0.000000
# 5 0.000000 0.000000 0.000000 0.000000 0.051407 0.000000
# 6 0.000000 0.000000 0.000000 0.000000 0.000000 0.041766
#
#
# Mechanical properties :
#
#
# Convention : Reuss Voigt Hill
#
# Bulk Modulus (GPa) = 43.39737 59.24487 51.32112
# Shear Modulus (GPa) = 19.88423 21.74160 20.81291
#
# Velocity S-wave (km/s) = 3.38987 3.54466 3.46813
# Velocity P-wave (km/s) = 6.35620 7.14079 6.75989
#
# Compressibility (1/GPa) = 0.02304287
#
# Stress axis : x y z
#
# Youngs Moduli (GPa) = 72.67728 31.38751 71.97543
#
# Poissons Ratio (x) = 0.15363 0.39837
# Poissons Ratio (y) = 0.35572 0.56182
# Poissons Ratio (z) = 0.40225 0.24500
#
# Static dielectric constant tensor:
#      x y z
#    x 3.279420 0.000000 0.000000 
#    y 0.000000 3.144160 0.000000 
#    z 0.000000 0.000000 3.301850 
# 
# 
# High freq. dielectric constant tensor:
#      x y z
#    x 1.663130 0.000000 0.000000 
#    y 0.000000 1.657670 0.000000 
#    z 0.000000 0.000000 1.666710 
# 
# From -- ./inp_files/33484.got.cif
#   From: 2010.03.12/outbox.cif.g09.slc.cpg/sg51_17_cif.got.tgz:33484.got - 2010.04.16 13:43:02.
