data_PCOD8210623
_publ_section_title
;
Structure prediction by ZEFSAII (Michael W. Deem and Ramdas Pophale) SiO2 
 PCOD8210623
Probable space group: P M M A
;
_chemical_formula_sum "Si O2"
_cell_formula_units_Z 48
_cell_length_a 15.134033
_cell_length_b 9.370668
_cell_length_c 19.236057
_cell_angle_alpha 90.000000
_cell_angle_beta 90.000000
_cell_angle_gamma 90.000000
_cell_volume 2727.980635
_symmetry_space_group_name_H-M "P M M A"
_symmetry_group_IT_number 51
_symmetry_cell_setting 'orthorhombic'
loop_
_space_group_symop_operation_xyz
x,y,z
1/2-x,-y,z
1/2+x,-y,-z
-x,y,-z
-x,-y,-z
1/2+x,y,-z
1/2-x,y,z
x,-y,z
loop_
_atom_site_type_symbol
_atom_site_label
_atom_site_fract_x
_atom_site_fract_y
_atom_site_fract_z
Si Si1 0.750000 0.339974 0.044811
Si Si2 0.649842 0.164498 0.437797
Si Si3 0.081316 0.833951 0.952538
Si Si4 0.511784 0.162520 0.659892
Si Si5 0.750000 0.659047 0.209814
Si Si6 0.352054 0.333703 0.424477
Si Si7 0.084584 0.837264 0.794070
O O1 0.750000 0.500000 0.013827
O O2 0.663715 0.256219 0.019034
O O3 0.750000 0.343199 0.127207
O O4 0.750000 0.201522 0.413161
O O5 0.581642 0.199790 0.376543
O O6 0.621987 0.259392 0.503432
O O7 0.643434 0.000000 0.460817
O O8 0.057108 0.796333 0.872590
O O9 0.104727 0.000000 0.960811
O O10 0.000000 0.788145 0.000000
O O11 0.589281 0.267638 0.636838
O O12 0.498768 0.183830 0.742799
O O13 0.539493 0.000000 0.642758
O O14 0.750000 0.500000 0.241180
O O15 0.836886 0.740036 0.235513
O O16 0.250000 0.305935 0.405747
O O17 0.373303 0.500000 0.431362
O O18 0.118638 0.000000 0.791319
#
# Coordination Sequence:
#
# PCOD8210623 Si02
#       7
#     4   8   8   8   4   8   8
#     4   9  17  29  47  73 101 129 164 199 240 293
#     4   9  18  32  50  73 100 127 157 195 240 292
#     4   9  17  31  52  75 101 133 168 205 248 293
#     4  10  20  32  51  75  99 127 163 203 246 290
#     4   9  17  29  45  69 101 133 160 191 236 295
#     4  10  21  36  52  69  93 128 167 206 247 290
#     4   9  18  31  49  73 101 131 164 202 246 294
#
# _framework density 17.595433
#
# number of rings (size 3 to 8) (size 9 to 14) (size 15 to 20)
#    0.000    2.667    0.000    1.500    1.167    6.667 
#    0.000    0.000    1.833    0.000    0.000    0.000 
#    0.000    0.000    0.000    0.000    0.000    0.000 
#
# Total GULP energy -595198.187469 kJ/mol
# GULP energy per Si atom -12399.962239 kJ/mol
# Density = 1.755539 g / cm^3
# Si number density = 17.595433 Si / 1000 Ang^3
#
#
#
# Elastic Constant Matrix: (Units=GPa)
#
#
# Indices 1 2 3 4 5 6 
#
# 1 96.9118 57.3568 51.6981 0.0000 0.0000 0.0000
# 2 57.3568 91.1670 41.5380 0.0000 0.0000 0.0000
# 3 51.6981 41.5380 76.8446 0.0000 0.0000 0.0000
# 4 0.0000 0.0000 0.0000 12.3891 0.0000 0.0000
# 5 0.0000 0.0000 0.0000 0.0000 25.3716 0.0000
# 6 0.0000 0.0000 0.0000 0.0000 0.0000 26.6362
#
#
#
# Elastic Compliance Matrix: (Units=1/GPa)
#
#
# Indices 1 2 3 4 5 6 
#
# 1 0.020185 -0.008640 -0.008909 0.000000 0.000000 0.000000
# 2 -0.008640 0.018251 -0.004053 0.000000 0.000000 0.000000
# 3 -0.008909 -0.004053 0.021198 0.000000 0.000000 0.000000
# 4 0.000000 0.000000 0.000000 0.080716 0.000000 0.000000
# 5 0.000000 0.000000 0.000000 0.000000 0.039414 0.000000
# 6 0.000000 0.000000 0.000000 0.000000 0.000000 0.037543
#
#
# Mechanical properties :
#
#
# Convention : Reuss Voigt Hill
#
# Bulk Modulus (GPa) = 60.86584 62.90103 61.88344
# Shear Modulus (GPa) = 18.79782 20.50140 19.64961
#
# Velocity S-wave (km/s) = 3.27209 3.41714 3.34540
# Velocity P-wave (km/s) = 6.99588 7.16905 7.08299
#
# Compressibility (1/GPa) = 0.01642958
#
# Stress axis : x y z
#
# Youngs Moduli (GPa) = 49.54226 54.79097 47.17414
#
# Poissons Ratio (x) = 0.47338 0.42029
# Poissons Ratio (y) = 0.42803 0.19120
# Poissons Ratio (z) = 0.44139 0.22207
#
# Static dielectric constant tensor:
#      x y z
#    x 3.206680 0.000000 0.000000 
#    y 0.000000 3.379900 0.000000 
#    z 0.000000 0.000000 3.112110 
# 
# 
# High freq. dielectric constant tensor:
#      x y z
#    x 1.671300 0.000000 0.000000 
#    y 0.000000 1.682150 0.000000 
#    z 0.000000 0.000000 1.659250 
# 
# From -- ./inp_files/29638.got.cif
#   From: 2010.03.12/outbox.cif.g09.slc.cpg/sg51_15_cif.got.tgz:29638.got - 2010.04.16 13:43:02.
