data_PCOD8210627
_publ_section_title
;
Structure prediction by ZEFSAII (Michael W. Deem and Ramdas Pophale) SiO2 
 PCOD8210627
Probable space group: P M M A
;
_chemical_formula_sum "Si O2"
_cell_formula_units_Z 56
_cell_length_a 9.196152
_cell_length_b 22.943735
_cell_length_c 14.109488
_cell_angle_alpha 90.000000
_cell_angle_beta 90.000000
_cell_angle_gamma 90.000000
_cell_volume 2977.018362
_symmetry_space_group_name_H-M "P M M A"
_symmetry_group_IT_number 51
_symmetry_cell_setting 'orthorhombic'
loop_
_space_group_symop_operation_xyz
x,y,z
1/2-x,-y,z
1/2+x,-y,-z
-x,y,-z
-x,-y,-z
1/2+x,y,-z
1/2-x,y,z
x,-y,z
loop_
_atom_site_type_symbol
_atom_site_label
_atom_site_fract_x
_atom_site_fract_y
_atom_site_fract_z
Si Si1 0.080418 0.336777 0.705618
Si Si2 0.079520 0.067738 0.096407
Si Si3 0.420385 0.779930 0.599259
Si Si4 0.080424 0.000000 0.598552
Si Si5 0.583151 0.373527 0.096307
Si Si6 0.917131 0.500000 0.095787
Si Si7 0.080606 0.433586 0.402860
Si Si8 0.579527 0.890442 0.276093
O O1 0.250000 0.350686 0.687217
O O2 0.029880 0.279643 0.649459
O O3 0.052111 0.327782 0.818705
O O4 0.983379 0.391110 0.675311
O O5 0.250000 0.080743 0.086416
O O6 0.012409 0.106706 0.179876
O O7 0.049173 0.000000 0.118805
O O8 0.000000 0.086364 0.000000
O O9 0.500000 0.787734 0.500000
O O10 0.250000 0.780479 0.578297
O O11 0.463859 0.831637 0.669879
O O12 0.033048 0.056495 0.656966
O O13 0.000000 0.000000 0.500000
O O14 0.250000 0.000000 0.576555
O O15 0.750000 0.371867 0.065824
O O16 0.542679 0.437576 0.143192
O O17 0.500000 0.357252 0.000000
O O18 0.750000 0.500000 0.070917
O O19 0.000000 0.500000 0.000000
O O20 0.250000 0.421069 0.417984
O O21 0.052486 0.500000 0.369909
O O22 0.000000 0.419714 0.500000
O O23 0.750000 0.893007 0.250691
#
# Coordination Sequence:
#
# PCOD8210627 Si02
#       8
#     8   8   8   4   8   4   8   8
#     4  10  21  36  56  80 108 145 185 225 276 332
#     4  10  20  34  56  86 118 152 189 231 278 332
#     4  10  22  39  58  81 110 147 188 232 276 329
#     4  10  20  32  51  78 107 142 179 226 284 334
#     4   9  18  32  51  75 104 137 174 216 265 320
#     4   8  14  26  44  68  95 126 161 202 253 310
#     4  10  21  36  54  79 108 138 176 226 281 334
#     4  10  20  36  56  80 113 149 187 231 281 334
#
# _framework density 18.810767999999999
#
# number of rings (size 3 to 8) (size 9 to 14) (size 15 to 20)
#    0.000    2.286    0.714    1.714    1.000    4.857 
#    0.000    0.714    0.000    1.714    0.000    0.000 
#    0.000    0.000    0.000    0.000    0.000    0.000 
#
# Total GULP energy -694170.099027 kJ/mol
# GULP energy per Si atom -12395.894625 kJ/mol
# Density = 1.876795 g / cm^3
# Si number density = 18.810768 Si / 1000 Ang^3
#
#
#
# Elastic Constant Matrix: (Units=GPa)
#
#
# Indices 1 2 3 4 5 6 
#
# 1 72.1156 46.9104 67.8132 0.0000 0.0000 0.0000
# 2 46.9104 89.7349 66.2788 0.0000 0.0000 0.0000
# 3 67.8132 66.2788 149.2827 0.0000 0.0000 0.0000
# 4 0.0000 0.0000 0.0000 30.5085 0.0000 0.0000
# 5 0.0000 0.0000 0.0000 0.0000 38.0665 0.0000
# 6 0.0000 0.0000 0.0000 0.0000 0.0000 15.2873
#
#
#
# Elastic Compliance Matrix: (Units=1/GPa)
#
#
# Indices 1 2 3 4 5 6 
#
# 1 0.027300 -0.007606 -0.009024 0.000000 0.000000 0.000000
# 2 -0.007606 0.018701 -0.004848 0.000000 0.000000 0.000000
# 3 -0.009024 -0.004848 0.012950 0.000000 0.000000 0.000000
# 4 0.000000 0.000000 0.000000 0.032778 0.000000 0.000000
# 5 0.000000 0.000000 0.000000 0.000000 0.026270 0.000000
# 6 0.000000 0.000000 0.000000 0.000000 0.000000 0.065414
#
#
# Mechanical properties :
#
#
# Convention : Reuss Voigt Hill
#
# Bulk Modulus (GPa) = 62.51958 74.79312 68.65635
# Shear Modulus (GPa) = 21.57953 25.44784 23.51369
#
# Velocity S-wave (km/s) = 3.39069 3.68208 3.53939
# Velocity P-wave (km/s) = 6.97404 7.61079 7.29936
#
# Compressibility (1/GPa) = 0.01599499
#
# Stress axis : x y z
#
# Youngs Moduli (GPa) = 36.62943 53.47413 77.21771
#
# Poissons Ratio (x) = 0.40673 0.69685
# Poissons Ratio (y) = 0.27861 0.37432
# Poissons Ratio (z) = 0.33056 0.25922
#
# Static dielectric constant tensor:
#      x y z
#    x 3.402930 0.000000 0.000000 
#    y 0.000000 3.390910 0.000000 
#    z 0.000000 0.000000 3.350440 
# 
# 
# High freq. dielectric constant tensor:
#      x y z
#    x 1.728030 0.000000 0.000000 
#    y 0.000000 1.719670 0.000000 
#    z 0.000000 0.000000 1.734820 
# 
# From -- ./inp_files/21929.got.cif
#   From: 2010.03.12/outbox.cif.g09.slc.cpg/sg51_11_cif.got.tgz:21929.got - 2010.04.16 13:43:02.
