data_PCOD8210530
_publ_section_title
;
Structure prediction by ZEFSAII (Michael W. Deem and Ramdas Pophale) SiO2 
 PCOD8210530
Probable space group: P M M A
;
_chemical_formula_sum "Si O2"
_cell_formula_units_Z 48
_cell_length_a 7.854907
_cell_length_b 9.102497
_cell_length_c 34.279015
_cell_angle_alpha 90.000000
_cell_angle_beta 90.000000
_cell_angle_gamma 90.000000
_cell_volume 2450.924460
_symmetry_space_group_name_H-M "P M M A"
_symmetry_group_IT_number 51
_symmetry_cell_setting 'orthorhombic'
loop_
_space_group_symop_operation_xyz
x,y,z
1/2-x,-y,z
1/2+x,-y,-z
-x,y,-z
-x,-y,-z
1/2+x,y,-z
1/2-x,y,z
x,-y,z
loop_
_atom_site_type_symbol
_atom_site_label
_atom_site_fract_x
_atom_site_fract_y
_atom_site_fract_z
Si Si1 0.557797 0.162138 0.305562
Si Si2 0.442031 0.172583 0.223390
Si Si3 0.948793 0.334267 0.459307
Si Si4 0.250000 0.825648 0.903087
Si Si5 0.750000 0.324532 0.179572
Si Si6 0.558850 0.825864 0.958247
Si Si7 0.056308 0.332402 0.377896
O O1 0.750000 0.159219 0.290129
O O2 0.447736 0.220281 0.269033
O O3 0.552304 0.260308 0.343966
O O4 0.494366 0.000000 0.317603
O O5 0.250000 0.203933 0.208022
O O6 0.577551 0.266821 0.199512
O O7 0.487402 0.000000 0.219293
O O8 0.750000 0.331683 0.453850
O O9 0.022994 0.500000 0.461680
O O10 0.000000 0.252987 0.500000
O O11 0.027744 0.257579 0.420608
O O12 0.250000 0.732408 0.864182
O O13 0.420546 0.777648 0.926172
O O14 0.250000 0.000000 0.894420
O O15 0.750000 0.500000 0.181032
O O16 0.750000 0.767873 0.947776
O O17 0.562812 0.000000 0.961049
O O18 0.500000 0.761148 0.000000
O O19 0.250000 0.317081 0.365181
O O20 0.994821 0.500000 0.381034
#
# Coordination Sequence:
#
# PCOD8210530 Si02
#       7
#     8   8   8   4   4   8   8
#     4  10  20  36  59  84 110 140 177 225 282 344
#     4  10  21  41  68  90 112 149 200 251 298 356
#     4   9  16  27  44  66  95 134 177 219 263 313
#     4  10  20  34  56  84 118 156 200 250 296 352
#     4  12  26  42  60  86 126 166 202 248 302 364
#     4   9  15  26  49  84 118 147 187 246 306 346
#     4  10  20  32  48  75 109 140 175 221 269 325
#
# _framework density 19.584444999999999
#
# number of rings (size 3 to 8) (size 9 to 14) (size 15 to 20)
#    0.000    2.167    1.667    2.250    0.000    5.667 
#    0.000    1.667    0.000    1.000    0.000    0.000 
#    0.000    0.000    0.000    0.000    0.000    0.000 
#
# Total GULP energy -594936.565602 kJ/mol
# GULP energy per Si atom -12394.511783 kJ/mol
# Density = 1.953987 g / cm^3
# Si number density = 19.584445 Si / 1000 Ang^3
#
#
#
# Elastic Constant Matrix: (Units=GPa)
#
#
# Indices 1 2 3 4 5 6 
#
# 1 130.2012 36.0795 64.9754 0.0000 0.0000 0.0000
# 2 36.0795 55.5185 52.3992 0.0000 0.0000 0.0000
# 3 64.9754 52.3992 154.9147 0.0000 0.0000 0.0000
# 4 0.0000 0.0000 0.0000 23.7755 0.0000 0.0000
# 5 0.0000 0.0000 0.0000 0.0000 27.2886 0.0000
# 6 0.0000 0.0000 0.0000 0.0000 0.0000 15.3193
#
#
#
# Elastic Compliance Matrix: (Units=1/GPa)
#
#
# Indices 1 2 3 4 5 6 
#
# 1 0.010237 -0.003820 -0.003002 0.000000 0.000000 0.000000
# 2 -0.003820 0.027884 -0.007830 0.000000 0.000000 0.000000
# 3 -0.003002 -0.007830 0.010362 0.000000 0.000000 0.000000
# 4 0.000000 0.000000 0.000000 0.042060 0.000000 0.000000
# 5 0.000000 0.000000 0.000000 0.000000 0.036645 0.000000
# 6 0.000000 0.000000 0.000000 0.000000 0.000000 0.065277
#
#
# Mechanical properties :
#
#
# Convention : Reuss Voigt Hill
#
# Bulk Modulus (GPa) = 52.13328 71.94918 62.04123
# Shear Modulus (GPa) = 21.91433 25.75536 23.83484
#
# Velocity S-wave (km/s) = 3.34872 3.63035 3.49238
# Velocity P-wave (km/s) = 6.45209 7.37498 6.92892
#
# Compressibility (1/GPa) = 0.01918160
#
# Stress axis : x y z
#
# Youngs Moduli (GPa) = 97.68717 35.86304 96.50217
#
# Poissons Ratio (x) = 0.13698 0.28966
# Poissons Ratio (y) = 0.37312 0.75557
# Poissons Ratio (z) = 0.29322 0.28079
#
# Static dielectric constant tensor:
#      x y z
#    x 3.766920 0.000000 0.000000 
#    y 0.000000 3.078960 0.000000 
#    z 0.000000 0.000000 3.653800 
# 
# 
# High freq. dielectric constant tensor:
#      x y z
#    x 1.779870 0.000000 0.000000 
#    y 0.000000 1.698930 0.000000 
#    z 0.000000 0.000000 1.772890 
# 
# From -- ./inp_files/37079.got.cif
#   From: 2010.03.12/outbox.cif.g09.slc.cpg/sg51_19_cif.got.tgz:37079.got - 2010.04.16 13:43:02.
