data_PCOD8210658
_publ_section_title
;
Structure prediction by ZEFSAII (Michael W. Deem and Ramdas Pophale) SiO2 
 PCOD8210658
Probable space group: P M M A
;
_chemical_formula_sum "Si O2"
_cell_formula_units_Z 48
_cell_length_a 8.954604
_cell_length_b 15.035786
_cell_length_c 25.834070
_cell_angle_alpha 90.000000
_cell_angle_beta 90.000000
_cell_angle_gamma 90.000000
_cell_volume 3478.286512
_symmetry_space_group_name_H-M "P M M A"
_symmetry_group_IT_number 51
_symmetry_cell_setting 'orthorhombic'
loop_
_space_group_symop_operation_xyz
x,y,z
1/2-x,-y,z
1/2+x,-y,-z
-x,y,-z
-x,-y,-z
1/2+x,y,-z
1/2-x,y,z
x,-y,z
loop_
_atom_site_type_symbol
_atom_site_label
_atom_site_fract_x
_atom_site_fract_y
_atom_site_fract_z
Si Si1 0.918395 0.394218 0.662075
Si Si2 0.582551 0.605613 0.549308
Si Si3 0.416890 0.394197 0.762048
Si Si4 0.921293 0.394879 0.865071
Si Si5 0.072264 0.269248 0.943543
Si Si6 0.075123 0.096589 0.055583
O O1 0.750000 0.357973 0.668524
O O2 0.915449 0.500000 0.665678
O O3 0.984607 0.365760 0.605527
O O4 0.019105 0.354512 0.708208
O O5 0.500000 0.649358 0.500000
O O6 0.750000 0.640892 0.546636
O O7 0.577104 0.500000 0.544762
O O8 0.250000 0.356933 0.770108
O O9 0.415323 0.500000 0.759404
O O10 0.520117 0.362062 0.809274
O O11 0.750000 0.364660 0.871029
O O12 0.938265 0.500000 0.870748
O O13 0.022828 0.352655 0.909486
O O14 0.250000 0.266136 0.947817
O O15 0.008861 0.178571 0.915992
O O16 0.000000 0.280086 0.000000
O O17 0.250000 0.118906 0.049847
O O18 0.053443 0.000000 0.083719
O O19 0.000000 0.089841 0.000000
#
# Coordination Sequence:
#
# PCOD8210658 Si02
#       6
#     8   8   8   8   8   8
#     4   8  13  21  31  42  57  78 103 131 166 208
#     4   8  13  19  26  37  54  75  98 125 160 203
#     4   9  16  25  37  52  66  81 107 143 179 213
#     4  10  20  33  46  57  72  96 124 154 188 224
#     4  11  21  32  46  62  81 101 122 149 180 219
#     4   9  16  27  44  64  84 103 122 144 171 207
#
# _framework density 13.799897
#
# number of rings (size 3 to 8) (size 9 to 14) (size 15 to 20)
#    0.000    2.833    0.000    5.000    0.000    5.000 
#    0.000    3.333    0.000    0.000    0.000    0.000 
#    0.000    0.000    0.000    0.000    0.000    0.000 
#
# Total GULP energy -594658.490715 kJ/mol
# GULP energy per Si atom -12388.718557 kJ/mol
# Density = 1.376849 g / cm^3
# Si number density = 13.799897 Si / 1000 Ang^3
#
#
#
# Elastic Constant Matrix: (Units=GPa)
#
#
# Indices 1 2 3 4 5 6 
#
# 1 103.8447 24.6067 46.8184 0.0000 0.0000 0.0000
# 2 24.6067 27.2701 24.7954 0.0000 0.0000 0.0000
# 3 46.8184 24.7954 92.0900 0.0000 0.0000 0.0000
# 4 0.0000 0.0000 0.0000 0.3075 0.0000 0.0000
# 5 0.0000 0.0000 0.0000 0.0000 25.3912 0.0000
# 6 0.0000 0.0000 0.0000 0.0000 0.0000 14.6598
#
#
#
# Elastic Compliance Matrix: (Units=1/GPa)
#
#
# Indices 1 2 3 4 5 6 
#
# 1 0.013689 -0.007977 -0.004812 0.000000 0.000000 0.000000
# 2 -0.007977 0.053207 -0.010270 0.000000 0.000000 0.000000
# 3 -0.004812 -0.010270 0.016071 0.000000 0.000000 0.000000
# 4 0.000000 0.000000 0.000000 3.252489 0.000000 0.000000
# 5 0.000000 0.000000 0.000000 0.000000 0.039384 0.000000
# 6 0.000000 0.000000 0.000000 0.000000 0.000000 0.068214
#
#
# Mechanical properties :
#
#
# Convention : Reuss Voigt Hill
#
# Bulk Modulus (GPa) = 27.13861 46.18287 36.66074
# Shear Modulus (GPa) = 1.42798 16.53730 8.98264
#
# Velocity S-wave (km/s) = 1.01834 3.46550 2.55408
# Velocity P-wave (km/s) = 4.59251 7.03929 5.94318
#
# Compressibility (1/GPa) = 0.03684787
#
# Stress axis : x y z
#
# Youngs Moduli (GPa) = 73.04901 18.79457 62.22553
#
# Poissons Ratio (x) = 0.14993 0.29942
# Poissons Ratio (y) = 0.58274 0.63908
# Poissons Ratio (z) = 0.35150 0.19303
#
# Static dielectric constant tensor:
#      x y z
#    x 2.935170 0.000000 0.000000 
#    y 0.000000 2.593990 0.000000 
#    z 0.000000 0.000000 2.866730 
# 
# 
# High freq. dielectric constant tensor:
#      x y z
#    x 1.541730 0.000000 0.000000 
#    y 0.000000 1.458540 0.000000 
#    z 0.000000 0.000000 1.517630 
# 
# From -- ./inp_files/36139.got.cif
#   From: 2010.03.12/outbox.cif.g09.slc.cpg/sg51_19_cif.got.tgz:36139.got - 2010.04.16 13:43:02.
