data_PCOD8210675
_publ_section_title
;
Structure prediction by ZEFSAII (Michael W. Deem and Ramdas Pophale) SiO2 
 PCOD8210675
Probable space group: P M M A
;
_chemical_formula_sum "Si O2"
_cell_formula_units_Z 48
_cell_length_a 9.184654
_cell_length_b 17.765708
_cell_length_c 15.048230
_cell_angle_alpha 90.000000
_cell_angle_beta 90.000000
_cell_angle_gamma 90.000000
_cell_volume 2455.447995
_symmetry_space_group_name_H-M "P M M A"
_symmetry_group_IT_number 51
_symmetry_cell_setting 'orthorhombic'
loop_
_space_group_symop_operation_xyz
x,y,z
1/2-x,-y,z
1/2+x,-y,-z
-x,y,-z
-x,-y,-z
1/2+x,y,-z
1/2-x,y,z
x,-y,z
loop_
_atom_site_type_symbol
_atom_site_label
_atom_site_fract_x
_atom_site_fract_y
_atom_site_fract_z
Si Si1 0.087429 0.392642 0.916905
Si Si2 0.075589 0.334583 0.412912
Si Si3 0.915311 0.215291 0.087409
Si Si4 0.579293 0.789740 0.728665
Si Si5 0.580865 0.914666 0.588166
Si Si6 0.594134 0.500000 0.613028
Si Si7 0.092935 0.500000 0.184385
O O1 0.250000 0.425099 0.916984
O O2 0.088511 0.304116 0.918496
O O3 0.000117 0.424567 0.833007
O O4 0.000000 0.426287 0.000000
O O5 0.250000 0.332618 0.422566
O O6 0.031525 0.285800 0.325448
O O7 0.012530 0.420993 0.408309
O O8 0.000000 0.297815 0.500000
O O9 0.750000 0.183013 0.087750
O O10 0.995289 0.196234 0.179287
O O11 0.000000 0.183144 0.000000
O O12 0.750000 0.786000 0.751053
O O13 0.537495 0.861753 0.669749
O O14 0.500000 0.886995 0.500000
O O15 0.750000 0.907482 0.566907
O O16 0.536477 0.000000 0.613282
O O17 0.750000 0.500000 0.561971
O O18 0.630977 0.500000 0.714644
O O19 0.250000 0.500000 0.133738
#
# Coordination Sequence:
#
# PCOD8210675 Si02
#       7
#     8   8   8   8   8   4   4
#     4  10  20  33  47  66  92 122 160 209 264 317
#     4  10  20  34  51  72  99 133 173 216 261 307
#     4  10  21  36  55  77 103 136 174 217 264 315
#     4  10  20  34  54  79 108 140 175 217 263 314
#     4   9  18  33  54  82 115 148 179 215 263 316
#     4   9  19  33  47  64  91 129 169 208 253 303
#     4  11  20  31  48  66  88 123 166 212 263 319
#
# _framework density 19.548368
#
# number of rings (size 3 to 8) (size 9 to 14) (size 15 to 20)
#    0.000    2.167    0.000    3.250    0.000    4.667 
#    0.000    1.667    0.000    0.500    0.000    0.000 
#    0.000    0.000    0.000    0.000    0.000    0.000 
#
# Total GULP energy -594740.049732 kJ/mol
# GULP energy per Si atom -12390.417703 kJ/mol
# Density = 1.950387 g / cm^3
# Si number density = 19.548368 Si / 1000 Ang^3
#
#
#
# Elastic Constant Matrix: (Units=GPa)
#
#
# Indices 1 2 3 4 5 6 
#
# 1 109.6046 28.8791 68.0618 0.0000 0.0000 0.0000
# 2 28.8791 73.7853 42.9967 0.0000 0.0000 0.0000
# 3 68.0618 42.9967 151.0918 0.0000 0.0000 0.0000
# 4 0.0000 0.0000 0.0000 26.4146 0.0000 0.0000
# 5 0.0000 0.0000 0.0000 0.0000 36.7228 0.0000
# 6 0.0000 0.0000 0.0000 0.0000 0.0000 18.5421
#
#
#
# Elastic Compliance Matrix: (Units=1/GPa)
#
#
# Indices 1 2 3 4 5 6 
#
# 1 0.012907 -0.001994 -0.005247 0.000000 0.000000 0.000000
# 2 -0.001994 0.016555 -0.003813 0.000000 0.000000 0.000000
# 3 -0.005247 -0.003813 0.010067 0.000000 0.000000 0.000000
# 4 0.000000 0.000000 0.000000 0.037858 0.000000 0.000000
# 5 0.000000 0.000000 0.000000 0.000000 0.027231 0.000000
# 6 0.000000 0.000000 0.000000 0.000000 0.000000 0.053931
#
#
# Mechanical properties :
#
#
# Convention : Reuss Voigt Hill
#
# Bulk Modulus (GPa) = 57.39975 68.26189 62.83082
# Shear Modulus (GPa) = 26.81469 29.30549 28.06009
#
# Velocity S-wave (km/s) = 3.70768 3.87606 3.79280
# Velocity P-wave (km/s) = 6.91056 7.41802 7.16878
#
# Compressibility (1/GPa) = 0.01742168
#
# Stress axis : x y z
#
# Youngs Moduli (GPa) = 77.47541 60.40380 99.33449
#
# Poissons Ratio (x) = 0.12047 0.52118
# Poissons Ratio (y) = 0.15452 0.37874
# Poissons Ratio (z) = 0.40649 0.23031
#
# Static dielectric constant tensor:
#      x y z
#    x 3.740910 0.000000 0.000000 
#    y 0.000000 3.525100 0.000000 
#    z 0.000000 0.000000 3.604480 
# 
# 
# High freq. dielectric constant tensor:
#      x y z
#    x 1.757630 0.000000 0.000000 
#    y 0.000000 1.740900 0.000000 
#    z 0.000000 0.000000 1.762410 
# 
# From -- ./inp_files/21222.got.cif
#   From: 2010.03.12/outbox.cif.g09.slc.cpg/sg51_11_cif.got.tgz:21222.got - 2010.04.16 13:43:02.
