data_PCOD8210078
_publ_section_title
;
Structure prediction by ZEFSAII (Michael W. Deem and Ramdas Pophale) SiO2 
 PCOD8210078
Probable space group: P M M A
;
_chemical_formula_sum "Si O2"
_cell_formula_units_Z 48
_cell_length_a 19.046406
_cell_length_b 8.472088
_cell_length_c 14.969726
_cell_angle_alpha 90.000000
_cell_angle_beta 90.000000
_cell_angle_gamma 90.000000
_cell_volume 2415.557317
_symmetry_space_group_name_H-M "P M M A"
_symmetry_group_IT_number 51
_symmetry_cell_setting 'orthorhombic'
loop_
_space_group_symop_operation_xyz
x,y,z
1/2-x,-y,z
1/2+x,-y,-z
-x,y,-z
-x,-y,-z
1/2+x,y,-z
1/2-x,y,z
x,-y,z
loop_
_atom_site_type_symbol
_atom_site_label
_atom_site_fract_x
_atom_site_fract_y
_atom_site_fract_z
Si Si1 0.569531 0.315581 0.221220
Si Si2 0.828270 0.687237 0.375279
Si Si3 0.331051 0.317542 0.117648
Si Si4 0.076111 0.314711 0.462603
Si Si5 0.924120 0.183213 0.034084
Si Si6 0.420485 0.182371 0.269697
O O1 0.554644 0.500000 0.236683
O O2 0.628539 0.252417 0.289508
O O3 0.596680 0.283219 0.121417
O O4 0.498791 0.220722 0.238674
O O5 0.750000 0.760267 0.372594
O O6 0.824566 0.500000 0.372804
O O7 0.866424 0.741989 0.465764
O O8 0.250000 0.270116 0.122735
O O9 0.341488 0.500000 0.093138
O O10 0.365351 0.284103 0.213409
O O11 0.366762 0.212476 0.041595
O O12 0.080657 0.500000 0.441902
O O13 0.091214 0.219542 0.373116
O O14 0.000000 0.269958 0.500000
O O15 0.925904 0.000000 0.059585
O O16 0.000000 0.241008 0.000000
O O17 0.405651 0.000000 0.250982
#
# Coordination Sequence:
#
# PCOD8210078 Si02
#       6
#     8   8   8   8   8   8
#     4  11  21  37  63  91 120 159 208 255 297 358
#     4   9  19  36  59  88 120 153 196 253 307 354
#     4  11  25  44  66  92 121 159 208 257 304 359
#     4  10  19  36  61  89 117 155 206 254 303 360
#     4  11  23  39  62  94 126 160 198 246 310 371
#     4  12  24  38  60  91 125 161 202 250 310 371
#
# _framework density 19.871189999999999
#
# number of rings (size 3 to 8) (size 9 to 14) (size 15 to 20)
#    0.000    1.333    3.333    3.000    0.000    3.667 
#    0.000    3.333    0.000    3.500    0.000    0.000 
#    0.000    0.000    0.000    0.000    0.000    0.000 
#
# Total GULP energy -595485.392171 kJ/mol
# GULP energy per Si atom -12405.945670 kJ/mol
# Density = 1.982596 g / cm^3
# Si number density = 19.871190 Si / 1000 Ang^3
#
#
#
# Elastic Constant Matrix: (Units=GPa)
#
#
# Indices 1 2 3 4 5 6 
#
# 1 151.4404 21.8987 59.4554 0.0000 0.0000 0.0000
# 2 21.8987 40.7586 16.4933 0.0000 0.0000 0.0000
# 3 59.4554 16.4933 139.9200 0.0000 0.0000 0.0000
# 4 0.0000 0.0000 0.0000 27.0000 0.0000 0.0000
# 5 0.0000 0.0000 0.0000 0.0000 35.6196 0.0000
# 6 0.0000 0.0000 0.0000 0.0000 0.0000 13.9204
#
#
#
# Elastic Compliance Matrix: (Units=1/GPa)
#
#
# Indices 1 2 3 4 5 6 
#
# 1 0.008301 -0.003185 -0.003152 0.000000 0.000000 0.000000
# 2 -0.003185 0.026985 -0.001828 0.000000 0.000000 0.000000
# 3 -0.003152 -0.001828 0.008702 0.000000 0.000000 0.000000
# 4 0.000000 0.000000 0.000000 0.037037 0.000000 0.000000
# 5 0.000000 0.000000 0.000000 0.000000 0.028074 0.000000
# 6 0.000000 0.000000 0.000000 0.000000 0.000000 0.071837
#
#
# Mechanical properties :
#
#
# Convention : Reuss Voigt Hill
#
# Bulk Modulus (GPa) = 36.15376 58.64596 47.39986
# Shear Modulus (GPa) = 24.21483 30.92613 27.57048
#
# Velocity S-wave (km/s) = 3.49462 3.94931 3.72890
# Velocity P-wave (km/s) = 5.87509 7.09741 6.51498
#
# Compressibility (1/GPa) = 0.02765964
#
# Stress axis : x y z
#
# Youngs Moduli (GPa) = 120.46406 37.05722 114.91941
#
# Poissons Ratio (x) = 0.11801 0.36223
# Poissons Ratio (y) = 0.38363 0.21004
# Poissons Ratio (z) = 0.37970 0.06773
#
# Static dielectric constant tensor:
#      x y z
#    x 3.749030 0.000000 0.000000 
#    y 0.000000 3.379470 0.000000 
#    z 0.000000 0.000000 3.810970 
# 
# 
# High freq. dielectric constant tensor:
#      x y z
#    x 1.772910 0.000000 0.000000 
#    y 0.000000 1.760360 0.000000 
#    z 0.000000 0.000000 1.791220 
# 
# From -- ./inp_files/24826.got.cif
#   From: 2010.03.12/outbox.cif.g09.slc.cpg/sg51_13_cif.got.tgz:24826.got - 2010.04.16 13:43:02.
