data_PCOD8210304
_publ_section_title
;
Structure prediction by ZEFSAII (Michael W. Deem and Ramdas Pophale) SiO2 
 PCOD8210304
Probable space group: P M M A
;
_chemical_formula_sum "Si O2"
_cell_formula_units_Z 64
_cell_length_a 8.929284
_cell_length_b 14.198439
_cell_length_c 30.896953
_cell_angle_alpha 90.000000
_cell_angle_beta 90.000000
_cell_angle_gamma 90.000000
_cell_volume 3917.174226
_symmetry_space_group_name_H-M "P M M A"
_symmetry_group_IT_number 51
_symmetry_cell_setting 'orthorhombic'
loop_
_space_group_symop_operation_xyz
x,y,z
1/2-x,-y,z
1/2+x,-y,-z
-x,y,-z
-x,-y,-z
1/2+x,y,-z
1/2-x,y,z
x,-y,z
loop_
_atom_site_type_symbol
_atom_site_label
_atom_site_fract_x
_atom_site_fract_y
_atom_site_fract_z
Si Si1 0.577507 0.890756 0.794800
Si Si2 0.074166 0.108745 0.629514
Si Si3 0.572463 0.602137 0.163436
Si Si4 0.074434 0.108474 0.044839
Si Si5 0.427376 0.795478 0.874532
Si Si6 0.918779 0.887855 0.542529
Si Si7 0.923636 0.606815 0.261258
Si Si8 0.425597 0.216405 0.292265
O O1 0.750000 0.870686 0.807027
O O2 0.474415 0.861009 0.834732
O O3 0.528061 0.833495 0.752517
O O4 0.550764 0.000000 0.784867
O O5 0.250000 0.123529 0.626503
O O6 0.003391 0.148395 0.585234
O O7 0.010237 0.165942 0.669291
O O8 0.030817 0.000000 0.636329
O O9 0.750000 0.600654 0.165146
O O10 0.514456 0.500000 0.145805
O O11 0.517146 0.687987 0.133590
O O12 0.514946 0.617097 0.212287
O O13 0.250000 0.126075 0.041432
O O14 0.006914 0.172627 0.082024
O O15 0.037220 0.000000 0.055478
O O16 0.000000 0.139520 0.000000
O O17 0.250000 0.802422 0.880323
O O18 0.750000 0.849254 0.543437
O O19 0.000000 0.846596 0.500000
O O20 0.921829 0.000000 0.540978
O O21 0.750000 0.636305 0.264158
O O22 0.946139 0.500000 0.277671
O O23 0.021938 0.675215 0.291160
O O24 0.250000 0.209645 0.300799
#
# Coordination Sequence:
#
# PCOD8210304 Si02
#       8
#     8   8   8   8   8   8   8   8
#     4  10  21  34  45  62  94 133 165 194 232 278
#     4  10  20  32  46  65  92 129 171 209 246 293
#     4   8  15  29  49  72  97 124 155 193 236 280
#     4  10  21  37  55  74  99 128 157 191 233 280
#     4  11  20  31  52  77  98 122 158 198 235 279
#     4   9  16  27  44  65  90 121 160 205 250 293
#     4   9  17  32  52  70  92 124 162 203 245 288
#     4  11  21  32  47  67  96 130 164 203 246 292
#
# _framework density 16.338308999999999
#
# number of rings (size 3 to 8) (size 9 to 14) (size 15 to 20)
#    0.000    2.250    1.250    3.375    0.000    6.000 
#    0.000    0.000    0.000    1.875    0.000    0.000 
#    0.000    0.500    0.000    1.875    0.000    2.875 
#
# Total GULP energy -793617.434902 kJ/mol
# GULP energy per Si atom -12400.272420 kJ/mol
# Density = 1.630112 g / cm^3
# Si number density = 16.338309 Si / 1000 Ang^3
#
#
#
# Elastic Constant Matrix: (Units=GPa)
#
#
# Indices 1 2 3 4 5 6 
#
# 1 61.9657 36.4543 45.1355 0.0000 0.0000 0.0000
# 2 36.4543 85.9611 48.9979 0.0000 0.0000 0.0000
# 3 45.1355 48.9979 111.1881 0.0000 0.0000 0.0000
# 4 0.0000 0.0000 0.0000 -0.9022 0.0000 0.0000
# 5 0.0000 0.0000 0.0000 0.0000 31.9296 0.0000
# 6 0.0000 0.0000 0.0000 0.0000 0.0000 20.4421
#
#
#
# Elastic Compliance Matrix: (Units=1/GPa)
#
#
# Indices 1 2 3 4 5 6 
#
# 1 0.025393 -0.006534 -0.007428 0.000000 0.000000 0.000000
# 2 -0.006534 0.017217 -0.004935 0.000000 0.000000 0.000000
# 3 -0.007428 -0.004935 0.014184 0.000000 0.000000 0.000000
# 4 0.000000 0.000000 0.000000 -1.108461 0.000000 0.000000
# 5 0.000000 0.000000 0.000000 0.000000 0.031319 0.000000
# 6 0.000000 0.000000 0.000000 0.000000 0.000000 0.048919
#
#
# Mechanical properties :
#
#
# Convention : Reuss Voigt Hill
#
# Bulk Modulus (GPa) = 52.63443 57.81005 55.22224
# Shear Modulus (GPa) = -5.39199 18.86240 6.73521
#
# Velocity S-wave (km/s) = -1.81862 3.40146 2.03256
# Velocity P-wave (km/s) = 5.27972 7.13348 6.27543
#
# Compressibility (1/GPa) = 0.01899897
#
# Stress axis : x y z
#
# Youngs Moduli (GPa) = 39.38100 58.08226 70.50308
#
# Poissons Ratio (x) = 0.37953 0.52373
# Poissons Ratio (y) = 0.25733 0.34790
# Poissons Ratio (z) = 0.29254 0.28661
#
# Static dielectric constant tensor:
#      x y z
#    x 3.085580 0.000000 0.000000 
#    y 0.000000 3.163340 0.000000 
#    z 0.000000 0.000000 3.097900 
# 
# 
# High freq. dielectric constant tensor:
#      x y z
#    x 1.631860 0.000000 0.000000 
#    y 0.000000 1.609710 0.000000 
#    z 0.000000 0.000000 1.618280 
# 
# From -- ./inp_files/37569.got.cif
#   From: 2010.03.12/outbox.cif.g09.slc.cpg/sg51_19_cif.got.tgz:37569.got - 2010.04.16 13:43:02.
