data_PCOD8210934
_publ_section_title
;
Structure prediction by ZEFSAII (Michael W. Deem and Ramdas Pophale) SiO2 
 PCOD8210934
Probable space group: P M M A
;
_chemical_formula_sum "Si O2"
_cell_formula_units_Z 40
_cell_length_a 9.353781
_cell_length_b 7.618402
_cell_length_c 29.416022
_cell_angle_alpha 90.000000
_cell_angle_beta 90.000000
_cell_angle_gamma 90.000000
_cell_volume 2096.211140
_symmetry_space_group_name_H-M "P M M A"
_symmetry_group_IT_number 51
_symmetry_cell_setting 'orthorhombic'
loop_
_space_group_symop_operation_xyz
x,y,z
1/2-x,-y,z
1/2+x,-y,-z
-x,y,-z
-x,-y,-z
1/2+x,y,-z
1/2-x,y,z
x,-y,z
loop_
_atom_site_type_symbol
_atom_site_label
_atom_site_fract_x
_atom_site_fract_y
_atom_site_fract_z
Si Si1 0.920277 0.000000 0.707561
Si Si2 0.416891 0.000000 0.613876
Si Si3 0.588890 0.709305 0.043046
Si Si4 0.084200 0.699534 0.544761
Si Si5 0.409115 0.708253 0.127132
Si Si6 0.079891 0.305351 0.227336
O O1 0.975667 0.828815 0.734617
O O2 0.750000 0.000000 0.702523
O O3 0.989806 0.000000 0.658644
O O4 0.459418 0.826321 0.585854
O O5 0.250000 0.000000 0.626487
O O6 0.750000 0.782868 0.040330
O O7 0.590056 0.500000 0.043358
O O8 0.515124 0.783732 0.088817
O O9 0.500000 0.779927 0.000000
O O10 0.250000 0.720517 0.532931
O O11 0.045862 0.500000 0.558945
O O12 0.000000 0.757804 0.500000
O O13 0.250000 0.787023 0.119471
O O14 0.399735 0.500000 0.123582
O O15 0.469435 0.759035 0.177147
O O16 0.250000 0.311772 0.226822
O O17 0.018863 0.500000 0.238438
#
# Coordination Sequence:
#
# PCOD8210934 Si02
#       6
#     4   4   8   8   8   8
#     4  10  20  33  51  74  96 125 168 206 238 284
#     4  10  21  35  49  70 104 137 161 196 247 292
#     4   9  15  21  31  52  83 114 144 180 222 272
#     4   9  18  33  53  76 102 133 168 203 240 284
#     4   8  13  23  39  56  77 109 145 181 227 278
#     4   8  15  29  48  69  93 120 154 200 246 284
#
# _framework density 19.082045999999998
#
# number of rings (size 3 to 8) (size 9 to 14) (size 15 to 20)
#    0.000    3.200    0.000    2.100    0.000    4.000 
#    0.000    1.000    0.000    1.200    0.000    0.700 
#    0.000    0.000    0.000    0.000    0.000    0.000 
#
# Total GULP energy -495842.922042 kJ/mol
# GULP energy per Si atom -12396.073051 kJ/mol
# Density = 1.903861 g / cm^3
# Si number density = 19.082046 Si / 1000 Ang^3
#
#
#
# Elastic Constant Matrix: (Units=GPa)
#
#
# Indices 1 2 3 4 5 6 
#
# 1 82.5371 31.4804 73.0013 0.0000 0.0000 0.0000
# 2 31.4804 83.3971 70.7681 0.0000 0.0000 0.0000
# 3 73.0013 70.7681 186.5179 0.0000 0.0000 0.0000
# 4 0.0000 0.0000 0.0000 -30.0493 0.0000 0.0000
# 5 0.0000 0.0000 0.0000 0.0000 37.0225 0.0000
# 6 0.0000 0.0000 0.0000 0.0000 0.0000 6.9001
#
#
#
# Elastic Compliance Matrix: (Units=1/GPa)
#
#
# Indices 1 2 3 4 5 6 
#
# 1 0.018618 -0.001245 -0.006814 0.000000 0.000000 0.000000
# 2 -0.001245 0.017768 -0.006254 0.000000 0.000000 0.000000
# 3 -0.006814 -0.006254 0.010401 0.000000 0.000000 0.000000
# 4 0.000000 0.000000 0.000000 -0.033279 0.000000 0.000000
# 5 0.000000 0.000000 0.000000 0.000000 0.027011 0.000000
# 6 0.000000 0.000000 0.000000 0.000000 0.000000 0.144925
#
#
# Mechanical properties :
#
#
# Convention : Reuss Voigt Hill
#
# Bulk Modulus (GPa) = 55.06718 78.10574 66.58646
# Shear Modulus (GPa) = 22.71442 14.58815 18.65129
#
# Velocity S-wave (km/s) = 3.45390 2.76795 3.12977
# Velocity P-wave (km/s) = 6.69527 7.15792 6.93046
#
# Compressibility (1/GPa) = 0.01815964
#
# Stress axis : x y z
#
# Youngs Moduli (GPa) = 53.71203 56.28136 96.14137
#
# Poissons Ratio (x) = 0.07009 0.65514
# Poissons Ratio (y) = 0.06689 0.60127
# Poissons Ratio (z) = 0.36601 0.35198
#
# Static dielectric constant tensor:
#      x y z
#    x 3.387080 0.000000 0.000000 
#    y 0.000000 3.504160 0.000000 
#    z 0.000000 0.000000 3.549060 
# 
# 
# High freq. dielectric constant tensor:
#      x y z
#    x 1.712690 0.000000 0.000000 
#    y 0.000000 1.729710 0.000000 
#    z 0.000000 0.000000 1.741150 
# 
# From -- ./inp_files/36010.got.cif
#   From: 2010.03.12/outbox.cif.g09.slc.cpg/sg51_19_cif.got.tgz:36010.got - 2010.04.16 13:43:02.
