data_PCOD8210744
_publ_section_title
;
Structure prediction by ZEFSAII (Michael W. Deem and Ramdas Pophale) SiO2 
 PCOD8210744
Probable space group: P M M A
;
_chemical_formula_sum "Si O2"
_cell_formula_units_Z 48
_cell_length_a 14.165970
_cell_length_b 9.214659
_cell_length_c 21.119787
_cell_angle_alpha 90.000000
_cell_angle_beta 90.000000
_cell_angle_gamma 90.000000
_cell_volume 2756.862588
_symmetry_space_group_name_H-M "P M M A"
_symmetry_group_IT_number 51
_symmetry_cell_setting 'orthorhombic'
loop_
_space_group_symop_operation_xyz
x,y,z
1/2-x,-y,z
1/2+x,-y,-z
-x,y,-z
-x,-y,-z
1/2+x,y,-z
1/2-x,y,z
x,-y,z
loop_
_atom_site_type_symbol
_atom_site_label
_atom_site_fract_x
_atom_site_fract_y
_atom_site_fract_z
Si Si1 0.510791 0.829542 0.235490
Si Si2 0.854081 0.671777 0.001092
Si Si3 0.001389 0.671518 0.103754
Si Si4 0.858341 0.668575 0.326979
Si Si5 0.142625 0.168868 0.338149
Si Si6 0.012148 0.669579 0.428904
O O1 0.495079 0.760387 0.167663
O O2 0.603070 0.761089 0.268150
O O3 0.417827 0.791726 0.276127
O O4 0.527148 0.000000 0.228721
O O5 0.750000 0.742701 0.001343
O O6 0.848247 0.500000 0.000427
O O7 0.908246 0.718622 0.064824
O O8 0.908640 0.720654 0.937880
O O9 0.002277 0.500000 0.118039
O O10 0.750000 0.710987 0.339681
O O11 0.868955 0.500000 0.309141
O O12 0.916879 0.706440 0.390249
O O13 0.250000 0.217803 0.325547
O O14 0.102535 0.252893 0.398690
O O15 0.135625 0.000000 0.353872
O O16 0.034186 0.500000 0.428762
O O17 0.000000 0.728499 0.500000
#
# Coordination Sequence:
#
# PCOD8210744 Si02
#       6
#     8   8   8   8   8   8
#     4  10  20  33  49  70  98 128 159 200 244 282
#     4   8  15  29  48  69  93 121 154 193 234 278
#     4   9  17  30  49  71  93 120 157 195 232 281
#     4   9  18  33  51  70  95 128 163 196 233 283
#     4   9  19  35  51  68  95 132 169 200 234 282
#     4   9  18  32  51  76 102 125 154 197 246 290
#
# _framework density 17.411097000000002
#
# number of rings (size 3 to 8) (size 9 to 14) (size 15 to 20)
#    0.000    3.000    0.000    1.500    0.000    3.667 
#    0.000    5.000    0.000    1.000    0.000    0.000 
#    0.000    0.000    0.000    0.000    0.000    0.000 
#
# Total GULP energy -595166.378719 kJ/mol
# GULP energy per Si atom -12399.299557 kJ/mol
# Density = 1.737147 g / cm^3
# Si number density = 17.411097 Si / 1000 Ang^3
#
#
#
# Elastic Constant Matrix: (Units=GPa)
#
#
# Indices 1 2 3 4 5 6 
#
# 1 151.1735 40.2864 67.5788 0.0000 0.0000 0.0000
# 2 40.2864 48.7772 51.5358 0.0000 0.0000 0.0000
# 3 67.5788 51.5358 151.9920 0.0000 0.0000 0.0000
# 4 0.0000 0.0000 0.0000 20.5886 0.0000 0.0000
# 5 0.0000 0.0000 0.0000 0.0000 13.5790 0.0000
# 6 0.0000 0.0000 0.0000 0.0000 0.0000 21.2671
#
#
#
# Elastic Compliance Matrix: (Units=1/GPa)
#
#
# Indices 1 2 3 4 5 6 
#
# 1 0.008970 -0.004978 -0.002300 0.000000 0.000000 0.000000
# 2 -0.004978 0.034709 -0.009555 0.000000 0.000000 0.000000
# 3 -0.002300 -0.009555 0.010842 0.000000 0.000000 0.000000
# 4 0.000000 0.000000 0.000000 0.048571 0.000000 0.000000
# 5 0.000000 0.000000 0.000000 0.000000 0.073643 0.000000
# 6 0.000000 0.000000 0.000000 0.000000 0.000000 0.047021
#
#
# Mechanical properties :
#
#
# Convention : Reuss Voigt Hill
#
# Bulk Modulus (GPa) = 47.95436 74.52717 61.24076
# Shear Modulus (GPa) = 18.91267 23.92306 21.41787
#
# Velocity S-wave (km/s) = 3.29939 3.71079 3.51112
# Velocity P-wave (km/s) = 6.48975 7.82670 7.18937
#
# Compressibility (1/GPa) = 0.02085316
#
# Stress axis : x y z
#
# Youngs Moduli (GPa) = 111.48526 28.81136 92.23454
#
# Poissons Ratio (x) = 0.14342 0.21216
# Poissons Ratio (y) = 0.55498 0.88132
# Poissons Ratio (z) = 0.25644 0.27530
#
# Static dielectric constant tensor:
#      x y z
#    x 3.683020 0.000000 0.000000 
#    y 0.000000 3.031000 0.000000 
#    z 0.000000 0.000000 3.221100 
# 
# 
# High freq. dielectric constant tensor:
#      x y z
#    x 1.677470 0.000000 0.000000 
#    y 0.000000 1.652060 0.000000 
#    z 0.000000 0.000000 1.674530 
# 
# From -- ./inp_files/29468.got.cif
#   From: 2010.03.12/outbox.cif.g09.slc.cpg/sg51_15_cif.got.tgz:29468.got - 2010.04.16 13:43:02.
