data_PCOD8210299
_publ_section_title
;
Structure prediction by ZEFSAII (Michael W. Deem and Ramdas Pophale) SiO2 
 PCOD8210299
Probable space group: P M M A
;
_chemical_formula_sum "Si O2"
_cell_formula_units_Z 40
_cell_length_a 19.451303
_cell_length_b 9.329328
_cell_length_c 12.803049
_cell_angle_alpha 90.000000
_cell_angle_beta 90.000000
_cell_angle_gamma 90.000000
_cell_volume 2323.338392
_symmetry_space_group_name_H-M "P M M A"
_symmetry_group_IT_number 51
_symmetry_cell_setting 'orthorhombic'
loop_
_space_group_symop_operation_xyz
x,y,z
1/2-x,-y,z
1/2+x,-y,-z
-x,y,-z
-x,-y,-z
1/2+x,y,-z
1/2-x,y,z
x,-y,z
loop_
_atom_site_type_symbol
_atom_site_label
_atom_site_fract_x
_atom_site_fract_y
_atom_site_fract_z
Si Si1 0.416192 0.330462 0.889092
Si Si2 0.668384 0.163165 0.276820
Si Si3 0.570780 0.330437 0.875778
Si Si4 0.826866 0.671004 0.702617
Si Si5 0.168316 0.340640 0.527611
O O1 0.405473 0.500000 0.874879
O O2 0.360464 0.247193 0.822046
O O3 0.492587 0.282182 0.853721
O O4 0.404839 0.283032 0.009170
O O5 0.750000 0.173419 0.271428
O O6 0.639964 0.234432 0.383575
O O7 0.642766 0.000000 0.274539
O O8 0.573584 0.500000 0.870076
O O9 0.621499 0.262875 0.788886
O O10 0.750000 0.730798 0.724256
O O11 0.825259 0.500000 0.707769
O O12 0.853395 0.717046 0.587207
O O13 0.250000 0.348975 0.530966
O O14 0.137912 0.500000 0.548003
#
# Coordination Sequence:
#
# PCOD8210299 Si02
#       5
#     8   8   8   8   8
#     4   9  17  30  48  68  92 122 153 184 219 265
#     4  10  20  32  46  65  90 119 151 188 227 266
#     4   8  15  28  45  68  96 121 147 182 224 266
#     4   8  13  23  43  70  94 114 142 184 228 266
#     4   8  14  26  45  67  88 112 145 183 223 268
#
# _framework density 17.216605000000001
#
# number of rings (size 3 to 8) (size 9 to 14) (size 15 to 20)
#    0.000    3.400    0.000    3.000    0.000    2.000 
#    0.000    5.000    0.000    8.400    0.000    2.800 
#    0.000    0.000    0.000    0.000    0.000    0.000 
#
# Total GULP energy -495744.250203 kJ/mol
# GULP energy per Si atom -12393.606255 kJ/mol
# Density = 1.717742 g / cm^3
# Si number density = 17.216605 Si / 1000 Ang^3
#
#
#
# Elastic Constant Matrix: (Units=GPa)
#
#
# Indices 1 2 3 4 5 6 
#
# 1 38.1705 23.9186 41.2946 0.0000 0.0000 0.0000
# 2 23.9186 58.6758 45.9477 0.0000 0.0000 0.0000
# 3 41.2946 45.9477 126.8530 0.0000 0.0000 0.0000
# 4 0.0000 0.0000 0.0000 1.4548 0.0000 0.0000
# 5 0.0000 0.0000 0.0000 0.0000 15.7714 0.0000
# 6 0.0000 0.0000 0.0000 0.0000 0.0000 13.0262
#
#
#
# Elastic Compliance Matrix: (Units=1/GPa)
#
#
# Indices 1 2 3 4 5 6 
#
# 1 0.043826 -0.009344 -0.010882 0.000000 0.000000 0.000000
# 2 -0.009344 0.025783 -0.006297 0.000000 0.000000 0.000000
# 3 -0.010882 -0.006297 0.013707 0.000000 0.000000 0.000000
# 4 0.000000 0.000000 0.000000 0.687400 0.000000 0.000000
# 5 0.000000 0.000000 0.000000 0.000000 0.063406 0.000000
# 6 0.000000 0.000000 0.000000 0.000000 0.000000 0.076769
#
#
# Mechanical properties :
#
#
# Convention : Reuss Voigt Hill
#
# Bulk Modulus (GPa) = 33.03682 49.55792 41.29737
# Shear Modulus (GPa) = 5.13333 13.55302 9.34317
#
# Velocity S-wave (km/s) = 1.72861 2.80876 2.33208
# Velocity P-wave (km/s) = 4.81816 6.27426 5.59379
#
# Compressibility (1/GPa) = 0.03026926
#
# Stress axis : x y z
#
# Youngs Moduli (GPa) = 22.81738 38.78551 72.95717
#
# Poissons Ratio (x) = 0.36239 0.79395
# Poissons Ratio (y) = 0.21319 0.45943
# Poissons Ratio (z) = 0.24831 0.24424
#
# Static dielectric constant tensor:
#      x y z
#    x 3.188690 0.000000 0.000000 
#    y 0.000000 2.886250 0.000000 
#    z 0.000000 0.000000 3.606780 
# 
# 
# High freq. dielectric constant tensor:
#      x y z
#    x 1.641320 0.000000 0.000000 
#    y 0.000000 1.618120 0.000000 
#    z 0.000000 0.000000 1.679130 
# 
# From -- ./inp_files/17880.got.cif
#   From: 2010.03.12/outbox.cif.g09.slc.cpg/sg51_9_cif.got.tgz:17880.got - 2010.04.16 13:43:02.
