data_PCOD8210077
_publ_section_title
;
Structure prediction by ZEFSAII (Michael W. Deem and Ramdas Pophale) SiO2 
 PCOD8210077
Probable space group: P M M A
;
_chemical_formula_sum "Si O2"
_cell_formula_units_Z 40
_cell_length_a 22.991541
_cell_length_b 8.702257
_cell_length_c 10.300410
_cell_angle_alpha 90.000000
_cell_angle_beta 90.000000
_cell_angle_gamma 90.000000
_cell_volume 2060.888508
_symmetry_space_group_name_H-M "P M M A"
_symmetry_group_IT_number 51
_symmetry_cell_setting 'orthorhombic'
loop_
_space_group_symop_operation_xyz
x,y,z
1/2-x,-y,z
1/2+x,-y,-z
-x,y,-z
-x,-y,-z
1/2+x,y,-z
1/2-x,y,z
x,-y,z
loop_
_atom_site_type_symbol
_atom_site_label
_atom_site_fract_x
_atom_site_fract_y
_atom_site_fract_z
Si Si1 0.867956 0.679918 0.994762
Si Si2 0.250000 0.818191 0.099208
Si Si3 0.750000 0.182810 0.607248
Si Si4 0.126740 0.817566 0.483385
Si Si5 0.577030 0.819909 0.244617
Si Si6 0.558915 0.820400 0.768243
O O1 0.858434 0.500000 0.984499
O O2 0.806654 0.761719 0.975027
O O3 0.915271 0.731658 0.890071
O O4 0.890560 0.723263 0.136187
O O5 0.250000 0.753183 0.246012
O O6 0.250000 0.000000 0.099924
O O7 0.692788 0.243471 0.532758
O O8 0.750000 0.000000 0.611440
O O9 0.100589 0.756803 0.617936
O O10 0.088148 0.756985 0.363461
O O11 0.124628 0.000000 0.482918
O O12 0.508944 0.786275 0.238607
O O13 0.590208 0.000000 0.225434
O O14 0.572359 0.000000 0.787444
#
# Coordination Sequence:
#
# PCOD8210077 Si02
#       6
#     8   4   4   8   8   8
#     4  12  25  39  57  85 122 158 193 239 292 347
#     4  11  21  40  67  88 110 146 195 245 290 347
#     4   9  16  30  59  90 112 136 181 241 296 345
#     4   9  17  32  57  90 118 145 191 252 301 338
#     4  10  21  36  58  88 121 156 197 244 293 344
#     4  10  19  36  61  87 116 155 203 247 287 340
#
# _framework density 19.409103000000002
#
# number of rings (size 3 to 8) (size 9 to 14) (size 15 to 20)
#    0.000    1.800    2.000    3.300    0.000    6.400 
#    0.000    3.000    0.000    2.400    0.000    0.000 
#    0.000    0.000    0.000    0.000    0.000    0.000 
#
# Total GULP energy -496111.296980 kJ/mol
# GULP energy per Si atom -12402.782425 kJ/mol
# Density = 1.936493 g / cm^3
# Si number density = 19.409103 Si / 1000 Ang^3
#
#
#
# Elastic Constant Matrix: (Units=GPa)
#
#
# Indices 1 2 3 4 5 6 
#
# 1 134.5830 30.7950 54.8004 0.0000 0.0000 0.0000
# 2 30.7950 49.7937 21.9707 0.0000 0.0000 0.0000
# 3 54.8004 21.9707 131.8823 0.0000 0.0000 0.0000
# 4 0.0000 0.0000 0.0000 -2.2618 0.0000 0.0000
# 5 0.0000 0.0000 0.0000 0.0000 90.9467 0.0000
# 6 0.0000 0.0000 0.0000 0.0000 0.0000 10.1319
#
#
#
# Elastic Compliance Matrix: (Units=1/GPa)
#
#
# Indices 1 2 3 4 5 6 
#
# 1 0.009839 -0.004621 -0.003319 0.000000 0.000000 0.000000
# 2 -0.004621 0.023846 -0.002053 0.000000 0.000000 0.000000
# 3 -0.003319 -0.002053 0.009303 0.000000 0.000000 0.000000
# 4 0.000000 0.000000 0.000000 -0.442132 0.000000 0.000000
# 5 0.000000 0.000000 0.000000 0.000000 0.010995 0.000000
# 6 0.000000 0.000000 0.000000 0.000000 0.000000 0.098698
#
#
# Mechanical properties :
#
#
# Convention : Reuss Voigt Hill
#
# Bulk Modulus (GPa) = 43.46900 59.04348 51.25624
# Shear Modulus (GPa) = -19.09871 33.67623 7.28876
#
# Velocity S-wave (km/s) = -3.14029 4.16994 1.93997
# Velocity P-wave (km/s) = 3.04897 7.32606 5.61103
#
# Compressibility (1/GPa) = 0.02300490
#
# Stress axis : x y z
#
# Youngs Moduli (GPa) = 101.63720 41.93539 107.48742
#
# Poissons Ratio (x) = 0.19377 0.35670
# Poissons Ratio (y) = 0.46963 0.22063
# Poissons Ratio (z) = 0.33729 0.08608
#
# Static dielectric constant tensor:
#      x y z
#    x 3.827740 0.000000 0.000000 
#    y 0.000000 3.163680 0.000000 
#    z 0.000000 0.000000 3.749910 
# 
# 
# High freq. dielectric constant tensor:
#      x y z
#    x 1.774880 0.000000 0.000000 
#    y 0.000000 1.714860 0.000000 
#    z 0.000000 0.000000 1.766790 
# 
# From -- ./inp_files/18006.got.cif
#   From: 2010.03.12/outbox.cif.g09.slc.cpg/sg51_10_cif.got.tgz:18006.got - 2010.04.16 13:43:02.
