data_PCOD8210038
_publ_section_title
;
Structure prediction by ZEFSAII (Michael W. Deem and Ramdas Pophale) SiO2 
 PCOD8210038
Probable space group: P M M A
;
_chemical_formula_sum "Si O2"
_cell_formula_units_Z 48
_cell_length_a 15.500426
_cell_length_b 17.186019
_cell_length_c 9.231145
_cell_angle_alpha 90.000000
_cell_angle_beta 90.000000
_cell_angle_gamma 90.000000
_cell_volume 2459.090401
_symmetry_space_group_name_H-M "P M M A"
_symmetry_group_IT_number 51
_symmetry_cell_setting 'orthorhombic'
loop_
_space_group_symop_operation_xyz
x,y,z
1/2-x,-y,z
1/2+x,-y,-z
-x,y,-z
-x,-y,-z
1/2+x,y,-z
1/2-x,y,z
x,-y,z
loop_
_atom_site_type_symbol
_atom_site_label
_atom_site_fract_x
_atom_site_fract_y
_atom_site_fract_z
Si Si1 0.352463 0.500000 0.076320
Si Si2 0.911694 0.188431 0.082393
Si Si3 0.250000 0.911819 0.920864
Si Si4 0.250000 0.087506 0.576322
Si Si5 0.843378 0.500000 0.612143
Si Si6 0.588021 0.814918 0.424283
Si Si7 0.407996 0.637986 0.564029
Si Si8 0.852543 0.357648 0.116023
O O1 0.250000 0.500000 0.068326
O O2 0.397340 0.500000 0.236898
O O3 0.384652 0.577421 0.995554
O O4 0.836628 0.131068 0.023883
O O5 0.926307 0.177865 0.253165
O O6 0.881735 0.275855 0.048052
O O7 0.000000 0.168026 0.000000
O O8 0.250000 0.909842 0.748388
O O9 0.250000 0.000000 0.980148
O O10 0.164450 0.130165 0.518240
O O11 0.250000 0.000000 0.516002
O O12 0.750000 0.500000 0.682009
O O13 0.846879 0.422433 0.516469
O O14 0.500000 0.841648 0.500000
O O15 0.614741 0.727500 0.471312
O O16 0.500000 0.615302 0.500000
O O17 0.402096 0.624478 0.734988
O O18 0.750000 0.356531 0.145781
#
# Coordination Sequence:
#
# PCOD8210038 Si02
#       8
#     4   8   4   4   4   8   8   8
#     4   9  21  35  50  78 110 142 187 230 277 327
#     4  10  20  35  59  86 113 148 192 231 278 333
#     4   9  18  36  59  86 115 150 188 229 277 335
#     4   9  18  34  61  86 111 150 190 225 275 339
#     4  11  22  35  53  78 111 145 184 237 284 324
#     4   9  20  36  56  84 116 146 187 235 277 333
#     4  10  21  35  54  79 108 141 190 235 276 327
#     4  10  19  36  58  78 108 152 193 228 272 336
#
# _framework density 19.519411999999999
#
# number of rings (size 3 to 8) (size 9 to 14) (size 15 to 20)
#    0.000    2.333    0.833    1.250    4.667    5.333 
#    0.000    2.083    0.000    1.000    0.000    0.000 
#    0.000    0.000    0.000    0.000    0.000    0.000 
#
# Total GULP energy -595020.475688 kJ/mol
# GULP energy per Si atom -12396.259910 kJ/mol
# Density = 1.947499 g / cm^3
# Si number density = 19.519412 Si / 1000 Ang^3
#
#
#
# Elastic Constant Matrix: (Units=GPa)
#
#
# Indices 1 2 3 4 5 6 
#
# 1 123.0935 72.6033 36.4696 0.0000 0.0000 0.0000
# 2 72.6033 155.5018 54.4288 0.0000 0.0000 0.0000
# 3 36.4696 54.4288 65.6712 0.0000 0.0000 0.0000
# 4 0.0000 0.0000 0.0000 12.1886 0.0000 0.0000
# 5 0.0000 0.0000 0.0000 0.0000 30.9305 0.0000
# 6 0.0000 0.0000 0.0000 0.0000 0.0000 -1.2519
#
#
#
# Elastic Compliance Matrix: (Units=1/GPa)
#
#
# Indices 1 2 3 4 5 6 
#
# 1 0.011551 -0.004434 -0.002740 0.000000 0.000000 0.000000
# 2 -0.004434 0.010761 -0.006456 0.000000 0.000000 0.000000
# 3 -0.002740 -0.006456 0.022100 0.000000 0.000000 0.000000
# 4 0.000000 0.000000 0.000000 0.082044 0.000000 0.000000
# 5 0.000000 0.000000 0.000000 0.000000 0.032331 0.000000
# 6 0.000000 0.000000 0.000000 0.000000 0.000000 -0.798785
#
#
# Mechanical properties :
#
#
# Convention : Reuss Voigt Hill
#
# Bulk Modulus (GPa) = 58.30370 74.58553 66.44461
# Shear Modulus (GPa) = -8.23693 20.42443 6.09375
#
# Velocity S-wave (km/s) = -2.05646 3.23827 1.76880
# Velocity P-wave (km/s) = 4.92907 7.23020 6.18755
#
# Compressibility (1/GPa) = 0.01715157
#
# Stress axis : x y z
#
# Youngs Moduli (GPa) = 86.57284 92.92874 45.24938
#
# Poissons Ratio (x) = 0.41206 0.12396
# Poissons Ratio (y) = 0.38388 0.29214
# Poissons Ratio (z) = 0.23717 0.59997
#
# Static dielectric constant tensor:
#      x y z
#    x 3.550220 0.000000 0.000000 
#    y 0.000000 3.711080 0.000000 
#    z 0.000000 0.000000 3.316940 
# 
# 
# High freq. dielectric constant tensor:
#      x y z
#    x 1.761790 0.000000 0.000000 
#    y 0.000000 1.764990 0.000000 
#    z 0.000000 0.000000 1.738420 
# 
# From -- ./inp_files/8395.got.cif
#   From: 2010.03.12/outbox.cif.g09.slc.cpg/sg51_5_cif.got.tgz:8395.got - 2010.04.16 13:43:02.
