data_PCOD8210575
_publ_section_title
;
Structure prediction by ZEFSAII (Michael W. Deem and Ramdas Pophale) SiO2 
 PCOD8210575
Probable space group: P M M A
;
_chemical_formula_sum "Si O2"
_cell_formula_units_Z 56
_cell_length_a 20.504299
_cell_length_b 9.322405
_cell_length_c 15.283769
_cell_angle_alpha 90.000000
_cell_angle_beta 90.000000
_cell_angle_gamma 90.000000
_cell_volume 2921.482961
_symmetry_space_group_name_H-M "P M M A"
_symmetry_group_IT_number 51
_symmetry_cell_setting 'orthorhombic'
loop_
_space_group_symop_operation_xyz
x,y,z
1/2-x,-y,z
1/2+x,-y,-z
-x,y,-z
-x,-y,-z
1/2+x,y,-z
1/2-x,y,z
x,-y,z
loop_
_atom_site_type_symbol
_atom_site_label
_atom_site_fract_x
_atom_site_fract_y
_atom_site_fract_z
Si Si1 0.822886 0.336855 0.011257
Si Si2 0.370431 0.665182 0.796840
Si Si3 0.996686 0.834110 0.238213
Si Si4 0.962347 0.335196 0.590048
Si Si5 0.440677 0.164271 0.059001
Si Si6 0.676023 0.156143 0.358957
Si Si7 0.824550 0.336629 0.520347
O O1 0.750000 0.287657 0.985873
O O2 0.835187 0.500000 0.982753
O O3 0.830234 0.320479 0.114777
O O4 0.873303 0.241346 0.959355
O O5 0.384065 0.500000 0.772254
O O6 0.436901 0.751855 0.805648
O O7 0.327755 0.740682 0.723346
O O8 0.013829 0.764363 0.331039
O O9 0.051410 0.819214 0.163610
O O10 0.979603 0.000000 0.255025
O O11 0.980401 0.500000 0.611020
O O12 0.882980 0.317587 0.590230
O O13 0.000000 0.290684 0.500000
O O14 0.433008 0.000000 0.030682
O O15 0.500000 0.230040 0.000000
O O16 0.750000 0.126206 0.380224
O O17 0.647771 0.237968 0.442617
O O18 0.641094 0.000000 0.345548
O O19 0.750000 0.296063 0.553312
O O20 0.823049 0.500000 0.486723
#
# Coordination Sequence:
#
# PCOD8210575 Si02
#       7
#     8   8   8   8   8   8   8
#     4  10  22  38  58  87 119 152 195 245 294 345
#     4  11  21  34  54  80 114 151 189 235 290 350
#     4  11  23  38  59  86 114 148 194 242 292 350
#     4  10  21  37  57  84 117 152 194 242 293 349
#     4  10  21  40  62  85 117 155 196 239 287 348
#     4  10  20  32  49  77 112 149 189 233 286 348
#     4   9  18  34  55  77 106 148 193 238 291 347
#
# _framework density 19.168347000000001
#
# number of rings (size 3 to 8) (size 9 to 14) (size 15 to 20)
#    0.000    1.857    1.429    2.571    0.000    5.714 
#    0.000    0.714    0.000    2.571    0.000    0.000 
#    0.000    0.000    0.000    0.000    0.000    0.000 
#
# Total GULP energy -693958.963148 kJ/mol
# GULP energy per Si atom -12392.124342 kJ/mol
# Density = 1.912472 g / cm^3
# Si number density = 19.168347 Si / 1000 Ang^3
#
#
#
# Elastic Constant Matrix: (Units=GPa)
#
#
# Indices 1 2 3 4 5 6 
#
# 1 109.3258 41.4112 30.3409 0.0000 0.0000 0.0000
# 2 41.4112 109.9116 46.5427 0.0000 0.0000 0.0000
# 3 30.3409 46.5427 74.9038 0.0000 0.0000 0.0000
# 4 0.0000 0.0000 0.0000 30.8996 0.0000 0.0000
# 5 0.0000 0.0000 0.0000 0.0000 24.7844 0.0000
# 6 0.0000 0.0000 0.0000 0.0000 0.0000 21.8482
#
#
#
# Elastic Compliance Matrix: (Units=1/GPa)
#
#
# Indices 1 2 3 4 5 6 
#
# 1 0.011019 -0.003069 -0.002556 0.000000 0.000000 0.000000
# 2 -0.003069 0.013202 -0.006960 0.000000 0.000000 0.000000
# 3 -0.002556 -0.006960 0.018711 0.000000 0.000000 0.000000
# 4 0.000000 0.000000 0.000000 0.032363 0.000000 0.000000
# 5 0.000000 0.000000 0.000000 0.000000 0.040348 0.000000
# 6 0.000000 0.000000 0.000000 0.000000 0.000000 0.045770
#
#
# Mechanical properties :
#
#
# Convention : Reuss Voigt Hill
#
# Bulk Modulus (GPa) = 56.30457 58.97010 57.63733
# Shear Modulus (GPa) = 25.97356 27.22956 26.60156
#
# Velocity S-wave (km/s) = 3.68506 3.77310 3.72934
# Velocity P-wave (km/s) = 6.89519 7.05782 6.97698
#
# Compressibility (1/GPa) = 0.01776055
#
# Stress axis : x y z
#
# Youngs Moduli (GPa) = 90.75267 75.74730 53.44555
#
# Poissons Ratio (x) = 0.23248 0.13663
# Poissons Ratio (y) = 0.27853 0.37198
# Poissons Ratio (z) = 0.23200 0.52720
#
# Static dielectric constant tensor:
#      x y z
#    x 3.702640 0.000000 0.000000 
#    y 0.000000 3.918810 0.000000 
#    z 0.000000 0.000000 3.334060 
# 
# 
# High freq. dielectric constant tensor:
#      x y z
#    x 1.749440 0.000000 0.000000 
#    y 0.000000 1.753020 0.000000 
#    z 0.000000 0.000000 1.726650 
# 
# From -- ./inp_files/25686.got.cif
#   From: 2010.03.12/outbox.cif.g09.slc.cpg/sg51_13_cif.got.tgz:25686.got - 2010.04.16 13:43:02.
