data_PCOD8210180
_publ_section_title
;
Structure prediction by ZEFSAII (Michael W. Deem and Ramdas Pophale) SiO2 
 PCOD8210180
Probable space group: P M M A
;
_chemical_formula_sum "Si O2"
_cell_formula_units_Z 56
_cell_length_a 18.546000
_cell_length_b 9.282933
_cell_length_c 19.387354
_cell_angle_alpha 90.000000
_cell_angle_beta 90.000000
_cell_angle_gamma 90.000000
_cell_volume 3337.751592
_symmetry_space_group_name_H-M "P M M A"
_symmetry_group_IT_number 51
_symmetry_cell_setting 'orthorhombic'
loop_
_space_group_symop_operation_xyz
x,y,z
1/2-x,-y,z
1/2+x,-y,-z
-x,y,-z
-x,-y,-z
1/2+x,y,-z
1/2-x,y,z
x,-y,z
loop_
_atom_site_type_symbol
_atom_site_label
_atom_site_fract_x
_atom_site_fract_y
_atom_site_fract_z
Si Si1 0.665844 0.170241 0.440876
Si Si2 0.560903 0.667769 0.200582
Si Si3 0.334302 0.838705 0.876839
Si Si4 0.439075 0.842855 0.443407
Si Si5 0.329489 0.666217 0.011280
Si Si6 0.544039 0.668417 0.357726
Si Si7 0.971619 0.666977 0.927741
O O1 0.750000 0.218641 0.436267
O O2 0.634732 0.206619 0.517723
O O3 0.616706 0.253545 0.384828
O O4 0.658290 0.000000 0.426435
O O5 0.576863 0.500000 0.190582
O O6 0.634186 0.756624 0.189480
O O7 0.533110 0.698773 0.276981
O O8 0.504968 0.730732 0.142793
O O9 0.250000 0.839263 0.866566
O O10 0.365084 0.000000 0.881715
O O11 0.357376 0.754579 0.945619
O O12 0.500000 0.860920 0.500000
O O13 0.468580 0.725956 0.389353
O O14 0.427072 0.000000 0.407845
O O15 0.250000 0.716836 0.035265
O O16 0.329103 0.500000 0.988420
O O17 0.384923 0.691918 0.074235
O O18 0.551635 0.500000 0.374944
O O19 0.992097 0.500000 0.928717
O O20 0.000000 0.736059 0.000000
#
# Coordination Sequence:
#
# PCOD8210180 Si02
#       7
#     8   8   8   8   8   8   8
#     4   9  18  33  53  75  98 126 159 193 227 269
#     4  10  20  33  47  65  92 127 161 195 233 278
#     4  10  20  31  43  63  91 119 148 187 236 285
#     4   8  15  30  51  71  92 122 159 193 224 266
#     4   9  16  28  48  68  84 109 148 192 238 285
#     4  10  20  31  46  70 100 130 158 191 237 284
#     4   9  15  27  48  68  86 114 157 203 237 270
#
# _framework density 16.777761000000002
#
# number of rings (size 3 to 8) (size 9 to 14) (size 15 to 20)
#    0.000    2.714    1.429    1.714    0.000    5.429 
#    0.000    4.286    0.000    0.857    0.000    2.000 
#    0.000    0.000    0.000    0.000    0.000    0.000 
#
# Total GULP energy -693841.184323 kJ/mol
# GULP energy per Si atom -12390.021149 kJ/mol
# Density = 1.673957 g / cm^3
# Si number density = 16.777761 Si / 1000 Ang^3
#
#
#
# Elastic Constant Matrix: (Units=GPa)
#
#
# Indices 1 2 3 4 5 6 
#
# 1 78.3499 32.4387 54.6845 0.0000 0.0000 0.0000
# 2 32.4387 69.3316 48.5033 0.0000 0.0000 0.0000
# 3 54.6845 48.5033 101.5846 0.0000 0.0000 0.0000
# 4 0.0000 0.0000 0.0000 6.5315 0.0000 0.0000
# 5 0.0000 0.0000 0.0000 0.0000 22.8696 0.0000
# 6 0.0000 0.0000 0.0000 0.0000 0.0000 18.9479
#
#
#
# Elastic Compliance Matrix: (Units=1/GPa)
#
#
# Indices 1 2 3 4 5 6 
#
# 1 0.020814 -0.002853 -0.009842 0.000000 0.000000 0.000000
# 2 -0.002853 0.022049 -0.008992 0.000000 0.000000 0.000000
# 3 -0.009842 -0.008992 0.019436 0.000000 0.000000 0.000000
# 4 0.000000 0.000000 0.000000 0.153105 0.000000 0.000000
# 5 0.000000 0.000000 0.000000 0.000000 0.043726 0.000000
# 6 0.000000 0.000000 0.000000 0.000000 0.000000 0.052776
#
#
# Mechanical properties :
#
#
# Convention : Reuss Voigt Hill
#
# Bulk Modulus (GPa) = 52.84218 57.83546 55.33882
# Shear Modulus (GPa) = 13.82790 17.24577 15.53684
#
# Velocity S-wave (km/s) = 2.87397 3.20956 3.04639
# Velocity P-wave (km/s) = 6.52508 6.94848 6.74010
#
# Compressibility (1/GPa) = 0.01892428
#
# Stress axis : x y z
#
# Youngs Moduli (GPa) = 48.04502 45.35407 51.45220
#
# Poissons Ratio (x) = 0.12939 0.50640
# Poissons Ratio (y) = 0.13707 0.46265
# Poissons Ratio (z) = 0.47287 0.40781
#
# Static dielectric constant tensor:
#      x y z
#    x 3.386520 0.000000 0.000000 
#    y 0.000000 3.185330 0.000000 
#    z 0.000000 0.000000 3.096580 
# 
# 
# High freq. dielectric constant tensor:
#      x y z
#    x 1.644690 0.000000 0.000000 
#    y 0.000000 1.635780 0.000000 
#    z 0.000000 0.000000 1.620070 
# 
# From -- ./inp_files/30470.got.cif
#   From: 2010.03.12/outbox.cif.g09.slc.cpg/sg51_16_cif.got.tgz:30470.got - 2010.04.16 13:43:02.
