data_PCOD8210606
_publ_section_title
;
Structure prediction by ZEFSAII (Michael W. Deem and Ramdas Pophale) SiO2 
 PCOD8210606
Probable space group: P M M A
;
_chemical_formula_sum "Si O2"
_cell_formula_units_Z 64
_cell_length_a 9.189145
_cell_length_b 14.330262
_cell_length_c 25.797034
_cell_angle_alpha 90.000000
_cell_angle_beta 90.000000
_cell_angle_gamma 90.000000
_cell_volume 3397.027098
_symmetry_space_group_name_H-M "P M M A"
_symmetry_group_IT_number 51
_symmetry_cell_setting 'orthorhombic'
loop_
_space_group_symop_operation_xyz
x,y,z
1/2-x,-y,z
1/2+x,-y,-z
-x,y,-z
-x,-y,-z
1/2+x,y,-z
1/2-x,y,z
x,-y,z
loop_
_atom_site_type_symbol
_atom_site_label
_atom_site_fract_x
_atom_site_fract_y
_atom_site_fract_z
Si Si1 0.576495 0.720181 0.050749
Si Si2 0.581345 0.897332 0.303070
Si Si3 0.080151 0.291040 0.653167
Si Si4 0.578710 0.892554 0.910674
Si Si5 0.419973 0.392055 0.551329
Si Si6 0.091579 0.110444 0.204816
Si Si7 0.080915 0.393778 0.255821
Si Si8 0.416061 0.610286 0.138304
O O1 0.750000 0.717667 0.045389
O O2 0.519697 0.827112 0.053368
O O3 0.528083 0.661540 0.100679
O O4 0.500000 0.675060 0.000000
O O5 0.750000 0.907605 0.292498
O O6 0.550318 0.820991 0.347789
O O7 0.516999 0.857062 0.249516
O O8 0.516885 0.000000 0.318441
O O9 0.250000 0.314191 0.657107
O O10 0.017487 0.334234 0.600119
O O11 0.006691 0.332917 0.703604
O O12 0.750000 0.878516 0.922007
O O13 0.541106 0.858282 0.852207
O O14 0.533712 0.000000 0.920189
O O15 0.500000 0.355593 0.500000
O O16 0.250000 0.374642 0.543235
O O17 0.455932 0.500000 0.561774
O O18 0.250000 0.153957 0.217535
O O19 0.104213 0.000000 0.203500
O O20 0.250000 0.386771 0.269417
O O21 0.027095 0.500000 0.260675
O O22 0.051827 0.357053 0.197370
O O23 0.250000 0.636702 0.123354
O O24 0.439129 0.500000 0.133682
#
# Coordination Sequence:
#
# PCOD8210606 Si02
#       8
#     8   8   8   8   8   8   8   8
#     4  12  26  41  59  82 108 139 179 225 272 326
#     4   9  18  31  46  69 105 144 180 217 257 306
#     4  10  20  32  50  78 110 144 181 220 267 315
#     4   9  19  37  59  81 108 142 178 219 269 323
#     4   9  18  33  52  74 102 137 177 224 273 321
#     4   8  15  29  49  72  98 132 172 211 254 304
#     4   9  19  35  55  81 111 141 172 209 259 319
#     4   9  20  41  64  83 108 141 176 219 270 324
#
# _framework density 18.840002999999999
#
# number of rings (size 3 to 8) (size 9 to 14) (size 15 to 20)
#    0.000    2.625    0.000    3.000    1.750    3.750 
#    0.000    3.750    0.000    0.375    0.000    0.000 
#    0.000    0.000    0.000    0.000    0.000    0.000 
#
# Total GULP energy -793361.977346 kJ/mol
# GULP energy per Si atom -12396.280896 kJ/mol
# Density = 1.879712 g / cm^3
# Si number density = 18.840003 Si / 1000 Ang^3
#
#
#
# Elastic Constant Matrix: (Units=GPa)
#
#
# Indices 1 2 3 4 5 6 
#
# 1 71.4621 40.5226 52.4154 0.0000 0.0000 0.0000
# 2 40.5226 65.0685 57.6268 0.0000 0.0000 0.0000
# 3 52.4154 57.6268 123.6051 0.0000 0.0000 0.0000
# 4 0.0000 0.0000 0.0000 28.6268 0.0000 0.0000
# 5 0.0000 0.0000 0.0000 0.0000 31.3188 0.0000
# 6 0.0000 0.0000 0.0000 0.0000 0.0000 24.5465
#
#
#
# Elastic Compliance Matrix: (Units=1/GPa)
#
#
# Indices 1 2 3 4 5 6 
#
# 1 0.023551 -0.009916 -0.005364 0.000000 0.000000 0.000000
# 2 -0.009916 0.030352 -0.009946 0.000000 0.000000 0.000000
# 3 -0.005364 -0.009946 0.015002 0.000000 0.000000 0.000000
# 4 0.000000 0.000000 0.000000 0.034932 0.000000 0.000000
# 5 0.000000 0.000000 0.000000 0.000000 0.031930 0.000000
# 6 0.000000 0.000000 0.000000 0.000000 0.000000 0.040739
#
#
# Mechanical properties :
#
#
# Convention : Reuss Voigt Hill
#
# Bulk Modulus (GPa) = 54.19124 62.36281 58.27702
# Shear Modulus (GPa) = 21.44936 24.20315 22.82626
#
# Velocity S-wave (km/s) = 3.37783 3.58812 3.48456
# Velocity P-wave (km/s) = 6.63621 7.09501 6.86945
#
# Compressibility (1/GPa) = 0.01845317
#
# Stress axis : x y z
#
# Youngs Moduli (GPa) = 42.46193 32.94660 66.65995
#
# Poissons Ratio (x) = 0.32671 0.35753
# Poissons Ratio (y) = 0.42107 0.66297
# Poissons Ratio (z) = 0.22775 0.32767
#
# Static dielectric constant tensor:
#      x y z
#    x 3.668020 0.000000 0.000000 
#    y 0.000000 3.594550 0.000000 
#    z 0.000000 0.000000 3.498330 
# 
# 
# High freq. dielectric constant tensor:
#      x y z
#    x 1.717880 0.000000 0.000000 
#    y 0.000000 1.735650 0.000000 
#    z 0.000000 0.000000 1.719110 
# 
# From -- ./inp_files/34953.got.cif
#   From: 2010.03.12/outbox.cif.g09.slc.cpg/sg51_18_cif.got.tgz:34953.got - 2010.04.16 13:43:02.
