data_PCOD8210933
_publ_section_title
;
Structure prediction by ZEFSAII (Michael W. Deem and Ramdas Pophale) SiO2 
 PCOD8210933
Probable space group: P M M A
;
_chemical_formula_sum "Si O2"
_cell_formula_units_Z 64
_cell_length_a 9.222569
_cell_length_b 14.234208
_cell_length_c 31.044657
_cell_angle_alpha 90.000000
_cell_angle_beta 90.000000
_cell_angle_gamma 90.000000
_cell_volume 4075.417319
_symmetry_space_group_name_H-M "P M M A"
_symmetry_group_IT_number 51
_symmetry_cell_setting 'orthorhombic'
loop_
_space_group_symop_operation_xyz
x,y,z
1/2-x,-y,z
1/2+x,-y,-z
-x,y,-z
-x,-y,-z
1/2+x,y,-z
1/2-x,y,z
x,-y,z
loop_
_atom_site_type_symbol
_atom_site_label
_atom_site_fract_x
_atom_site_fract_y
_atom_site_fract_z
Si Si1 0.581883 0.210767 0.542688
Si Si2 0.581100 0.607303 0.323763
Si Si3 0.587618 0.887886 0.958899
Si Si4 0.589757 0.111452 0.121372
Si Si5 0.422416 0.777419 0.290140
Si Si6 0.585109 0.395083 0.589119
Si Si7 0.081017 0.890653 0.781956
Si Si8 0.577753 0.894688 0.627367
O O1 0.500000 0.178053 0.500000
O O2 0.750000 0.189717 0.535341
O O3 0.552214 0.321242 0.551278
O O4 0.521129 0.151708 0.583177
O O5 0.750000 0.633129 0.323058
O O6 0.554358 0.500000 0.309146
O O7 0.494092 0.674223 0.291106
O O8 0.522924 0.623545 0.371821
O O9 0.750000 0.848675 0.961993
O O10 0.518159 0.847842 0.914776
O O11 0.586216 0.000000 0.958635
O O12 0.500000 0.849394 0.000000
O O13 0.750000 0.152255 0.112181
O O14 0.539281 0.139515 0.169343
O O15 0.596421 0.000000 0.118230
O O16 0.250000 0.768087 0.288259
O O17 0.477501 0.830583 0.248177
O O18 0.477053 0.834318 0.332135
O O19 0.750000 0.379840 0.606227
O O20 0.564470 0.500000 0.570271
O O21 0.250000 0.869634 0.772782
O O22 0.047493 0.000000 0.774192
O O23 0.750000 0.896178 0.627427
O O24 0.514635 0.000000 0.631095
#
# Coordination Sequence:
#
# PCOD8210933 Si02
#       8
#     8   8   8   8   8   8   8   8
#     4  10  20  34  49  68  91 117 145 174 212 256
#     4  10  20  33  51  74  96 116 140 174 216 262
#     4   9  15  21  31  48  70  99 140 189 235 276
#     4   8  14  25  38  51  74 109 145 183 229 273
#     4  11  20  32  51  72  92 118 150 182 219 265
#     4   9  17  32  52  71  92 116 141 170 209 259
#     4   9  18  31  45  64  92 123 153 190 234 272
#     4   9  18  33  50  67  89 116 145 178 215 253
#
# _framework density 15.703913
#
# number of rings (size 3 to 8) (size 9 to 14) (size 15 to 20)
#    0.000    2.625    1.250    2.250    0.000    4.500 
#    0.000    1.250    0.000    1.500    0.000    0.000 
#    0.000    0.000    0.000    0.000    0.000    0.625 
#
# Total GULP energy -793459.518458 kJ/mol
# GULP energy per Si atom -12397.804976 kJ/mol
# Density = 1.566817 g / cm^3
# Si number density = 15.703913 Si / 1000 Ang^3
#
#
#
# Elastic Constant Matrix: (Units=GPa)
#
#
# Indices 1 2 3 4 5 6 
#
# 1 87.2462 34.2557 59.9802 0.0000 0.0000 0.0000
# 2 34.2557 64.4852 36.7214 0.0000 0.0000 0.0000
# 3 59.9802 36.7214 119.5014 0.0000 0.0000 0.0000
# 4 0.0000 0.0000 0.0000 7.0169 0.0000 0.0000
# 5 0.0000 0.0000 0.0000 0.0000 30.0922 0.0000
# 6 0.0000 0.0000 0.0000 0.0000 0.0000 17.5750
#
#
#
# Elastic Compliance Matrix: (Units=1/GPa)
#
#
# Indices 1 2 3 4 5 6 
#
# 1 0.019072 -0.005673 -0.007829 0.000000 0.000000 0.000000
# 2 -0.005673 0.020484 -0.003447 0.000000 0.000000 0.000000
# 3 -0.007829 -0.003447 0.013357 0.000000 0.000000 0.000000
# 4 0.000000 0.000000 0.000000 0.142513 0.000000 0.000000
# 5 0.000000 0.000000 0.000000 0.000000 0.033231 0.000000
# 6 0.000000 0.000000 0.000000 0.000000 0.000000 0.056899
#
#
# Mechanical properties :
#
#
# Convention : Reuss Voigt Hill
#
# Bulk Modulus (GPa) = 52.59241 59.23859 55.91550
# Shear Modulus (GPa) = 15.34720 20.28852 17.81786
#
# Velocity S-wave (km/s) = 3.12955 3.59826 3.37206
# Velocity P-wave (km/s) = 6.82799 7.42074 7.13053
#
# Compressibility (1/GPa) = 0.01901415
#
# Stress axis : x y z
#
# Youngs Moduli (GPa) = 52.43392 48.81869 74.86686
#
# Poissons Ratio (x) = 0.27694 0.58615
# Poissons Ratio (y) = 0.29745 0.25808
# Poissons Ratio (z) = 0.41052 0.16829
#
# Static dielectric constant tensor:
#      x y z
#    x 3.001930 0.000000 0.000000 
#    y 0.000000 2.881270 0.000000 
#    z 0.000000 0.000000 2.980130 
# 
# 
# High freq. dielectric constant tensor:
#      x y z
#    x 1.600790 0.000000 0.000000 
#    y 0.000000 1.566660 0.000000 
#    z 0.000000 0.000000 1.593420 
# 
# From -- ./inp_files/37586.got.cif
#   From: 2010.03.12/outbox.cif.g09.slc.cpg/sg51_19_cif.got.tgz:37586.got - 2010.04.16 13:43:02.
