data_PCOD8210029
_publ_section_title
;
Structure prediction by ZEFSAII (Michael W. Deem and Ramdas Pophale) SiO2 
 PCOD8210029
Probable space group: P M M A
;
_chemical_formula_sum "Si O2"
_cell_formula_units_Z 64
_cell_length_a 31.043569
_cell_length_b 8.850296
_cell_length_c 12.078709
_cell_angle_alpha 90.000000
_cell_angle_beta 90.000000
_cell_angle_gamma 90.000000
_cell_volume 3318.562181
_symmetry_space_group_name_H-M "P M M A"
_symmetry_group_IT_number 51
_symmetry_cell_setting 'orthorhombic'
loop_
_space_group_symop_operation_xyz
x,y,z
1/2-x,-y,z
1/2+x,-y,-z
-x,y,-z
-x,-y,-z
1/2+x,y,-z
1/2-x,y,z
x,-y,z
loop_
_atom_site_type_symbol
_atom_site_label
_atom_site_fract_x
_atom_site_fract_y
_atom_site_fract_z
Si Si1 0.549615 0.820777 0.015011
Si Si2 0.201786 0.321804 0.984183
Si Si3 0.122457 0.321957 0.129272
Si Si4 0.387961 0.171087 0.352770
Si Si5 0.488863 0.828502 0.377848
Si Si6 0.626807 0.823980 0.401927
Si Si7 0.701587 0.826998 0.241445
Si Si8 0.558170 0.677091 0.245259
O O1 0.568737 0.759384 0.130097
O O2 0.552471 0.000000 0.013466
O O3 0.500000 0.766989 0.000000
O O4 0.579433 0.758028 0.916566
O O5 0.250000 0.256223 0.011004
O O6 0.203606 0.500000 0.989398
O O7 0.165634 0.261164 0.068489
O O8 0.186953 0.273795 0.861821
O O9 0.116881 0.500000 0.114058
O O10 0.129378 0.280927 0.257580
O O11 0.438905 0.180946 0.357012
O O12 0.369365 0.227082 0.470522
O O13 0.373000 0.000000 0.327506
O O14 0.500000 0.767638 0.500000
O O15 0.510658 0.722870 0.285845
O O16 0.506134 0.000000 0.364320
O O17 0.672651 0.789828 0.347196
O O18 0.590973 0.727280 0.340032
O O19 0.613433 0.000000 0.395499
O O20 0.750000 0.788369 0.277888
O O21 0.696553 0.000000 0.204137
O O22 0.561202 0.500000 0.224885
#
# Coordination Sequence:
#
# PCOD8210029 Si02
#       8
#     8   8   8   8   8   8   8   8
#     4  11  24  41  59  79 109 152 193 226 274 342
#     4   9  19  37  59  82 111 147 183 221 277 347
#     4  11  23  38  58  84 114 146 186 240 291 330
#     4  10  21  37  57  79 108 150 191 225 268 330
#     4  10  19  36  57  76 105 147 192 227 265 328
#     4  10  20  37  57  78 109 148 185 220 267 332
#     4   9  18  33  57  87 112 135 172 227 280 323
#     4  12  24  35  54  84 114 140 179 234 283 320
#
# _framework density 19.285461000000002
#
# number of rings (size 3 to 8) (size 9 to 14) (size 15 to 20)
#    0.000    1.750    1.250    3.375    0.000    8.750 
#    0.000    0.625    0.000    0.750    0.000    0.000 
#    0.000    0.000    0.000    0.000    0.000    0.000 
#
# Total GULP energy -793776.742660 kJ/mol
# GULP energy per Si atom -12402.761604 kJ/mol
# Density = 1.924157 g / cm^3
# Si number density = 19.285461 Si / 1000 Ang^3
#
#
#
# Elastic Constant Matrix: (Units=GPa)
#
#
# Indices 1 2 3 4 5 6 
#
# 1 102.1539 33.4397 59.5672 0.0000 0.0000 0.0000
# 2 33.4397 54.0738 31.7706 0.0000 0.0000 0.0000
# 3 59.5672 31.7706 133.6906 0.0000 0.0000 0.0000
# 4 0.0000 0.0000 0.0000 26.4137 0.0000 0.0000
# 5 0.0000 0.0000 0.0000 0.0000 34.0680 0.0000
# 6 0.0000 0.0000 0.0000 0.0000 0.0000 19.1497
#
#
#
# Elastic Compliance Matrix: (Units=1/GPa)
#
#
# Indices 1 2 3 4 5 6 
#
# 1 0.014789 -0.006130 -0.005132 0.000000 0.000000 0.000000
# 2 -0.006130 0.024035 -0.002981 0.000000 0.000000 0.000000
# 3 -0.005132 -0.002981 0.010475 0.000000 0.000000 0.000000
# 4 0.000000 0.000000 0.000000 0.037859 0.000000 0.000000
# 5 0.000000 0.000000 0.000000 0.000000 0.029353 0.000000
# 6 0.000000 0.000000 0.000000 0.000000 0.000000 0.052220
#
#
# Mechanical properties :
#
#
# Convention : Reuss Voigt Hill
#
# Bulk Modulus (GPa) = 48.04676 59.94147 53.99411
# Shear Modulus (GPa) = 24.49122 26.93565 25.71343
#
# Velocity S-wave (km/s) = 3.56748 3.74127 3.65541
# Velocity P-wave (km/s) = 6.47586 7.05773 6.77304
#
# Compressibility (1/GPa) = 0.02081306
#
# Stress axis : x y z
#
# Youngs Moduli (GPa) = 67.61994 41.60569 95.46446
#
# Poissons Ratio (x) = 0.25503 0.48997
# Poissons Ratio (y) = 0.41450 0.28454
# Poissons Ratio (z) = 0.34706 0.12401
#
# Static dielectric constant tensor:
#      x y z
#    x 3.696010 0.000000 0.000000 
#    y 0.000000 3.436070 0.000000 
#    z 0.000000 0.000000 3.451520 
# 
# 
# High freq. dielectric constant tensor:
#      x y z
#    x 1.748240 0.000000 0.000000 
#    y 0.000000 1.739200 0.000000 
#    z 0.000000 0.000000 1.754910 
# 
# From -- ./inp_files/19549.got.cif
#   From: 2010.03.12/outbox.cif.g09.slc.cpg/sg51_10_cif.got.tgz:19549.got - 2010.04.16 13:43:02.
