data_PCOD8210208
_publ_section_title
;
Structure prediction by ZEFSAII (Michael W. Deem and Ramdas Pophale) SiO2 
 PCOD8210208
Probable space group: P M M A
;
_chemical_formula_sum "Si O2"
_cell_formula_units_Z 44
_cell_length_a 9.772647
_cell_length_b 8.122852
_cell_length_c 29.901479
_cell_angle_alpha 90.000000
_cell_angle_beta 90.000000
_cell_angle_gamma 90.000000
_cell_volume 2373.632186
_symmetry_space_group_name_H-M "P M M A"
_symmetry_group_IT_number 51
_symmetry_cell_setting 'orthorhombic'
loop_
_space_group_symop_operation_xyz
x,y,z
1/2-x,-y,z
1/2+x,-y,-z
-x,y,-z
-x,-y,-z
1/2+x,y,-z
1/2-x,y,z
x,-y,z
loop_
_atom_site_type_symbol
_atom_site_label
_atom_site_fract_x
_atom_site_fract_y
_atom_site_fract_z
Si Si1 0.587651 0.317267 0.898344
Si Si2 0.586258 0.000000 0.955200
Si Si3 0.909439 0.812739 0.806652
Si Si4 0.401631 0.804132 0.537824
Si Si5 0.907838 0.192307 0.362258
Si Si6 0.402454 0.310786 0.285531
O O1 0.750000 0.307982 0.896138
O O2 0.540436 0.500000 0.915611
O O3 0.529173 0.293085 0.847851
O O4 0.538436 0.166773 0.929594
O O5 0.750000 0.000000 0.963933
O O6 0.500000 0.000000 0.000000
O O7 0.750000 0.772820 0.801512
O O8 0.973978 0.772481 0.758090
O O9 0.937269 0.000000 0.819698
O O10 0.500000 0.727310 0.500000
O O11 0.250000 0.734414 0.528862
O O12 0.450446 0.753197 0.587519
O O13 0.399118 0.000000 0.534708
O O14 0.750000 0.238079 0.353539
O O15 0.002947 0.289286 0.328397
O O16 0.932370 0.000000 0.355245
O O17 0.250000 0.237552 0.295278
O O18 0.389732 0.500000 0.273833
#
# Coordination Sequence:
#
# PCOD8210208 Si02
#       6
#     8   4   8   8   8   8
#     4   9  16  28  48  74 103 134 170 211 254 303
#     4  10  20  34  52  76 104 136 174 214 257 302
#     4   9  15  26  46  72 100 127 159 202 249 294
#     4   8  14  25  42  65  90 115 147 191 240 289
#     4   9  18  32  48  67  94 127 161 195 237 294
#     4  10  20  31  45  70 100 127 158 199 245 289
#
# _framework density 18.536991
#
# number of rings (size 3 to 8) (size 9 to 14) (size 15 to 20)
#    0.000    2.909    0.909    2.182    0.000    4.727 
#    0.000    1.818    0.000    1.636    0.000    0.000 
#    0.000    0.000    0.000    0.000    0.000    0.000 
#
# Total GULP energy -545212.491403 kJ/mol
# GULP energy per Si atom -12391.192986 kJ/mol
# Density = 1.849480 g / cm^3
# Si number density = 18.536991 Si / 1000 Ang^3
#
#
#
# Elastic Constant Matrix: (Units=GPa)
#
#
# Indices 1 2 3 4 5 6 
#
# 1 42.0524 20.1535 48.1316 0.0000 0.0000 0.0000
# 2 20.1535 74.4482 51.2269 0.0000 0.0000 0.0000
# 3 48.1316 51.2269 150.5560 0.0000 0.0000 0.0000
# 4 0.0000 0.0000 0.0000 16.5465 0.0000 0.0000
# 5 0.0000 0.0000 0.0000 0.0000 25.4782 0.0000
# 6 0.0000 0.0000 0.0000 0.0000 0.0000 12.2939
#
#
#
# Elastic Compliance Matrix: (Units=1/GPa)
#
#
# Indices 1 2 3 4 5 6 
#
# 1 0.037857 -0.002508 -0.011250 0.000000 0.000000 0.000000
# 2 -0.002508 0.017704 -0.005222 0.000000 0.000000 0.000000
# 3 -0.011250 -0.005222 0.012015 0.000000 0.000000 0.000000
# 4 0.000000 0.000000 0.000000 0.060436 0.000000 0.000000
# 5 0.000000 0.000000 0.000000 0.000000 0.039249 0.000000
# 6 0.000000 0.000000 0.000000 0.000000 0.000000 0.081341
#
#
# Mechanical properties :
#
#
# Convention : Reuss Voigt Hill
#
# Bulk Modulus (GPa) = 33.76282 56.23120 44.99701
# Shear Modulus (GPa) = 16.86711 20.70003 18.78357
#
# Velocity S-wave (km/s) = 3.01975 3.34531 3.18669
# Velocity P-wave (km/s) = 5.51469 6.73216 6.15361
#
# Compressibility (1/GPa) = 0.02961838
#
# Stress axis : x y z
#
# Youngs Moduli (GPa) = 26.41491 56.48329 83.22695
#
# Poissons Ratio (x) = 0.14163 0.93627
# Poissons Ratio (y) = 0.06624 0.43464
# Poissons Ratio (z) = 0.29716 0.29497
#
# Static dielectric constant tensor:
#      x y z
#    x 2.940440 0.000000 0.000000 
#    y 0.000000 3.367300 0.000000 
#    z 0.000000 0.000000 3.561980 
# 
# 
# High freq. dielectric constant tensor:
#      x y z
#    x 1.663770 0.000000 0.000000 
#    y 0.000000 1.713470 0.000000 
#    z 0.000000 0.000000 1.729140 
# 
# From -- ./inp_files/36719.got.cif
#   From: 2010.03.12/outbox.cif.g09.slc.cpg/sg51_19_cif.got.tgz:36719.got - 2010.04.16 13:43:02.
