data_PCOD8210431
_publ_section_title
;
Structure prediction by ZEFSAII (Michael W. Deem and Ramdas Pophale) SiO2 
 PCOD8210431
Probable space group: P M M A
;
_chemical_formula_sum "Si O2"
_cell_formula_units_Z 48
_cell_length_a 9.048665
_cell_length_b 9.381372
_cell_length_c 30.837960
_cell_angle_alpha 90.000000
_cell_angle_beta 90.000000
_cell_angle_gamma 90.000000
_cell_volume 2617.800270
_symmetry_space_group_name_H-M "P M M A"
_symmetry_group_IT_number 51
_symmetry_cell_setting 'orthorhombic'
loop_
_space_group_symop_operation_xyz
x,y,z
1/2-x,-y,z
1/2+x,-y,-z
-x,y,-z
-x,-y,-z
1/2+x,y,-z
1/2-x,y,z
x,-y,z
loop_
_atom_site_type_symbol
_atom_site_label
_atom_site_fract_x
_atom_site_fract_y
_atom_site_fract_z
Si Si1 0.916631 0.830212 0.957889
Si Si2 0.577445 0.164611 0.128104
Si Si3 0.074820 0.342582 0.298436
Si Si4 0.581341 0.667966 0.798071
Si Si5 0.577077 0.166289 0.620082
Si Si6 0.923285 0.336188 0.455401
O O1 0.750000 0.771729 0.958083
O O2 0.996383 0.774886 0.914540
O O3 0.919984 0.000000 0.959218
O O4 0.000000 0.768137 0.000000
O O5 0.750000 0.186604 0.120795
O O6 0.526308 0.251874 0.169581
O O7 0.536990 0.000000 0.135852
O O8 0.250000 0.352166 0.298390
O O9 0.009967 0.500000 0.309029
O O10 0.025492 0.292758 0.250477
O O11 0.019210 0.231610 0.334521
O O12 0.750000 0.719087 0.805395
O O13 0.569124 0.500000 0.805689
O O14 0.750000 0.198078 0.613004
O O15 0.485770 0.236302 0.581768
O O16 0.542716 0.000000 0.621076
O O17 0.750000 0.310482 0.460438
O O18 0.960170 0.500000 0.443957
O O19 0.000000 0.290638 0.500000
#
# Coordination Sequence:
#
# PCOD8210431 Si02
#       6
#     8   8   8   8   8   8
#     4   9  16  27  45  69  97 129 165 206 251 298
#     4  10  20  32  47  71 102 134 169 208 250 298
#     4   8  15  30  52  75  99 130 169 210 249 294
#     4   9  18  33  53  76 100 129 168 211 254 301
#     4  10  20  33  52  80 110 138 168 205 253 305
#     4  10  21  37  57  79 102 133 174 215 254 298
#
# _framework density 18.336003000000002
#
# number of rings (size 3 to 8) (size 9 to 14) (size 15 to 20)
#    0.000    2.667    0.000    3.000    0.000    6.333 
#    0.000    2.500    0.000    1.500    0.000    0.000 
#    0.000    0.000    0.000    0.000    0.000    0.000 
#
# Total GULP energy -595195.305619 kJ/mol
# GULP energy per Si atom -12399.902200 kJ/mol
# Density = 1.829427 g / cm^3
# Si number density = 18.336003 Si / 1000 Ang^3
#
#
#
# Elastic Constant Matrix: (Units=GPa)
#
#
# Indices 1 2 3 4 5 6 
#
# 1 84.9558 39.5464 65.9867 0.0000 0.0000 0.0000
# 2 39.5464 65.4027 69.1204 0.0000 0.0000 0.0000
# 3 65.9867 69.1204 173.8455 0.0000 0.0000 0.0000
# 4 0.0000 0.0000 0.0000 31.6425 0.0000 0.0000
# 5 0.0000 0.0000 0.0000 0.0000 33.3411 0.0000
# 6 0.0000 0.0000 0.0000 0.0000 0.0000 23.8239
#
#
#
# Elastic Compliance Matrix: (Units=1/GPa)
#
#
# Indices 1 2 3 4 5 6 
#
# 1 0.018104 -0.006354 -0.004345 0.000000 0.000000 0.000000
# 2 -0.006354 0.028601 -0.008960 0.000000 0.000000 0.000000
# 3 -0.004345 -0.008960 0.010964 0.000000 0.000000 0.000000
# 4 0.000000 0.000000 0.000000 0.031603 0.000000 0.000000
# 5 0.000000 0.000000 0.000000 0.000000 0.029993 0.000000
# 6 0.000000 0.000000 0.000000 0.000000 0.000000 0.041975
#
#
# Mechanical properties :
#
#
# Convention : Reuss Voigt Hill
#
# Bulk Modulus (GPa) = 54.49557 74.83455 64.66506
# Shear Modulus (GPa) = 24.19254 27.73154 25.96204
#
# Velocity S-wave (km/s) = 3.63630 3.89319 3.76693
# Velocity P-wave (km/s) = 6.88587 7.81734 7.36634
#
# Compressibility (1/GPa) = 0.01835012
#
# Stress axis : x y z
#
# Youngs Moduli (GPa) = 55.23718 34.96339 91.20827
#
# Poissons Ratio (x) = 0.22217 0.39631
# Poissons Ratio (y) = 0.35100 0.81721
# Poissons Ratio (z) = 0.24001 0.31327
#
# Static dielectric constant tensor:
#      x y z
#    x 3.249100 0.000000 0.000000 
#    y 0.000000 3.191850 0.000000 
#    z 0.000000 0.000000 3.643780 
# 
# 
# High freq. dielectric constant tensor:
#      x y z
#    x 1.697810 0.000000 0.000000 
#    y 0.000000 1.685760 0.000000 
#    z 0.000000 0.000000 1.727210 
# 
# From -- ./inp_files/36950.got.cif
#   From: 2010.03.12/outbox.cif.g09.slc.cpg/sg51_19_cif.got.tgz:36950.got - 2010.04.16 13:43:02.
