data_PCOD8210956
_publ_section_title
;
Structure prediction by ZEFSAII (Michael W. Deem and Ramdas Pophale) SiO2 
 PCOD8210956
Probable space group: P M M A
;
_chemical_formula_sum "Si O2"
_cell_formula_units_Z 64
_cell_length_a 22.086185
_cell_length_b 9.862772
_cell_length_c 16.599894
_cell_angle_alpha 90.000000
_cell_angle_beta 90.000000
_cell_angle_gamma 90.000000
_cell_volume 3615.971626
_symmetry_space_group_name_H-M "P M M A"
_symmetry_group_IT_number 51
_symmetry_cell_setting 'orthorhombic'
loop_
_space_group_symop_operation_xyz
x,y,z
1/2-x,-y,z
1/2+x,-y,-z
-x,y,-z
-x,-y,-z
1/2+x,y,-z
1/2-x,y,z
x,-y,z
loop_
_atom_site_type_symbol
_atom_site_label
_atom_site_fract_x
_atom_site_fract_y
_atom_site_fract_z
Si Si1 0.945265 0.656167 0.937626
Si Si2 0.818771 0.344827 0.025029
Si Si3 0.818363 0.651892 0.289578
Si Si4 0.817546 0.646822 0.475905
Si Si5 0.908919 0.153578 0.511766
Si Si6 0.487318 0.153836 0.633659
Si Si7 0.002004 0.155674 0.812596
Si Si8 0.636959 0.844211 0.161603
O O1 0.950530 0.500000 0.910752
O O2 0.954077 0.752653 0.860449
O O3 0.876206 0.686105 0.967086
O O4 0.000000 0.688507 0.000000
O O5 0.750000 0.326084 0.987250
O O6 0.825298 0.500000 0.056303
O O7 0.823563 0.240029 0.098252
O O8 0.750000 0.656188 0.256458
O O9 0.844925 0.500000 0.273758
O O10 0.819140 0.688309 0.382941
O O11 0.856725 0.770011 0.247464
O O12 0.750000 0.641316 0.508572
O O13 0.848410 0.500000 0.488092
O O14 0.850331 0.758091 0.530044
O O15 0.947435 0.161593 0.592612
O O16 0.941122 0.218493 0.431706
O O17 0.890760 0.000000 0.493373
O O18 0.490082 0.220251 0.722473
O O19 0.466669 0.000000 0.647406
O O20 0.065913 0.159727 0.859830
O O21 0.978093 0.000000 0.808632
O O22 0.660103 0.000000 0.165717
#
# Coordination Sequence:
#
# PCOD8210956 Si02
#       8
#     8   8   8   8   8   8   8   8
#     4  10  20  36  56  77 100 129 172 217 248 289
#     4  10  21  37  55  73  98 134 168 201 252 310
#     4   9  18  31  44  60  90 134 173 201 241 299
#     4   9  18  31  45  64  94 130 165 204 250 296
#     4   9  16  30  52  72  97 130 167 205 245 296
#     4   8  16  31  50  74 101 131 162 202 253 300
#     4  10  20  33  51  75 104 134 165 203 255 307
#     4  11  21  30  46  74 103 128 162 206 246 293
#
# _framework density 17.699252999999999
#
# number of rings (size 3 to 8) (size 9 to 14) (size 15 to 20)
#    0.000    2.500    1.250    3.000    0.000    5.000 
#    0.000    3.750    0.000    0.750    0.000    3.500 
#    0.000    0.000    0.000    0.000    0.000    0.000 
#
# Total GULP energy -792915.647254 kJ/mol
# GULP energy per Si atom -12389.306988 kJ/mol
# Density = 1.765897 g / cm^3
# Si number density = 17.699253 Si / 1000 Ang^3
#
#
#
# Elastic Constant Matrix: (Units=GPa)
#
#
# Indices 1 2 3 4 5 6 
#
# 1 90.7072 41.0388 26.4712 0.0000 0.0000 0.0000
# 2 41.0388 85.4400 25.9750 0.0000 0.0000 0.0000
# 3 26.4712 25.9750 55.7225 0.0000 0.0000 0.0000
# 4 0.0000 0.0000 0.0000 24.3732 0.0000 0.0000
# 5 0.0000 0.0000 0.0000 0.0000 19.2999 0.0000
# 6 0.0000 0.0000 0.0000 0.0000 0.0000 25.8449
#
#
#
# Elastic Compliance Matrix: (Units=1/GPa)
#
#
# Indices 1 2 3 4 5 6 
#
# 1 0.014948 -0.005850 -0.004374 0.000000 0.000000 0.000000
# 2 -0.005850 0.015926 -0.004645 0.000000 0.000000 0.000000
# 3 -0.004374 -0.004645 0.022189 0.000000 0.000000 0.000000
# 4 0.000000 0.000000 0.000000 0.041029 0.000000 0.000000
# 5 0.000000 0.000000 0.000000 0.000000 0.051814 0.000000
# 6 0.000000 0.000000 0.000000 0.000000 0.000000 0.038692
#
#
# Mechanical properties :
#
#
# Convention : Reuss Voigt Hill
#
# Bulk Modulus (GPa) = 42.87201 46.53775 44.70488
# Shear Modulus (GPa) = 22.51135 23.12927 22.82031
#
# Velocity S-wave (km/s) = 3.57021 3.61888 3.59463
# Velocity P-wave (km/s) = 6.42420 6.61910 6.52238
#
# Compressibility (1/GPa) = 0.02332524
#
# Stress axis : x y z
#
# Youngs Moduli (GPa) = 66.90014 62.79002 45.06709
#
# Poissons Ratio (x) = 0.36732 0.19712
# Poissons Ratio (y) = 0.39136 0.20933
# Poissons Ratio (z) = 0.29262 0.29165
#
# Static dielectric constant tensor:
#      x y z
#    x 3.321020 0.000000 0.000000 
#    y 0.000000 3.243410 0.000000 
#    z 0.000000 0.000000 3.046330 
# 
# 
# High freq. dielectric constant tensor:
#      x y z
#    x 1.676940 0.000000 0.000000 
#    y 0.000000 1.680510 0.000000 
#    z 0.000000 0.000000 1.653050 
# 
# From -- ./inp_files/30802.got.cif
#   From: 2010.03.12/outbox.cif.g09.slc.cpg/sg51_16_cif.got.tgz:30802.got - 2010.04.16 13:43:02.
