data_PCOD8210835
_publ_section_title
;
Structure prediction by ZEFSAII (Michael W. Deem and Ramdas Pophale) SiO2 
 PCOD8210835
Probable space group: P M M A
;
_chemical_formula_sum "Si O2"
_cell_formula_units_Z 44
_cell_length_a 9.424152
_cell_length_b 7.712558
_cell_length_c 29.972680
_cell_angle_alpha 90.000000
_cell_angle_beta 90.000000
_cell_angle_gamma 90.000000
_cell_volume 2178.543831
_symmetry_space_group_name_H-M "P M M A"
_symmetry_group_IT_number 51
_symmetry_cell_setting 'orthorhombic'
loop_
_space_group_symop_operation_xyz
x,y,z
1/2-x,-y,z
1/2+x,-y,-z
-x,y,-z
-x,-y,-z
1/2+x,y,-z
1/2-x,y,z
x,-y,z
loop_
_atom_site_type_symbol
_atom_site_label
_atom_site_fract_x
_atom_site_fract_y
_atom_site_fract_z
Si Si1 0.088203 0.704346 0.138769
Si Si2 0.414265 0.800778 0.612575
Si Si3 0.085627 0.500000 0.545150
Si Si4 0.909313 0.205502 0.698873
Si Si5 0.406913 0.198519 0.779182
Si Si6 0.907279 0.706160 0.960235
O O1 0.250000 0.766910 0.147237
O O2 0.079013 0.500000 0.144716
O O3 0.037922 0.760240 0.089000
O O4 0.981995 0.792487 0.173063
O O5 0.250000 0.778816 0.626414
O O6 0.454272 0.674256 0.572067
O O7 0.509280 0.740916 0.654081
O O8 0.446332 0.000000 0.598551
O O9 0.250000 0.500000 0.532781
O O10 0.000000 0.500000 0.500000
O O11 0.750000 0.283762 0.698232
O O12 0.994787 0.286256 0.741043
O O13 0.900932 0.000000 0.703170
O O14 0.250000 0.286594 0.780867
O O15 0.386533 0.000000 0.765986
O O16 0.750000 0.779674 0.966930
O O17 0.906598 0.500000 0.963528
O O18 0.000000 0.788653 0.000000
#
# Coordination Sequence:
#
# PCOD8210835 Si02
#       6
#     8   8   4   8   8   8
#     4   9  18  32  48  69  98 127 160 205 253 302
#     4   9  18  35  57  79 107 143 181 223 270 318
#     4  10  22  38  56  82 114 146 182 224 269 318
#     4   9  17  31  53  78 101 130 171 213 252 301
#     4  10  20  33  50  73 101 134 170 207 251 306
#     4   8  14  25  42  64  89 118 153 196 246 299
#
# _framework density 20.196977
#
# number of rings (size 3 to 8) (size 9 to 14) (size 15 to 20)
#    0.000    2.909    0.000    2.182    0.000    5.455 
#    1.636    1.818    0.000    0.545    0.000    0.000 
#    0.000    0.000    0.000    0.000    0.000    0.000 
#
# Total GULP energy -545400.246557 kJ/mol
# GULP energy per Si atom -12395.460149 kJ/mol
# Density = 2.015101 g / cm^3
# Si number density = 20.196977 Si / 1000 Ang^3
#
#
#
# Elastic Constant Matrix: (Units=GPa)
#
#
# Indices 1 2 3 4 5 6 
#
# 1 144.0742 24.5620 107.1597 0.0000 0.0000 0.0000
# 2 24.5620 44.4861 33.8386 0.0000 0.0000 0.0000
# 3 107.1597 33.8386 187.0230 0.0000 0.0000 0.0000
# 4 0.0000 0.0000 0.0000 24.2650 0.0000 0.0000
# 5 0.0000 0.0000 0.0000 0.0000 46.7183 0.0000
# 6 0.0000 0.0000 0.0000 0.0000 0.0000 13.7246
#
#
#
# Elastic Compliance Matrix: (Units=1/GPa)
#
#
# Indices 1 2 3 4 5 6 
#
# 1 0.012199 -0.001645 -0.006692 0.000000 0.000000 0.000000
# 2 -0.001645 0.026288 -0.003814 0.000000 0.000000 0.000000
# 3 -0.006692 -0.003814 0.009871 0.000000 0.000000 0.000000
# 4 0.000000 0.000000 0.000000 0.041212 0.000000 0.000000
# 5 0.000000 0.000000 0.000000 0.000000 0.021405 0.000000
# 6 0.000000 0.000000 0.000000 0.000000 0.000000 0.072862
#
#
# Mechanical properties :
#
#
# Convention : Reuss Voigt Hill
#
# Bulk Modulus (GPa) = 41.56858 78.52266 60.04562
# Shear Modulus (GPa) = 23.13134 30.94309 27.03722
#
# Velocity S-wave (km/s) = 3.38788 3.91841 3.66276
# Velocity P-wave (km/s) = 5.99416 7.70939 6.90524
#
# Compressibility (1/GPa) = 0.02405663
#
# Stress axis : x y z
#
# Youngs Moduli (GPa) = 81.97664 38.03989 101.30411
#
# Poissons Ratio (x) = 0.06257 0.67791
# Poissons Ratio (y) = 0.13485 0.38636
# Poissons Ratio (z) = 0.54858 0.14508
#
# Static dielectric constant tensor:
#      x y z
#    x 3.941390 0.000000 0.000000 
#    y 0.000000 3.354730 0.000000 
#    z 0.000000 0.000000 3.706370 
# 
# 
# High freq. dielectric constant tensor:
#      x y z
#    x 1.789260 0.000000 0.000000 
#    y 0.000000 1.760330 0.000000 
#    z 0.000000 0.000000 1.789020 
# 
# From -- ./inp_files/36735.got.cif
#   From: 2010.03.12/outbox.cif.g09.slc.cpg/sg51_19_cif.got.tgz:36735.got - 2010.04.16 13:43:02.
