data_PCOD8210991
_publ_section_title
;
Structure prediction by ZEFSAII (Michael W. Deem and Ramdas Pophale) SiO2 
 PCOD8210991
Probable space group: P M M A
;
_chemical_formula_sum "Si O2"
_cell_formula_units_Z 48
_cell_length_a 9.096265
_cell_length_b 9.390120
_cell_length_c 31.060967
_cell_angle_alpha 90.000000
_cell_angle_beta 90.000000
_cell_angle_gamma 90.000000
_cell_volume 2653.073114
_symmetry_space_group_name_H-M "P M M A"
_symmetry_group_IT_number 51
_symmetry_cell_setting 'orthorhombic'
loop_
_space_group_symop_operation_xyz
x,y,z
1/2-x,-y,z
1/2+x,-y,-z
-x,y,-z
-x,-y,-z
1/2+x,y,-z
1/2-x,y,z
x,-y,z
loop_
_atom_site_type_symbol
_atom_site_label
_atom_site_fract_x
_atom_site_fract_y
_atom_site_fract_z
Si Si1 0.574870 0.159058 0.295672
Si Si2 0.581900 0.831264 0.881945
Si Si3 0.913478 0.169220 0.201334
Si Si4 0.574702 0.660458 0.375109
Si Si5 0.578167 0.335518 0.043871
Si Si6 0.077632 0.163770 0.543240
O O1 0.750000 0.152854 0.297713
O O2 0.528381 0.218788 0.248440
O O3 0.511398 0.262767 0.332437
O O4 0.511653 0.000000 0.303444
O O5 0.750000 0.782487 0.886941
O O6 0.524244 0.777343 0.835520
O O7 0.483777 0.759815 0.918131
O O8 0.565044 0.000000 0.886372
O O9 0.750000 0.231092 0.192030
O O10 0.904571 0.000000 0.201996
O O11 0.750000 0.662662 0.374134
O O12 0.513749 0.500000 0.376296
O O13 0.517122 0.743245 0.417141
O O14 0.750000 0.305837 0.038695
O O15 0.544855 0.500000 0.054295
O O16 0.500000 0.288086 0.000000
O O17 0.250000 0.184817 0.536962
O O18 0.000000 0.218469 0.500000
O O19 0.037577 0.000000 0.552843
#
# Coordination Sequence:
#
# PCOD8210991 Si02
#       6
#     8   8   8   8   8   8
#     4   8  13  23  41  62  83 112 151 190 228 271
#     4  10  20  33  51  76 104 133 165 201 242 288
#     4   8  14  26  45  68  93 121 153 191 234 277
#     4   9  16  25  39  62  90 116 144 183 229 272
#     4  10  21  37  56  76  99 130 167 205 246 292
#     4   9  17  29  45  64  86 113 146 183 222 267
#
# _framework density 18.092227000000001
#
# number of rings (size 3 to 8) (size 9 to 14) (size 15 to 20)
#    0.000    3.000    0.000    2.500    0.000    4.667 
#    0.000    0.833    0.000    4.000    0.000    4.667 
#    0.000    0.000    0.000    0.000    0.000    0.000 
#
# Total GULP energy -595070.133371 kJ/mol
# GULP energy per Si atom -12397.294445 kJ/mol
# Density = 1.805105 g / cm^3
# Si number density = 18.092227 Si / 1000 Ang^3
#
#
#
# Elastic Constant Matrix: (Units=GPa)
#
#
# Indices 1 2 3 4 5 6 
#
# 1 54.8268 25.5938 48.6120 0.0000 0.0000 0.0000
# 2 25.5938 71.6737 67.9408 0.0000 0.0000 0.0000
# 3 48.6120 67.9408 179.0447 0.0000 0.0000 0.0000
# 4 0.0000 0.0000 0.0000 6.0941 0.0000 0.0000
# 5 0.0000 0.0000 0.0000 0.0000 26.9996 0.0000
# 6 0.0000 0.0000 0.0000 0.0000 0.0000 15.7295
#
#
#
# Elastic Compliance Matrix: (Units=1/GPa)
#
#
# Indices 1 2 3 4 5 6 
#
# 1 0.024682 -0.003844 -0.005243 0.000000 0.000000 0.000000
# 2 -0.003844 0.022389 -0.007452 0.000000 0.000000 0.000000
# 3 -0.005243 -0.007452 0.009836 0.000000 0.000000 0.000000
# 4 0.000000 0.000000 0.000000 0.164094 0.000000 0.000000
# 5 0.000000 0.000000 0.000000 0.000000 0.037038 0.000000
# 6 0.000000 0.000000 0.000000 0.000000 0.000000 0.063575
#
#
# Mechanical properties :
#
#
# Convention : Reuss Voigt Hill
#
# Bulk Modulus (GPa) = 41.96440 65.53760 53.75100
# Shear Modulus (GPa) = 13.78801 20.65787 17.22294
#
# Velocity S-wave (km/s) = 2.76360 3.38273 3.08872
# Velocity P-wave (km/s) = 5.78173 7.18053 6.51876
#
# Compressibility (1/GPa) = 0.02382972
#
# Stress axis : x y z
#
# Youngs Moduli (GPa) = 40.51514 44.66546 101.66333
#
# Poissons Ratio (x) = 0.17170 0.53299
# Poissons Ratio (y) = 0.15574 0.75759
# Poissons Ratio (z) = 0.21241 0.33285
#
# Static dielectric constant tensor:
#      x y z
#    x 3.437220 0.000000 0.000000 
#    y 0.000000 3.228560 0.000000 
#    z 0.000000 0.000000 3.721370 
# 
# 
# High freq. dielectric constant tensor:
#      x y z
#    x 1.663660 0.000000 0.000000 
#    y 0.000000 1.677350 0.000000 
#    z 0.000000 0.000000 1.719330 
# 
# From -- ./inp_files/36879.got.cif
#   From: 2010.03.12/outbox.cif.g09.slc.cpg/sg51_19_cif.got.tgz:36879.got - 2010.04.16 13:43:02.
