data_PCOD8210535
_publ_section_title
;
Structure prediction by ZEFSAII (Michael W. Deem and Ramdas Pophale) SiO2 
 PCOD8210535
Probable space group: P M M A
;
_chemical_formula_sum "Si O2"
_cell_formula_units_Z 36
_cell_length_a 9.320346
_cell_length_b 15.203932
_cell_length_c 14.382183
_cell_angle_alpha 90.000000
_cell_angle_beta 90.000000
_cell_angle_gamma 90.000000
_cell_volume 2038.040284
_symmetry_space_group_name_H-M "P M M A"
_symmetry_group_IT_number 51
_symmetry_cell_setting 'orthorhombic'
loop_
_space_group_symop_operation_xyz
x,y,z
1/2-x,-y,z
1/2+x,-y,-z
-x,y,-z
-x,-y,-z
1/2+x,y,-z
1/2-x,y,z
x,-y,z
loop_
_atom_site_type_symbol
_atom_site_label
_atom_site_fract_x
_atom_site_fract_y
_atom_site_fract_z
Si Si1 0.581647 0.308708 0.902103
Si Si2 0.910850 0.500000 0.909185
Si Si3 0.417690 0.248883 0.733287
Si Si4 0.083610 0.900041 0.590989
Si Si5 0.083227 0.400219 0.592802
O O1 0.750000 0.286536 0.915461
O O2 0.559008 0.407413 0.857387
O O3 0.509934 0.243740 0.827658
O O4 0.500000 0.298390 0.000000
O O5 0.750000 0.500000 0.945770
O O6 0.000000 0.500000 0.000000
O O7 0.250000 0.251949 0.758978
O O8 0.458537 0.161149 0.677199
O O9 0.463064 0.334545 0.674393
O O10 0.250000 0.890229 0.566987
O O11 0.000000 0.867950 0.500000
O O12 0.042521 0.000000 0.617481
O O13 0.250000 0.389436 0.569767
O O14 0.045978 0.500000 0.623944
O O15 0.000000 0.373704 0.500000
#
# Coordination Sequence:
#
# PCOD8210535 Si02
#       5
#     8   4   8   8   8
#     4  10  20  34  51  72  99 131 168 209 251 294
#     4   8  16  30  46  66  91 122 161 202 243 284
#     4  10  20  32  49  73 100 131 166 205 249 297
#     4   9  18  33  53  77 104 132 164 205 252 299
#     4   9  18  31  45  65  95 130 164 198 237 285
#
# _framework density 17.664027999999998
#
# number of rings (size 3 to 8) (size 9 to 14) (size 15 to 20)
#    0.000    2.667    0.000    1.333    1.556    2.667 
#    0.000    0.000    0.000    0.667    0.000    0.000 
#    0.000    0.000    0.000    0.000    0.000    0.000 
#
# Total GULP energy -446192.379171 kJ/mol
# GULP energy per Si atom -12394.232755 kJ/mol
# Density = 1.762382 g / cm^3
# Si number density = 17.664028 Si / 1000 Ang^3
#
#
#
# Elastic Constant Matrix: (Units=GPa)
#
#
# Indices 1 2 3 4 5 6 
#
# 1 71.4563 41.0113 62.9230 0.0000 0.0000 0.0000
# 2 41.0113 83.6294 60.4871 0.0000 0.0000 0.0000
# 3 62.9230 60.4871 119.9233 0.0000 0.0000 0.0000
# 4 0.0000 0.0000 0.0000 23.0644 0.0000 0.0000
# 5 0.0000 0.0000 0.0000 0.0000 35.2861 0.0000
# 6 0.0000 0.0000 0.0000 0.0000 0.0000 17.5496
#
#
#
# Elastic Compliance Matrix: (Units=1/GPa)
#
#
# Indices 1 2 3 4 5 6 
#
# 1 0.027158 -0.004741 -0.011858 0.000000 0.000000 0.000000
# 2 -0.004741 0.019653 -0.007425 0.000000 0.000000 0.000000
# 3 -0.011858 -0.007425 0.018305 0.000000 0.000000 0.000000
# 4 0.000000 0.000000 0.000000 0.043357 0.000000 0.000000
# 5 0.000000 0.000000 0.000000 0.000000 0.028340 0.000000
# 6 0.000000 0.000000 0.000000 0.000000 0.000000 0.056981
#
#
# Mechanical properties :
#
#
# Convention : Reuss Voigt Hill
#
# Bulk Modulus (GPa) = 58.59031 67.09465 62.84248
# Shear Modulus (GPa) = 20.19944 22.55252 21.37598
#
# Velocity S-wave (km/s) = 3.38529 3.57704 3.48248
# Velocity P-wave (km/s) = 6.96574 7.42472 7.19889
#
# Compressibility (1/GPa) = 0.01706767
#
# Stress axis : x y z
#
# Youngs Moduli (GPa) = 36.82186 50.88334 54.62859
#
# Poissons Ratio (x) = 0.24125 0.64779
# Poissons Ratio (y) = 0.17458 0.40560
# Poissons Ratio (z) = 0.43664 0.37780
#
# Static dielectric constant tensor:
#      x y z
#    x 3.256680 0.000000 0.000000 
#    y 0.000000 3.241960 0.000000 
#    z 0.000000 0.000000 3.017440 
# 
# 
# High freq. dielectric constant tensor:
#      x y z
#    x 1.686580 0.000000 0.000000 
#    y 0.000000 1.673080 0.000000 
#    z 0.000000 0.000000 1.666000 
# 
# From -- ./inp_files/20303.got.cif
#   From: 2010.03.12/outbox.cif.g09.slc.cpg/sg51_11_cif.got.tgz:20303.got - 2010.04.16 13:43:02.
