data_PCOD8210397
_publ_section_title
;
Structure prediction by ZEFSAII (Michael W. Deem and Ramdas Pophale) SiO2 
 PCOD8210397
Probable space group: P M M A
;
_chemical_formula_sum "Si O2"
_cell_formula_units_Z 48
_cell_length_a 9.142372
_cell_length_b 15.014372
_cell_length_c 18.890806
_cell_angle_alpha 90.000000
_cell_angle_beta 90.000000
_cell_angle_gamma 90.000000
_cell_volume 2593.083779
_symmetry_space_group_name_H-M "P M M A"
_symmetry_group_IT_number 51
_symmetry_cell_setting 'orthorhombic'
loop_
_space_group_symop_operation_xyz
x,y,z
1/2-x,-y,z
1/2+x,-y,-z
-x,y,-z
-x,-y,-z
1/2+x,y,-z
1/2-x,y,z
x,-y,z
loop_
_atom_site_type_symbol
_atom_site_label
_atom_site_fract_x
_atom_site_fract_y
_atom_site_fract_z
Si Si1 0.420901 0.398862 0.188481
Si Si2 0.423761 0.901721 0.686280
Si Si3 0.576752 0.745576 0.926767
Si Si4 0.419397 0.103770 0.845412
Si Si5 0.922187 0.240353 0.426301
Si Si6 0.079635 0.600377 0.669780
O O1 0.250000 0.392547 0.202749
O O2 0.467871 0.500000 0.169041
O O3 0.469524 0.333987 0.125690
O O4 0.498621 0.366537 0.260011
O O5 0.250000 0.902730 0.685641
O O6 0.473727 0.875535 0.765473
O O7 0.484582 0.831853 0.629347
O O8 0.483675 0.000000 0.666525
O O9 0.750000 0.751591 0.937240
O O10 0.519016 0.839875 0.898341
O O11 0.500000 0.722107 0.000000
O O12 0.250000 0.130640 0.855365
O O13 0.441759 0.000000 0.863136
O O14 0.750000 0.229234 0.437481
O O15 0.963119 0.337729 0.396410
O O16 0.000000 0.224302 0.500000
O O17 0.250000 0.608557 0.686743
O O18 0.033635 0.500000 0.649367
#
# Coordination Sequence:
#
# PCOD8210397 Si02
#       6
#     8   8   8   8   8   8
#     4   9  19  36  56  78 103 131 167 212 258 301
#     4   8  15  30  52  74  95 124 163 204 246 293
#     4  11  23  36  52  76 107 140 170 205 251 302
#     4   9  18  35  59  81 100 129 171 215 257 302
#     4  10  20  32  47  70 101 133 164 201 244 293
#     4   9  18  33  53  75  97 126 167 210 250 296
#
# _framework density 18.510778999999999
#
# number of rings (size 3 to 8) (size 9 to 14) (size 15 to 20)
#    0.000    2.667    0.000    2.500    0.000    5.000 
#    0.000    0.833    0.000    1.000    0.000    0.000 
#    0.000    0.000    0.000    0.000    0.000    0.000 
#
# Total GULP energy -595208.411250 kJ/mol
# GULP energy per Si atom -12400.175234 kJ/mol
# Density = 1.846865 g / cm^3
# Si number density = 18.510779 Si / 1000 Ang^3
#
#
#
# Elastic Constant Matrix: (Units=GPa)
#
#
# Indices 1 2 3 4 5 6 
#
# 1 35.1903 18.2667 18.9907 0.0000 0.0000 0.0000
# 2 18.2667 68.4501 22.6062 0.0000 0.0000 0.0000
# 3 18.9907 22.6062 70.7765 0.0000 0.0000 0.0000
# 4 0.0000 0.0000 0.0000 22.2703 0.0000 0.0000
# 5 0.0000 0.0000 0.0000 0.0000 34.8315 0.0000
# 6 0.0000 0.0000 0.0000 0.0000 0.0000 21.7976
#
#
#
# Elastic Compliance Matrix: (Units=1/GPa)
#
#
# Indices 1 2 3 4 5 6 
#
# 1 0.036149 -0.007203 -0.007399 0.000000 0.000000 0.000000
# 2 -0.007203 0.017767 -0.003742 0.000000 0.000000 0.000000
# 3 -0.007399 -0.003742 0.017309 0.000000 0.000000 0.000000
# 4 0.000000 0.000000 0.000000 0.044903 0.000000 0.000000
# 5 0.000000 0.000000 0.000000 0.000000 0.028710 0.000000
# 6 0.000000 0.000000 0.000000 0.000000 0.000000 0.045877
#
#
# Mechanical properties :
#
#
# Convention : Reuss Voigt Hill
#
# Bulk Modulus (GPa) = 28.95414 32.68268 30.81841
# Shear Modulus (GPa) = 20.92794 23.41677 22.17235
#
# Velocity S-wave (km/s) = 3.36606 3.56059 3.46469
# Velocity P-wave (km/s) = 5.54823 5.88201 5.71756
#
# Compressibility (1/GPa) = 0.03453738
#
# Stress axis : x y z
#
# Youngs Moduli (GPa) = 27.66351 56.28305 57.77199
#
# Poissons Ratio (x) = 0.40542 0.42743
# Poissons Ratio (y) = 0.19927 0.21619
# Poissons Ratio (z) = 0.20467 0.21062
#
# Static dielectric constant tensor:
#      x y z
#    x 3.150210 0.000000 0.000000 
#    y 0.000000 3.710070 0.000000 
#    z 0.000000 0.000000 3.386220 
# 
# 
# High freq. dielectric constant tensor:
#      x y z
#    x 1.695030 0.000000 0.000000 
#    y 0.000000 1.730710 0.000000 
#    z 0.000000 0.000000 1.715150 
# 
# From -- ./inp_files/27520.got.cif
#   From: 2010.03.12/outbox.cif.g09.slc.cpg/sg51_14_cif.got.tgz:27520.got - 2010.04.16 13:43:02.
