data_PCOD8210026
_publ_section_title
;
Structure prediction by ZEFSAII (Michael W. Deem and Ramdas Pophale) SiO2 
 PCOD8210026
Probable space group: P M M A
;
_chemical_formula_sum "Si O2"
_cell_formula_units_Z 48
_cell_length_a 8.871611
_cell_length_b 14.952831
_cell_length_c 19.865195
_cell_angle_alpha 90.000000
_cell_angle_beta 90.000000
_cell_angle_gamma 90.000000
_cell_volume 2635.231348
_symmetry_space_group_name_H-M "P M M A"
_symmetry_group_IT_number 51
_symmetry_cell_setting 'orthorhombic'
loop_
_space_group_symop_operation_xyz
x,y,z
1/2-x,-y,z
1/2+x,-y,-z
-x,y,-z
-x,-y,-z
1/2+x,y,-z
1/2-x,y,z
x,-y,z
loop_
_atom_site_type_symbol
_atom_site_label
_atom_site_fract_x
_atom_site_fract_y
_atom_site_fract_z
Si Si1 0.417079 0.101271 0.791367
Si Si2 0.917960 0.842402 0.361578
Si Si3 0.568109 0.500000 0.423730
Si Si4 0.076112 0.000000 0.430287
Si Si5 0.927496 0.280537 0.808446
Si Si6 0.071998 0.602011 0.068386
Si Si7 0.930205 0.663518 0.658982
O O1 0.250000 0.101824 0.823775
O O2 0.402741 0.130004 0.714928
O O3 0.517422 0.179251 0.824245
O O4 0.485884 0.000000 0.799097
O O5 0.750000 0.840621 0.394059
O O6 0.002671 0.750302 0.376720
O O7 0.029095 0.912483 0.392356
O O8 0.750000 0.500000 0.428750
O O9 0.500000 0.500000 0.500000
O O10 0.510564 0.417125 0.379430
O O11 0.000000 0.000000 0.500000
O O12 0.250000 0.000000 0.441092
O O13 0.750000 0.275220 0.808772
O O14 0.990465 0.342146 0.868394
O O15 0.977909 0.327055 0.738000
O O16 0.250000 0.610481 0.062446
O O17 0.020765 0.500000 0.079696
O O18 0.000000 0.640548 0.000000
O O19 0.750000 0.655916 0.650770
#
# Coordination Sequence:
#
# PCOD8210026 Si02
#       7
#     8   8   4   4   8   8   8
#     4   9  17  31  52  77 107 140 172 216 270 317
#     4  10  19  36  56  77 107 139 173 220 273 325
#     4  12  26  44  62  82 107 144 185 228 279 334
#     4  12  24  36  52  76 104 138 179 220 271 332
#     4   9  19  33  54  83 112 145 182 224 272 321
#     4   9  18  33  53  78 112 150 185 221 268 321
#     4  10  21  38  60  86 111 142 182 228 278 330
#
# _framework density 18.214718999999999
#
# number of rings (size 3 to 8) (size 9 to 14) (size 15 to 20)
#    0.000    2.167    0.833    2.500    1.167    3.000 
#    0.000    3.333    0.000    0.500    0.000    0.000 
#    0.000    0.000    0.000    0.000    0.000    0.000 
#
# Total GULP energy -594755.162859 kJ/mol
# GULP energy per Si atom -12390.732560 kJ/mol
# Density = 1.817326 g / cm^3
# Si number density = 18.214719 Si / 1000 Ang^3
#
#
#
# Elastic Constant Matrix: (Units=GPa)
#
#
# Indices 1 2 3 4 5 6 
#
# 1 94.4566 51.0672 41.5156 0.0000 0.0000 0.0000
# 2 51.0672 159.7736 66.6921 0.0000 0.0000 0.0000
# 3 41.5156 66.6921 72.6124 0.0000 0.0000 0.0000
# 4 0.0000 0.0000 0.0000 449.4197 0.0000 0.0000
# 5 0.0000 0.0000 0.0000 0.0000 26.0933 0.0000
# 6 0.0000 0.0000 0.0000 0.0000 0.0000 36.2163
#
#
#
# Elastic Compliance Matrix: (Units=1/GPa)
#
#
# Indices 1 2 3 4 5 6 
#
# 1 0.014488 -0.001902 -0.006536 0.000000 0.000000 0.000000
# 2 -0.001902 0.010400 -0.008464 0.000000 0.000000 0.000000
# 3 -0.006536 -0.008464 0.025283 0.000000 0.000000 0.000000
# 4 0.000000 0.000000 0.000000 0.002225 0.000000 0.000000
# 5 0.000000 0.000000 0.000000 0.000000 0.038324 0.000000
# 6 0.000000 0.000000 0.000000 0.000000 0.000000 0.027612
#
#
# Mechanical properties :
#
#
# Convention : Reuss Voigt Hill
#
# Bulk Modulus (GPa) = 61.10516 71.71026 66.40771
# Shear Modulus (GPa) = 31.72718 113.51705 72.62212
#
# Velocity S-wave (km/s) = 4.17807 7.90297 6.32112
# Velocity P-wave (km/s) = 7.54287 11.07839 9.47696
#
# Compressibility (1/GPa) = 0.01636523
#
# Stress axis : x y z
#
# Youngs Moduli (GPa) = 69.02171 96.15272 39.55214
#
# Poissons Ratio (x) = 0.18292 0.25852
# Poissons Ratio (y) = 0.13131 0.33479
# Poissons Ratio (z) = 0.45114 0.81388
#
# Static dielectric constant tensor:
#      x y z
#    x 3.502970 0.000000 0.000000 
#    y 0.000000 3.604740 0.000000 
#    z 0.000000 0.000000 3.402460 
# 
# 
# High freq. dielectric constant tensor:
#      x y z
#    x 1.710260 0.000000 0.000000 
#    y 0.000000 1.717530 0.000000 
#    z 0.000000 0.000000 1.684340 
# 
# From -- ./inp_files/27650.got.cif
#   From: 2010.03.12/outbox.cif.g09.slc.cpg/sg51_14_cif.got.tgz:27650.got - 2010.04.16 13:43:02.
