data_PCOD8210553
_publ_section_title
;
Structure prediction by ZEFSAII (Michael W. Deem and Ramdas Pophale) SiO2 
 PCOD8210553
Probable space group: P M M A
;
_chemical_formula_sum "Si O2"
_cell_formula_units_Z 48
_cell_length_a 9.269346
_cell_length_b 9.341343
_cell_length_c 31.055295
_cell_angle_alpha 90.000000
_cell_angle_beta 90.000000
_cell_angle_gamma 90.000000
_cell_volume 2689.020243
_symmetry_space_group_name_H-M "P M M A"
_symmetry_group_IT_number 51
_symmetry_cell_setting 'orthorhombic'
loop_
_space_group_symop_operation_xyz
x,y,z
1/2-x,-y,z
1/2+x,-y,-z
-x,y,-z
-x,-y,-z
1/2+x,y,-z
1/2-x,y,z
x,-y,z
loop_
_atom_site_type_symbol
_atom_site_label
_atom_site_fract_x
_atom_site_fract_y
_atom_site_fract_z
Si Si1 0.082058 0.165982 0.042112
Si Si2 0.087176 0.669694 0.793678
Si Si3 0.918599 0.334491 0.875045
Si Si4 0.581843 0.165993 0.456318
Si Si5 0.584659 0.670025 0.617166
Si Si6 0.411900 0.329869 0.699006
O O1 0.250000 0.196362 0.034929
O O2 0.022201 0.251025 0.083375
O O3 0.049209 0.000000 0.050092
O O4 0.000000 0.222984 0.000000
O O5 0.250000 0.719096 0.802528
O O6 0.074182 0.500000 0.793957
O O7 0.038016 0.725986 0.746329
O O8 0.989049 0.732548 0.831913
O O9 0.750000 0.310954 0.869816
O O10 0.959991 0.500000 0.881087
O O11 0.500000 0.205668 0.500000
O O12 0.750000 0.204829 0.461536
O O13 0.512865 0.260807 0.419286
O O14 0.560417 0.000000 0.444625
O O15 0.750000 0.720956 0.612893
O O16 0.572080 0.500000 0.612971
O O17 0.523755 0.725005 0.663100
O O18 0.250000 0.273466 0.688606
O O19 0.408869 0.500000 0.699477
#
# Coordination Sequence:
#
# PCOD8210553 Si02
#       6
#     8   8   8   8   8   8
#     4   9  18  32  47  62  83 113 146 178 216 265
#     4   8  14  25  42  65  92 121 152 185 223 267
#     4   9  17  28  43  65  90 113 141 181 225 264
#     4  10  21  37  56  75  96 127 165 202 243 291
#     4  10  20  32  49  76 105 131 162 200 241 284
#     4   8  14  26  44  66  94 126 157 191 231 273
#
# _framework density 17.850366999999999
#
# number of rings (size 3 to 8) (size 9 to 14) (size 15 to 20)
#    0.000    3.000    0.000    2.000    0.000    4.000 
#    0.000    3.333    0.000    1.000    0.000    4.667 
#    0.000    0.000    0.000    0.000    0.000    0.000 
#
# Total GULP energy -595022.759268 kJ/mol
# GULP energy per Si atom -12396.307485 kJ/mol
# Density = 1.780974 g / cm^3
# Si number density = 17.850367 Si / 1000 Ang^3
#
#
#
# Elastic Constant Matrix: (Units=GPa)
#
#
# Indices 1 2 3 4 5 6 
#
# 1 98.3164 29.3600 83.8970 0.0000 0.0000 0.0000
# 2 29.3600 26.5961 43.0805 0.0000 0.0000 0.0000
# 3 83.8970 43.0805 178.6156 0.0000 0.0000 0.0000
# 4 0.0000 0.0000 0.0000 -3.0793 0.0000 0.0000
# 5 0.0000 0.0000 0.0000 0.0000 41.4481 0.0000
# 6 0.0000 0.0000 0.0000 0.0000 0.0000 18.0120
#
#
#
# Elastic Compliance Matrix: (Units=1/GPa)
#
#
# Indices 1 2 3 4 5 6 
#
# 1 0.018597 -0.010472 -0.006210 0.000000 0.000000 0.000000
# 2 -0.010472 0.067604 -0.011387 0.000000 0.000000 0.000000
# 3 -0.006210 -0.011387 0.011262 0.000000 0.000000 0.000000
# 4 0.000000 0.000000 0.000000 -0.324749 0.000000 0.000000
# 5 0.000000 0.000000 0.000000 0.000000 0.024127 0.000000
# 6 0.000000 0.000000 0.000000 0.000000 0.000000 0.055518
#
#
# Mechanical properties :
#
#
# Convention : Reuss Voigt Hill
#
# Bulk Modulus (GPa) = 24.19744 68.46701 46.33223
# Shear Modulus (GPa) = -64.32544 21.08887 -21.61828
#
# Velocity S-wave (km/s) = -6.00950 3.44091 -3.48384
# Velocity P-wave (km/s) = 5.87938 7.36382 3.13519
#
# Compressibility (1/GPa) = 0.04132669
#
# Stress axis : x y z
#
# Youngs Moduli (GPa) = 53.77142 14.79208 88.79636
#
# Poissons Ratio (x) = 0.15490 0.55139
# Poissons Ratio (y) = 0.56307 1.01111
# Poissons Ratio (z) = 0.33390 0.16844
#
# Static dielectric constant tensor:
#      x y z
#    x 3.419130 0.000000 0.000000 
#    y 0.000000 2.918540 0.000000 
#    z 0.000000 0.000000 3.793660 
# 
# 
# High freq. dielectric constant tensor:
#      x y z
#    x 1.691060 0.000000 0.000000 
#    y 0.000000 1.644210 0.000000 
#    z 0.000000 0.000000 1.708550 
# 
# From -- ./inp_files/37045.got.cif
#   From: 2010.03.12/outbox.cif.g09.slc.cpg/sg51_19_cif.got.tgz:37045.got - 2010.04.16 13:43:02.
