data_PCOD8210428
_publ_section_title
;
Structure prediction by ZEFSAII (Michael W. Deem and Ramdas Pophale) SiO2 
 PCOD8210428
Probable space group: P M M A
;
_chemical_formula_sum "Si O2"
_cell_formula_units_Z 48
_cell_length_a 9.113954
_cell_length_b 9.354523
_cell_length_c 30.829140
_cell_angle_alpha 90.000000
_cell_angle_beta 90.000000
_cell_angle_gamma 90.000000
_cell_volume 2628.390503
_symmetry_space_group_name_H-M "P M M A"
_symmetry_group_IT_number 51
_symmetry_cell_setting 'orthorhombic'
loop_
_space_group_symop_operation_xyz
x,y,z
1/2-x,-y,z
1/2+x,-y,-z
-x,y,-z
-x,-y,-z
1/2+x,y,-z
1/2-x,y,z
x,-y,z
loop_
_atom_site_type_symbol
_atom_site_label
_atom_site_fract_x
_atom_site_fract_y
_atom_site_fract_z
Si Si1 0.084266 0.170318 0.541973
Si Si2 0.920466 0.166648 0.627378
Si Si3 0.917196 0.330475 0.881202
Si Si4 0.578586 0.834801 0.044057
Si Si5 0.579729 0.333499 0.298612
Si Si6 0.587885 0.669538 0.201832
O O1 0.250000 0.228997 0.541572
O O2 0.000000 0.231720 0.500000
O O3 0.004463 0.226473 0.585185
O O4 0.081952 0.000000 0.540840
O O5 0.750000 0.198159 0.620548
O O6 0.976667 0.246262 0.669666
O O7 0.952307 0.000000 0.633838
O O8 0.750000 0.280081 0.886835
O O9 0.932373 0.500000 0.885474
O O10 0.017387 0.260063 0.917367
O O11 0.972817 0.276533 0.834127
O O12 0.750000 0.804870 0.038662
O O13 0.545387 0.000000 0.054343
O O14 0.500000 0.786439 0.000000
O O15 0.750000 0.302167 0.308676
O O16 0.544654 0.500000 0.304325
O O17 0.540044 0.280598 0.249888
O O18 0.750000 0.730512 0.190609
O O19 0.596189 0.500000 0.202057
#
# Coordination Sequence:
#
# PCOD8210428 Si02
#       6
#     8   8   8   8   8   8
#     4   9  16  27  45  68  94 125 161 201 245 292
#     4  10  20  32  47  71 102 132 164 203 245 290
#     4  10  20  33  52  79 106 131 163 204 248 292
#     4  10  21  37  56  76 100 133 170 205 245 294
#     4   9  18  33  53  75  98 128 167 206 246 296
#     4   8  15  30  51  73  98 129 165 205 247 291
#
# _framework density 18.262125999999999
#
# number of rings (size 3 to 8) (size 9 to 14) (size 15 to 20)
#    0.000    2.667    0.000    3.000    0.000    6.333 
#    0.000    2.500    0.000    1.500    0.000    0.000 
#    0.000    0.000    0.000    0.000    0.000    0.000 
#
# Total GULP energy -595179.612291 kJ/mol
# GULP energy per Si atom -12399.575256 kJ/mol
# Density = 1.822056 g / cm^3
# Si number density = 18.262126 Si / 1000 Ang^3
#
#
#
# Elastic Constant Matrix: (Units=GPa)
#
#
# Indices 1 2 3 4 5 6 
#
# 1 124.2768 34.4813 77.8639 0.0000 0.0000 0.0000
# 2 34.4813 27.3088 36.2021 0.0000 0.0000 0.0000
# 3 77.8639 36.2021 150.7921 0.0000 0.0000 0.0000
# 4 0.0000 0.0000 0.0000 27.2208 0.0000 0.0000
# 5 0.0000 0.0000 0.0000 0.0000 41.9862 0.0000
# 6 0.0000 0.0000 0.0000 0.0000 0.0000 24.4474
#
#
#
# Elastic Compliance Matrix: (Units=1/GPa)
#
#
# Indices 1 2 3 4 5 6 
#
# 1 0.014148 -0.011997 -0.004425 0.000000 0.000000 0.000000
# 2 -0.011997 0.063887 -0.009143 0.000000 0.000000 0.000000
# 3 -0.004425 -0.009143 0.011112 0.000000 0.000000 0.000000
# 4 0.000000 0.000000 0.000000 0.036737 0.000000 0.000000
# 5 0.000000 0.000000 0.000000 0.000000 0.023817 0.000000
# 6 0.000000 0.000000 0.000000 0.000000 0.000000 0.040904
#
#
# Mechanical properties :
#
#
# Convention : Reuss Voigt Hill
#
# Bulk Modulus (GPa) = 26.30502 66.60805 46.45653
# Shear Modulus (GPa) = 19.65352 28.98623 24.31988
#
# Velocity S-wave (km/s) = 3.28409 3.98833 3.65322
# Velocity P-wave (km/s) = 5.36803 7.60010 6.57941
#
# Compressibility (1/GPa) = 0.03801556
#
# Stress axis : x y z
#
# Youngs Moduli (GPa) = 70.68234 15.65263 89.99579
#
# Poissons Ratio (x) = 0.18779 0.39824
# Poissons Ratio (y) = 0.84801 0.82282
# Poissons Ratio (z) = 0.31278 0.14311
#
# Static dielectric constant tensor:
#      x y z
#    x 3.627970 0.000000 0.000000 
#    y 0.000000 2.940660 0.000000 
#    z 0.000000 0.000000 3.608080 
# 
# 
# High freq. dielectric constant tensor:
#      x y z
#    x 1.718510 0.000000 0.000000 
#    y 0.000000 1.661660 0.000000 
#    z 0.000000 0.000000 1.723990 
# 
# From -- ./inp_files/36916.got.cif
#   From: 2010.03.12/outbox.cif.g09.slc.cpg/sg51_19_cif.got.tgz:36916.got - 2010.04.16 13:43:02.
