data_PCOD8210039
_publ_section_title
;
Structure prediction by ZEFSAII (Michael W. Deem and Ramdas Pophale) SiO2 
 PCOD8210039
Probable space group: P M M A
;
_chemical_formula_sum "Si O2"
_cell_formula_units_Z 56
_cell_length_a 19.506395
_cell_length_b 8.841970
_cell_length_c 16.487105
_cell_angle_alpha 90.000000
_cell_angle_beta 90.000000
_cell_angle_gamma 90.000000
_cell_volume 2843.612765
_symmetry_space_group_name_H-M "P M M A"
_symmetry_group_IT_number 51
_symmetry_cell_setting 'orthorhombic'
loop_
_space_group_symop_operation_xyz
x,y,z
1/2-x,-y,z
1/2+x,-y,-z
-x,y,-z
-x,-y,-z
1/2+x,y,-z
1/2-x,y,z
x,-y,z
loop_
_atom_site_type_symbol
_atom_site_label
_atom_site_fract_x
_atom_site_fract_y
_atom_site_fract_z
Si Si1 0.173718 0.820387 0.693591
Si Si2 0.327723 0.321490 0.142596
Si Si3 0.448455 0.321841 0.252475
Si Si4 0.675353 0.820528 0.485405
Si Si5 0.072029 0.820327 0.829197
Si Si6 0.420446 0.321197 0.992599
Si Si7 0.954219 0.178560 0.575841
O O1 0.250000 0.760785 0.713797
O O2 0.151958 0.763599 0.603682
O O3 0.120413 0.755453 0.757961
O O4 0.172827 0.000000 0.696936
O O5 0.250000 0.251708 0.145355
O O6 0.321448 0.500000 0.135321
O O7 0.370472 0.279440 0.224704
O O8 0.372076 0.261919 0.065836
O O9 0.458531 0.500000 0.253853
O O10 0.497502 0.253377 0.183443
O O11 0.471161 0.256291 0.339314
O O12 0.750000 0.754043 0.507929
O O13 0.622766 0.769328 0.554266
O O14 0.678322 0.000000 0.481717
O O15 0.106231 0.763375 0.912326
O O16 0.065571 0.000000 0.828433
O O17 0.413481 0.500000 0.982511
O O18 0.500000 0.273277 0.000000
O O19 0.000000 0.234134 0.500000
O O20 0.963560 0.000000 0.587898
#
# Coordination Sequence:
#
# PCOD8210039 Si02
#       7
#     8   8   8   8   8   8   8
#     4   8  15  29  49  75 107 141 175 214 263 321
#     4   9  19  37  59  80 106 146 191 230 272 326
#     4  11  22  37  56  79 108 145 187 229 274 325
#     4   8  14  27  48  71  98 135 174 211 260 321
#     4  11  21  33  55  84 112 142 179 220 272 327
#     4  10  19  36  58  79 105 141 182 222 269 326
#     4  10  20  34  53  79 109 139 179 227 276 328
#
# _framework density 19.693259000000001
#
# number of rings (size 3 to 8) (size 9 to 14) (size 15 to 20)
#    0.000    2.429    1.429    2.571    0.000    4.000 
#    0.000    0.000    0.000    4.286    0.000    4.000 
#    0.000    0.000    0.000    0.000    0.000    0.000 
#
# Total GULP energy -694011.278798 kJ/mol
# GULP energy per Si atom -12393.058550 kJ/mol
# Density = 1.964844 g / cm^3
# Si number density = 19.693259 Si / 1000 Ang^3
#
#
#
# Elastic Constant Matrix: (Units=GPa)
#
#
# Indices 1 2 3 4 5 6 
#
# 1 87.8730 17.8926 37.5514 0.0000 0.0000 0.0000
# 2 17.8926 34.4022 25.6088 0.0000 0.0000 0.0000
# 3 37.5514 25.6088 110.0008 0.0000 0.0000 0.0000
# 4 0.0000 0.0000 0.0000 29.7518 0.0000 0.0000
# 5 0.0000 0.0000 0.0000 0.0000 33.9808 0.0000
# 6 0.0000 0.0000 0.0000 0.0000 0.0000 15.6236
#
#
#
# Elastic Compliance Matrix: (Units=1/GPa)
#
#
# Indices 1 2 3 4 5 6 
#
# 1 0.013868 -0.004462 -0.003695 0.000000 0.000000 0.000000
# 2 -0.004462 0.036597 -0.006997 0.000000 0.000000 0.000000
# 3 -0.003695 -0.006997 0.011981 0.000000 0.000000 0.000000
# 4 0.000000 0.000000 0.000000 0.033611 0.000000 0.000000
# 5 0.000000 0.000000 0.000000 0.000000 0.029428 0.000000
# 6 0.000000 0.000000 0.000000 0.000000 0.000000 0.064006
#
#
# Mechanical properties :
#
#
# Convention : Reuss Voigt Hill
#
# Bulk Modulus (GPa) = 31.11589 43.82019 37.46804
# Shear Modulus (GPa) = 21.69083 25.95279 23.82181
#
# Velocity S-wave (km/s) = 3.32239 3.63416 3.48176
# Velocity P-wave (km/s) = 5.52741 6.31737 5.93555
#
# Compressibility (1/GPa) = 0.03213792
#
# Stress axis : x y z
#
# Youngs Moduli (GPa) = 72.10984 27.32469 83.46380
#
# Poissons Ratio (x) = 0.12192 0.30843
# Poissons Ratio (y) = 0.32174 0.58398
# Poissons Ratio (z) = 0.26647 0.19119
#
# Static dielectric constant tensor:
#      x y z
#    x 4.145870 0.000000 0.000000 
#    y 0.000000 3.040030 0.000000 
#    z 0.000000 0.000000 3.741530 
# 
# 
# High freq. dielectric constant tensor:
#      x y z
#    x 1.775020 0.000000 0.000000 
#    y 0.000000 1.715810 0.000000 
#    z 0.000000 0.000000 1.775760 
# 
# From -- ./inp_files/25783.got.cif
#   From: 2010.03.12/outbox.cif.g09.slc.cpg/sg51_13_cif.got.tgz:25783.got - 2010.04.16 13:43:02.
