data_PCOD8210504
_publ_section_title
;
Structure prediction by ZEFSAII (Michael W. Deem and Ramdas Pophale) SiO2 
 PCOD8210504
Probable space group: P M M A
;
_chemical_formula_sum "Si O2"
_cell_formula_units_Z 64
_cell_length_a 9.061869
_cell_length_b 14.256575
_cell_length_c 28.057094
_cell_angle_alpha 90.000000
_cell_angle_beta 90.000000
_cell_angle_gamma 90.000000
_cell_volume 3624.730064
_symmetry_space_group_name_H-M "P M M A"
_symmetry_group_IT_number 51
_symmetry_cell_setting 'orthorhombic'
loop_
_space_group_symop_operation_xyz
x,y,z
1/2-x,-y,z
1/2+x,-y,-z
-x,y,-z
-x,-y,-z
1/2+x,y,-z
1/2-x,y,z
x,-y,z
loop_
_atom_site_type_symbol
_atom_site_label
_atom_site_fract_x
_atom_site_fract_y
_atom_site_fract_z
Si Si1 0.576603 0.392838 0.952012
Si Si2 0.918371 0.394868 0.682101
Si Si3 0.077197 0.107595 0.548853
Si Si4 0.921579 0.106252 0.175588
Si Si5 0.583163 0.889925 0.284838
Si Si6 0.580440 0.209929 0.633008
Si Si7 0.081337 0.609568 0.777907
Si Si8 0.424567 0.720718 0.139715
O O1 0.750000 0.384208 0.959256
O O2 0.529996 0.500000 0.940992
O O3 0.520680 0.328391 0.908741
O O4 0.500000 0.356173 0.000000
O O5 0.750000 0.389298 0.700667
O O6 0.955176 0.500000 0.663622
O O7 0.942212 0.322115 0.638692
O O8 0.024889 0.365936 0.725210
O O9 0.250000 0.122498 0.542498
O O10 0.000000 0.137581 0.500000
O O11 0.020417 0.174691 0.590266
O O12 0.039153 0.000000 0.562029
O O13 0.750000 0.114883 0.163127
O O14 0.949627 0.137002 0.230206
O O15 0.013664 0.173498 0.140808
O O16 0.976197 0.000000 0.167282
O O17 0.750000 0.860212 0.298763
O O18 0.465394 0.837848 0.317503
O O19 0.564335 0.000000 0.292574
O O20 0.750000 0.184443 0.622188
O O21 0.250000 0.643441 0.781828
O O22 0.064676 0.500000 0.788232
O O23 0.984407 0.663140 0.815938
O O24 0.250000 0.722660 0.142657
#
# Coordination Sequence:
#
# PCOD8210504 Si02
#       8
#     8   8   8   8   8   8   8   8
#     4   9  19  35  53  74 100 128 158 196 245 299
#     4   9  19  35  51  69  99 137 172 208 250 291
#     4  10  21  37  56  77 102 130 158 194 243 295
#     4   9  19  35  52  71  99 135 173 212 250 288
#     4   9  18  32  48  68  98 134 167 200 241 287
#     4  11  21  31  49  76 101 129 166 204 243 290
#     4  10  20  32  48  73 103 135 172 210 247 293
#     4  11  21  32  50  75 102 132 165 203 250 303
#
# _framework density 17.656488
#
# number of rings (size 3 to 8) (size 9 to 14) (size 15 to 20)
#    0.000    2.250    0.000    3.750    0.000    8.500 
#    0.000    2.500    0.000    0.750    0.000    0.000 
#    0.000    0.000    0.000    0.000    0.000    0.000 
#
# Total GULP energy -793741.690896 kJ/mol
# GULP energy per Si atom -12402.213920 kJ/mol
# Density = 1.761630 g / cm^3
# Si number density = 17.656488 Si / 1000 Ang^3
#
#
#
# Elastic Constant Matrix: (Units=GPa)
#
#
# Indices 1 2 3 4 5 6 
#
# 1 67.6347 43.4726 43.6581 0.0000 0.0000 0.0000
# 2 43.4726 80.6171 71.6894 0.0000 0.0000 0.0000
# 3 43.6581 71.6894 94.5609 0.0000 0.0000 0.0000
# 4 0.0000 0.0000 0.0000 28.3070 0.0000 0.0000
# 5 0.0000 0.0000 0.0000 0.0000 32.2109 0.0000
# 6 0.0000 0.0000 0.0000 0.0000 0.0000 28.7871
#
#
#
# Elastic Compliance Matrix: (Units=1/GPa)
#
#
# Indices 1 2 3 4 5 6 
#
# 1 0.023052 -0.009104 -0.003741 0.000000 0.000000 0.000000
# 2 -0.009104 0.041666 -0.027385 0.000000 0.000000 0.000000
# 3 -0.003741 -0.027385 0.033064 0.000000 0.000000 0.000000
# 4 0.000000 0.000000 0.000000 0.035327 0.000000 0.000000
# 5 0.000000 0.000000 0.000000 0.000000 0.031045 0.000000
# 6 0.000000 0.000000 0.000000 0.000000 0.000000 0.034738
#
#
# Mechanical properties :
#
#
# Convention : Reuss Voigt Hill
#
# Bulk Modulus (GPa) = 57.73086 62.27253 60.00170
# Shear Modulus (GPa) = 17.53620 23.46050 20.49835
#
# Velocity S-wave (km/s) = 3.15491 3.64911 3.41097
# Velocity P-wave (km/s) = 6.78520 7.28699 7.04056
#
# Compressibility (1/GPa) = 0.01732176
#
# Stress axis : x y z
#
# Youngs Moduli (GPa) = 43.38088 24.00045 30.24481
#
# Poissons Ratio (x) = 0.21850 0.11314
# Poissons Ratio (y) = 0.39494 0.82825
# Poissons Ratio (z) = 0.16227 0.65725
#
# Static dielectric constant tensor:
#      x y z
#    x 3.310290 0.000000 0.000000 
#    y 0.000000 3.435500 0.000000 
#    z 0.000000 0.000000 3.143310 
# 
# 
# High freq. dielectric constant tensor:
#      x y z
#    x 1.688990 0.000000 0.000000 
#    y 0.000000 1.686060 0.000000 
#    z 0.000000 0.000000 1.660580 
# 
# From -- ./inp_files/34943.got.cif
#   From: 2010.03.12/outbox.cif.g09.slc.cpg/sg51_18_cif.got.tgz:34943.got - 2010.04.16 13:43:02.
