data_PCOD8210915
_publ_section_title
;
Structure prediction by ZEFSAII (Michael W. Deem and Ramdas Pophale) SiO2 
 PCOD8210915
Probable space group: P M M A
;
_chemical_formula_sum "Si O2"
_cell_formula_units_Z 56
_cell_length_a 20.242137
_cell_length_b 9.539474
_cell_length_c 15.136736
_cell_angle_alpha 90.000000
_cell_angle_beta 90.000000
_cell_angle_gamma 90.000000
_cell_volume 2922.893726
_symmetry_space_group_name_H-M "P M M A"
_symmetry_group_IT_number 51
_symmetry_cell_setting 'orthorhombic'
loop_
_space_group_symop_operation_xyz
x,y,z
1/2-x,-y,z
1/2+x,-y,-z
-x,y,-z
-x,-y,-z
1/2+x,y,-z
1/2-x,y,z
x,-y,z
loop_
_atom_site_type_symbol
_atom_site_label
_atom_site_fract_x
_atom_site_fract_y
_atom_site_fract_z
Si Si1 0.006753 0.160638 0.734680
Si Si2 0.324903 0.660008 0.961000
Si Si3 0.677113 0.657228 0.531740
Si Si4 0.052093 0.663930 0.575857
Si Si5 0.325794 0.846965 0.119157
Si Si6 0.358462 0.157555 0.307798
Si Si7 0.967506 0.338089 0.095384
O O1 0.050795 0.248137 0.666202
O O2 0.002154 0.236017 0.830142
O O3 0.936807 0.160676 0.686061
O O4 0.032215 0.000000 0.746612
O O5 0.250000 0.706233 0.927098
O O6 0.320208 0.500000 0.990632
O O7 0.386943 0.681395 0.895037
O O8 0.352501 0.743993 0.044986
O O9 0.750000 0.668062 0.489194
O O10 0.661034 0.500000 0.563966
O O11 0.624894 0.701694 0.458283
O O12 0.674796 0.753698 0.616654
O O13 0.042273 0.500000 0.598417
O O14 0.000000 0.710323 0.500000
O O15 0.250000 0.870322 0.099169
O O16 0.336677 0.776851 0.214254
O O17 0.362044 0.000000 0.115002
O O18 0.330688 0.000000 0.315801
O O19 0.985193 0.500000 0.116377
O O20 0.000000 0.298238 0.000000
#
# Coordination Sequence:
#
# PCOD8210915 Si02
#       7
#     8   8   8   8   8   8   8
#     4  11  23  36  56  85 112 145 189 234 280 334
#     4   9  18  33  52  74 101 137 182 230 278 326
#     4  10  21  36  56  83 111 141 183 232 278 326
#     4  10  20  38  61  82 108 147 187 226 276 330
#     4   9  17  29  46  70 102 140 177 213 265 333
#     4  10  20  33  50  76 111 146 179 220 276 338
#     4  10  21  37  57  82 112 147 187 233 284 337
#
# _framework density 19.159096000000002
#
# number of rings (size 3 to 8) (size 9 to 14) (size 15 to 20)
#    0.000    2.143    1.429    1.714    0.000    3.714 
#    0.000    2.143    0.000    4.286    0.000    0.000 
#    0.000    0.000    0.000    0.000    0.000    0.000 
#
# Total GULP energy -693904.478390 kJ/mol
# GULP energy per Si atom -12391.151400 kJ/mol
# Density = 1.911549 g / cm^3
# Si number density = 19.159096 Si / 1000 Ang^3
#
#
#
# Elastic Constant Matrix: (Units=GPa)
#
#
# Indices 1 2 3 4 5 6 
#
# 1 84.4800 19.5142 18.8284 0.0000 0.0000 0.0000
# 2 19.5142 71.2711 45.5006 0.0000 0.0000 0.0000
# 3 18.8284 45.5006 85.8115 0.0000 0.0000 0.0000
# 4 0.0000 0.0000 0.0000 35.4237 0.0000 0.0000
# 5 0.0000 0.0000 0.0000 0.0000 26.5583 0.0000
# 6 0.0000 0.0000 0.0000 0.0000 0.0000 -0.2819
#
#
#
# Elastic Compliance Matrix: (Units=1/GPa)
#
#
# Indices 1 2 3 4 5 6 
#
# 1 0.012752 -0.002578 -0.001431 0.000000 0.000000 0.000000
# 2 -0.002578 0.021732 -0.010958 0.000000 0.000000 0.000000
# 3 -0.001431 -0.010958 0.017778 0.000000 0.000000 0.000000
# 4 0.000000 0.000000 0.000000 0.028230 0.000000 0.000000
# 5 0.000000 0.000000 0.000000 0.000000 0.037653 0.000000
# 6 0.000000 0.000000 0.000000 0.000000 0.000000 -3.546991
#
#
# Mechanical properties :
#
#
# Convention : Reuss Voigt Hill
#
# Bulk Modulus (GPa) = 44.78603 45.47210 45.12906
# Shear Modulus (GPa) = -1.47429 22.85465 10.69018
#
# Velocity S-wave (km/s) = -0.87816 3.45757 2.36470
# Velocity P-wave (km/s) = 4.73269 6.30279 5.57331
#
# Compressibility (1/GPa) = 0.02232839
#
# Stress axis : x y z
#
# Youngs Moduli (GPa) = 78.42206 46.01451 56.25049
#
# Poissons Ratio (x) = 0.11862 0.08050
# Poissons Ratio (y) = 0.20216 0.61637
# Poissons Ratio (z) = 0.11222 0.50421
#
# Static dielectric constant tensor:
#      x y z
#    x 3.705280 0.000000 0.000000 
#    y 0.000000 3.922080 0.000000 
#    z 0.000000 0.000000 3.226930 
# 
# 
# High freq. dielectric constant tensor:
#      x y z
#    x 1.751700 0.000000 0.000000 
#    y 0.000000 1.743290 0.000000 
#    z 0.000000 0.000000 1.720250 
# 
# From -- ./inp_files/25753.got.cif
#   From: 2010.03.12/outbox.cif.g09.slc.cpg/sg51_13_cif.got.tgz:25753.got - 2010.04.16 13:43:02.
