data_PCOD8210615
_publ_section_title
;
Structure prediction by ZEFSAII (Michael W. Deem and Ramdas Pophale) SiO2 
 PCOD8210615
Probable space group: P M M A
;
_chemical_formula_sum "Si O2"
_cell_formula_units_Z 52
_cell_length_a 10.952268
_cell_length_b 7.914071
_cell_length_c 28.620514
_cell_angle_alpha 90.000000
_cell_angle_beta 90.000000
_cell_angle_gamma 90.000000
_cell_volume 2480.741052
_symmetry_space_group_name_H-M "P M M A"
_symmetry_group_IT_number 51
_symmetry_cell_setting 'orthorhombic'
loop_
_space_group_symop_operation_xyz
x,y,z
1/2-x,-y,z
1/2+x,-y,-z
-x,y,-z
-x,-y,-z
1/2+x,y,-z
1/2-x,y,z
x,-y,z
loop_
_atom_site_type_symbol
_atom_site_label
_atom_site_fract_x
_atom_site_fract_y
_atom_site_fract_z
Si Si1 0.250000 0.805971 0.877464
Si Si2 0.111564 0.300461 0.367972
Si Si3 0.517140 0.690992 0.277753
Si Si4 0.010284 0.803719 0.096133
Si Si5 0.612325 0.194823 0.529672
Si Si6 0.891739 0.500000 0.962302
Si Si7 0.385257 0.808680 0.194280
Si Si8 0.750000 0.696827 0.227539
O O1 0.366279 0.764304 0.910528
O O2 0.250000 0.710808 0.828219
O O3 0.250000 0.000000 0.862705
O O4 0.250000 0.254435 0.354674
O O5 0.095349 0.500000 0.373604
O O6 0.026640 0.224185 0.326408
O O7 0.074640 0.213390 0.416367
O O8 0.548824 0.500000 0.290459
O O9 0.410887 0.691991 0.238850
O O10 0.633120 0.782280 0.253188
O O11 0.091475 0.673197 0.066866
O O12 0.027469 0.768731 0.150977
O O13 0.043454 0.000000 0.083037
O O14 0.500000 0.279006 0.500000
O O15 0.750000 0.274951 0.520844
O O16 0.620801 0.000000 0.515878
O O17 0.750000 0.500000 0.980801
O O18 0.000000 0.500000 0.000000
O O19 0.250000 0.772772 0.175680
O O20 0.402140 0.000000 0.211376
O O21 0.750000 0.500000 0.238625
#
# Coordination Sequence:
#
# PCOD8210615 Si02
#       8
#     4   8   8   8   8   4   8   4
#     4  10  20  36  64  96 124 170 214 253 313 364
#     4   9  18  33  51  72 103 142 183 227 279 341
#     4  10  20  33  49  75 111 152 190 232 282 341
#     4  10  23  43  68  98 134 169 214 266 314 376
#     4   9  18  34  55  76  99 129 172 227 286 347
#     4  12  30  50  74 106 132 172 216 264 327 384
#     4  10  20  33  53  83 116 151 191 241 293 344
#     4  10  20  32  50  80 118 158 196 242 288 341
#
# _framework density 20.961480000000002
#
# number of rings (size 3 to 8) (size 9 to 14) (size 15 to 20)
#    0.000    2.154    1.538    0.923    3.231    3.077 
#    1.385    1.538    0.000    0.000    0.000    0.000 
#    0.000    0.000    0.000    0.000    0.000    0.000 
#
# Total GULP energy -644293.069792 kJ/mol
# GULP energy per Si atom -12390.251342 kJ/mol
# Density = 2.091377 g / cm^3
# Si number density = 20.961480 Si / 1000 Ang^3
#
#
#
# Elastic Constant Matrix: (Units=GPa)
#
#
# Indices 1 2 3 4 5 6 
#
# 1 121.0585 25.3747 45.9401 0.0000 0.0000 0.0000
# 2 25.3747 45.8238 24.2466 0.0000 0.0000 0.0000
# 3 45.9401 24.2466 84.6892 0.0000 0.0000 0.0000
# 4 0.0000 0.0000 0.0000 10.9710 0.0000 0.0000
# 5 0.0000 0.0000 0.0000 0.0000 40.3366 0.0000
# 6 0.0000 0.0000 0.0000 0.0000 0.0000 16.4030
#
#
#
# Elastic Compliance Matrix: (Units=1/GPa)
#
#
# Indices 1 2 3 4 5 6 
#
# 1 0.010835 -0.003406 -0.004902 0.000000 0.000000 0.000000
# 2 -0.003406 0.026789 -0.005822 0.000000 0.000000 0.000000
# 3 -0.004902 -0.005822 0.016134 0.000000 0.000000 0.000000
# 4 0.000000 0.000000 0.000000 0.091149 0.000000 0.000000
# 5 0.000000 0.000000 0.000000 0.000000 0.024791 0.000000
# 6 0.000000 0.000000 0.000000 0.000000 0.000000 0.060964
#
#
# Mechanical properties :
#
#
# Convention : Reuss Voigt Hill
#
# Bulk Modulus (GPa) = 39.21963 49.18826 44.20395
# Shear Modulus (GPa) = 18.69697 23.94280 21.31989
#
# Velocity S-wave (km/s) = 2.98982 3.38335 3.19266
# Velocity P-wave (km/s) = 5.53802 6.22734 5.89277
#
# Compressibility (1/GPa) = 0.02549744
#
# Stress axis : x y z
#
# Youngs Moduli (GPa) = 92.29618 37.32813 61.98058
#
# Poissons Ratio (x) = 0.12713 0.30384
# Poissons Ratio (y) = 0.31434 0.36087
# Poissons Ratio (z) = 0.45246 0.21734
#
# Static dielectric constant tensor:
#      x y z
#    x 4.280700 0.000000 0.000000 
#    y 0.000000 3.582680 0.000000 
#    z 0.000000 0.000000 3.604400 
# 
# 
# High freq. dielectric constant tensor:
#      x y z
#    x 1.831190 0.000000 0.000000 
#    y 0.000000 1.800110 0.000000 
#    z 0.000000 0.000000 1.804190 
# 
# From -- ./inp_files/36602.got.cif
#   From: 2010.03.12/outbox.cif.g09.slc.cpg/sg51_19_cif.got.tgz:36602.got - 2010.04.16 13:43:02.
