data_PCOD8210674
_publ_section_title
;
Structure prediction by ZEFSAII (Michael W. Deem and Ramdas Pophale) SiO2 
 PCOD8210674
Probable space group: P M M A
;
_chemical_formula_sum "Si O2"
_cell_formula_units_Z 64
_cell_length_a 31.612024
_cell_length_b 8.934389
_cell_length_c 12.475818
_cell_angle_alpha 90.000000
_cell_angle_beta 90.000000
_cell_angle_gamma 90.000000
_cell_volume 3523.596672
_symmetry_space_group_name_H-M "P M M A"
_symmetry_group_IT_number 51
_symmetry_cell_setting 'orthorhombic'
loop_
_space_group_symop_operation_xyz
x,y,z
1/2-x,-y,z
1/2+x,-y,-z
-x,y,-z
-x,-y,-z
1/2+x,y,-z
1/2-x,y,z
x,-y,z
loop_
_atom_site_type_symbol
_atom_site_label
_atom_site_fract_x
_atom_site_fract_y
_atom_site_fract_z
Si Si1 0.381028 0.671907 0.585370
Si Si2 0.643599 0.824589 0.977757
Si Si3 0.037605 0.835677 0.572166
Si Si4 0.298396 0.674464 0.182647
Si Si5 0.427141 0.176269 0.192272
Si Si6 0.478913 0.834656 0.815079
Si Si7 0.366630 0.322875 0.354490
Si Si8 0.108392 0.321752 0.820862
O O1 0.369912 0.500000 0.595716
O O2 0.429819 0.700948 0.560528
O O3 0.357878 0.735898 0.477730
O O4 0.373876 0.742065 0.705075
O O5 0.640372 0.741704 0.091344
O O6 0.647016 0.000000 0.998101
O O7 0.686044 0.767495 0.920022
O O8 0.603230 0.780657 0.906079
O O9 0.019282 0.851818 0.689291
O O10 0.000000 0.780848 0.500000
O O11 0.055793 0.000000 0.536960
O O12 0.250000 0.715679 0.206232
O O13 0.304463 0.500000 0.156979
O O14 0.325094 0.721839 0.287355
O O15 0.474326 0.232322 0.157025
O O16 0.408658 0.251467 0.300694
O O17 0.428303 0.000000 0.213881
O O18 0.439439 0.731266 0.849021
O O19 0.472635 0.000000 0.868434
O O20 0.374189 0.500000 0.357038
O O21 0.108320 0.500000 0.821232
#
# Coordination Sequence:
#
# PCOD8210674 Si02
#       8
#     8   8   8   8   8   8   8   8
#     4   9  18  30  44  64  92 126 160 195 234 276
#     4  10  20  34  52  73  97 126 161 200 242 288
#     4   9  16  25  39  59  84 118 161 204 240 277
#     4   9  18  34  57  82 103 121 144 181 233 290
#     4   9  18  31  47  68  94 125 162 206 253 295
#     4   9  17  29  43  61  89 125 166 210 251 288
#     4   9  17  30  49  73  99 125 154 191 237 289
#     4  10  20  33  47  65  94 133 174 210 242 280
#
# _framework density 18.163259
#
# number of rings (size 3 to 8) (size 9 to 14) (size 15 to 20)
#    0.000    2.750    0.000    1.500    0.000    4.000 
#    0.000    5.000    0.000    0.750    0.000    3.500 
#    0.000    0.000    0.000    0.000    0.000    0.000 
#
# Total GULP energy -792840.435391 kJ/mol
# GULP energy per Si atom -12388.131803 kJ/mol
# Density = 1.812192 g / cm^3
# Si number density = 18.163259 Si / 1000 Ang^3
#
#
#
# Elastic Constant Matrix: (Units=GPa)
#
#
# Indices 1 2 3 4 5 6 
#
# 1 68.9646 19.0276 39.9707 0.0000 0.0000 0.0000
# 2 19.0276 36.3885 29.4621 0.0000 0.0000 0.0000
# 3 39.9707 29.4621 118.8670 0.0000 0.0000 0.0000
# 4 0.0000 0.0000 0.0000 19.8242 0.0000 0.0000
# 5 0.0000 0.0000 0.0000 0.0000 16.3093 0.0000
# 6 0.0000 0.0000 0.0000 0.0000 0.0000 21.5912
#
#
#
# Elastic Compliance Matrix: (Units=1/GPa)
#
#
# Indices 1 2 3 4 5 6 
#
# 1 0.018988 -0.005954 -0.004909 0.000000 0.000000 0.000000
# 2 -0.005954 0.036248 -0.006982 0.000000 0.000000 0.000000
# 3 -0.004909 -0.006982 0.011794 0.000000 0.000000 0.000000
# 4 0.000000 0.000000 0.000000 0.050443 0.000000 0.000000
# 5 0.000000 0.000000 0.000000 0.000000 0.061315 0.000000
# 6 0.000000 0.000000 0.000000 0.000000 0.000000 0.046315
#
#
# Mechanical properties :
#
#
# Convention : Reuss Voigt Hill
#
# Bulk Modulus (GPa) = 31.90911 44.57122 38.24017
# Shear Modulus (GPa) = 18.43380 20.59560 19.51470
#
# Velocity S-wave (km/s) = 3.18920 3.37102 3.28137
# Velocity P-wave (km/s) = 5.58278 6.30430 5.95448
#
# Compressibility (1/GPa) = 0.03133901
#
# Stress axis : x y z
#
# Youngs Moduli (GPa) = 52.66393 27.58795 84.78781
#
# Poissons Ratio (x) = 0.16426 0.41625
# Poissons Ratio (y) = 0.31357 0.59200
# Poissons Ratio (z) = 0.25854 0.19262
#
# Static dielectric constant tensor:
#      x y z
#    x 3.120880 0.000000 0.000000 
#    y 0.000000 3.275210 0.000000 
#    z 0.000000 0.000000 3.655030 
# 
# 
# High freq. dielectric constant tensor:
#      x y z
#    x 1.666610 0.000000 0.000000 
#    y 0.000000 1.692050 0.000000 
#    z 0.000000 0.000000 1.714280 
# 
# From -- ./inp_files/19602.got.cif
#   From: 2010.03.12/outbox.cif.g09.slc.cpg/sg51_10_cif.got.tgz:19602.got - 2010.04.16 13:43:02.
