data_PCOD8210190
_publ_section_title
;
Structure prediction by ZEFSAII (Michael W. Deem and Ramdas Pophale) SiO2 
 PCOD8210190
Probable space group: P M M A
;
_chemical_formula_sum "Si O2"
_cell_formula_units_Z 56
_cell_length_a 28.016943
_cell_length_b 9.108847
_cell_length_c 13.434290
_cell_angle_alpha 90.000000
_cell_angle_beta 90.000000
_cell_angle_gamma 90.000000
_cell_volume 3428.458311
_symmetry_space_group_name_H-M "P M M A"
_symmetry_group_IT_number 51
_symmetry_cell_setting 'orthorhombic'
loop_
_space_group_symop_operation_xyz
x,y,z
1/2-x,-y,z
1/2+x,-y,-z
-x,y,-z
-x,-y,-z
1/2+x,y,-z
1/2-x,y,z
x,-y,z
loop_
_atom_site_type_symbol
_atom_site_label
_atom_site_fract_x
_atom_site_fract_y
_atom_site_fract_z
Si Si1 0.967566 0.326692 0.699005
Si Si2 0.804745 0.329312 0.498641
Si Si3 0.949807 0.834096 0.396464
Si Si4 0.478392 0.672621 0.897724
Si Si5 0.395659 0.835000 0.807599
Si Si6 0.696443 0.830114 0.292818
Si Si7 0.889558 0.827250 0.589535
O O1 0.961100 0.500000 0.689917
O O2 0.916744 0.246842 0.683055
O O3 0.004612 0.271500 0.614910
O O4 0.987126 0.279222 0.807492
O O5 0.750000 0.303580 0.530494
O O6 0.818351 0.500000 0.498831
O O7 0.813990 0.268441 0.388466
O O8 0.837259 0.243935 0.578623
O O9 0.915354 0.818696 0.303247
O O10 0.919712 0.786563 0.491785
O O11 0.969353 0.000000 0.407240
O O12 0.473323 0.500000 0.903177
O O13 0.424789 0.733497 0.883533
O O14 0.500000 0.736290 0.000000
O O15 0.339870 0.788491 0.797239
O O16 0.400715 0.000000 0.847903
O O17 0.750000 0.803938 0.252719
O O18 0.688274 0.000000 0.324335
O O19 0.884225 0.000000 0.607291
#
# Coordination Sequence:
#
# PCOD8210190 Si02
#       7
#     8   8   8   8   8   8   8
#     4  10  20  31  45  67  90 116 151 192 232 274
#     4  10  20  31  44  65  93 125 162 199 228 260
#     4   9  17  29  42  61  91 125 155 182 217 265
#     4   9  19  35  51  67  90 120 152 190 240 290
#     4   9  16  28  45  68  93 121 156 190 226 270
#     4   9  16  28  45  65  93 128 160 187 222 271
#     4  11  20  31  46  64  91 127 158 188 226 269
#
# _framework density 16.333872
#
# number of rings (size 3 to 8) (size 9 to 14) (size 15 to 20)
#    0.000    2.429    1.429    1.714    0.000    5.143 
#    0.000    0.000    0.000    0.000    0.000    1.000 
#    0.000    5.714    0.000    0.000    0.000    0.000 
#
# Total GULP energy -694328.090485 kJ/mol
# GULP energy per Si atom -12398.715902 kJ/mol
# Density = 1.629670 g / cm^3
# Si number density = 16.333872 Si / 1000 Ang^3
#
#
#
# Elastic Constant Matrix: (Units=GPa)
#
#
# Indices 1 2 3 4 5 6 
#
# 1 122.6277 52.8084 44.3931 0.0000 0.0000 0.0000
# 2 52.8084 73.5690 29.2327 0.0000 0.0000 0.0000
# 3 44.3931 29.2327 50.0644 0.0000 0.0000 0.0000
# 4 0.0000 0.0000 0.0000 17.1593 0.0000 0.0000
# 5 0.0000 0.0000 0.0000 0.0000 20.9893 0.0000
# 6 0.0000 0.0000 0.0000 0.0000 0.0000 28.0920
#
#
#
# Elastic Compliance Matrix: (Units=1/GPa)
#
#
# Indices 1 2 3 4 5 6 
#
# 1 0.014191 -0.006753 -0.008640 0.000000 0.000000 0.000000
# 2 -0.006753 0.020913 -0.006223 0.000000 0.000000 0.000000
# 3 -0.008640 -0.006223 0.031269 0.000000 0.000000 0.000000
# 4 0.000000 0.000000 0.000000 0.058277 0.000000 0.000000
# 5 0.000000 0.000000 0.000000 0.000000 0.047643 0.000000
# 6 0.000000 0.000000 0.000000 0.000000 0.000000 0.035597
#
#
# Mechanical properties :
#
#
# Convention : Reuss Voigt Hill
#
# Bulk Modulus (GPa) = 43.21422 55.45883 49.33653
# Shear Modulus (GPa) = 19.31722 21.23658 20.27690
#
# Velocity S-wave (km/s) = 3.44270 3.60968 3.52718
# Velocity P-wave (km/s) = 6.50516 7.16938 6.84533
#
# Compressibility (1/GPa) = 0.02314053
#
# Stress axis : x y z
#
# Youngs Moduli (GPa) = 70.46849 47.81768 31.98042
#
# Poissons Ratio (x) = 0.32292 0.27631
# Poissons Ratio (y) = 0.47588 0.19901
# Poissons Ratio (z) = 0.60885 0.29757
#
# Static dielectric constant tensor:
#      x y z
#    x 3.349710 0.000000 0.000000 
#    y 0.000000 3.108670 0.000000 
#    z 0.000000 0.000000 2.844560 
# 
# 
# High freq. dielectric constant tensor:
#      x y z
#    x 1.634170 0.000000 0.000000 
#    y 0.000000 1.633320 0.000000 
#    z 0.000000 0.000000 1.579870 
# 
# From -- ./inp_files/26512.got.cif
#   From: 2010.03.12/outbox.cif.g09.slc.cpg/sg51_14_cif.got.tgz:26512.got - 2010.04.16 13:43:02.
