data_PCOD8210106
_publ_section_title
;
Structure prediction by ZEFSAII (Michael W. Deem and Ramdas Pophale) SiO2 
 PCOD8210106
Probable space group: P M M A
;
_chemical_formula_sum "Si O2"
_cell_formula_units_Z 40
_cell_length_a 14.349536
_cell_length_b 8.743117
_cell_length_c 17.075654
_cell_angle_alpha 90.000000
_cell_angle_beta 90.000000
_cell_angle_gamma 90.000000
_cell_volume 2142.305952
_symmetry_space_group_name_H-M "P M M A"
_symmetry_group_IT_number 51
_symmetry_cell_setting 'orthorhombic'
loop_
_space_group_symop_operation_xyz
x,y,z
1/2-x,-y,z
1/2+x,-y,-z
-x,y,-z
-x,-y,-z
1/2+x,y,-z
1/2-x,y,z
x,-y,z
loop_
_atom_site_type_symbol
_atom_site_label
_atom_site_fract_x
_atom_site_fract_y
_atom_site_fract_z
Si Si1 0.509590 0.319015 0.373783
Si Si2 0.445133 0.674617 0.080478
Si Si3 0.937908 0.821689 0.213446
Si Si4 0.353527 0.318913 0.491851
Si Si5 0.750000 0.681119 0.158123
Si Si6 0.750000 0.318601 0.981859
O O1 0.511709 0.500000 0.357910
O O2 0.513244 0.228135 0.293359
O O3 0.413896 0.268560 0.416636
O O4 0.596329 0.267143 0.428017
O O5 0.445533 0.500000 0.111541
O O6 0.491912 0.783419 0.143496
O O7 0.340576 0.735948 0.065740
O O8 0.500000 0.684946 0.000000
O O9 0.840727 0.734379 0.204490
O O10 0.917185 0.000000 0.213750
O O11 0.250000 0.245797 0.487346
O O12 0.347400 0.500000 0.492243
O O13 0.750000 0.500000 0.155906
O O14 0.750000 0.750028 0.069936
O O15 0.750000 0.500000 0.990466
#
# Coordination Sequence:
#
# PCOD8210106 Si02
#       6
#     8   8   8   8   4   4
#     4   9  18  34  57  83 110 144 187 231 278 332
#     4  10  19  37  62  84 109 146 195 241 283 331
#     4  12  25  38  53  84 123 153 184 229 286 346
#     4   8  15  31  57  86 109 135 185 242 280 319
#     4  11  21  39  63  85 108 143 192 241 285 332
#     4   9  18  35  61  87 104 135 194 249 283 326
#
# _framework density 18.671468000000001
#
# number of rings (size 3 to 8) (size 9 to 14) (size 15 to 20)
#    0.000    2.200    2.000    3.300    1.400    0.400 
#    1.800    2.500    0.000    1.200    0.000    0.000 
#    0.000    0.000    0.000    0.000    0.000    0.000 
#
# Total GULP energy -496005.434155 kJ/mol
# GULP energy per Si atom -12400.135854 kJ/mol
# Density = 1.862897 g / cm^3
# Si number density = 18.671468 Si / 1000 Ang^3
#
#
#
# Elastic Constant Matrix: (Units=GPa)
#
#
# Indices 1 2 3 4 5 6 
#
# 1 147.6232 22.3125 39.6329 0.0000 0.0000 0.0000
# 2 22.3125 60.3875 30.5288 0.0000 0.0000 0.0000
# 3 39.6329 30.5288 99.9760 0.0000 0.0000 0.0000
# 4 0.0000 0.0000 0.0000 -4.3229 0.0000 0.0000
# 5 0.0000 0.0000 0.0000 0.0000 19.9896 0.0000
# 6 0.0000 0.0000 0.0000 0.0000 0.0000 13.2405
#
#
#
# Elastic Compliance Matrix: (Units=1/GPa)
#
#
# Indices 1 2 3 4 5 6 
#
# 1 0.007700 -0.001540 -0.002582 0.000000 0.000000 0.000000
# 2 -0.001540 0.019891 -0.005464 0.000000 0.000000 0.000000
# 3 -0.002582 -0.005464 0.012694 0.000000 0.000000 0.000000
# 4 0.000000 0.000000 0.000000 -0.231329 0.000000 0.000000
# 5 0.000000 0.000000 0.000000 0.000000 0.050026 0.000000
# 6 0.000000 0.000000 0.000000 0.000000 0.000000 0.075526
#
#
# Mechanical properties :
#
#
# Convention : Reuss Voigt Hill
#
# Bulk Modulus (GPa) = 47.36139 54.77058 51.06598
# Shear Modulus (GPa) = -127.28309 20.14894 -53.56707
#
# Velocity S-wave (km/s) = -8.26546 3.28857 -5.36205
# Velocity P-wave (km/s) = 8.10369 6.61945 3.30549
#
# Compressibility (1/GPa) = 0.02111425
#
# Stress axis : x y z
#
# Youngs Moduli (GPa) = 129.87035 50.27491 78.77464
#
# Poissons Ratio (x) = 0.07740 0.20342
# Poissons Ratio (y) = 0.19994 0.43039
# Poissons Ratio (z) = 0.33537 0.27468
#
# Static dielectric constant tensor:
#      x y z
#    x 4.100450 0.000000 0.000000 
#    y 0.000000 3.045840 0.000000 
#    z 0.000000 0.000000 3.413700 
# 
# 
# High freq. dielectric constant tensor:
#      x y z
#    x 1.737780 0.000000 0.000000 
#    y 0.000000 1.686730 0.000000 
#    z 0.000000 0.000000 1.724880 
# 
# From -- ./inp_files/23761.got.cif
#   From: 2010.03.12/outbox.cif.g09.slc.cpg/sg51_12_cif.got.tgz:23761.got - 2010.04.16 13:43:02.
