data_PCOD8210318
_publ_section_title
;
Structure prediction by ZEFSAII (Michael W. Deem and Ramdas Pophale) SiO2 
 PCOD8210318
Probable space group: P M M A
;
_chemical_formula_sum "Si O2"
_cell_formula_units_Z 56
_cell_length_a 18.472988
_cell_length_b 9.447127
_cell_length_c 18.150977
_cell_angle_alpha 90.000000
_cell_angle_beta 90.000000
_cell_angle_gamma 90.000000
_cell_volume 3167.647949
_symmetry_space_group_name_H-M "P M M A"
_symmetry_group_IT_number 51
_symmetry_cell_setting 'orthorhombic'
loop_
_space_group_symop_operation_xyz
x,y,z
1/2-x,-y,z
1/2+x,-y,-z
-x,y,-z
-x,-y,-z
1/2+x,y,-z
1/2-x,y,z
x,-y,z
loop_
_atom_site_type_symbol
_atom_site_label
_atom_site_fract_x
_atom_site_fract_y
_atom_site_fract_z
Si Si1 0.834011 0.166262 0.672021
Si Si2 0.330860 0.840246 0.932128
Si Si3 0.831936 0.336638 0.199470
Si Si4 0.453032 0.343373 0.693278
Si Si5 0.587044 0.338513 0.796407
Si Si6 0.938230 0.162093 0.943097
Si Si7 0.029206 0.166298 0.422257
O O1 0.750000 0.200160 0.650661
O O2 0.855515 0.254127 0.745071
O O3 0.888345 0.208862 0.603606
O O4 0.843141 0.000000 0.690022
O O5 0.250000 0.784079 0.942002
O O6 0.368764 0.746546 0.868768
O O7 0.334932 0.000000 0.903227
O O8 0.364293 0.826451 0.012335
O O9 0.750000 0.285262 0.213387
O O10 0.836383 0.500000 0.178396
O O11 0.874735 0.304620 0.274379
O O12 0.452756 0.500000 0.656791
O O13 0.509248 0.340677 0.759584
O O14 0.471130 0.225451 0.634387
O O15 0.615283 0.500000 0.808175
O O16 0.573593 0.262078 0.873692
O O17 0.954703 0.000000 0.917819
O O18 0.000000 0.214807 0.000000
O O19 0.000000 0.227949 0.500000
O O20 0.022106 0.000000 0.422588
#
# Coordination Sequence:
#
# PCOD8210318 Si02
#       7
#     8   8   8   8   8   8   8
#     4   9  18  34  55  75  98 132 168 200 241 294
#     4   9  18  31  45  62  86 117 153 193 237 283
#     4   9  17  30  48  68  91 121 157 195 233 277
#     4   9  18  32  49  70  96 125 156 190 232 282
#     4  10  20  32  48  71  97 125 161 207 252 293
#     4  10  20  32  46  66  93 126 165 207 250 297
#     4   9  18  33  53  77 102 127 158 195 233 278
#
# _framework density 17.678730999999999
#
# number of rings (size 3 to 8) (size 9 to 14) (size 15 to 20)
#    0.000    2.714    0.000    1.286    0.000    3.143 
#    0.000    2.143    0.000    0.857    0.000    0.000 
#    0.000    0.000    0.000    0.000    0.000    0.000 
#
# Total GULP energy -693967.885976 kJ/mol
# GULP energy per Si atom -12392.283678 kJ/mol
# Density = 1.763849 g / cm^3
# Si number density = 17.678731 Si / 1000 Ang^3
#
#
#
# Elastic Constant Matrix: (Units=GPa)
#
#
# Indices 1 2 3 4 5 6 
#
# 1 78.9502 35.2694 53.0561 0.0000 0.0000 0.0000
# 2 35.2694 52.5478 49.3652 0.0000 0.0000 0.0000
# 3 53.0561 49.3652 112.9202 0.0000 0.0000 0.0000
# 4 0.0000 0.0000 0.0000 395.0446 0.0000 0.0000
# 5 0.0000 0.0000 0.0000 0.0000 17.4365 0.0000
# 6 0.0000 0.0000 0.0000 0.0000 0.0000 21.2617
#
#
#
# Elastic Compliance Matrix: (Units=1/GPa)
#
#
# Indices 1 2 3 4 5 6 
#
# 1 0.020279 -0.007907 -0.006071 0.000000 0.000000 0.000000
# 2 -0.007907 0.035376 -0.011750 0.000000 0.000000 0.000000
# 3 -0.006071 -0.011750 0.016845 0.000000 0.000000 0.000000
# 4 0.000000 0.000000 0.000000 0.002531 0.000000 0.000000
# 5 0.000000 0.000000 0.000000 0.000000 0.057351 0.000000
# 6 0.000000 0.000000 0.000000 0.000000 0.000000 0.047033
#
#
# Mechanical properties :
#
#
# Convention : Reuss Voigt Hill
#
# Bulk Modulus (GPa) = 47.52231 57.75552 52.63891
# Shear Modulus (GPa) = 21.01849 93.86372 57.44110
#
# Velocity S-wave (km/s) = 3.45180 7.29448 5.70633
# Velocity P-wave (km/s) = 6.54416 10.18265 8.55898
#
# Compressibility (1/GPa) = 0.02104275
#
# Stress axis : x y z
#
# Youngs Moduli (GPa) = 49.31319 28.26788 59.36434
#
# Poissons Ratio (x) = 0.22352 0.36041
# Poissons Ratio (y) = 0.38993 0.69753
# Poissons Ratio (z) = 0.29939 0.33215
#
# Static dielectric constant tensor:
#      x y z
#    x 3.487230 0.000000 0.000000 
#    y 0.000000 3.354360 0.000000 
#    z 0.000000 0.000000 3.248420 
# 
# 
# High freq. dielectric constant tensor:
#      x y z
#    x 1.685350 0.000000 0.000000 
#    y 0.000000 1.683680 0.000000 
#    z 0.000000 0.000000 1.667600 
# 
# From -- ./inp_files/25734.got.cif
#   From: 2010.03.12/outbox.cif.g09.slc.cpg/sg51_13_cif.got.tgz:25734.got - 2010.04.16 13:43:02.
