data_PCOD8210671
_publ_section_title
;
Structure prediction by ZEFSAII (Michael W. Deem and Ramdas Pophale) SiO2 
 PCOD8210671
Probable space group: P M M A
;
_chemical_formula_sum "Si O2"
_cell_formula_units_Z 40
_cell_length_a 8.714881
_cell_length_b 13.497992
_cell_length_c 19.679607
_cell_angle_alpha 90.000000
_cell_angle_beta 90.000000
_cell_angle_gamma 90.000000
_cell_volume 2314.978964
_symmetry_space_group_name_H-M "P M M A"
_symmetry_group_IT_number 51
_symmetry_cell_setting 'orthorhombic'
loop_
_space_group_symop_operation_xyz
x,y,z
1/2-x,-y,z
1/2+x,-y,-z
-x,y,-z
-x,-y,-z
1/2+x,y,-z
1/2-x,y,z
x,-y,z
loop_
_atom_site_type_symbol
_atom_site_label
_atom_site_fract_x
_atom_site_fract_y
_atom_site_fract_z
Si Si1 0.430766 0.886236 0.791832
Si Si2 0.081469 0.114232 0.564508
Si Si3 0.929385 0.772525 0.671911
Si Si4 0.068600 0.387933 0.572522
Si Si5 0.921148 0.116749 0.932897
O O1 0.250000 0.879393 0.781493
O O2 0.509283 0.800812 0.746334
O O3 0.474640 0.856847 0.868310
O O4 0.485614 0.000000 0.775593
O O5 0.250000 0.163607 0.575410
O O6 0.000000 0.165203 0.500000
O O7 0.971652 0.130059 0.628501
O O8 0.104927 0.000000 0.550911
O O9 0.750000 0.752314 0.675499
O O10 0.009792 0.679319 0.635154
O O11 0.250000 0.379743 0.567720
O O12 0.015754 0.500000 0.588536
O O13 0.000000 0.353364 0.500000
O O14 0.750000 0.161402 0.923893
O O15 0.908842 0.000000 0.942151
O O16 0.000000 0.163444 0.000000
#
# Coordination Sequence:
#
# PCOD8210671 Si02
#       5
#     8   8   8   8   8
#     4  10  20  33  48  68  97 132 168 204 240 280
#     4  10  20  33  47  63  86 118 156 194 229 270
#     4  12  23  33  48  69  95 124 154 192 238 288
#     4  10  21  38  58  76  94 118 152 196 244 293
#     4   9  16  27  44  66  93 127 166 203 238 277
#
# _framework density 17.278773999999999
#
# number of rings (size 3 to 8) (size 9 to 14) (size 15 to 20)
#    0.000    1.800    0.000    5.400    0.000    8.400 
#    0.000    0.000    0.000    0.000    0.000    0.000 
#    0.000    0.800    0.000    3.000    0.000    4.600 
#
# Total GULP energy -495724.733275 kJ/mol
# GULP energy per Si atom -12393.118332 kJ/mol
# Density = 1.723945 g / cm^3
# Si number density = 17.278774 Si / 1000 Ang^3
#
#
#
# Elastic Constant Matrix: (Units=GPa)
#
#
# Indices 1 2 3 4 5 6 
#
# 1 101.8669 25.8480 39.0009 0.0000 0.0000 0.0000
# 2 25.8480 71.3326 38.6098 0.0000 0.0000 0.0000
# 3 39.0009 38.6098 118.0542 0.0000 0.0000 0.0000
# 4 0.0000 0.0000 0.0000 14.9824 0.0000 0.0000
# 5 0.0000 0.0000 0.0000 0.0000 34.4871 0.0000
# 6 0.0000 0.0000 0.0000 0.0000 0.0000 17.4916
#
#
#
# Elastic Compliance Matrix: (Units=1/GPa)
#
#
# Indices 1 2 3 4 5 6 
#
# 1 0.011619 -0.002591 -0.002991 0.000000 0.000000 0.000000
# 2 -0.002591 0.017612 -0.004904 0.000000 0.000000 0.000000
# 3 -0.002991 -0.004904 0.011063 0.000000 0.000000 0.000000
# 4 0.000000 0.000000 0.000000 0.066745 0.000000 0.000000
# 5 0.000000 0.000000 0.000000 0.000000 0.028996 0.000000
# 6 0.000000 0.000000 0.000000 0.000000 0.000000 0.057170
#
#
# Mechanical properties :
#
#
# Convention : Reuss Voigt Hill
#
# Bulk Modulus (GPa) = 51.75632 55.35233 53.55432
# Shear Modulus (GPa) = 22.66342 25.91188 24.28765
#
# Velocity S-wave (km/s) = 3.62558 3.87671 3.75325
# Velocity P-wave (km/s) = 6.89530 7.22101 7.06003
#
# Compressibility (1/GPa) = 0.01932131
#
# Stress axis : x y z
#
# Youngs Moduli (GPa) = 86.06246 56.77880 90.39380
#
# Poissons Ratio (x) = 0.14714 0.27038
# Poissons Ratio (y) = 0.22302 0.44329
# Poissons Ratio (z) = 0.25742 0.27844
#
# Static dielectric constant tensor:
#      x y z
#    x 3.599080 0.000000 0.000000 
#    y 0.000000 2.998190 0.000000 
#    z 0.000000 0.000000 3.280130 
# 
# 
# High freq. dielectric constant tensor:
#      x y z
#    x 1.688600 0.000000 0.000000 
#    y 0.000000 1.623670 0.000000 
#    z 0.000000 0.000000 1.662200 
# 
# From -- ./inp_files/27204.got.cif
#   From: 2010.03.12/outbox.cif.g09.slc.cpg/sg51_14_cif.got.tgz:27204.got - 2010.04.16 13:43:02.
