data_PCOD8210371
_publ_section_title
;
Structure prediction by ZEFSAII (Michael W. Deem and Ramdas Pophale) SiO2 
 PCOD8210371
Probable space group: P M M A
;
_chemical_formula_sum "Si O2"
_cell_formula_units_Z 40
_cell_length_a 9.184337
_cell_length_b 8.953286
_cell_length_c 26.109811
_cell_angle_alpha 90.000000
_cell_angle_beta 90.000000
_cell_angle_gamma 90.000000
_cell_volume 2147.009651
_symmetry_space_group_name_H-M "P M M A"
_symmetry_group_IT_number 51
_symmetry_cell_setting 'orthorhombic'
loop_
_space_group_symop_operation_xyz
x,y,z
1/2-x,-y,z
1/2+x,-y,-z
-x,y,-z
-x,-y,-z
1/2+x,y,-z
1/2-x,y,z
x,-y,z
loop_
_atom_site_type_symbol
_atom_site_label
_atom_site_fract_x
_atom_site_fract_y
_atom_site_fract_z
Si Si1 0.914784 0.822191 0.549323
Si Si2 0.584930 0.677375 0.742546
Si Si3 0.580620 0.672077 0.047861
Si Si4 0.913082 0.678067 0.159752
Si Si5 0.418828 0.175509 0.650100
O O1 0.750000 0.759668 0.549476
O O2 0.000000 0.758444 0.500000
O O3 0.997480 0.765695 0.599881
O O4 0.913478 0.000000 0.547450
O O5 0.750000 0.735205 0.736184
O O6 0.577432 0.500000 0.739757
O O7 0.524215 0.735932 0.797072
O O8 0.484043 0.742250 0.698656
O O9 0.750000 0.691072 0.038182
O O10 0.532895 0.500000 0.048825
O O11 0.538722 0.740961 0.103675
O O12 0.500000 0.753029 0.000000
O O13 0.750000 0.734723 0.173099
O O14 0.911602 0.500000 0.157357
O O15 0.250000 0.217314 0.644221
O O16 0.441417 0.000000 0.657336
#
# Coordination Sequence:
#
# PCOD8210371 Si02
#       5
#     8   8   8   8   8
#     4   9  16  27  45  69  96 123 151 186 227 270
#     4  10  20  32  47  68  93 123 158 193 231 276
#     4   8  13  20  31  49  74 105 140 178 221 266
#     4   8  14  25  39  55  79 113 150 185 223 269
#     4  10  20  33  50  72  96 123 156 192 230 272
#
# _framework density 18.630562999999999
#
# number of rings (size 3 to 8) (size 9 to 14) (size 15 to 20)
#    0.000    3.000    0.000    3.000    0.000    5.600 
#    0.000    4.000    0.000    0.600    0.000    0.000 
#    0.000    0.800    0.000    2.600    0.000    5.200 
#
# Total GULP energy -495769.028232 kJ/mol
# GULP energy per Si atom -12394.225706 kJ/mol
# Density = 1.858816 g / cm^3
# Si number density = 18.630563 Si / 1000 Ang^3
#
#
#
# Elastic Constant Matrix: (Units=GPa)
#
#
# Indices 1 2 3 4 5 6 
#
# 1 128.6083 16.3854 84.5992 0.0000 0.0000 0.0000
# 2 16.3854 7.2103 17.3376 0.0000 0.0000 0.0000
# 3 84.5992 17.3376 178.6695 0.0000 0.0000 0.0000
# 4 0.0000 0.0000 0.0000 39.0026 0.0000 0.0000
# 5 0.0000 0.0000 0.0000 0.0000 45.1796 0.0000
# 6 0.0000 0.0000 0.0000 0.0000 0.0000 15.2422
#
#
#
# Elastic Compliance Matrix: (Units=1/GPa)
#
#
# Indices 1 2 3 4 5 6 
#
# 1 0.013079 -0.019345 -0.004316 0.000000 0.000000 0.000000
# 2 -0.019345 0.209512 -0.011171 0.000000 0.000000 0.000000
# 3 -0.004316 -0.011171 0.008724 0.000000 0.000000 0.000000
# 4 0.000000 0.000000 0.000000 0.025639 0.000000 0.000000
# 5 0.000000 0.000000 0.000000 0.000000 0.022134 0.000000
# 6 0.000000 0.000000 0.000000 0.000000 0.000000 0.065608
#
#
# Mechanical properties :
#
#
# Convention : Reuss Voigt Hill
#
# Bulk Modulus (GPa) = 6.18610 61.23694 33.71152
# Shear Modulus (GPa) = 10.67823 32.96260 21.82042
#
# Velocity S-wave (km/s) = 2.39667 4.21084 3.42602
# Velocity P-wave (km/s) = 3.31456 7.52210 5.81241
#
# Compressibility (1/GPa) = 0.16165265
#
# Stress axis : x y z
#
# Youngs Moduli (GPa) = 76.45806 4.77301 114.62114
#
# Poissons Ratio (x) = 0.09233 0.49467
# Poissons Ratio (y) = 1.47905 1.28041
# Poissons Ratio (z) = 0.32997 0.05332
#
# Static dielectric constant tensor:
#      x y z
#    x 3.622550 0.000000 0.000000 
#    y 0.000000 2.718730 0.000000 
#    z 0.000000 0.000000 3.939490 
# 
# 
# High freq. dielectric constant tensor:
#      x y z
#    x 1.731560 0.000000 0.000000 
#    y 0.000000 1.642430 0.000000 
#    z 0.000000 0.000000 1.747820 
# 
# From -- ./inp_files/31362.got.cif
#   From: 2010.03.12/outbox.cif.g09.slc.cpg/sg51_16_cif.got.tgz:31362.got - 2010.04.16 13:43:02.
