data_PCOD8210626
_publ_section_title
;
Structure prediction by ZEFSAII (Michael W. Deem and Ramdas Pophale) SiO2 
 PCOD8210626
Probable space group: P M M A
;
_chemical_formula_sum "Si O2"
_cell_formula_units_Z 64
_cell_length_a 18.477263
_cell_length_b 8.876417
_cell_length_c 21.516034
_cell_angle_alpha 90.000000
_cell_angle_beta 90.000000
_cell_angle_gamma 90.000000
_cell_volume 3528.885432
_symmetry_space_group_name_H-M "P M M A"
_symmetry_group_IT_number 51
_symmetry_cell_setting 'orthorhombic'
loop_
_space_group_symop_operation_xyz
x,y,z
1/2-x,-y,z
1/2+x,-y,-z
-x,y,-z
-x,-y,-z
1/2+x,y,-z
1/2-x,y,z
x,-y,z
loop_
_atom_site_type_symbol
_atom_site_label
_atom_site_fract_x
_atom_site_fract_y
_atom_site_fract_z
Si Si1 0.613998 0.675872 0.249267
Si Si2 0.833094 0.671027 0.603979
Si Si3 0.974024 0.176891 0.065752
Si Si4 0.330011 0.679854 0.259573
Si Si5 0.330258 0.826668 0.869873
Si Si6 0.833213 0.178275 0.375288
Si Si7 0.417273 0.678221 0.511468
Si Si8 0.033754 0.676425 0.184917
O O1 0.625446 0.500000 0.262361
O O2 0.662901 0.723984 0.190945
O O3 0.638061 0.768211 0.308871
O O4 0.530532 0.713864 0.233113
O O5 0.750000 0.679594 0.584944
O O6 0.860663 0.500000 0.608176
O O7 0.845960 0.746971 0.671463
O O8 0.877122 0.749727 0.548595
O O9 0.889784 0.219528 0.078332
O O10 0.024103 0.243457 0.119373
O O11 0.986156 0.000000 0.065570
O O12 0.000000 0.246114 0.000000
O O13 0.250000 0.732450 0.237044
O O14 0.331600 0.500000 0.264192
O O15 0.391154 0.739649 0.212985
O O16 0.250000 0.802620 0.898370
O O17 0.342389 0.000000 0.849809
O O18 0.750000 0.231565 0.385027
O O19 0.885594 0.246525 0.427082
O O20 0.838461 0.000000 0.377924
O O21 0.500000 0.720570 0.500000
O O22 0.405163 0.500000 0.518326
O O23 0.037524 0.500000 0.172088
#
# Coordination Sequence:
#
# PCOD8210626 Si02
#       8
#     8   8   8   8   8   8   8   8
#     4  10  20  32  51  78 104 129 162 211 263 306
#     4   8  14  26  46  70  95 125 160 199 244 294
#     4   9  18  33  51  71  99 135 170 201 238 288
#     4   8  14  26  47  73  99 127 160 199 244 296
#     4   9  17  31  51  73  99 132 170 207 245 296
#     4  11  24  39  53  71 101 140 175 208 253 309
#     4  10  21  34  53  78 102 129 166 216 262 303
#     4   9  18  31  51  77 103 129 161 205 251 294
#
# _framework density 18.136039
#
# number of rings (size 3 to 8) (size 9 to 14) (size 15 to 20)
#    0.000    2.750    0.000    2.250    1.750    4.250 
#    0.000    0.625    0.000    1.125    0.000    1.750 
#    0.000    0.000    0.000    0.000    0.000    0.000 
#
# Total GULP energy -793333.828906 kJ/mol
# GULP energy per Si atom -12395.841077 kJ/mol
# Density = 1.809476 g / cm^3
# Si number density = 18.136039 Si / 1000 Ang^3
#
#
#
# Elastic Constant Matrix: (Units=GPa)
#
#
# Indices 1 2 3 4 5 6 
#
# 1 131.9747 31.2829 91.1162 0.0000 0.0000 0.0000
# 2 31.2829 29.7938 30.2148 0.0000 0.0000 0.0000
# 3 91.1162 30.2148 136.7758 0.0000 0.0000 0.0000
# 4 0.0000 0.0000 0.0000 23.8671 0.0000 0.0000
# 5 0.0000 0.0000 0.0000 0.0000 27.6038 0.0000
# 6 0.0000 0.0000 0.0000 0.0000 0.0000 12.4886
#
#
#
# Elastic Compliance Matrix: (Units=1/GPa)
#
#
# Indices 1 2 3 4 5 6 
#
# 1 0.015176 -0.007322 -0.008492 0.000000 0.000000 0.000000
# 2 -0.007322 0.046787 -0.005458 0.000000 0.000000 0.000000
# 3 -0.008492 -0.005458 0.014174 0.000000 0.000000 0.000000
# 4 0.000000 0.000000 0.000000 0.041899 0.000000 0.000000
# 5 0.000000 0.000000 0.000000 0.000000 0.036227 0.000000
# 6 0.000000 0.000000 0.000000 0.000000 0.000000 0.080073
#
#
# Mechanical properties :
#
#
# Convention : Reuss Voigt Hill
#
# Bulk Modulus (GPa) = 29.76833 67.08577 48.42705
# Shear Modulus (GPa) = 17.35641 22.52059 19.93850
#
# Velocity S-wave (km/s) = 3.09692 3.52768 3.31930
# Velocity P-wave (km/s) = 5.40716 7.32553 6.43820
#
# Compressibility (1/GPa) = 0.03359274
#
# Stress axis : x y z
#
# Youngs Moduli (GPa) = 65.89380 21.37346 70.55073
#
# Poissons Ratio (x) = 0.15650 0.59914
# Poissons Ratio (y) = 0.48248 0.38505
# Poissons Ratio (z) = 0.55959 0.11665
#
# Static dielectric constant tensor:
#      x y z
#    x 3.595560 0.000000 0.000000 
#    y 0.000000 3.070160 0.000000 
#    z 0.000000 0.000000 3.428580 
# 
# 
# High freq. dielectric constant tensor:
#      x y z
#    x 1.712530 0.000000 0.000000 
#    y 0.000000 1.671040 0.000000 
#    z 0.000000 0.000000 1.698140 
# 
# From -- ./inp_files/33984.got.cif
#   From: 2010.03.12/outbox.cif.g09.slc.cpg/sg51_17_cif.got.tgz:33984.got - 2010.04.16 13:43:02.
