data_PCOD8210484
_publ_section_title
;
Structure prediction by ZEFSAII (Michael W. Deem and Ramdas Pophale) SiO2 
 PCOD8210484
Probable space group: P M M A
;
_chemical_formula_sum "Si O2"
_cell_formula_units_Z 40
_cell_length_a 9.243598
_cell_length_b 8.883909
_cell_length_c 25.976923
_cell_angle_alpha 90.000000
_cell_angle_beta 90.000000
_cell_angle_gamma 90.000000
_cell_volume 2133.206303
_symmetry_space_group_name_H-M "P M M A"
_symmetry_group_IT_number 51
_symmetry_cell_setting 'orthorhombic'
loop_
_space_group_symop_operation_xyz
x,y,z
1/2-x,-y,z
1/2+x,-y,-z
-x,y,-z
-x,-y,-z
1/2+x,y,-z
1/2-x,y,z
x,-y,z
loop_
_atom_site_type_symbol
_atom_site_label
_atom_site_fract_x
_atom_site_fract_y
_atom_site_fract_z
Si Si1 0.087469 0.820306 0.950865
Si Si2 0.417921 0.324115 0.448528
Si Si3 0.412380 0.178958 0.259239
Si Si4 0.586823 0.821101 0.356067
Si Si5 0.587545 0.821000 0.854430
O O1 0.250000 0.758491 0.954374
O O2 0.016827 0.755041 0.898483
O O3 0.085250 0.000000 0.950384
O O4 0.000000 0.758759 0.000000
O O5 0.500000 0.273315 0.500000
O O6 0.250000 0.280786 0.454093
O O7 0.439312 0.500000 0.438180
O O8 0.486258 0.234260 0.401767
O O9 0.250000 0.238755 0.270541
O O10 0.521601 0.242021 0.302375
O O11 0.463642 0.233432 0.202412
O O12 0.410967 0.000000 0.260738
O O13 0.750000 0.758591 0.362166
O O14 0.586601 0.000000 0.356315
O O15 0.750000 0.763267 0.865148
O O16 0.585252 0.000000 0.856523
#
# Coordination Sequence:
#
# PCOD8210484 Si02
#       5
#     8   8   8   8   8
#     4   9  15  20  26  37  55  82 119 164 210 254
#     4  10  21  37  56  75  95 122 155 189 227 272
#     4   8  14  25  40  57  79 108 140 176 219 264
#     4  10  20  32  48  72  99 125 154 189 228 270
#     4   8  13  21  32  45  63  90 125 165 210 257
#
# _framework density 18.751117000000001
#
# number of rings (size 3 to 8) (size 9 to 14) (size 15 to 20)
#    0.000    3.000    0.000    3.000    0.000    6.000 
#    0.000    4.000    0.000    0.000    0.000    0.000 
#    0.000    0.000    0.000    0.000    0.000    1.000 
#
# Total GULP energy -495815.941181 kJ/mol
# GULP energy per Si atom -12395.398530 kJ/mol
# Density = 1.870844 g / cm^3
# Si number density = 18.751117 Si / 1000 Ang^3
#
#
#
# Elastic Constant Matrix: (Units=GPa)
#
#
# Indices 1 2 3 4 5 6 
#
# 1 156.3766 13.2077 100.4556 0.0000 0.0000 0.0000
# 2 13.2077 6.0742 14.3140 0.0000 0.0000 0.0000
# 3 100.4556 14.3140 178.9070 0.0000 0.0000 0.0000
# 4 0.0000 0.0000 0.0000 -4.2133 0.0000 0.0000
# 5 0.0000 0.0000 0.0000 0.0000 44.9691 0.0000
# 6 0.0000 0.0000 0.0000 0.0000 0.0000 12.4785
#
#
#
# Elastic Compliance Matrix: (Units=1/GPa)
#
#
# Indices 1 2 3 4 5 6 
#
# 1 0.010577 -0.011095 -0.005051 0.000000 0.000000 0.000000
# 2 -0.011095 0.214523 -0.010934 0.000000 0.000000 0.000000
# 3 -0.005051 -0.010934 0.009300 0.000000 0.000000 0.000000
# 4 0.000000 0.000000 0.000000 -0.237342 0.000000 0.000000
# 5 0.000000 0.000000 0.000000 0.000000 0.022237 0.000000
# 6 0.000000 0.000000 0.000000 0.000000 0.000000 0.080138
#
#
# Mechanical properties :
#
#
# Convention : Reuss Voigt Hill
#
# Bulk Modulus (GPa) = 5.54815 66.36806 35.95810
# Shear Modulus (GPa) = 23.40029 24.87223 24.13626
#
# Velocity S-wave (km/s) = 3.53645 3.64598 3.59164
# Velocity P-wave (km/s) = 4.43177 7.29351 6.03473
#
# Compressibility (1/GPa) = 0.18024026
#
# Stress axis : x y z
#
# Youngs Moduli (GPa) = 94.54726 4.66151 107.52166
#
# Poissons Ratio (x) = 0.05172 0.54310
# Poissons Ratio (y) = 1.04901 1.17561
# Poissons Ratio (z) = 0.47757 0.05097
#
# Static dielectric constant tensor:
#      x y z
#    x 3.733930 0.000000 0.000000 
#    y 0.000000 2.695920 0.000000 
#    z 0.000000 0.000000 3.833500 
# 
# 
# High freq. dielectric constant tensor:
#      x y z
#    x 1.736510 0.000000 0.000000 
#    y 0.000000 1.647740 0.000000 
#    z 0.000000 0.000000 1.748850 
# 
# From -- ./inp_files/35983.got.cif
#   From: 2010.03.12/outbox.cif.g09.slc.cpg/sg51_18_cif.got.tgz:35983.got - 2010.04.16 13:43:02.
