data_PCOD8210549
_publ_section_title
;
Structure prediction by ZEFSAII (Michael W. Deem and Ramdas Pophale) SiO2 
 PCOD8210549
Probable space group: P M M A
;
_chemical_formula_sum "Si O2"
_cell_formula_units_Z 64
_cell_length_a 23.858640
_cell_length_b 8.970510
_cell_length_c 16.301697
_cell_angle_alpha 90.000000
_cell_angle_beta 90.000000
_cell_angle_gamma 90.000000
_cell_volume 3488.957149
_symmetry_space_group_name_H-M "P M M A"
_symmetry_group_IT_number 51
_symmetry_cell_setting 'orthorhombic'
loop_
_space_group_symop_operation_xyz
x,y,z
1/2-x,-y,z
1/2+x,-y,-z
-x,y,-z
-x,-y,-z
1/2+x,y,-z
1/2-x,y,z
x,-y,z
loop_
_atom_site_type_symbol
_atom_site_label
_atom_site_fract_x
_atom_site_fract_y
_atom_site_fract_z
Si Si1 0.439462 0.675838 0.527519
Si Si2 0.313825 0.325461 0.971537
Si Si3 0.896673 0.173025 0.624618
Si Si4 0.313361 0.667075 0.273109
Si Si5 0.685561 0.174203 0.199921
Si Si6 0.609065 0.669138 0.880126
Si Si7 0.914180 0.677275 0.288538
Si Si8 0.522698 0.823405 0.771328
O O1 0.500000 0.735860 0.500000
O O2 0.435859 0.500000 0.522060
O O3 0.397009 0.744424 0.462200
O O4 0.424870 0.731523 0.618448
O O5 0.250000 0.293532 0.002277
O O6 0.320604 0.500000 0.951711
O O7 0.327111 0.231026 0.891086
O O8 0.360736 0.273494 0.037095
O O9 0.836992 0.213296 0.663080
O O10 0.944673 0.227949 0.688568
O O11 0.902043 0.000000 0.608296
O O12 0.250000 0.710252 0.257062
O O13 0.320479 0.500000 0.309053
O O14 0.342732 0.679960 0.186433
O O15 0.750000 0.206527 0.224250
O O16 0.646607 0.262857 0.263338
O O17 0.671609 0.000000 0.204421
O O18 0.587427 0.500000 0.890497
O O19 0.556093 0.769499 0.852689
O O20 0.916359 0.500000 0.280442
O O21 0.961803 0.747277 0.229917
O O22 0.516310 0.000000 0.775835
#
# Coordination Sequence:
#
# PCOD8210549 Si02
#       8
#     8   8   8   8   8   8   8   8
#     4  10  20  35  56  81 106 133 174 221 264 313
#     4   9  17  32  56  83 109 140 183 230 270 314
#     4  10  20  32  49  75 107 141 175 215 262 312
#     4   9  17  30  49  72 103 144 183 218 260 310
#     4  10  22  40  60  82 110 142 175 217 270 323
#     4   9  17  30  51  79 110 142 181 225 266 310
#     4  11  22  37  60  84 106 137 177 223 270 318
#     4  10  20  33  50  77 113 147 177 213 263 321
#
# _framework density 18.343591
#
# number of rings (size 3 to 8) (size 9 to 14) (size 15 to 20)
#    0.000    2.250    1.250    1.875    0.000    5.250 
#    0.000    1.250    0.000    6.750    0.000    0.000 
#    0.000    0.000    0.000    0.000    0.000    0.000 
#
# Total GULP energy -793583.849049 kJ/mol
# GULP energy per Si atom -12399.747641 kJ/mol
# Density = 1.830184 g / cm^3
# Si number density = 18.343591 Si / 1000 Ang^3
#
#
#
# Elastic Constant Matrix: (Units=GPa)
#
#
# Indices 1 2 3 4 5 6 
#
# 1 99.6861 41.0579 52.6068 0.0000 0.0000 0.0000
# 2 41.0579 58.5623 41.2139 0.0000 0.0000 0.0000
# 3 52.6068 41.2139 97.2938 0.0000 0.0000 0.0000
# 4 0.0000 0.0000 0.0000 21.5445 0.0000 0.0000
# 5 0.0000 0.0000 0.0000 0.0000 28.0895 0.0000
# 6 0.0000 0.0000 0.0000 0.0000 0.0000 28.1350
#
#
#
# Elastic Compliance Matrix: (Units=1/GPa)
#
#
# Indices 1 2 3 4 5 6 
#
# 1 0.015957 -0.007288 -0.005541 0.000000 0.000000 0.000000
# 2 -0.007288 0.027657 -0.007775 0.000000 0.000000 0.000000
# 3 -0.005541 -0.007775 0.016568 0.000000 0.000000 0.000000
# 4 0.000000 0.000000 0.000000 0.046416 0.000000 0.000000
# 5 0.000000 0.000000 0.000000 0.000000 0.035601 0.000000
# 6 0.000000 0.000000 0.000000 0.000000 0.000000 0.035543
#
#
# Mechanical properties :
#
#
# Convention : Reuss Voigt Hill
#
# Bulk Modulus (GPa) = 52.70320 58.36662 55.53491
# Shear Modulus (GPa) = 22.19519 23.59804 22.89661
#
# Velocity S-wave (km/s) = 3.48224 3.59060 3.53683
# Velocity P-wave (km/s) = 6.70533 7.00553 6.85707
#
# Compressibility (1/GPa) = 0.01897418
#
# Stress axis : x y z
#
# Youngs Moduli (GPa) = 62.66716 36.15679 60.35885
#
# Poissons Ratio (x) = 0.26352 0.33444
# Poissons Ratio (y) = 0.45673 0.46929
# Poissons Ratio (z) = 0.34723 0.28112
#
# Static dielectric constant tensor:
#      x y z
#    x 3.364230 0.000000 0.000000 
#    y 0.000000 3.323910 0.000000 
#    z 0.000000 0.000000 3.344930 
# 
# 
# High freq. dielectric constant tensor:
#      x y z
#    x 1.705080 0.000000 0.000000 
#    y 0.000000 1.710330 0.000000 
#    z 0.000000 0.000000 1.700870 
# 
# From -- ./inp_files/26253.got.cif
#   From: 2010.03.12/outbox.cif.g09.slc.cpg/sg51_14_cif.got.tgz:26253.got - 2010.04.16 13:43:02.
