data_PCOD8210310
_publ_section_title
;
Structure prediction by ZEFSAII (Michael W. Deem and Ramdas Pophale) SiO2 
 PCOD8210310
Probable space group: P M M A
;
_chemical_formula_sum "Si O2"
_cell_formula_units_Z 48
_cell_length_a 9.167011
_cell_length_b 9.210031
_cell_length_c 31.237579
_cell_angle_alpha 90.000000
_cell_angle_beta 90.000000
_cell_angle_gamma 90.000000
_cell_volume 2637.340548
_symmetry_space_group_name_H-M "P M M A"
_symmetry_group_IT_number 51
_symmetry_cell_setting 'orthorhombic'
loop_
_space_group_symop_operation_xyz
x,y,z
1/2-x,-y,z
1/2+x,-y,-z
-x,y,-z
-x,-y,-z
1/2+x,y,-z
1/2-x,y,z
x,-y,z
loop_
_atom_site_type_symbol
_atom_site_label
_atom_site_fract_x
_atom_site_fract_y
_atom_site_fract_z
Si Si1 0.584998 0.827130 0.207683
Si Si2 0.082476 0.331485 0.539768
Si Si3 0.417075 0.327971 0.634465
Si Si4 0.580529 0.169239 0.708301
Si Si5 0.584673 0.826932 0.041602
Si Si6 0.415297 0.826834 0.124857
O O1 0.750000 0.766912 0.206577
O O2 0.506409 0.770964 0.250548
O O3 0.497247 0.766254 0.166819
O O4 0.584530 0.000000 0.206507
O O5 0.250000 0.306051 0.530362
O O6 0.041239 0.500000 0.540696
O O7 0.042046 0.269472 0.586772
O O8 0.000000 0.253854 0.500000
O O9 0.250000 0.285827 0.645395
O O10 0.436658 0.500000 0.637107
O O11 0.527321 0.252935 0.666671
O O12 0.750000 0.200703 0.715977
O O13 0.549593 0.000000 0.701322
O O14 0.750000 0.766999 0.041483
O O15 0.500993 0.768050 0.083397
O O16 0.586253 0.000000 0.041529
O O17 0.500000 0.767738 0.000000
O O18 0.250000 0.767186 0.124188
O O19 0.414290 0.000000 0.125062
#
# Coordination Sequence:
#
# PCOD8210310 Si02
#       6
#     8   8   8   8   8   8
#     4   9  16  26  40  56  74 100 135 173 213 257
#     4   8  14  25  42  65  91 116 143 177 216 258
#     4   9  18  32  49  70  95 121 150 184 222 266
#     4  10  20  32  46  66  91 118 150 188 227 267
#     4   9  15  21  28  39  57  83 117 157 202 251
#     4   9  15  22  32  46  65  89 120 162 208 251
#
# _framework density 18.200153
#
# number of rings (size 3 to 8) (size 9 to 14) (size 15 to 20)
#    0.000    3.000    0.000    3.000    0.000    8.000 
#    0.000    1.667    0.000    0.500    0.000    0.000 
#    0.000    0.000    0.000    0.000    0.000    0.833 
#
# Total GULP energy -594993.858427 kJ/mol
# GULP energy per Si atom -12395.705384 kJ/mol
# Density = 1.815873 g / cm^3
# Si number density = 18.200153 Si / 1000 Ang^3
#
#
#
# Elastic Constant Matrix: (Units=GPa)
#
#
# Indices 1 2 3 4 5 6 
#
# 1 178.3874 21.5995 125.3622 0.0000 0.0000 0.0000
# 2 21.5995 10.7514 23.5015 0.0000 0.0000 0.0000
# 3 125.3622 23.5015 210.8986 0.0000 0.0000 0.0000
# 4 0.0000 0.0000 0.0000 -18.0550 0.0000 0.0000
# 5 0.0000 0.0000 0.0000 0.0000 45.4711 0.0000
# 6 0.0000 0.0000 0.0000 0.0000 0.0000 13.3820
#
#
#
# Elastic Compliance Matrix: (Units=1/GPa)
#
#
# Indices 1 2 3 4 5 6 
#
# 1 0.010340 -0.009701 -0.005065 0.000000 0.000000 0.000000
# 2 -0.009701 0.132064 -0.008950 0.000000 0.000000 0.000000
# 3 -0.005065 -0.008950 0.008750 0.000000 0.000000 0.000000
# 4 0.000000 0.000000 0.000000 -0.055386 0.000000 0.000000
# 5 0.000000 0.000000 0.000000 0.000000 0.021992 0.000000
# 6 0.000000 0.000000 0.000000 0.000000 0.000000 0.074727
#
#
# Mechanical properties :
#
#
# Convention : Reuss Voigt Hill
#
# Bulk Modulus (GPa) = 9.64122 82.32933 45.98528
# Shear Modulus (GPa) = 18.21536 23.46455 20.83995
#
# Velocity S-wave (km/s) = 3.16703 3.59451 3.38752
# Velocity P-wave (km/s) = 4.32230 7.90955 6.37351
#
# Compressibility (1/GPa) = 0.10372131
#
# Stress axis : x y z
#
# Youngs Moduli (GPa) = 96.71154 7.57208 114.28697
#
# Poissons Ratio (x) = 0.07346 0.57890
# Poissons Ratio (y) = 0.93818 1.02290
# Poissons Ratio (z) = 0.48987 0.06777
#
# Static dielectric constant tensor:
#      x y z
#    x 3.514440 0.000000 0.000000 
#    y 0.000000 2.561610 0.000000 
#    z 0.000000 0.000000 3.601760 
# 
# 
# High freq. dielectric constant tensor:
#      x y z
#    x 1.717650 0.000000 0.000000 
#    y 0.000000 1.615070 0.000000 
#    z 0.000000 0.000000 1.728320 
# 
# From -- ./inp_files/36130.got.cif
#   From: 2010.03.12/outbox.cif.g09.slc.cpg/sg51_19_cif.got.tgz:36130.got - 2010.04.16 13:43:02.
