data_PCOD8210640
_publ_section_title
;
Structure prediction by ZEFSAII (Michael W. Deem and Ramdas Pophale) SiO2 
 PCOD8210640
Probable space group: P M M A
;
_chemical_formula_sum "Si O2"
_cell_formula_units_Z 64
_cell_length_a 9.238150
_cell_length_b 14.167590
_cell_length_c 25.924691
_cell_angle_alpha 90.000000
_cell_angle_beta 90.000000
_cell_angle_gamma 90.000000
_cell_volume 3393.083744
_symmetry_space_group_name_H-M "P M M A"
_symmetry_group_IT_number 51
_symmetry_cell_setting 'orthorhombic'
loop_
_space_group_symop_operation_xyz
x,y,z
1/2-x,-y,z
1/2+x,-y,-z
-x,y,-z
-x,-y,-z
1/2+x,y,-z
1/2-x,y,z
x,-y,z
loop_
_atom_site_type_symbol
_atom_site_label
_atom_site_fract_x
_atom_site_fract_y
_atom_site_fract_z
Si Si1 0.580576 0.207742 0.948323
Si Si2 0.083886 0.394853 0.104112
Si Si3 0.582455 0.110329 0.752990
Si Si4 0.908593 0.611506 0.200594
Si Si5 0.920419 0.779585 0.650494
Si Si6 0.421656 0.393169 0.685263
Si Si7 0.419147 0.891319 0.449815
Si Si8 0.583167 0.888152 0.145421
O O1 0.750000 0.181411 0.951855
O O2 0.559014 0.321090 0.942139
O O3 0.509711 0.153526 0.901005
O O4 0.500000 0.175159 0.000000
O O5 0.250000 0.402230 0.119323
O O6 0.025467 0.500000 0.088713
O O7 0.007882 0.350328 0.154587
O O8 0.750000 0.130826 0.766111
O O9 0.531765 0.163744 0.701460
O O10 0.484308 0.147596 0.800368
O O11 0.557056 0.000000 0.742942
O O12 0.750000 0.657404 0.193841
O O13 0.895798 0.500000 0.195906
O O14 0.973200 0.635079 0.256819
O O15 0.750000 0.763750 0.649697
O O16 0.973391 0.836489 0.600588
O O17 0.998159 0.678105 0.647052
O O18 0.250000 0.382926 0.680722
O O19 0.468729 0.500000 0.671635
O O20 0.500000 0.850463 0.500000
O O21 0.250000 0.877448 0.458807
O O22 0.460229 0.000000 0.441020
O O23 0.750000 0.855291 0.141711
O O24 0.569644 0.000000 0.142114
#
# Coordination Sequence:
#
# PCOD8210640 Si02
#       8
#     8   8   8   8   8   8   8   8
#     4  11  24  40  58  80 105 135 174 218 265 318
#     4   9  19  35  54  77 105 135 169 211 257 309
#     4   9  18  34  55  80 112 145 173 207 259 322
#     4   8  15  29  48  70  97 132 172 210 254 308
#     4  10  20  32  52  82 112 145 185 225 268 317
#     4   9  19  34  49  71 107 147 185 225 270 317
#     4   9  18  34  55  80 112 148 185 227 273 323
#     4  10  22  40  60  81 106 137 173 216 266 318
#
# _framework density 18.861896999999999
#
# number of rings (size 3 to 8) (size 9 to 14) (size 15 to 20)
#    0.000    2.625    0.000    1.875    1.750    5.500 
#    0.000    1.250    0.000    4.125    0.000    0.000 
#    0.000    0.000    0.000    0.000    0.000    0.000 
#
# Total GULP energy -793506.860261 kJ/mol
# GULP energy per Si atom -12398.544692 kJ/mol
# Density = 1.881897 g / cm^3
# Si number density = 18.861897 Si / 1000 Ang^3
#
#
#
# Elastic Constant Matrix: (Units=GPa)
#
#
# Indices 1 2 3 4 5 6 
#
# 1 75.9039 36.4908 62.6951 0.0000 0.0000 0.0000
# 2 36.4908 62.1006 57.6094 0.0000 0.0000 0.0000
# 3 62.6951 57.6094 144.2743 0.0000 0.0000 0.0000
# 4 0.0000 0.0000 0.0000 27.8877 0.0000 0.0000
# 5 0.0000 0.0000 0.0000 0.0000 33.1446 0.0000
# 6 0.0000 0.0000 0.0000 0.0000 0.0000 25.5503
#
#
#
# Elastic Compliance Matrix: (Units=1/GPa)
#
#
# Indices 1 2 3 4 5 6 
#
# 1 0.022074 -0.006468 -0.007010 0.000000 0.000000 0.000000
# 2 -0.006468 0.027473 -0.008159 0.000000 0.000000 0.000000
# 3 -0.007010 -0.008159 0.013235 0.000000 0.000000 0.000000
# 4 0.000000 0.000000 0.000000 0.035858 0.000000 0.000000
# 5 0.000000 0.000000 0.000000 0.000000 0.030171 0.000000
# 6 0.000000 0.000000 0.000000 0.000000 0.000000 0.039139
#
#
# Mechanical properties :
#
#
# Convention : Reuss Voigt Hill
#
# Bulk Modulus (GPa) = 51.26086 66.20772 58.73429
# Shear Modulus (GPa) = 22.96463 25.68208 24.32335
#
# Velocity S-wave (km/s) = 3.49308 3.69397 3.59493
# Velocity P-wave (km/s) = 6.59581 7.30557 6.95974
#
# Compressibility (1/GPa) = 0.01950806
#
# Stress axis : x y z
#
# Youngs Moduli (GPa) = 45.30246 36.39954 75.55552
#
# Poissons Ratio (x) = 0.23544 0.52961
# Poissons Ratio (y) = 0.29303 0.61648
# Poissons Ratio (z) = 0.31755 0.29699
#
# Static dielectric constant tensor:
#      x y z
#    x 3.487620 0.000000 0.000000 
#    y 0.000000 3.488010 0.000000 
#    z 0.000000 0.000000 3.446700 
# 
# 
# High freq. dielectric constant tensor:
#      x y z
#    x 1.728600 0.000000 0.000000 
#    y 0.000000 1.733970 0.000000 
#    z 0.000000 0.000000 1.717260 
# 
# From -- ./inp_files/34874.got.cif
#   From: 2010.03.12/outbox.cif.g09.slc.cpg/sg51_18_cif.got.tgz:34874.got - 2010.04.16 13:43:02.
