data_PCOD8210259
_publ_section_title
;
Structure prediction by ZEFSAII (Michael W. Deem and Ramdas Pophale) SiO2 
 PCOD8210259
Probable space group: P M M A
;
_chemical_formula_sum "Si O2"
_cell_formula_units_Z 64
_cell_length_a 8.912240
_cell_length_b 14.678732
_cell_length_c 28.678301
_cell_angle_alpha 90.000000
_cell_angle_beta 90.000000
_cell_angle_gamma 90.000000
_cell_volume 3751.706306
_symmetry_space_group_name_H-M "P M M A"
_symmetry_group_IT_number 51
_symmetry_cell_setting 'orthorhombic'
loop_
_space_group_symop_operation_xyz
x,y,z
1/2-x,-y,z
1/2+x,-y,-z
-x,y,-z
-x,-y,-z
1/2+x,y,-z
1/2-x,y,z
x,-y,z
loop_
_atom_site_type_symbol
_atom_site_label
_atom_site_fract_x
_atom_site_fract_y
_atom_site_fract_z
Si Si1 0.578130 0.106187 0.196927
Si Si2 0.072668 0.895756 0.640462
Si Si3 0.581774 0.108166 0.545594
Si Si4 0.921606 0.102043 0.898164
Si Si5 0.075857 0.275421 0.048025
Si Si6 0.074402 0.396810 0.130812
Si Si7 0.928123 0.399228 0.765720
Si Si8 0.926523 0.786035 0.722840
O O1 0.750000 0.136779 0.204461
O O2 0.529893 0.127939 0.144336
O O3 0.468193 0.160183 0.230695
O O4 0.558805 0.000000 0.208238
O O5 0.250000 0.889841 0.637835
O O6 0.007056 0.861085 0.591503
O O7 0.014626 0.827670 0.679606
O O8 0.021816 0.000000 0.651258
O O9 0.500000 0.149063 0.500000
O O10 0.750000 0.147674 0.547865
O O11 0.585004 0.000000 0.542126
O O12 0.750000 0.112528 0.880714
O O13 0.953668 0.168924 0.941318
O O14 0.954287 0.000000 0.916006
O O15 0.250000 0.298260 0.042699
O O16 0.003524 0.332316 0.091024
O O17 0.000000 0.303997 0.000000
O O18 0.250000 0.376735 0.132988
O O19 0.039959 0.500000 0.116198
O O20 0.006567 0.376945 0.182441
O O21 0.750000 0.401776 0.769814
O O22 0.985224 0.500000 0.749233
O O23 0.976250 0.320016 0.729572
O O24 0.750000 0.795080 0.713679
#
# Coordination Sequence:
#
# PCOD8210259 Si02
#       8
#     8   8   8   8   8   8   8   8
#     4  10  20  32  46  66  92 121 151 183 222 269
#     4  10  20  32  44  62  94 134 171 205 240 277
#     4   9  16  27  44  65  90 124 167 210 248 285
#     4   9  18  33  50  65  82 108 145 184 215 250
#     4  10  20  32  46  66  89 111 137 170 211 258
#     4   8  14  27  47  67  86 109 137 170 210 259
#     4   8  15  29  49  71  91 113 147 189 229 272
#     4  11  20  29  46  70  95 124 156 191 232 277
#
# _framework density 17.058903999999998
#
# number of rings (size 3 to 8) (size 9 to 14) (size 15 to 20)
#    0.000    2.625    0.000    3.375    0.000    7.500 
#    0.000    0.000    0.000    1.500    0.000    3.500 
#    0.000    0.500    0.000    1.375    0.000    2.000 
#
# Total GULP energy -793360.882317 kJ/mol
# GULP energy per Si atom -12396.263786 kJ/mol
# Density = 1.702008 g / cm^3
# Si number density = 17.058904 Si / 1000 Ang^3
#
#
#
# Elastic Constant Matrix: (Units=GPa)
#
#
# Indices 1 2 3 4 5 6 
#
# 1 53.6202 26.5414 30.2771 0.0000 0.0000 0.0000
# 2 26.5414 77.6795 56.7116 0.0000 0.0000 0.0000
# 3 30.2771 56.7116 96.4452 0.0000 0.0000 0.0000
# 4 0.0000 0.0000 0.0000 15.5265 0.0000 0.0000
# 5 0.0000 0.0000 0.0000 0.0000 30.9198 0.0000
# 6 0.0000 0.0000 0.0000 0.0000 0.0000 10.1959
#
#
#
# Elastic Compliance Matrix: (Units=1/GPa)
#
#
# Indices 1 2 3 4 5 6 
#
# 1 0.023589 -0.004649 -0.004671 0.000000 0.000000 0.000000
# 2 -0.004649 0.023473 -0.012343 0.000000 0.000000 0.000000
# 3 -0.004671 -0.012343 0.019093 0.000000 0.000000 0.000000
# 4 0.000000 0.000000 0.000000 0.064406 0.000000 0.000000
# 5 0.000000 0.000000 0.000000 0.000000 0.032342 0.000000
# 6 0.000000 0.000000 0.000000 0.000000 0.000000 0.098079
#
#
# Mechanical properties :
#
#
# Convention : Reuss Voigt Hill
#
# Bulk Modulus (GPa) = 43.80691 50.53390 47.17040
# Shear Modulus (GPa) = 16.02983 18.94278 17.48631
#
# Velocity S-wave (km/s) = 3.06874 3.33593 3.20512
# Velocity P-wave (km/s) = 6.18803 6.67274 6.43495
#
# Compressibility (1/GPa) = 0.02282745
#
# Stress axis : x y z
#
# Youngs Moduli (GPa) = 42.39308 42.60133 52.37497
#
# Poissons Ratio (x) = 0.19807 0.24466
# Poissons Ratio (y) = 0.19710 0.64648
# Poissons Ratio (z) = 0.19803 0.52584
#
# Static dielectric constant tensor:
#      x y z
#    x 3.079310 0.000000 0.000000 
#    y 0.000000 3.291540 0.000000 
#    z 0.000000 0.000000 3.225440 
# 
# 
# High freq. dielectric constant tensor:
#      x y z
#    x 1.641590 0.000000 0.000000 
#    y 0.000000 1.640090 0.000000 
#    z 0.000000 0.000000 1.646570 
# 
# From -- ./inp_files/37596.got.cif
#   From: 2010.03.12/outbox.cif.g09.slc.cpg/sg51_19_cif.got.tgz:37596.got - 2010.04.16 13:43:02.
