data_PCOD8210129
_publ_section_title
;
Structure prediction by ZEFSAII (Michael W. Deem and Ramdas Pophale) SiO2 
 PCOD8210129
Probable space group: P M M A
;
_chemical_formula_sum "Si O2"
_cell_formula_units_Z 56
_cell_length_a 14.361201
_cell_length_b 21.715972
_cell_length_c 9.462244
_cell_angle_alpha 90.000000
_cell_angle_beta 90.000000
_cell_angle_gamma 90.000000
_cell_volume 2950.965802
_symmetry_space_group_name_H-M "P M M A"
_symmetry_group_IT_number 51
_symmetry_cell_setting 'orthorhombic'
loop_
_space_group_symop_operation_xyz
x,y,z
1/2-x,-y,z
1/2+x,-y,-z
-x,y,-z
-x,-y,-z
1/2+x,y,-z
1/2-x,y,z
x,-y,z
loop_
_atom_site_type_symbol
_atom_site_label
_atom_site_fract_x
_atom_site_fract_y
_atom_site_fract_z
Si Si1 0.857711 0.164406 0.667849
Si Si2 0.640832 0.825245 0.336468
Si Si3 0.009513 0.753725 0.163919
Si Si4 0.917291 0.618404 0.842805
Si Si5 0.250000 0.426017 0.335925
Si Si6 0.750000 0.572492 0.350589
Si Si7 0.894412 0.431045 0.130775
Si Si8 0.993154 0.932446 0.334933
O O1 0.750000 0.153795 0.701537
O O2 0.873616 0.184116 0.504535
O O3 0.897795 0.217146 0.768687
O O4 0.912192 0.102113 0.710577
O O5 0.750000 0.822865 0.295168
O O6 0.583495 0.772969 0.251145
O O7 0.597559 0.891768 0.293771
O O8 0.026381 0.681297 0.178078
O O9 0.000000 0.773720 0.000000
O O10 0.841000 0.605424 0.726646
O O11 0.996127 0.565720 0.833624
O O12 0.871151 0.613721 0.998538
O O13 0.250000 0.500000 0.316924
O O14 0.250000 0.399812 0.493994
O O15 0.750000 0.500000 0.370536
O O16 0.659390 0.595477 0.266347
O O17 0.858747 0.500000 0.095433
O O18 0.000000 0.942464 0.500000
O O19 0.986132 0.000000 0.261345
#
# Coordination Sequence:
#
# PCOD8210129 Si02
#       8
#     8   8   8   8   4   4   8   8
#     4   9  19  36  58  80 115 158 187 230 286 333
#     4   9  19  38  58  81 115 156 189 227 288 333
#     4  11  22  39  54  81 111 145 193 242 273 325
#     4  11  22  38  58  86 106 143 188 233 273 330
#     4  11  23  41  61  87 117 143 174 223 288 351
#     4   9  21  39  59  85 115 143 171 211 276 349
#     4  10  19  39  62  83 110 142 179 225 282 337
#     4   8  14  27  53  89 121 146 185 234 278 331
#
# _framework density 18.976839999999999
#
# number of rings (size 3 to 8) (size 9 to 14) (size 15 to 20)
#    0.000    2.286    1.429    3.429    1.000    2.286 
#    6.429    5.000    0.000    6.857    0.000    8.000 
#    0.000    0.000    0.000    0.000    0.000    0.000 
#
# Total GULP energy -694029.215544 kJ/mol
# GULP energy per Si atom -12393.378849 kJ/mol
# Density = 1.893365 g / cm^3
# Si number density = 18.976840 Si / 1000 Ang^3
#
#
#
# Elastic Constant Matrix: (Units=GPa)
#
#
# Indices 1 2 3 4 5 6 
#
# 1 143.9944 44.6972 68.5786 0.0000 0.0000 0.0000
# 2 44.6972 105.5319 41.2606 0.0000 0.0000 0.0000
# 3 68.5786 41.2606 121.9351 0.0000 0.0000 0.0000
# 4 0.0000 0.0000 0.0000 18.2570 0.0000 0.0000
# 5 0.0000 0.0000 0.0000 0.0000 37.7120 0.0000
# 6 0.0000 0.0000 0.0000 0.0000 0.0000 20.6775
#
#
#
# Elastic Compliance Matrix: (Units=1/GPa)
#
#
# Indices 1 2 3 4 5 6 
#
# 1 0.009962 -0.002338 -0.004812 0.000000 0.000000 0.000000
# 2 -0.002338 0.011469 -0.002566 0.000000 0.000000 0.000000
# 3 -0.004812 -0.002566 0.011776 0.000000 0.000000 0.000000
# 4 0.000000 0.000000 0.000000 0.054774 0.000000 0.000000
# 5 0.000000 0.000000 0.000000 0.000000 0.026517 0.000000
# 6 0.000000 0.000000 0.000000 0.000000 0.000000 0.048362
#
#
# Mechanical properties :
#
#
# Convention : Reuss Voigt Hill
#
# Bulk Modulus (GPa) = 72.59334 75.61489 74.10411
# Shear Modulus (GPa) = 26.75475 29.79094 28.27284
#
# Velocity S-wave (km/s) = 3.75889 3.96644 3.86406
# Velocity P-wave (km/s) = 7.56146 7.80444 7.68391
#
# Compressibility (1/GPa) = 0.01377537
#
# Stress axis : x y z
#
# Youngs Moduli (GPa) = 100.38043 87.18890 84.92154
#
# Poissons Ratio (x) = 0.20386 0.40862
# Poissons Ratio (y) = 0.23470 0.21791
# Poissons Ratio (z) = 0.48300 0.22373
#
# Static dielectric constant tensor:
#      x y z
#    x 3.563410 0.000000 0.000000 
#    y 0.000000 3.534220 0.000000 
#    z 0.000000 0.000000 3.471660 
# 
# 
# High freq. dielectric constant tensor:
#      x y z
#    x 1.745510 0.000000 0.000000 
#    y 0.000000 1.725950 0.000000 
#    z 0.000000 0.000000 1.721980 
# 
# From -- ./inp_files/8607.got.cif
#   From: 2010.03.12/outbox.cif.g09.slc.cpg/sg51_5_cif.got.tgz:8607.got - 2010.04.16 13:43:02.
