data_PCOD8210018
_publ_section_title
;
Structure prediction by ZEFSAII (Michael W. Deem and Ramdas Pophale) SiO2 
 PCOD8210018
Probable space group: P M M A
;
_chemical_formula_sum "Si O2"
_cell_formula_units_Z 56
_cell_length_a 28.195806
_cell_length_b 13.931653
_cell_length_c 7.420369
_cell_angle_alpha 90.000000
_cell_angle_beta 90.000000
_cell_angle_gamma 90.000000
_cell_volume 2914.826203
_symmetry_space_group_name_H-M "P M M A"
_symmetry_group_IT_number 51
_symmetry_cell_setting 'orthorhombic'
loop_
_space_group_symop_operation_xyz
x,y,z
1/2-x,-y,z
1/2+x,-y,-z
-x,y,-z
-x,-y,-z
1/2+x,y,-z
1/2-x,y,z
x,-y,z
loop_
_atom_site_type_symbol
_atom_site_label
_atom_site_fract_x
_atom_site_fract_y
_atom_site_fract_z
Si Si1 0.547804 0.389645 0.593042
Si Si2 0.196794 0.607452 0.569449
Si Si3 0.369985 0.112957 0.100934
Si Si4 0.196683 0.890262 0.771802
Si Si5 0.945818 0.734038 0.947103
Si Si6 0.303738 0.795911 0.395473
Si Si7 0.105545 0.391740 0.756787
O O1 0.500000 0.351573 0.500000
O O2 0.541734 0.500000 0.653501
O O3 0.559053 0.328812 0.768987
O O4 0.589328 0.375180 0.449328
O O5 0.250000 0.620870 0.646376
O O6 0.188619 0.500000 0.491890
O O7 0.189014 0.680494 0.401217
O O8 0.162184 0.625056 0.741668
O O9 0.421114 0.163492 0.087419
O O10 0.341343 0.152762 0.270353
O O11 0.378346 0.000000 0.124485
O O12 0.339948 0.139200 0.925435
O O13 0.250000 0.872781 0.844458
O O14 0.185705 0.826554 0.599551
O O15 0.189650 0.000000 0.713758
O O16 0.918983 0.681093 0.108650
O O17 0.000000 0.752758 0.000000
O O18 0.250000 0.824405 0.337609
O O19 0.092778 0.500000 0.819590
#
# Coordination Sequence:
#
# PCOD8210018 Si02
#       7
#     8   8   8   8   8   8   8
#     4  10  20  36  61  91 117 141 179 237 291 334
#     4   9  18  33  55  86 123 159 188 216 265 341
#     4  11  24  39  56  81 113 148 192 242 289 340
#     4   9  18  34  58  87 114 140 179 234 288 336
#     4  12  24  38  58  81 111 151 194 240 290 348
#     4  10  19  35  62  88 114 150 189 232 284 338
#     4  10  20  36  60  88 119 153 188 232 284 336
#
# _framework density 19.212123999999999
#
# number of rings (size 3 to 8) (size 9 to 14) (size 15 to 20)
#    0.000    1.857    1.429    3.000    0.000    2.286 
#    0.000    1.429    0.000    2.143    0.000    8.000 
#    0.000    0.000    0.000    0.000    0.000    0.000 
#
# Total GULP energy -694361.659653 kJ/mol
# GULP energy per Si atom -12399.315351 kJ/mol
# Density = 1.916840 g / cm^3
# Si number density = 19.212124 Si / 1000 Ang^3
#
#
#
# Elastic Constant Matrix: (Units=GPa)
#
#
# Indices 1 2 3 4 5 6 
#
# 1 126.3877 65.7354 52.8971 0.0000 0.0000 0.0000
# 2 65.7354 117.3421 55.4897 0.0000 0.0000 0.0000
# 3 52.8971 55.4897 85.5141 0.0000 0.0000 0.0000
# 4 0.0000 0.0000 0.0000 24.7875 0.0000 0.0000
# 5 0.0000 0.0000 0.0000 0.0000 24.9182 0.0000
# 6 0.0000 0.0000 0.0000 0.0000 0.0000 47.1626
#
#
#
# Elastic Compliance Matrix: (Units=1/GPa)
#
#
# Indices 1 2 3 4 5 6 
#
# 1 0.012264 -0.004736 -0.004513 0.000000 0.000000 0.000000
# 2 -0.004736 0.014124 -0.006235 0.000000 0.000000 0.000000
# 3 -0.004513 -0.006235 0.018532 0.000000 0.000000 0.000000
# 4 0.000000 0.000000 0.000000 0.040343 0.000000 0.000000
# 5 0.000000 0.000000 0.000000 0.000000 0.040131 0.000000
# 6 0.000000 0.000000 0.000000 0.000000 0.000000 0.021203
#
#
# Mechanical properties :
#
#
# Convention : Reuss Voigt Hill
#
# Bulk Modulus (GPa) = 71.68052 75.27645 73.47849
# Shear Modulus (GPa) = 27.43980 29.71511 28.57746
#
# Velocity S-wave (km/s) = 3.78333 3.93706 3.86096
# Velocity P-wave (km/s) = 7.51504 7.74171 7.62921
#
# Compressibility (1/GPa) = 0.01395079
#
# Stress axis : x y z
#
# Youngs Moduli (GPa) = 81.53620 70.80161 53.96183
#
# Poissons Ratio (x) = 0.33535 0.24353
# Poissons Ratio (y) = 0.38619 0.33646
# Poissons Ratio (z) = 0.36798 0.44146
#
# Static dielectric constant tensor:
#      x y z
#    x 3.687270 0.000000 0.000000 
#    y 0.000000 3.642360 0.000000 
#    z 0.000000 0.000000 3.301050 
# 
# 
# High freq. dielectric constant tensor:
#      x y z
#    x 1.756370 0.000000 0.000000 
#    y 0.000000 1.751640 0.000000 
#    z 0.000000 0.000000 1.729170 
# 
# From -- ./inp_files/4018.got.cif
#   From: 2010.03.12/outbox.cif.g09.slc.cpg/sg51_3_cif.got.tgz:4018.got - 2010.04.16 13:43:02.
