data_PCOD8210699
_publ_section_title
;
Structure prediction by ZEFSAII (Michael W. Deem and Ramdas Pophale) SiO2 
 PCOD8210699
Probable space group: P M M A
;
_chemical_formula_sum "Si O2"
_cell_formula_units_Z 64
_cell_length_a 8.787348
_cell_length_b 14.328377
_cell_length_c 28.669314
_cell_angle_alpha 90.000000
_cell_angle_beta 90.000000
_cell_angle_gamma 90.000000
_cell_volume 3609.708458
_symmetry_space_group_name_H-M "P M M A"
_symmetry_group_IT_number 51
_symmetry_cell_setting 'orthorhombic'
loop_
_space_group_symop_operation_xyz
x,y,z
1/2-x,-y,z
1/2+x,-y,-z
-x,y,-z
-x,-y,-z
1/2+x,y,-z
1/2-x,y,z
x,-y,z
loop_
_atom_site_type_symbol
_atom_site_label
_atom_site_fract_x
_atom_site_fract_y
_atom_site_fract_z
Si Si1 0.420576 0.889353 0.546136
Si Si2 0.929360 0.107390 0.641968
Si Si3 0.070255 0.606757 0.230354
Si Si4 0.428441 0.774618 0.723912
Si Si5 0.430020 0.288346 0.048449
Si Si6 0.921983 0.389725 0.133790
Si Si7 0.423411 0.891621 0.197563
Si Si8 0.430586 0.898574 0.092683
O O1 0.500000 0.847010 0.500000
O O2 0.250000 0.848700 0.550419
O O3 0.518284 0.859431 0.590934
O O4 0.414573 0.000000 0.541941
O O5 0.750000 0.118529 0.646273
O O6 0.008429 0.174678 0.678560
O O7 0.978541 0.000000 0.651266
O O8 0.250000 0.616467 0.227965
O O9 0.020873 0.500000 0.240481
O O10 0.003950 0.672126 0.271196
O O11 0.002987 0.643237 0.181227
O O12 0.250000 0.761844 0.718663
O O13 0.465246 0.835729 0.769119
O O14 0.250000 0.294487 0.045274
O O15 0.485107 0.353868 0.089693
O O16 0.487309 0.182166 0.057992
O O17 0.500000 0.323440 0.000000
O O18 0.750000 0.350650 0.132991
O O19 0.923242 0.500000 0.130830
O O20 0.250000 0.855019 0.203660
O O21 0.484512 0.875300 0.145132
O O22 0.430291 0.000000 0.210969
O O23 0.250000 0.903592 0.093885
O O24 0.495695 0.000000 0.076646
#
# Coordination Sequence:
#
# PCOD8210699 Si02
#       8
#     8   8   8   8   8   8   8   8
#     4   9  16  27  44  66  94 131 176 222 265 308
#     4  10  20  33  48  68  99 140 183 223 261 302
#     4  10  21  38  59  79  99 127 163 200 241 295
#     4  12  23  32  47  72 104 137 167 206 253 299
#     4  11  22  35  53  75 100 129 159 194 236 284
#     4  10  21  38  59  81 103 124 150 190 239 291
#     4   9  17  31  51  72  95 127 167 206 243 289
#     4   8  16  32  52  71  91 120 159 198 234 274
#
# _framework density 17.729963999999999
#
# number of rings (size 3 to 8) (size 9 to 14) (size 15 to 20)
#    0.000    2.125    0.000    4.875    0.000    7.000 
#    0.000    0.625    0.000    2.625    0.000    0.000 
#    0.000    0.500    0.000    1.875    0.000    2.875 
#
# Total GULP energy -793623.496278 kJ/mol
# GULP energy per Si atom -12400.367129 kJ/mol
# Density = 1.768961 g / cm^3
# Si number density = 17.729964 Si / 1000 Ang^3
#
#
#
# Elastic Constant Matrix: (Units=GPa)
#
#
# Indices 1 2 3 4 5 6 
#
# 1 92.4720 30.9440 40.4743 0.0000 0.0000 0.0000
# 2 30.9440 55.0328 44.6610 0.0000 0.0000 0.0000
# 3 40.4743 44.6610 100.0077 0.0000 0.0000 0.0000
# 4 0.0000 0.0000 0.0000 15.1651 0.0000 0.0000
# 5 0.0000 0.0000 0.0000 0.0000 30.9703 0.0000
# 6 0.0000 0.0000 0.0000 0.0000 0.0000 21.2779
#
#
#
# Elastic Compliance Matrix: (Units=1/GPa)
#
#
# Indices 1 2 3 4 5 6 
#
# 1 0.014011 -0.005139 -0.003376 0.000000 0.000000 0.000000
# 2 -0.005139 0.030384 -0.011489 0.000000 0.000000 0.000000
# 3 -0.003376 -0.011489 0.016496 0.000000 0.000000 0.000000
# 4 0.000000 0.000000 0.000000 0.065941 0.000000 0.000000
# 5 0.000000 0.000000 0.000000 0.000000 0.032289 0.000000
# 6 0.000000 0.000000 0.000000 0.000000 0.000000 0.046997
#
#
# Mechanical properties :
#
#
# Convention : Reuss Voigt Hill
#
# Bulk Modulus (GPa) = 47.88249 53.29678 50.58963
# Shear Modulus (GPa) = 19.75603 22.24488 21.00045
#
# Velocity S-wave (km/s) = 3.34169 3.54594 3.44533
# Velocity P-wave (km/s) = 6.47722 6.84766 6.66502
#
# Compressibility (1/GPa) = 0.02088446
#
# Stress axis : x y z
#
# Youngs Moduli (GPa) = 71.37164 32.91176 60.62017
#
# Poissons Ratio (x) = 0.16913 0.20463
# Poissons Ratio (y) = 0.36677 0.69647
# Poissons Ratio (z) = 0.24092 0.37813
#
# Static dielectric constant tensor:
#      x y z
#    x 3.301950 0.000000 0.000000 
#    y 0.000000 3.350280 0.000000 
#    z 0.000000 0.000000 3.292330 
# 
# 
# High freq. dielectric constant tensor:
#      x y z
#    x 1.688580 0.000000 0.000000 
#    y 0.000000 1.666750 0.000000 
#    z 0.000000 0.000000 1.675850 
# 
# From -- ./inp_files/37601.got.cif
#   From: 2010.03.12/outbox.cif.g09.slc.cpg/sg51_19_cif.got.tgz:37601.got - 2010.04.16 13:43:02.
