data_PCOD8210245
_publ_section_title
;
Structure prediction by ZEFSAII (Michael W. Deem and Ramdas Pophale) SiO2 
 PCOD8210245
Probable space group: P M M A
;
_chemical_formula_sum "Si O2"
_cell_formula_units_Z 56
_cell_length_a 9.196640
_cell_length_b 13.078704
_cell_length_c 30.351651
_cell_angle_alpha 90.000000
_cell_angle_beta 90.000000
_cell_angle_gamma 90.000000
_cell_volume 3650.700599
_symmetry_space_group_name_H-M "P M M A"
_symmetry_group_IT_number 51
_symmetry_cell_setting 'orthorhombic'
loop_
_space_group_symop_operation_xyz
x,y,z
1/2-x,-y,z
1/2+x,-y,-z
-x,y,-z
-x,-y,-z
1/2+x,y,-z
1/2-x,y,z
x,-y,z
loop_
_atom_site_type_symbol
_atom_site_label
_atom_site_fract_x
_atom_site_fract_y
_atom_site_fract_z
Si Si1 0.590686 0.116163 0.039011
Si Si2 0.912470 0.120879 0.719997
Si Si3 0.918863 0.615897 0.955409
Si Si4 0.587458 0.121496 0.459241
Si Si5 0.422127 0.791847 0.111715
Si Si6 0.413960 0.121588 0.637405
Si Si7 0.421899 0.119267 0.807809
O O1 0.750000 0.168814 0.044744
O O2 0.494835 0.118563 0.083036
O O3 0.617318 0.000000 0.025643
O O4 0.500000 0.172066 0.000000
O O5 0.750000 0.166284 0.726731
O O6 0.981609 0.167496 0.675213
O O7 0.017218 0.150642 0.760200
O O8 0.902365 0.000000 0.715794
O O9 0.750000 0.628594 0.965572
O O10 0.959431 0.500000 0.942137
O O11 0.963071 0.686165 0.913483
O O12 0.000000 0.648981 0.000000
O O13 0.500000 0.171072 0.500000
O O14 0.750000 0.163170 0.463486
O O15 0.525525 0.154098 0.411063
O O16 0.584718 0.000000 0.462929
O O17 0.250000 0.807561 0.116398
O O18 0.497211 0.802623 0.159156
O O19 0.250000 0.163364 0.644136
O O20 0.410109 0.000000 0.640954
O O21 0.250000 0.138727 0.809296
O O22 0.457317 0.000000 0.818488
#
# Coordination Sequence:
#
# PCOD8210245 Si02
#       7
#     8   8   8   8   8   8   8
#     4  10  20  32  44  59  81 107 131 153 178 211
#     4   9  16  25  37  52  68  88 118 154 187 221
#     4   9  19  35  52  69  87 105 125 150 182 219
#     4   8  13  19  26  37  54  76 103 138 181 227
#     4  11  21  31  46  65  83 103 126 154 185 217
#     4   8  13  21  31  42  58  82 111 143 183 229
#     4  10  20  32  44  58  79 106 131 156 188 226
#
# _framework density 15.339521
#
# number of rings (size 3 to 8) (size 9 to 14) (size 15 to 20)
#    0.000    2.714    0.000    3.429    0.000    8.000 
#    0.000    2.857    0.000    0.000    0.000    0.000 
#    0.000    0.000    0.000    0.000    0.000    0.000 
#
# Total GULP energy -693879.072742 kJ/mol
# GULP energy per Si atom -12390.697728 kJ/mol
# Density = 1.530461 g / cm^3
# Si number density = 15.339521 Si / 1000 Ang^3
#
#
#
# Elastic Constant Matrix: (Units=GPa)
#
#
# Indices 1 2 3 4 5 6 
#
# 1 106.2590 22.7517 69.1949 0.0000 0.0000 0.0000
# 2 22.7517 34.3958 24.0899 0.0000 0.0000 0.0000
# 3 69.1949 24.0899 142.0310 0.0000 0.0000 0.0000
# 4 0.0000 0.0000 0.0000 34.9597 0.0000 0.0000
# 5 0.0000 0.0000 0.0000 0.0000 33.9397 0.0000
# 6 0.0000 0.0000 0.0000 0.0000 0.0000 7.0216
#
#
#
# Elastic Compliance Matrix: (Units=1/GPa)
#
#
# Indices 1 2 3 4 5 6 
#
# 1 0.014589 -0.005302 -0.006208 0.000000 0.000000 0.000000
# 2 -0.005302 0.034919 -0.003340 0.000000 0.000000 0.000000
# 3 -0.006208 -0.003340 0.010632 0.000000 0.000000 0.000000
# 4 0.000000 0.000000 0.000000 0.028604 0.000000 0.000000
# 5 0.000000 0.000000 0.000000 0.000000 0.029464 0.000000
# 6 0.000000 0.000000 0.000000 0.000000 0.000000 0.142418
#
#
# Mechanical properties :
#
#
# Convention : Reuss Voigt Hill
#
# Bulk Modulus (GPa) = 32.85120 57.19545 45.02332
# Shear Modulus (GPa) = 16.64041 26.29414 21.46728
#
# Velocity S-wave (km/s) = 3.29721 4.14471 3.74501
# Velocity P-wave (km/s) = 5.99650 7.76351 6.93650
#
# Compressibility (1/GPa) = 0.03044029
#
# Stress axis : x y z
#
# Youngs Moduli (GPa) = 68.54516 28.63734 94.05873
#
# Poissons Ratio (x) = 0.15184 0.58393
# Poissons Ratio (y) = 0.36343 0.31412
# Poissons Ratio (z) = 0.42554 0.09564
#
# Static dielectric constant tensor:
#      x y z
#    x 3.229100 0.000000 0.000000 
#    y 0.000000 2.430970 0.000000 
#    z 0.000000 0.000000 3.178810 
# 
# 
# High freq. dielectric constant tensor:
#      x y z
#    x 1.603600 0.000000 0.000000 
#    y 0.000000 1.507760 0.000000 
#    z 0.000000 0.000000 1.593360 
# 
# From -- ./inp_files/37468.got.cif
#   From: 2010.03.12/outbox.cif.g09.slc.cpg/sg51_19_cif.got.tgz:37468.got - 2010.04.16 13:43:02.
