data_PCOD8210789
_publ_section_title
;
Structure prediction by ZEFSAII (Michael W. Deem and Ramdas Pophale) SiO2 
 PCOD8210789
Probable space group: P M M A
;
_chemical_formula_sum "Si O2"
_cell_formula_units_Z 48
_cell_length_a 9.014006
_cell_length_b 13.674200
_cell_length_c 24.289788
_cell_angle_alpha 90.000000
_cell_angle_beta 90.000000
_cell_angle_gamma 90.000000
_cell_volume 2993.942772
_symmetry_space_group_name_H-M "P M M A"
_symmetry_group_IT_number 51
_symmetry_cell_setting 'orthorhombic'
loop_
_space_group_symop_operation_xyz
x,y,z
1/2-x,-y,z
1/2+x,-y,-z
-x,y,-z
-x,-y,-z
1/2+x,y,-z
1/2-x,y,z
x,-y,z
loop_
_atom_site_type_symbol
_atom_site_label
_atom_site_fract_x
_atom_site_fract_y
_atom_site_fract_z
Si Si1 0.075350 0.892955 0.617511
Si Si2 0.927088 0.890868 0.171775
Si Si3 0.426518 0.703215 0.557096
Si Si4 0.921011 0.387355 0.659723
Si Si5 0.913686 0.116385 0.051899
Si Si6 0.925672 0.225664 0.276779
O O1 0.250000 0.903849 0.615475
O O2 0.024848 0.814845 0.571382
O O3 0.028572 0.854386 0.677565
O O4 0.002011 0.000000 0.606823
O O5 0.750000 0.894883 0.170211
O O6 0.985753 0.856176 0.111418
O O7 0.981473 0.814912 0.218017
O O8 0.986928 0.000000 0.185471
O O9 0.500000 0.671890 0.500000
O O10 0.250000 0.691628 0.553827
O O11 0.487207 0.631756 0.604086
O O12 0.750000 0.357865 0.650156
O O13 0.936795 0.500000 0.676095
O O14 0.989145 0.326165 0.710468
O O15 0.750000 0.161246 0.048408
O O16 0.908055 0.000000 0.047366
O O17 0.000000 0.162180 0.000000
O O18 0.750000 0.245652 0.277898
#
# Coordination Sequence:
#
# PCOD8210789 Si02
#       6
#     8   8   8   8   8   8
#     4   8  14  25  42  64  88 113 139 166 199 239
#     4   8  13  22  39  63  89 118 150 180 211 248
#     4  10  20  33  50  70  90 112 139 172 206 244
#     4  10  21  36  51  65  84 110 136 168 214 262
#     4   8  13  21  33  51  79 116 154 185 209 237
#     4   9  16  27  46  68  87 109 140 178 213 249
#
# _framework density 16.032371000000001
#
# number of rings (size 3 to 8) (size 9 to 14) (size 15 to 20)
#    0.000    3.167    0.000    3.500    0.000    4.000 
#    0.000    0.833    0.000   17.500    0.000    0.000 
#    0.000    0.667    0.000    1.500    0.000    2.667 
#
# Total GULP energy -594836.255854 kJ/mol
# GULP energy per Si atom -12392.421997 kJ/mol
# Density = 1.599588 g / cm^3
# Si number density = 16.032371 Si / 1000 Ang^3
#
#
#
# Elastic Constant Matrix: (Units=GPa)
#
#
# Indices 1 2 3 4 5 6 
#
# 1 57.0115 28.4146 39.1561 0.0000 0.0000 0.0000
# 2 28.4146 75.1206 39.6338 0.0000 0.0000 0.0000
# 3 39.1561 39.6338 134.8680 0.0000 0.0000 0.0000
# 4 0.0000 0.0000 0.0000 23.4595 0.0000 0.0000
# 5 0.0000 0.0000 0.0000 0.0000 22.9319 0.0000
# 6 0.0000 0.0000 0.0000 0.0000 0.0000 15.6549
#
#
#
# Elastic Compliance Matrix: (Units=1/GPa)
#
#
# Indices 1 2 3 4 5 6 
#
# 1 0.024308 -0.006475 -0.005154 0.000000 0.000000 0.000000
# 2 -0.006475 0.017479 -0.003257 0.000000 0.000000 0.000000
# 3 -0.005154 -0.003257 0.009868 0.000000 0.000000 0.000000
# 4 0.000000 0.000000 0.000000 0.042627 0.000000 0.000000
# 5 0.000000 0.000000 0.000000 0.000000 0.043607 0.000000
# 6 0.000000 0.000000 0.000000 0.000000 0.000000 0.063878
#
#
# Mechanical properties :
#
#
# Convention : Reuss Voigt Hill
#
# Bulk Modulus (GPa) = 45.69790 53.48990 49.59390
# Shear Modulus (GPa) = 20.93506 23.06228 21.99867
#
# Velocity S-wave (km/s) = 3.61751 3.79685 3.70826
# Velocity P-wave (km/s) = 6.78335 7.25655 7.02394
#
# Compressibility (1/GPa) = 0.02188284
#
# Stress axis : x y z
#
# Youngs Moduli (GPa) = 41.13951 57.21023 101.33541
#
# Poissons Ratio (x) = 0.37043 0.52232
# Poissons Ratio (y) = 0.26638 0.33003
# Poissons Ratio (z) = 0.21205 0.18632
#
# Static dielectric constant tensor:
#      x y z
#    x 2.875430 0.000000 0.000000 
#    y 0.000000 2.975600 0.000000 
#    z 0.000000 0.000000 3.243900 
# 
# 
# High freq. dielectric constant tensor:
#      x y z
#    x 1.591970 0.000000 0.000000 
#    y 0.000000 1.583950 0.000000 
#    z 0.000000 0.000000 1.616160 
# 
# From -- ./inp_files/34628.got.cif
#   From: 2010.03.12/outbox.cif.g09.slc.cpg/sg51_18_cif.got.tgz:34628.got - 2010.04.16 13:43:02.
