data_PCOD8210765
_publ_section_title
;
Structure prediction by ZEFSAII (Michael W. Deem and Ramdas Pophale) SiO2 
 PCOD8210765
Probable space group: P M M A
;
_chemical_formula_sum "Si O2"
_cell_formula_units_Z 44
_cell_length_a 8.955413
_cell_length_b 28.243633
_cell_length_c 9.746142
_cell_angle_alpha 90.000000
_cell_angle_beta 90.000000
_cell_angle_gamma 90.000000
_cell_volume 2465.124815
_symmetry_space_group_name_H-M "P M M A"
_symmetry_group_IT_number 51
_symmetry_cell_setting 'orthorhombic'
loop_
_space_group_symop_operation_xyz
x,y,z
1/2-x,-y,z
1/2+x,-y,-z
-x,y,-z
-x,-y,-z
1/2+x,y,-z
1/2-x,y,z
x,-y,z
loop_
_atom_site_type_symbol
_atom_site_label
_atom_site_fract_x
_atom_site_fract_y
_atom_site_fract_z
Si Si1 0.074259 0.813313 0.358484
Si Si2 0.577352 0.639956 0.146535
Si Si3 0.575738 0.921780 0.640395
Si Si4 0.424193 0.744288 0.852890
Si Si5 0.575458 0.448598 0.851624
Si Si6 0.073911 0.000000 0.147807
O O1 0.250000 0.804824 0.368284
O O2 0.033966 0.867696 0.325516
O O3 0.000000 0.797146 0.500000
O O4 0.005644 0.782338 0.239205
O O5 0.750000 0.627676 0.128861
O O6 0.555890 0.691752 0.215161
O O7 0.499033 0.596147 0.230159
O O8 0.500000 0.642889 0.000000
O O9 0.500000 0.938977 0.500000
O O10 0.750000 0.928524 0.616682
O O11 0.520952 0.953719 0.767571
O O12 0.250000 0.756881 0.867555
O O13 0.500000 0.746524 0.000000
O O14 0.750000 0.439069 0.867258
O O15 0.547023 0.500000 0.779127
O O16 0.500000 0.450110 0.000000
O O17 0.250000 0.000000 0.125871
O O18 0.000000 0.000000 0.000000
#
# Coordination Sequence:
#
# PCOD8210765 Si02
#       6
#     8   8   8   8   8   4
#     4  10  20  35  54  76 101 130 165 206 249 294
#     4   9  16  25  38  56  81 114 152 192 235 285
#     4   9  19  35  55  77 100 129 166 203 242 290
#     4  10  20  33  49  71  98 130 166 204 249 299
#     4   9  15  21  31  49  75 109 148 188 231 280
#     4  10  21  36  52  76 108 136 165 202 242 286
#
# _framework density 17.848994999999999
#
# number of rings (size 3 to 8) (size 9 to 14) (size 15 to 20)
#    0.000    2.545    0.000    3.545    0.000    5.455 
#    0.000    1.818    0.000    0.000    0.000    0.000 
#    0.000    0.727    0.000    2.364    0.000   10.182 
#
# Total GULP energy -545209.665585 kJ/mol
# GULP energy per Si atom -12391.128763 kJ/mol
# Density = 1.780837 g / cm^3
# Si number density = 17.848995 Si / 1000 Ang^3
#
#
#
# Elastic Constant Matrix: (Units=GPa)
#
#
# Indices 1 2 3 4 5 6 
#
# 1 104.3934 61.7713 42.1484 0.0000 0.0000 0.0000
# 2 61.7713 136.2804 66.3367 0.0000 0.0000 0.0000
# 3 42.1484 66.3367 84.9535 0.0000 0.0000 0.0000
# 4 0.0000 0.0000 0.0000 -2.4861 0.0000 0.0000
# 5 0.0000 0.0000 0.0000 0.0000 26.6491 0.0000
# 6 0.0000 0.0000 0.0000 0.0000 0.0000 31.2393
#
#
#
# Elastic Compliance Matrix: (Units=1/GPa)
#
#
# Indices 1 2 3 4 5 6 
#
# 1 0.013583 -0.004640 -0.003116 0.000000 0.000000 0.000000
# 2 -0.004640 0.013422 -0.008179 0.000000 0.000000 0.000000
# 3 -0.003116 -0.008179 0.019703 0.000000 0.000000 0.000000
# 4 0.000000 0.000000 0.000000 -0.402237 0.000000 0.000000
# 5 0.000000 0.000000 0.000000 0.000000 0.037525 0.000000
# 6 0.000000 0.000000 0.000000 0.000000 0.000000 0.032011
#
#
# Mechanical properties :
#
#
# Convention : Reuss Voigt Hill
#
# Bulk Modulus (GPa) = 67.38814 74.01556 70.70185
# Shear Modulus (GPa) = -20.06598 21.43853 0.68627
#
# Velocity S-wave (km/s) = -3.35656 3.46946 0.62074
# Velocity P-wave (km/s) = 4.77646 7.58994 6.34120
#
# Compressibility (1/GPa) = 0.01483941
#
# Stress axis : x y z
#
# Youngs Moduli (GPa) = 73.62357 74.50418 50.75273
#
# Poissons Ratio (x) = 0.34569 0.15813
# Poissons Ratio (y) = 0.34161 0.41509
# Poissons Ratio (z) = 0.22939 0.60935
#
# Static dielectric constant tensor:
#      x y z
#    x 3.429390 0.000000 0.000000 
#    y 0.000000 4.334270 0.000000 
#    z 0.000000 0.000000 2.836520 
# 
# 
# High freq. dielectric constant tensor:
#      x y z
#    x 1.705490 0.000000 0.000000 
#    y 0.000000 1.719140 0.000000 
#    z 0.000000 0.000000 1.628530 
# 
# From -- ./inp_files/5755.got.cif
#   From: 2010.03.12/outbox.cif.g09.slc.cpg/sg51_3_cif.got.tgz:5755.got - 2010.04.16 13:43:02.
