data_PCOD8210917
_publ_section_title
;
Structure prediction by ZEFSAII (Michael W. Deem and Ramdas Pophale) SiO2 
 PCOD8210917
Probable space group: P M M A
;
_chemical_formula_sum "Si O2"
_cell_formula_units_Z 48
_cell_length_a 14.657721
_cell_length_b 8.968783
_cell_length_c 19.727531
_cell_angle_alpha 90.000000
_cell_angle_beta 90.000000
_cell_angle_gamma 90.000000
_cell_volume 2593.419081
_symmetry_space_group_name_H-M "P M M A"
_symmetry_group_IT_number 51
_symmetry_cell_setting 'orthorhombic'
loop_
_space_group_symop_operation_xyz
x,y,z
1/2-x,-y,z
1/2+x,-y,-z
-x,y,-z
-x,-y,-z
1/2+x,y,-z
1/2-x,y,z
x,-y,z
loop_
_atom_site_type_symbol
_atom_site_label
_atom_site_fract_x
_atom_site_fract_y
_atom_site_fract_z
Si Si1 0.055717 0.677170 0.064059
Si Si2 0.006303 0.175910 0.668393
Si Si3 0.145431 0.827142 0.552435
Si Si4 0.750000 0.323462 0.131984
Si Si5 0.144077 0.673694 0.414240
Si Si6 0.750000 0.322392 0.979508
Si Si7 0.440857 0.323021 0.808228
O O1 0.051856 0.500000 0.060924
O O2 0.160162 0.734758 0.060117
O O3 0.010446 0.732315 0.133649
O O4 0.000000 0.742211 0.000000
O O5 0.910208 0.242916 0.644791
O O6 0.085039 0.223445 0.615835
O O7 0.031315 0.242405 0.740225
O O8 0.997166 0.000000 0.674369
O O9 0.250000 0.791909 0.571256
O O10 0.113105 0.734456 0.487347
O O11 0.130882 0.000000 0.534736
O O12 0.750000 0.500000 0.126128
O O13 0.660583 0.269121 0.171907
O O14 0.750000 0.257326 0.055908
O O15 0.250000 0.707992 0.401722
O O16 0.121915 0.500000 0.411161
O O17 0.750000 0.500000 0.982939
O O18 0.445340 0.500000 0.798096
#
# Coordination Sequence:
#
# PCOD8210917 Si02
#       7
#     8   8   8   4   8   4   8
#     4   9  15  26  46  73 104 134 171 220 271 323
#     4  11  23  37  55  78 109 151 186 216 263 322
#     4   9  19  36  57  81 109 142 181 221 263 319
#     4   9  16  28  49  77 107 136 169 218 279 327
#     4  10  21  38  60  84 108 136 176 227 276 319
#     4   9  14  24  46  75 101 130 171 220 275 327
#     4  10  20  33  50  77 109 139 175 223 273 321
#
# _framework density 18.508386000000002
#
# number of rings (size 3 to 8) (size 9 to 14) (size 15 to 20)
#    0.000    2.333    1.667    1.500    1.167    4.333 
#    1.500    0.000    0.000    0.500    0.000    0.000 
#    0.000    0.000    0.000    0.000    0.000    0.000 
#
# Total GULP energy -595253.170733 kJ/mol
# GULP energy per Si atom -12401.107724 kJ/mol
# Density = 1.846626 g / cm^3
# Si number density = 18.508386 Si / 1000 Ang^3
#
#
#
# Elastic Constant Matrix: (Units=GPa)
#
#
# Indices 1 2 3 4 5 6 
#
# 1 150.6770 42.7269 101.1906 0.0000 0.0000 0.0000
# 2 42.7269 48.1694 51.7023 0.0000 0.0000 0.0000
# 3 101.1906 51.7023 167.3820 0.0000 0.0000 0.0000
# 4 0.0000 0.0000 0.0000 -33.9843 0.0000 0.0000
# 5 0.0000 0.0000 0.0000 0.0000 31.4213 0.0000
# 6 0.0000 0.0000 0.0000 0.0000 0.0000 16.0562
#
#
#
# Elastic Compliance Matrix: (Units=1/GPa)
#
#
# Indices 1 2 3 4 5 6 
#
# 1 0.011707 -0.004171 -0.005789 0.000000 0.000000 0.000000
# 2 -0.004171 0.032542 -0.007531 0.000000 0.000000 0.000000
# 3 -0.005789 -0.007531 0.011801 0.000000 0.000000 0.000000
# 4 0.000000 0.000000 0.000000 -0.029425 0.000000 0.000000
# 5 0.000000 0.000000 0.000000 0.000000 0.031826 0.000000
# 6 0.000000 0.000000 0.000000 0.000000 0.000000 0.062281
#
#
# Mechanical properties :
#
#
# Convention : Reuss Voigt Hill
#
# Bulk Modulus (GPa) = 47.46318 84.16310 65.81314
# Shear Modulus (GPa) = 30.72465 14.07256 22.39861
#
# Velocity S-wave (km/s) = 4.07878 2.76041 3.48255
# Velocity P-wave (km/s) = 6.91966 7.46535 7.19768
#
# Compressibility (1/GPa) = 0.02106896
#
# Stress axis : x y z
#
# Youngs Moduli (GPa) = 85.41621 30.72917 84.74210
#
# Poissons Ratio (x) = 0.12816 0.49061
# Poissons Ratio (y) = 0.35623 0.63817
# Poissons Ratio (z) = 0.49451 0.23141
#
# Static dielectric constant tensor:
#      x y z
#    x 3.768530 0.000000 0.000000 
#    y 0.000000 3.033860 0.000000 
#    z 0.000000 0.000000 3.387700 
# 
# 
# High freq. dielectric constant tensor:
#      x y z
#    x 1.734560 0.000000 0.000000 
#    y 0.000000 1.679930 0.000000 
#    z 0.000000 0.000000 1.716900 
# 
# From -- ./inp_files/29548.got.cif
#   From: 2010.03.12/outbox.cif.g09.slc.cpg/sg51_15_cif.got.tgz:29548.got - 2010.04.16 13:43:02.
