data_PCOD8210513
_publ_section_title
;
Structure prediction by ZEFSAII (Michael W. Deem and Ramdas Pophale) SiO2 
 PCOD8210513
Probable space group: P M M A
;
_chemical_formula_sum "Si O2"
_cell_formula_units_Z 48
_cell_length_a 9.106398
_cell_length_b 9.253779
_cell_length_c 31.355509
_cell_angle_alpha 90.000000
_cell_angle_beta 90.000000
_cell_angle_gamma 90.000000
_cell_volume 2642.284676
_symmetry_space_group_name_H-M "P M M A"
_symmetry_group_IT_number 51
_symmetry_cell_setting 'orthorhombic'
loop_
_space_group_symop_operation_xyz
x,y,z
1/2-x,-y,z
1/2+x,-y,-z
-x,y,-z
-x,-y,-z
1/2+x,y,-z
1/2-x,y,z
x,-y,z
loop_
_atom_site_type_symbol
_atom_site_label
_atom_site_fract_x
_atom_site_fract_y
_atom_site_fract_z
Si Si1 0.585134 0.172687 0.700481
Si Si2 0.576120 0.842182 0.791660
Si Si3 0.582590 0.828671 0.382083
Si Si4 0.578610 0.332635 0.543212
Si Si5 0.582885 0.172495 0.883840
Si Si6 0.921617 0.666167 0.042702
O O1 0.750000 0.227024 0.689716
O O2 0.530967 0.236350 0.746889
O O3 0.476243 0.227253 0.663630
O O4 0.584459 0.000000 0.703643
O O5 0.750000 0.861435 0.790595
O O6 0.535309 0.765401 0.836699
O O7 0.501159 0.000000 0.792216
O O8 0.750000 0.777216 0.387169
O O9 0.483867 0.760442 0.418464
O O10 0.568074 0.000000 0.385501
O O11 0.500000 0.282256 0.500000
O O12 0.750000 0.300818 0.538202
O O13 0.546244 0.500000 0.552639
O O14 0.750000 0.218837 0.894499
O O15 0.473370 0.239625 0.917691
O O16 0.569121 0.000000 0.884283
O O17 0.750000 0.688472 0.036293
O O18 0.963217 0.500000 0.051449
O O19 0.000000 0.722788 0.000000
#
# Coordination Sequence:
#
# PCOD8210513 Si02
#       6
#     8   8   8   8   8   8
#     4   8  13  24  44  68  95 128 163 198 235 275
#     4   7  11  22  42  68  96 125 157 192 231 277
#     4  10  20  32  48  74 105 133 162 198 240 284
#     4  10  21  37  56  75  95 124 162 201 243 292
#     4   9  17  30  50  76 102 126 155 194 239 285
#     4  10  21  36  52  69  91 123 162 200 239 286
#
# _framework density 18.166096
#
# number of rings (size 3 to 8) (size 9 to 14) (size 15 to 20)
#    0.000    3.000    0.000    3.500    0.000    4.000 
#    0.000    0.833    0.000    4.000    0.000    2.333 
#    0.000    0.000    0.000    0.000    0.000    0.000 
#
# Total GULP energy -594770.385890 kJ/mol
# GULP energy per Si atom -12391.049706 kJ/mol
# Density = 1.812475 g / cm^3
# Si number density = 18.166096 Si / 1000 Ang^3
#
#
#
# Elastic Constant Matrix: (Units=GPa)
#
#
# Indices 1 2 3 4 5 6 
#
# 1 83.1134 22.3599 61.1387 0.0000 0.0000 0.0000
# 2 22.3599 22.3088 34.1174 0.0000 0.0000 0.0000
# 3 61.1387 34.1174 173.8168 0.0000 0.0000 0.0000
# 4 0.0000 0.0000 0.0000 -21.6637 0.0000 0.0000
# 5 0.0000 0.0000 0.0000 0.0000 33.2662 0.0000
# 6 0.0000 0.0000 0.0000 0.0000 0.0000 21.5184
#
#
#
# Elastic Compliance Matrix: (Units=1/GPa)
#
#
# Indices 1 2 3 4 5 6 
#
# 1 0.018270 -0.012123 -0.004047 0.000000 0.000000 0.000000
# 2 -0.012123 0.072097 -0.009887 0.000000 0.000000 0.000000
# 3 -0.004047 -0.009887 0.009117 0.000000 0.000000 0.000000
# 4 0.000000 0.000000 0.000000 -0.046160 0.000000 0.000000
# 5 0.000000 0.000000 0.000000 0.000000 0.030061 0.000000
# 6 0.000000 0.000000 0.000000 0.000000 0.000000 0.046472
#
#
# Mechanical properties :
#
#
# Convention : Reuss Voigt Hill
#
# Bulk Modulus (GPa) = 21.11033 57.16345 39.13689
# Shear Modulus (GPa) = 25.28304 17.39904 21.34104
#
# Velocity S-wave (km/s) = 3.73469 3.09815 3.43121
# Velocity P-wave (km/s) = 5.49938 6.65834 6.10642
#
# Compressibility (1/GPa) = 0.04737018
#
# Stress axis : x y z
#
# Youngs Moduli (GPa) = 54.73445 13.87019 109.68125
#
# Poissons Ratio (x) = 0.16815 0.44386
# Poissons Ratio (y) = 0.66355 1.08445
# Poissons Ratio (z) = 0.22150 0.13714
#
# Static dielectric constant tensor:
#      x y z
#    x 3.377010 0.000000 0.000000 
#    y 0.000000 2.904950 0.000000 
#    z 0.000000 0.000000 3.857040 
# 
# 
# High freq. dielectric constant tensor:
#      x y z
#    x 1.690240 0.000000 0.000000 
#    y 0.000000 1.651820 0.000000 
#    z 0.000000 0.000000 1.730370 
# 
# From -- ./inp_files/36926.got.cif
#   From: 2010.03.12/outbox.cif.g09.slc.cpg/sg51_19_cif.got.tgz:36926.got - 2010.04.16 13:43:02.
