data_PCOD8210472
_publ_section_title
;
Structure prediction by ZEFSAII (Michael W. Deem and Ramdas Pophale) SiO2 
 PCOD8210472
Probable space group: P M M A
;
_chemical_formula_sum "Si O2"
_cell_formula_units_Z 48
_cell_length_a 17.584190
_cell_length_b 9.474822
_cell_length_c 15.442849
_cell_angle_alpha 90.000000
_cell_angle_beta 90.000000
_cell_angle_gamma 90.000000
_cell_volume 2572.887828
_symmetry_space_group_name_H-M "P M M A"
_symmetry_group_IT_number 51
_symmetry_cell_setting 'orthorhombic'
loop_
_space_group_symop_operation_xyz
x,y,z
1/2-x,-y,z
1/2+x,-y,-z
-x,y,-z
-x,-y,-z
1/2+x,y,-z
1/2-x,y,z
x,-y,z
loop_
_atom_site_type_symbol
_atom_site_label
_atom_site_fract_x
_atom_site_fract_y
_atom_site_fract_z
Si Si1 0.659727 0.158902 0.640667
Si Si2 0.659349 0.159075 0.147410
Si Si3 0.411674 0.337254 0.509151
Si Si4 0.340446 0.658211 0.201928
Si Si5 0.337890 0.662467 0.689556
Si Si6 0.340474 0.341592 0.010026
O O1 0.750000 0.157927 0.644157
O O2 0.635092 0.240073 0.555216
O O3 0.625886 0.236390 0.725893
O O4 0.627400 0.000000 0.638846
O O5 0.750000 0.160604 0.144406
O O6 0.631044 0.242050 0.232178
O O7 0.625874 0.235421 0.061781
O O8 0.627701 0.000000 0.150280
O O9 0.500000 0.304497 0.500000
O O10 0.392434 0.500000 0.488206
O O11 0.387055 0.298005 0.606021
O O12 0.250000 0.658673 0.205552
O O13 0.370365 0.500000 0.221434
O O14 0.367441 0.706762 0.106025
O O15 0.250000 0.694798 0.668657
O O16 0.348815 0.500000 0.716724
O O17 0.250000 0.340808 0.005886
O O18 0.369973 0.500000 0.990736
#
# Coordination Sequence:
#
# PCOD8210472 Si02
#       6
#     8   8   8   8   8   8
#     4  10  20  32  48  72 100 129 160 195 237 285
#     4   9  16  24  37  61  92 123 153 187 227 271
#     4  10  21  36  53  72  93 121 160 203 245 289
#     4   8  14  25  42  64  91 124 159 193 229 271
#     4   9  17  30  48  68  91 121 155 191 232 278
#     4   8  13  22  37  59  89 123 155 187 226 271
#
# _framework density 18.656078999999998
#
# number of rings (size 3 to 8) (size 9 to 14) (size 15 to 20)
#    0.000    3.000    0.000    2.500    0.000    5.333 
#    0.000    5.000    0.000    0.000    0.000    1.167 
#    0.000    9.333    0.000    0.000    0.000    0.000 
#
# Total GULP energy -595067.989757 kJ/mol
# GULP energy per Si atom -12397.249787 kJ/mol
# Density = 1.861362 g / cm^3
# Si number density = 18.656079 Si / 1000 Ang^3
#
#
#
# Elastic Constant Matrix: (Units=GPa)
#
#
# Indices 1 2 3 4 5 6 
#
# 1 8.1683 9.6896 6.1658 0.0000 0.0000 0.0000
# 2 9.6896 129.0598 88.3755 0.0000 0.0000 0.0000
# 3 6.1658 88.3755 138.4970 0.0000 0.0000 0.0000
# 4 0.0000 0.0000 0.0000 15.4153 0.0000 0.0000
# 5 0.0000 0.0000 0.0000 0.0000 0.1582 0.0000
# 6 0.0000 0.0000 0.0000 0.0000 0.0000 9.6703
#
#
#
# Elastic Compliance Matrix: (Units=1/GPa)
#
#
# Indices 1 2 3 4 5 6 
#
# 1 0.134446 -0.010648 0.000809 0.000000 0.000000 0.000000
# 2 -0.010648 0.014605 -0.008845 0.000000 0.000000 0.000000
# 3 0.000809 -0.008845 0.012829 0.000000 0.000000 0.000000
# 4 0.000000 0.000000 0.000000 0.064870 0.000000 0.000000
# 5 0.000000 0.000000 0.000000 0.000000 6.319935 0.000000
# 6 0.000000 0.000000 0.000000 0.000000 0.000000 0.103409
#
#
# Mechanical properties :
#
#
# Convention : Reuss Voigt Hill
#
# Bulk Modulus (GPa) = 8.03145 53.79852 30.91499
# Shear Modulus (GPa) = 0.74306 16.48172 8.61239
#
# Velocity S-wave (km/s) = 0.63179 2.97551 2.15091
# Velocity P-wave (km/s) = 2.20149 6.38001 4.77237
#
# Compressibility (1/GPa) = 0.12451048
#
# Stress axis : x y z
#
# Youngs Moduli (GPa) = 7.43796 68.47102 77.95110
#
# Poissons Ratio (x) = 0.72908 -0.06308
# Poissons Ratio (y) = 0.07920 0.68950
# Poissons Ratio (z) = -0.00602 0.60565
#
# Static dielectric constant tensor:
#      x y z
#    x 2.763290 0.000000 0.000000 
#    y 0.000000 3.627810 0.000000 
#    z 0.000000 0.000000 3.695430 
# 
# 
# High freq. dielectric constant tensor:
#      x y z
#    x 1.658610 0.000000 0.000000 
#    y 0.000000 1.724090 0.000000 
#    z 0.000000 0.000000 1.741060 
# 
# From -- ./inp_files/24797.got.cif
#   From: 2010.03.12/outbox.cif.g09.slc.cpg/sg51_13_cif.got.tgz:24797.got - 2010.04.16 13:43:02.
