data_PCOD8210985
_publ_section_title
;
Structure prediction by ZEFSAII (Michael W. Deem and Ramdas Pophale) SiO2 
 PCOD8210985
Probable space group: P M M A
;
_chemical_formula_sum "Si O2"
_cell_formula_units_Z 48
_cell_length_a 9.048251
_cell_length_b 9.337131
_cell_length_c 30.968996
_cell_angle_alpha 90.000000
_cell_angle_beta 90.000000
_cell_angle_gamma 90.000000
_cell_volume 2616.406488
_symmetry_space_group_name_H-M "P M M A"
_symmetry_group_IT_number 51
_symmetry_cell_setting 'orthorhombic'
loop_
_space_group_symop_operation_xyz
x,y,z
1/2-x,-y,z
1/2+x,-y,-z
-x,y,-z
-x,-y,-z
1/2+x,y,-z
1/2-x,y,z
x,-y,z
loop_
_atom_site_type_symbol
_atom_site_label
_atom_site_fract_x
_atom_site_fract_y
_atom_site_fract_z
Si Si1 0.420947 0.834062 0.208370
Si Si2 0.078386 0.332084 0.372066
Si Si3 0.079102 0.832702 0.703891
Si Si4 0.083243 0.329454 0.542042
Si Si5 0.425850 0.661741 0.125584
Si Si6 0.923704 0.835316 0.956448
O O1 0.250000 0.799567 0.218440
O O2 0.516961 0.788977 0.249497
O O3 0.482404 0.742459 0.168306
O O4 0.441993 0.000000 0.196503
O O5 0.250000 0.294809 0.375899
O O6 0.051114 0.500000 0.365996
O O7 0.010864 0.253229 0.331407
O O8 0.999770 0.274475 0.415292
O O9 0.250000 0.789214 0.701519
O O10 0.054908 0.000000 0.695346
O O11 0.250000 0.269906 0.542461
O O12 0.082496 0.500000 0.540582
O O13 0.000000 0.267729 0.500000
O O14 0.250000 0.665473 0.124961
O O15 0.486720 0.500000 0.125834
O O16 0.486678 0.742319 0.083238
O O17 0.750000 0.814728 0.961969
O O18 0.965177 0.000000 0.947337
O O19 0.000000 0.779277 0.000000
#
# Coordination Sequence:
#
# PCOD8210985 Si02
#       6
#     8   8   8   8   8   8
#     4   9  17  31  51  71  91 120 159 199 238 285
#     4  10  20  33  51  76 103 132 169 211 253 298
#     4  10  21  36  53  74 101 133 167 204 250 303
#     4   9  16  27  45  70 101 135 170 209 252 298
#     4   9  17  29  47  71  96 122 155 196 240 285
#     4   9  17  30  48  69  93 123 159 196 234 279
#
# _framework density 18.345773000000001
#
# number of rings (size 3 to 8) (size 9 to 14) (size 15 to 20)
#    0.000    2.667    0.000    2.000    0.000    7.000 
#    0.000    2.500    0.000    5.500    0.000    0.000 
#    0.000    0.000    0.000    0.000    0.000    0.000 
#
# Total GULP energy -595274.229011 kJ/mol
# GULP energy per Si atom -12401.546438 kJ/mol
# Density = 1.830402 g / cm^3
# Si number density = 18.345773 Si / 1000 Ang^3
#
#
#
# Elastic Constant Matrix: (Units=GPa)
#
#
# Indices 1 2 3 4 5 6 
#
# 1 89.6922 37.4700 68.3365 0.0000 0.0000 0.0000
# 2 37.4700 66.5722 71.5990 0.0000 0.0000 0.0000
# 3 68.3365 71.5990 178.0962 0.0000 0.0000 0.0000
# 4 0.0000 0.0000 0.0000 19.1315 0.0000 0.0000
# 5 0.0000 0.0000 0.0000 0.0000 35.2798 0.0000
# 6 0.0000 0.0000 0.0000 0.0000 0.0000 17.8428
#
#
#
# Elastic Compliance Matrix: (Units=1/GPa)
#
#
# Indices 1 2 3 4 5 6 
#
# 1 0.016440 -0.004349 -0.004560 0.000000 0.000000 0.000000
# 2 -0.004349 0.027614 -0.009433 0.000000 0.000000 0.000000
# 3 -0.004560 -0.009433 0.011157 0.000000 0.000000 0.000000
# 4 0.000000 0.000000 0.000000 0.052270 0.000000 0.000000
# 5 0.000000 0.000000 0.000000 0.000000 0.028345 0.000000
# 6 0.000000 0.000000 0.000000 0.000000 0.000000 0.056045
#
#
# Mechanical properties :
#
#
# Convention : Reuss Voigt Hill
#
# Bulk Modulus (GPa) = 53.97327 76.57464 65.27396
# Shear Modulus (GPa) = 21.30102 24.91448 23.10775
#
# Velocity S-wave (km/s) = 3.41117 3.68917 3.55289
# Velocity P-wave (km/s) = 6.70810 7.74448 7.24484
#
# Compressibility (1/GPa) = 0.01852769
#
# Stress axis : x y z
#
# Youngs Moduli (GPa) = 60.82634 36.21310 89.63219
#
# Poissons Ratio (x) = 0.15750 0.40869
# Poissons Ratio (y) = 0.26456 0.84548
# Poissons Ratio (z) = 0.27735 0.34159
#
# Static dielectric constant tensor:
#      x y z
#    x 3.397880 0.000000 0.000000 
#    y 0.000000 3.215730 0.000000 
#    z 0.000000 0.000000 3.583100 
# 
# 
# High freq. dielectric constant tensor:
#      x y z
#    x 1.698670 0.000000 0.000000 
#    y 0.000000 1.686220 0.000000 
#    z 0.000000 0.000000 1.727730 
# 
# From -- ./inp_files/36891.got.cif
#   From: 2010.03.12/outbox.cif.g09.slc.cpg/sg51_19_cif.got.tgz:36891.got - 2010.04.16 13:43:02.
