data_PCOD8210607
_publ_section_title
;
Structure prediction by ZEFSAII (Michael W. Deem and Ramdas Pophale) SiO2 
 PCOD8210607
Probable space group: P M M A
;
_chemical_formula_sum "Si O2"
_cell_formula_units_Z 64
_cell_length_a 33.173879
_cell_length_b 9.160471
_cell_length_c 11.136462
_cell_angle_alpha 90.000000
_cell_angle_beta 90.000000
_cell_angle_gamma 90.000000
_cell_volume 3384.241135
_symmetry_space_group_name_H-M "P M M A"
_symmetry_group_IT_number 51
_symmetry_cell_setting 'orthorhombic'
loop_
_space_group_symop_operation_xyz
x,y,z
1/2-x,-y,z
1/2+x,-y,-z
-x,y,-z
-x,-y,-z
1/2+x,y,-z
1/2-x,y,z
x,-y,z
loop_
_atom_site_type_symbol
_atom_site_label
_atom_site_fract_x
_atom_site_fract_y
_atom_site_fract_z
Si Si1 0.942620 0.669409 0.315822
Si Si2 0.204275 0.171961 0.926246
Si Si3 0.795212 0.667640 0.828404
Si Si4 0.486373 0.831021 0.209135
Si Si5 0.922027 0.665230 0.927012
Si Si6 0.432811 0.832295 0.443644
Si Si7 0.370455 0.331454 0.848124
Si Si8 0.129937 0.663213 0.311171
O O1 0.954114 0.500000 0.325222
O O2 0.971785 0.743918 0.217755
O O3 0.949615 0.743463 0.443987
O O4 0.896442 0.690864 0.272935
O O5 0.250000 0.214602 0.886800
O O6 0.171416 0.242307 0.836323
O O7 0.198464 0.000000 0.926252
O O8 0.195130 0.230437 0.059050
O O9 0.750000 0.692079 0.781959
O O10 0.802828 0.500000 0.868546
O O11 0.823900 0.708048 0.716273
O O12 0.460758 0.766795 0.098133
O O13 0.463115 0.807724 0.334284
O O14 0.494889 0.000000 0.183560
O O15 0.936897 0.500000 0.951943
O O16 0.892719 0.671116 0.814459
O O17 0.897408 0.726434 0.040721
O O18 0.388543 0.774477 0.407340
O O19 0.429369 0.000000 0.481322
O O20 0.359294 0.500000 0.868414
O O21 0.126959 0.500000 0.365623
#
# Coordination Sequence:
#
# PCOD8210607 Si02
#       8
#     8   8   8   8   8   8   8   8
#     4  11  23  37  55  77 101 134 178 223 262 304
#     4  10  20  32  50  79 111 141 173 210 254 306
#     4   9  16  28  49  77 108 139 170 208 255 308
#     4  10  21  36  54  77 105 136 171 214 263 315
#     4   9  17  32  52  75 103 136 172 211 258 307
#     4  10  21  36  54  75 101 134 173 218 264 311
#     4  10  21  37  55  77 106 140 178 218 258 308
#     4   9  16  29  51  76 102 134 171 211 256 306
#
# _framework density 18.911182
#
# number of rings (size 3 to 8) (size 9 to 14) (size 15 to 20)
#    0.000    2.250    1.250    1.875    0.000    6.250 
#    0.000    2.500    0.000    0.750    0.000    1.750 
#    0.000    0.000    0.000    0.000    0.000    0.000 
#
# Total GULP energy -793651.442395 kJ/mol
# GULP energy per Si atom -12400.803787 kJ/mol
# Density = 1.886814 g / cm^3
# Si number density = 18.911182 Si / 1000 Ang^3
#
#
#
# Elastic Constant Matrix: (Units=GPa)
#
#
# Indices 1 2 3 4 5 6 
#
# 1 95.7121 47.9009 2.7067 0.0000 0.0000 0.0000
# 2 47.9009 101.2469 16.9871 0.0000 0.0000 0.0000
# 3 2.7067 16.9871 21.2575 0.0000 0.0000 0.0000
# 4 0.0000 0.0000 0.0000 19.8449 0.0000 0.0000
# 5 0.0000 0.0000 0.0000 0.0000 20.8994 0.0000
# 6 0.0000 0.0000 0.0000 0.0000 0.0000 27.9948
#
#
#
# Elastic Compliance Matrix: (Units=1/GPa)
#
#
# Indices 1 2 3 4 5 6 
#
# 1 0.013985 -0.007296 0.004049 0.000000 0.000000 0.000000
# 2 -0.007296 0.015212 -0.011227 0.000000 0.000000 0.000000
# 3 0.004049 -0.011227 0.055499 0.000000 0.000000 0.000000
# 4 0.000000 0.000000 0.000000 0.050391 0.000000 0.000000
# 5 0.000000 0.000000 0.000000 0.000000 0.047848 0.000000
# 6 0.000000 0.000000 0.000000 0.000000 0.000000 0.035721
#
#
# Mechanical properties :
#
#
# Convention : Reuss Voigt Hill
#
# Bulk Modulus (GPa) = 17.93777 39.26734 28.60256
# Shear Modulus (GPa) = 18.78387 23.78925 21.28656
#
# Velocity S-wave (km/s) = 3.15503 3.55060 3.35865
# Velocity P-wave (km/s) = 4.77265 6.13337 5.49529
#
# Compressibility (1/GPa) = 0.05574828
#
# Stress axis : x y z
#
# Youngs Moduli (GPa) = 71.50629 65.73641 18.01849
#
# Poissons Ratio (x) = 0.47960 -0.07296
# Poissons Ratio (y) = 0.52169 0.20230
# Poissons Ratio (z) = -0.28956 0.73805
#
# Static dielectric constant tensor:
#      x y z
#    x 3.688530 0.000000 0.000000 
#    y 0.000000 3.498810 0.000000 
#    z 0.000000 0.000000 3.160760 
# 
# 
# High freq. dielectric constant tensor:
#      x y z
#    x 1.739370 0.000000 0.000000 
#    y 0.000000 1.735010 0.000000 
#    z 0.000000 0.000000 1.702180 
# 
# From -- ./inp_files/19506.got.cif
#   From: 2010.03.12/outbox.cif.g09.slc.cpg/sg51_10_cif.got.tgz:19506.got - 2010.04.16 13:43:02.
