data_PCOD8210743
_publ_section_title
;
Structure prediction by ZEFSAII (Michael W. Deem and Ramdas Pophale) SiO2 
 PCOD8210743
Probable space group: P M M A
;
_chemical_formula_sum "Si O2"
_cell_formula_units_Z 64
_cell_length_a 9.069734
_cell_length_b 9.307663
_cell_length_c 41.565957
_cell_angle_alpha 90.000000
_cell_angle_beta 90.000000
_cell_angle_gamma 90.000000
_cell_volume 3508.916104
_symmetry_space_group_name_H-M "P M M A"
_symmetry_group_IT_number 51
_symmetry_cell_setting 'orthorhombic'
loop_
_space_group_symop_operation_xyz
x,y,z
1/2-x,-y,z
1/2+x,-y,-z
-x,y,-z
-x,-y,-z
1/2+x,y,-z
1/2-x,y,z
x,-y,z
loop_
_atom_site_type_symbol
_atom_site_label
_atom_site_fract_x
_atom_site_fract_y
_atom_site_fract_z
Si Si1 0.922390 0.832183 0.158551
Si Si2 0.921702 0.166506 0.594567
Si Si3 0.083829 0.670792 0.720591
Si Si4 0.416326 0.829180 0.094266
Si Si5 0.078940 0.332449 0.342632
Si Si6 0.916222 0.171216 0.468828
Si Si7 0.916750 0.171374 0.031558
Si Si8 0.079750 0.669906 0.215762
O O1 0.750000 0.798981 0.156352
O O2 0.997216 0.776636 0.125780
O O3 0.991866 0.744841 0.187472
O O4 0.953474 0.000000 0.164070
O O5 0.750000 0.193573 0.588438
O O6 0.978478 0.251169 0.625771
O O7 0.006324 0.227921 0.563530
O O8 0.956999 0.000000 0.600243
O O9 0.250000 0.730742 0.723432
O O10 0.082880 0.500000 0.720036
O O11 0.010836 0.728727 0.687804
O O12 0.988740 0.725837 0.750753
O O13 0.250000 0.768196 0.095119
O O14 0.499291 0.768009 0.062889
O O15 0.414348 0.000000 0.092819
O O16 0.250000 0.300265 0.336131
O O17 0.049554 0.500000 0.347939
O O18 0.750000 0.229159 0.469561
O O19 0.000000 0.233528 0.500000
O O20 0.921431 0.000000 0.469470
O O21 0.750000 0.230325 0.031530
O O22 0.916525 0.000000 0.031839
O O23 0.000000 0.229597 0.000000
O O24 0.250000 0.715988 0.214636
O O25 0.060871 0.500000 0.212127
#
# Coordination Sequence:
#
# PCOD8210743 Si02
#       8
#     8   8   8   8   8   8   8   8
#     4  10  20  33  49  70  97 128 160 194 236 287
#     4   9  17  29  45  66  92 119 147 182 224 266
#     4   9  17  30  49  71  93 119 153 192 231 272
#     4   9  16  26  40  58  83 117 154 190 231 280
#     4   9  17  30  48  68  90 118 151 184 220 267
#     4   9  16  26  42  64  89 117 149 184 221 261
#     4   9  15  22  33  51  77 110 149 191 233 277
#     4  10  20  34  53  75  97 123 158 199 240 282
#
# _framework density 18.239249999999998
#
# number of rings (size 3 to 8) (size 9 to 14) (size 15 to 20)
#    0.000    2.750    0.000    2.250    0.000    8.000 
#    0.000    0.625    0.000    2.625    0.000    0.000 
#    0.000    0.500    0.000    1.875    0.000    4.125 
#
# Total GULP energy -793616.437905 kJ/mol
# GULP energy per Si atom -12400.256842 kJ/mol
# Density = 1.819774 g / cm^3
# Si number density = 18.239250 Si / 1000 Ang^3
#
#
#
# Elastic Constant Matrix: (Units=GPa)
#
#
# Indices 1 2 3 4 5 6 
#
# 1 143.0854 22.8770 92.6939 0.0000 0.0000 0.0000
# 2 22.8770 16.3702 29.5434 0.0000 0.0000 0.0000
# 3 92.6939 29.5434 193.0258 0.0000 0.0000 0.0000
# 4 0.0000 0.0000 0.0000 -20.2657 0.0000 0.0000
# 5 0.0000 0.0000 0.0000 0.0000 43.9190 0.0000
# 6 0.0000 0.0000 0.0000 0.0000 0.0000 15.3016
#
#
#
# Elastic Compliance Matrix: (Units=1/GPa)
#
#
# Indices 1 2 3 4 5 6 
#
# 1 0.010846 -0.007955 -0.003991 0.000000 0.000000 0.000000
# 2 -0.007955 0.090233 -0.009991 0.000000 0.000000 0.000000
# 3 -0.003991 -0.009991 0.008626 0.000000 0.000000 0.000000
# 4 0.000000 0.000000 0.000000 -0.049345 0.000000 0.000000
# 5 0.000000 0.000000 0.000000 0.000000 0.022769 0.000000
# 6 0.000000 0.000000 0.000000 0.000000 0.000000 0.065353
#
#
# Mechanical properties :
#
#
# Convention : Reuss Voigt Hill
#
# Bulk Modulus (GPa) = 15.18990 71.41223 43.30106
# Shear Modulus (GPa) = 23.33174 21.61544 22.47359
#
# Velocity S-wave (km/s) = 3.58048 3.44627 3.51402
# Velocity P-wave (km/s) = 5.04374 7.42117 6.34480
#
# Compressibility (1/GPa) = 0.06583323
#
# Stress axis : x y z
#
# Youngs Moduli (GPa) = 92.19906 11.08236 115.92481
#
# Poissons Ratio (x) = 0.08816 0.46265
# Poissons Ratio (y) = 0.73342 1.15816
# Poissons Ratio (z) = 0.36796 0.11072
#
# Static dielectric constant tensor:
#      x y z
#    x 3.572940 0.000000 0.000000 
#    y 0.000000 2.784070 0.000000 
#    z 0.000000 0.000000 3.628030 
# 
# 
# High freq. dielectric constant tensor:
#      x y z
#    x 1.720530 0.000000 0.000000 
#    y 0.000000 1.638800 0.000000 
#    z 0.000000 0.000000 1.726540 
# 
# From -- ./inp_files/37429.got.cif
#   From: 2010.03.12/outbox.cif.g09.slc.cpg/sg51_19_cif.got.tgz:37429.got - 2010.04.16 13:43:02.
