data_PCOD8210618
_publ_section_title
;
Structure prediction by ZEFSAII (Michael W. Deem and Ramdas Pophale) SiO2 
 PCOD8210618
Probable space group: P M M A
;
_chemical_formula_sum "Si O2"
_cell_formula_units_Z 56
_cell_length_a 20.980319
_cell_length_b 8.626543
_cell_length_c 16.063990
_cell_angle_alpha 90.000000
_cell_angle_beta 90.000000
_cell_angle_gamma 90.000000
_cell_volume 2907.383382
_symmetry_space_group_name_H-M "P M M A"
_symmetry_group_IT_number 51
_symmetry_cell_setting 'orthorhombic'
loop_
_space_group_symop_operation_xyz
x,y,z
1/2-x,-y,z
1/2+x,-y,-z
-x,y,-z
-x,-y,-z
1/2+x,y,-z
1/2-x,y,z
x,-y,z
loop_
_atom_site_type_symbol
_atom_site_label
_atom_site_fract_x
_atom_site_fract_y
_atom_site_fract_z
Si Si1 0.881368 0.820230 0.314490
Si Si2 0.374626 0.316077 0.984029
Si Si3 0.457790 0.180425 0.847454
Si Si4 0.250000 0.316384 0.892789
Si Si5 0.750000 0.684088 0.294697
Si Si6 0.494828 0.682326 0.592050
Si Si7 0.323486 0.816939 0.149324
Si Si8 0.427675 0.316480 0.251564
O O1 0.900916 0.787759 0.218657
O O2 0.811850 0.756779 0.336818
O O3 0.925694 0.724115 0.375344
O O4 0.886586 0.000000 0.336253
O O5 0.380848 0.500000 0.980469
O O6 0.435930 0.242988 0.937845
O O7 0.311979 0.250531 0.938306
O O8 0.367292 0.260607 0.078392
O O9 0.520897 0.270128 0.818808
O O10 0.474629 0.000000 0.853835
O O11 0.250000 0.500000 0.896461
O O12 0.250000 0.255887 0.799552
O O13 0.750000 0.500000 0.303172
O O14 0.500000 0.757424 0.500000
O O15 0.502234 0.500000 0.586151
O O16 0.548175 0.743873 0.657665
O O17 0.250000 0.756427 0.148929
O O18 0.359291 0.764652 0.234055
O O19 0.324515 0.000000 0.139535
O O20 0.418941 0.500000 0.250044
#
# Coordination Sequence:
#
# PCOD8210618 Si02
#       8
#     8   8   8   4   4   8   8   8
#     4  10  20  32  50  81 116 149 183 220 270 329
#     4  11  20  34  54  79 109 147 196 239 275 319
#     4  10  20  34  52  79 115 150 184 228 278 328
#     4   9  18  29  47  75 106 143 188 233 269 308
#     4  11  19  31  51  77 112 153 188 225 273 322
#     4   9  19  38  64  89 111 137 177 223 274 335
#     4  11  24  40  57  79 109 147 189 233 280 329
#     4  10  21  38  61  86 110 141 180 228 278 331
#
# _framework density 19.261308
#
# number of rings (size 3 to 8) (size 9 to 14) (size 15 to 20)
#    0.000    1.857    2.143    2.357    0.000    3.429 
#    0.000    2.857    1.571    0.000    0.000    0.000 
#    0.000    0.000    0.000    0.000    0.000    0.000 
#
# Total GULP energy -694368.852972 kJ/mol
# GULP energy per Si atom -12399.443803 kJ/mol
# Density = 1.921747 g / cm^3
# Si number density = 19.261308 Si / 1000 Ang^3
#
#
#
# Elastic Constant Matrix: (Units=GPa)
#
#
# Indices 1 2 3 4 5 6 
#
# 1 84.7355 10.6299 48.4163 0.0000 0.0000 0.0000
# 2 10.6299 33.6704 12.9922 0.0000 0.0000 0.0000
# 3 48.4163 12.9922 103.6354 0.0000 0.0000 0.0000
# 4 0.0000 0.0000 0.0000 19.0068 0.0000 0.0000
# 5 0.0000 0.0000 0.0000 0.0000 26.4454 0.0000
# 6 0.0000 0.0000 0.0000 0.0000 0.0000 29.8603
#
#
#
# Elastic Compliance Matrix: (Units=1/GPa)
#
#
# Indices 1 2 3 4 5 6 
#
# 1 0.016269 -0.002315 -0.007310 0.000000 0.000000 0.000000
# 2 -0.002315 0.031539 -0.002872 0.000000 0.000000 0.000000
# 3 -0.007310 -0.002872 0.013424 0.000000 0.000000 0.000000
# 4 0.000000 0.000000 0.000000 0.052613 0.000000 0.000000
# 5 0.000000 0.000000 0.000000 0.000000 0.037814 0.000000
# 6 0.000000 0.000000 0.000000 0.000000 0.000000 0.033489
#
#
# Mechanical properties :
#
#
# Convention : Reuss Voigt Hill
#
# Bulk Modulus (GPa) = 27.59633 40.67979 34.13806
# Shear Modulus (GPa) = 22.49997 25.06267 23.78132
#
# Velocity S-wave (km/s) = 3.42152 3.61112 3.51760
# Velocity P-wave (km/s) = 5.47426 6.20908 5.85321
#
# Compressibility (1/GPa) = 0.03623670
#
# Stress axis : x y z
#
# Youngs Moduli (GPa) = 61.46740 31.70682 74.49098
#
# Poissons Ratio (x) = 0.07341 0.54454
# Poissons Ratio (y) = 0.14232 0.21395
# Poissons Ratio (z) = 0.44934 0.09107
#
# Static dielectric constant tensor:
#      x y z
#    x 3.586650 0.000000 0.000000 
#    y 0.000000 3.368110 0.000000 
#    z 0.000000 0.000000 3.591790 
# 
# 
# High freq. dielectric constant tensor:
#      x y z
#    x 1.751960 0.000000 0.000000 
#    y 0.000000 1.748200 0.000000 
#    z 0.000000 0.000000 1.726940 
# 
# From -- ./inp_files/25934.got.cif
#   From: 2010.03.12/outbox.cif.g09.slc.cpg/sg51_13_cif.got.tgz:25934.got - 2010.04.16 13:43:02.
