data_PCOD8210564
_publ_section_title
;
Structure prediction by ZEFSAII (Michael W. Deem and Ramdas Pophale) SiO2 
 PCOD8210564
Probable space group: P M M A
;
_chemical_formula_sum "Si O2"
_cell_formula_units_Z 48
_cell_length_a 9.217442
_cell_length_b 17.450636
_cell_length_c 14.481557
_cell_angle_alpha 90.000000
_cell_angle_beta 90.000000
_cell_angle_gamma 90.000000
_cell_volume 2329.361705
_symmetry_space_group_name_H-M "P M M A"
_symmetry_group_IT_number 51
_symmetry_cell_setting 'orthorhombic'
loop_
_space_group_symop_operation_xyz
x,y,z
1/2-x,-y,z
1/2+x,-y,-z
-x,y,-z
-x,-y,-z
1/2+x,y,-z
1/2-x,y,z
x,-y,z
loop_
_atom_site_type_symbol
_atom_site_label
_atom_site_fract_x
_atom_site_fract_y
_atom_site_fract_z
Si Si1 0.922126 0.802208 0.903461
Si Si2 0.415738 0.657330 0.222121
Si Si3 0.917532 0.586988 0.589891
Si Si4 0.094280 0.587492 0.920900
Si Si5 0.082741 0.909154 0.772854
Si Si6 0.415365 0.908833 0.409948
O O1 0.750000 0.814553 0.918537
O O2 0.953865 0.738256 0.824785
O O3 0.997519 0.878094 0.862496
O O4 0.000000 0.781381 0.000000
O O5 0.250000 0.635080 0.203380
O O6 0.451405 0.649895 0.330559
O O7 0.513799 0.592152 0.176051
O O8 0.750000 0.587119 0.564919
O O9 0.965772 0.500000 0.617739
O O10 0.000000 0.616467 0.500000
O O11 0.250000 0.629549 0.916908
O O12 0.117995 0.500000 0.948345
O O13 0.000000 0.629833 0.000000
O O14 0.250000 0.880697 0.771191
O O15 0.001275 0.879971 0.680408
O O16 0.076781 0.000000 0.779295
O O17 0.500000 0.877389 0.500000
O O18 0.250000 0.876608 0.408035
O O19 0.411172 0.000000 0.412743
#
# Coordination Sequence:
#
# PCOD8210564 Si02
#       6
#     8   8   8   8   8   8
#     4  11  24  41  60  82 110 145 187 235 291 354
#     4  10  21  37  57  80 109 147 187 228 277 333
#     4   9  18  34  57  85 117 152 190 232 275 320
#     4  10  20  32  49  76 108 142 181 224 269 319
#     4  10  21  38  60  85 112 145 189 239 293 355
#     4   9  16  28  50  81 115 147 178 217 268 326
#
# _framework density 20.606504000000001
#
# number of rings (size 3 to 8) (size 9 to 14) (size 15 to 20)
#    0.000    2.167    0.000    3.000    0.000    8.333 
#    0.000    2.500    0.000    2.000    0.000    0.000 
#    0.000    0.000    0.000    0.000    0.000    0.000 
#
# Total GULP energy -594988.830653 kJ/mol
# GULP energy per Si atom -12395.600639 kJ/mol
# Density = 2.055960 g / cm^3
# Si number density = 20.606504 Si / 1000 Ang^3
#
#
#
# Elastic Constant Matrix: (Units=GPa)
#
#
# Indices 1 2 3 4 5 6 
#
# 1 153.6948 34.7434 88.5029 0.0000 0.0000 0.0000
# 2 34.7434 36.5379 41.5241 0.0000 0.0000 0.0000
# 3 88.5029 41.5241 157.3598 0.0000 0.0000 0.0000
# 4 0.0000 0.0000 0.0000 28.7901 0.0000 0.0000
# 5 0.0000 0.0000 0.0000 0.0000 44.1103 0.0000
# 6 0.0000 0.0000 0.0000 0.0000 0.0000 13.5119
#
#
#
# Elastic Compliance Matrix: (Units=1/GPa)
#
#
# Indices 1 2 3 4 5 6 
#
# 1 0.010117 -0.004504 -0.004501 0.000000 0.000000 0.000000
# 2 -0.004504 0.041098 -0.008312 0.000000 0.000000 0.000000
# 3 -0.004501 -0.008312 0.011080 0.000000 0.000000 0.000000
# 4 0.000000 0.000000 0.000000 0.034734 0.000000 0.000000
# 5 0.000000 0.000000 0.000000 0.000000 0.022670 0.000000
# 6 0.000000 0.000000 0.000000 0.000000 0.000000 0.074009
#
#
# Mechanical properties :
#
#
# Convention : Reuss Voigt Hill
#
# Bulk Modulus (GPa) = 36.15335 75.23702 55.69519
# Shear Modulus (GPa) = 21.04719 29.47061 25.25890
#
# Velocity S-wave (km/s) = 3.19938 3.78585 3.50490
# Velocity P-wave (km/s) = 5.58845 7.46329 6.59286
#
# Compressibility (1/GPa) = 0.02765995
#
# Stress axis : x y z
#
# Youngs Moduli (GPa) = 98.84785 24.33225 90.25511
#
# Poissons Ratio (x) = 0.10960 0.40626
# Poissons Ratio (y) = 0.44523 0.75016
# Poissons Ratio (z) = 0.44494 0.20224
#
# Static dielectric constant tensor:
#      x y z
#    x 4.071840 0.000000 0.000000 
#    y 0.000000 3.352480 0.000000 
#    z 0.000000 0.000000 3.804740 
# 
# 
# High freq. dielectric constant tensor:
#      x y z
#    x 1.820230 0.000000 0.000000 
#    y 0.000000 1.770860 0.000000 
#    z 0.000000 0.000000 1.809430 
# 
# From -- ./inp_files/21123.got.cif
#   From: 2010.03.12/outbox.cif.g09.slc.cpg/sg51_11_cif.got.tgz:21123.got - 2010.04.16 13:43:02.
