data_PCOD8210098
_publ_section_title
;
Structure prediction by ZEFSAII (Michael W. Deem and Ramdas Pophale) SiO2 
 PCOD8210098
Probable space group: P M M A
;
_chemical_formula_sum "Si O2"
_cell_formula_units_Z 56
_cell_length_a 20.214770
_cell_length_b 9.159913
_cell_length_c 15.834730
_cell_angle_alpha 90.000000
_cell_angle_beta 90.000000
_cell_angle_gamma 90.000000
_cell_volume 2932.046244
_symmetry_space_group_name_H-M "P M M A"
_symmetry_group_IT_number 51
_symmetry_cell_setting 'orthorhombic'
loop_
_space_group_symop_operation_xyz
x,y,z
1/2-x,-y,z
1/2+x,-y,-z
-x,y,-z
-x,-y,-z
1/2+x,y,-z
1/2-x,y,z
x,-y,z
loop_
_atom_site_type_symbol
_atom_site_label
_atom_site_fract_x
_atom_site_fract_y
_atom_site_fract_z
Si Si1 0.559381 0.174244 0.562130
Si Si2 0.674938 0.832359 0.984377
Si Si3 0.962749 0.830217 0.916895
Si Si4 0.646291 0.833064 0.305095
Si Si5 0.175392 0.658524 0.857404
Si Si6 0.324579 0.332356 0.527006
Si Si7 0.004854 0.165860 0.264908
O O1 0.500000 0.224942 0.500000
O O2 0.627869 0.246561 0.535801
O O3 0.548393 0.231351 0.658389
O O4 0.566011 0.000000 0.557681
O O5 0.750000 0.786445 0.954244
O O6 0.617388 0.807364 0.915076
O O7 0.676837 0.000000 0.012967
O O8 0.644877 0.742203 0.062897
O O9 0.987599 0.757033 0.827653
O O10 0.981862 0.000000 0.916350
O O11 0.000000 0.761614 0.000000
O O12 0.675535 0.763273 0.221876
O O13 0.674091 0.740860 0.381799
O O14 0.568060 0.822929 0.301416
O O15 0.670225 0.000000 0.313411
O O16 0.250000 0.628477 0.883152
O O17 0.140408 0.500000 0.841720
O O18 0.250000 0.322287 0.491259
O O19 0.347451 0.500000 0.535252
O O20 0.027079 0.000000 0.251326
#
# Coordination Sequence:
#
# PCOD8210098 Si02
#       7
#     8   8   8   8   8   8   8
#     4  10  19  37  60  83 111 145 187 232 275 329
#     4   9  17  30  49  72  97 131 178 225 267 319
#     4   9  16  28  49  78 109 138 172 220 276 325
#     4  11  20  33  54  79 107 140 180 226 277 337
#     4  10  20  32  46  69 104 142 178 219 272 332
#     4  11  24  39  55  80 115 150 185 230 283 336
#     4   9  18  32  53  81 109 138 176 226 280 330
#
# _framework density 19.09929
#
# number of rings (size 3 to 8) (size 9 to 14) (size 15 to 20)
#    0.000    2.143    1.429    2.571    0.000    6.286 
#    0.000    0.714    0.000    8.143    0.000    2.000 
#    0.000    0.000    0.000    0.000    0.000    0.000 
#
# Total GULP energy -693819.342679 kJ/mol
# GULP energy per Si atom -12389.631119 kJ/mol
# Density = 1.905582 g / cm^3
# Si number density = 19.099290 Si / 1000 Ang^3
#
#
#
# Elastic Constant Matrix: (Units=GPa)
#
#
# Indices 1 2 3 4 5 6 
#
# 1 77.9913 17.6657 32.1505 0.0000 0.0000 0.0000
# 2 17.6657 48.5104 15.0978 0.0000 0.0000 0.0000
# 3 32.1505 15.0978 102.3059 0.0000 0.0000 0.0000
# 4 0.0000 0.0000 0.0000 7.3442 0.0000 0.0000
# 5 0.0000 0.0000 0.0000 0.0000 32.1452 0.0000
# 6 0.0000 0.0000 0.0000 0.0000 0.0000 17.0178
#
#
#
# Elastic Compliance Matrix: (Units=1/GPa)
#
#
# Indices 1 2 3 4 5 6 
#
# 1 0.015557 -0.004343 -0.004248 0.000000 0.000000 0.000000
# 2 -0.004343 0.022819 -0.002003 0.000000 0.000000 0.000000
# 3 -0.004248 -0.002003 0.011405 0.000000 0.000000 0.000000
# 4 0.000000 0.000000 0.000000 0.136161 0.000000 0.000000
# 5 0.000000 0.000000 0.000000 0.000000 0.031109 0.000000
# 6 0.000000 0.000000 0.000000 0.000000 0.000000 0.058762
#
#
# Mechanical properties :
#
#
# Convention : Reuss Voigt Hill
#
# Bulk Modulus (GPa) = 34.97301 39.84843 37.41072
# Shear Modulus (GPa) = 16.31154 22.22770 19.26962
#
# Velocity S-wave (km/s) = 2.92557 3.41515 3.17979
# Velocity P-wave (km/s) = 5.45553 6.03822 5.75426
#
# Compressibility (1/GPa) = 0.02859348
#
# Stress axis : x y z
#
# Youngs Moduli (GPa) = 64.28039 43.82308 87.68006
#
# Poissons Ratio (x) = 0.19033 0.37246
# Poissons Ratio (y) = 0.27918 0.17559
# Poissons Ratio (z) = 0.27306 0.08776
#
# Static dielectric constant tensor:
#      x y z
#    x 3.491040 0.000000 0.000000 
#    y 0.000000 3.459920 0.000000 
#    z 0.000000 0.000000 3.649550 
# 
# 
# High freq. dielectric constant tensor:
#      x y z
#    x 1.743780 0.000000 0.000000 
#    y 0.000000 1.713650 0.000000 
#    z 0.000000 0.000000 1.734840 
# 
# From -- ./inp_files/25755.got.cif
#   From: 2010.03.12/outbox.cif.g09.slc.cpg/sg51_13_cif.got.tgz:25755.got - 2010.04.16 13:43:02.
