data_PCOD8210791
_publ_section_title
;
Structure prediction by ZEFSAII (Michael W. Deem and Ramdas Pophale) SiO2 
 PCOD8210791
Probable space group: P M M A
;
_chemical_formula_sum "Si O2"
_cell_formula_units_Z 48
_cell_length_a 18.408211
_cell_length_b 9.166540
_cell_length_c 16.402357
_cell_angle_alpha 90.000000
_cell_angle_beta 90.000000
_cell_angle_gamma 90.000000
_cell_volume 2767.727200
_symmetry_space_group_name_H-M "P M M A"
_symmetry_group_IT_number 51
_symmetry_cell_setting 'orthorhombic'
loop_
_space_group_symop_operation_xyz
x,y,z
1/2-x,-y,z
1/2+x,-y,-z
-x,y,-z
-x,-y,-z
1/2+x,y,-z
1/2-x,y,z
x,-y,z
loop_
_atom_site_type_symbol
_atom_site_label
_atom_site_fract_x
_atom_site_fract_y
_atom_site_fract_z
Si Si1 0.667316 0.171565 0.510884
Si Si2 0.168070 0.331533 0.649445
Si Si3 0.975990 0.826811 0.910452
Si Si4 0.463068 0.670424 0.760077
Si Si5 0.670824 0.829830 0.834645
Si Si6 0.088533 0.170598 0.326482
O O1 0.750000 0.220753 0.527406
O O2 0.637624 0.244570 0.428565
O O3 0.618596 0.223313 0.586654
O O4 0.661755 0.000000 0.499716
O O5 0.250000 0.281462 0.671605
O O6 0.165528 0.500000 0.625162
O O7 0.118245 0.300244 0.727882
O O8 0.893305 0.770966 0.893930
O O9 0.029940 0.751211 0.846518
O O10 0.981837 0.000000 0.897777
O O11 0.000000 0.777896 0.000000
O O12 0.479346 0.500000 0.771711
O O13 0.517721 0.735474 0.693189
O O14 0.750000 0.756688 0.853221
O O15 0.650160 0.798194 0.741053
O O16 0.678283 0.000000 0.849972
O O17 0.067594 0.000000 0.326424
#
# Coordination Sequence:
#
# PCOD8210791 Si02
#       6
#     8   8   8   8   8   8
#     4   9  17  29  47  71  96 125 163 201 234 270
#     4   9  19  35  50  64  89 127 165 198 233 272
#     4   9  18  33  52  73  97 122 149 187 236 286
#     4  10  20  33  50  70  91 120 158 194 231 280
#     4   8  13  24  45  69  92 121 153 182 218 271
#     4   9  17  29  46  69  97 125 153 191 237 280
#
# _framework density 17.342749000000001
#
# number of rings (size 3 to 8) (size 9 to 14) (size 15 to 20)
#    0.000    3.000    0.000    2.000    0.000    5.000 
#    0.000    4.167    0.000   13.000    0.000    0.000 
#    0.000    0.000    0.000    0.000    0.000    0.000 
#
# Total GULP energy -595030.342340 kJ/mol
# GULP energy per Si atom -12396.465465 kJ/mol
# Density = 1.730328 g / cm^3
# Si number density = 17.342749 Si / 1000 Ang^3
#
#
#
# Elastic Constant Matrix: (Units=GPa)
#
#
# Indices 1 2 3 4 5 6 
#
# 1 102.8857 31.3765 74.6205 0.0000 0.0000 0.0000
# 2 31.3765 39.3646 40.8526 0.0000 0.0000 0.0000
# 3 74.6205 40.8526 134.2502 0.0000 0.0000 0.0000
# 4 0.0000 0.0000 0.0000 18.6341 0.0000 0.0000
# 5 0.0000 0.0000 0.0000 0.0000 23.0880 0.0000
# 6 0.0000 0.0000 0.0000 0.0000 0.0000 21.2825
#
#
#
# Elastic Compliance Matrix: (Units=1/GPa)
#
#
# Indices 1 2 3 4 5 6 
#
# 1 0.017059 -0.005491 -0.007811 0.000000 0.000000 0.000000
# 2 -0.005491 0.038897 -0.008784 0.000000 0.000000 0.000000
# 3 -0.007811 -0.008784 0.014464 0.000000 0.000000 0.000000
# 4 0.000000 0.000000 0.000000 0.053665 0.000000 0.000000
# 5 0.000000 0.000000 0.000000 0.000000 0.043313 0.000000
# 6 0.000000 0.000000 0.000000 0.000000 0.000000 0.046987
#
#
# Mechanical properties :
#
#
# Convention : Reuss Voigt Hill
#
# Bulk Modulus (GPa) = 38.10024 63.35551 50.72787
# Shear Modulus (GPa) = 18.70517 21.24432 19.97474
#
# Velocity S-wave (km/s) = 3.28770 3.50375 3.39745
# Velocity P-wave (km/s) = 6.03562 7.27867 6.68610
#
# Compressibility (1/GPa) = 0.02624656
#
# Stress axis : x y z
#
# Youngs Moduli (GPa) = 58.61877 25.70916 69.13934
#
# Poissons Ratio (x) = 0.14117 0.54006
# Poissons Ratio (y) = 0.32188 0.60733
# Poissons Ratio (z) = 0.45788 0.22583
#
# Static dielectric constant tensor:
#      x y z
#    x 3.454260 0.000000 0.000000 
#    y 0.000000 3.037840 0.000000 
#    z 0.000000 0.000000 3.177920 
# 
# 
# High freq. dielectric constant tensor:
#      x y z
#    x 1.670730 0.000000 0.000000 
#    y 0.000000 1.648270 0.000000 
#    z 0.000000 0.000000 1.659930 
# 
# From -- ./inp_files/25050.got.cif
#   From: 2010.03.12/outbox.cif.g09.slc.cpg/sg51_13_cif.got.tgz:25050.got - 2010.04.16 13:43:02.
