data_PCOD8210559
_publ_section_title
;
Structure prediction by ZEFSAII (Michael W. Deem and Ramdas Pophale) SiO2 
 PCOD8210559
Probable space group: P M M A
;
_chemical_formula_sum "Si O2"
_cell_formula_units_Z 64
_cell_length_a 15.761585
_cell_length_b 9.200017
_cell_length_c 22.424513
_cell_angle_alpha 90.000000
_cell_angle_beta 90.000000
_cell_angle_gamma 90.000000
_cell_volume 3251.707992
_symmetry_space_group_name_H-M "P M M A"
_symmetry_group_IT_number 51
_symmetry_cell_setting 'orthorhombic'
loop_
_space_group_symop_operation_xyz
x,y,z
1/2-x,-y,z
1/2+x,-y,-z
-x,y,-z
-x,-y,-z
1/2+x,y,-z
1/2-x,y,z
x,-y,z
loop_
_atom_site_type_symbol
_atom_site_label
_atom_site_fract_x
_atom_site_fract_y
_atom_site_fract_z
Si Si1 0.653295 0.840410 0.756041
Si Si2 0.109171 0.334871 0.129447
Si Si3 0.992219 0.169101 0.569795
Si Si4 0.654366 0.173026 0.357110
Si Si5 0.652268 0.334289 0.998548
Si Si6 0.413262 0.336523 0.880081
Si Si7 0.651826 0.843130 0.227200
Si Si8 0.150189 0.328504 0.359014
O O1 0.750000 0.866312 0.740400
O O2 0.648799 0.763367 0.819729
O O3 0.616630 0.738645 0.703709
O O4 0.607911 0.000000 0.757378
O O5 0.145253 0.500000 0.134323
O O6 0.132531 0.261527 0.065491
O O7 0.009718 0.333020 0.138500
O O8 0.081021 0.228282 0.597965
O O9 0.000000 0.193605 0.500000
O O10 0.909440 0.258445 0.590578
O O11 0.977950 0.000000 0.586068
O O12 0.750000 0.233132 0.373347
O O13 0.623558 0.224972 0.290903
O O14 0.658919 0.000000 0.358100
O O15 0.750000 0.319818 0.014729
O O16 0.621342 0.500000 0.991056
O O17 0.601612 0.263058 0.054467
O O18 0.377553 0.500000 0.884256
O O19 0.362540 0.259758 0.828284
O O20 0.750000 0.871742 0.233937
O O21 0.606683 0.000000 0.215968
O O22 0.250000 0.294534 0.371922
O O23 0.134981 0.500000 0.356319
#
# Coordination Sequence:
#
# PCOD8210559 Si02
#       8
#     8   8   8   8   8   8   8   8
#     4  10  21  37  57  81 108 140 182 232 282 331
#     4  10  20  33  51  77 107 139 175 217 272 336
#     4  10  21  36  59  92 123 154 195 240 285 336
#     4   8  16  33  55  79 111 151 190 229 279 338
#     4   9  17  31  51  71  97 138 180 219 265 320
#     4  10  20  32  49  76 106 134 172 222 271 321
#     4   9  18  33  52  73  99 136 180 222 270 327
#     4  10  22  40  61  85 118 159 199 241 290 343
#
# _framework density 19.681961999999999
#
# number of rings (size 3 to 8) (size 9 to 14) (size 15 to 20)
#    0.000    2.500    0.000    2.625    1.750    5.500 
#    0.000    1.875    0.000    4.875    0.000    0.000 
#    0.000    0.000    0.000    0.000    0.000    0.000 
#
# Total GULP energy -793093.972954 kJ/mol
# GULP energy per Si atom -12392.093327 kJ/mol
# Density = 1.963717 g / cm^3
# Si number density = 19.681962 Si / 1000 Ang^3
#
#
#
# Elastic Constant Matrix: (Units=GPa)
#
#
# Indices 1 2 3 4 5 6 
#
# 1 65.9106 30.7025 43.3204 0.0000 0.0000 0.0000
# 2 30.7025 76.8247 52.5526 0.0000 0.0000 0.0000
# 3 43.3204 52.5526 146.7099 0.0000 0.0000 0.0000
# 4 0.0000 0.0000 0.0000 26.2551 0.0000 0.0000
# 5 0.0000 0.0000 0.0000 0.0000 36.0918 0.0000
# 6 0.0000 0.0000 0.0000 0.0000 0.0000 20.2803
#
#
#
# Elastic Compliance Matrix: (Units=1/GPa)
#
#
# Indices 1 2 3 4 5 6 
#
# 1 0.020349 -0.005327 -0.004100 0.000000 0.000000 0.000000
# 2 -0.005327 0.018636 -0.005103 0.000000 0.000000 0.000000
# 3 -0.004100 -0.005103 0.009855 0.000000 0.000000 0.000000
# 4 0.000000 0.000000 0.000000 0.038088 0.000000 0.000000
# 5 0.000000 0.000000 0.000000 0.000000 0.027707 0.000000
# 6 0.000000 0.000000 0.000000 0.000000 0.000000 0.049309
#
#
# Mechanical properties :
#
#
# Convention : Reuss Voigt Hill
#
# Bulk Modulus (GPa) = 50.55843 60.28846 55.42345
# Shear Modulus (GPa) = 25.05052 27.38341 26.21696
#
# Velocity S-wave (km/s) = 3.57145 3.73405 3.65366
# Velocity P-wave (km/s) = 6.53839 7.02059 6.78377
#
# Compressibility (1/GPa) = 0.01977909
#
# Stress axis : x y z
#
# Youngs Moduli (GPa) = 49.14349 53.65913 101.47496
#
# Poissons Ratio (x) = 0.28586 0.41607
# Poissons Ratio (y) = 0.26181 0.51778
# Poissons Ratio (z) = 0.20150 0.27380
#
# Static dielectric constant tensor:
#      x y z
#    x 3.580780 0.000000 0.000000 
#    y 0.000000 3.403270 0.000000 
#    z 0.000000 0.000000 3.731960 
# 
# 
# High freq. dielectric constant tensor:
#      x y z
#    x 1.768340 0.000000 0.000000 
#    y 0.000000 1.726770 0.000000 
#    z 0.000000 0.000000 1.777210 
# 
# From -- ./inp_files/35782.got.cif
#   From: 2010.03.12/outbox.cif.g09.slc.cpg/sg51_18_cif.got.tgz:35782.got - 2010.04.16 13:43:02.
