data_PCOD8210604
_publ_section_title
;
Structure prediction by ZEFSAII (Michael W. Deem and Ramdas Pophale) SiO2 
 PCOD8210604
Probable space group: P M M A
;
_chemical_formula_sum "Si O2"
_cell_formula_units_Z 48
_cell_length_a 7.691445
_cell_length_b 9.301245
_cell_length_c 34.280556
_cell_angle_alpha 90.000000
_cell_angle_beta 90.000000
_cell_angle_gamma 90.000000
_cell_volume 2452.431468
_symmetry_space_group_name_H-M "P M M A"
_symmetry_group_IT_number 51
_symmetry_cell_setting 'orthorhombic'
loop_
_space_group_symop_operation_xyz
x,y,z
1/2-x,-y,z
1/2+x,-y,-z
-x,y,-z
-x,-y,-z
1/2+x,y,-z
1/2-x,y,z
x,-y,z
loop_
_atom_site_type_symbol
_atom_site_label
_atom_site_fract_x
_atom_site_fract_y
_atom_site_fract_z
Si Si1 0.555792 0.829067 0.457829
Si Si2 0.449167 0.666330 0.737293
Si Si3 0.449158 0.658273 0.884471
Si Si4 0.250000 0.333655 0.322136
Si Si5 0.543576 0.839122 0.186687
Si Si6 0.750000 0.829081 0.597555
Si Si7 0.546766 0.837800 0.957137
O O1 0.500000 0.767408 0.500000
O O2 0.750000 0.774405 0.447346
O O3 0.421173 0.773585 0.425274
O O4 0.550929 0.000000 0.459577
O O5 0.250000 0.703113 0.725349
O O6 0.466909 0.500000 0.749210
O O7 0.575652 0.704706 0.701691
O O8 0.512813 0.758659 0.774029
O O9 0.250000 0.637689 0.873075
O O10 0.538164 0.500000 0.886314
O O11 0.537124 0.754962 0.850570
O O12 0.458072 0.734520 0.926133
O O13 0.250000 0.500000 0.334276
O O14 0.250000 0.236482 0.359932
O O15 0.750000 0.845743 0.183522
O O16 0.465430 0.000000 0.187042
O O17 0.750000 0.000000 0.601142
O O18 0.750000 0.834722 0.950025
O O19 0.473137 0.000000 0.952261
O O20 0.500000 0.779191 0.000000
#
# Coordination Sequence:
#
# PCOD8210604 Si02
#       7
#     8   8   8   4   8   4   8
#     4   9  15  26  47  76 107 138 175 222 274 322
#     4   9  18  35  57  77 101 138 182 222 265 322
#     4  10  20  34  54  80 109 141 176 214 258 315
#     4  10  22  38  54  76 108 146 184 222 270 328
#     4   9  17  31  54  82 108 135 169 213 265 315
#     4  10  20  32  50  78 108 138 178 228 272 318
#     4  10  21  37  56  77 102 135 175 218 266 317
#
# _framework density 19.572413000000001
#
# number of rings (size 3 to 8) (size 9 to 14) (size 15 to 20)
#    0.000    2.500    0.833    1.500    0.000    5.667 
#    1.500    0.000    0.000    0.500    0.000    0.000 
#    0.000    0.000    0.000    0.000    0.000    0.000 
#
# Total GULP energy -595142.519837 kJ/mol
# GULP energy per Si atom -12398.802497 kJ/mol
# Density = 1.952787 g / cm^3
# Si number density = 19.572413 Si / 1000 Ang^3
#
#
#
# Elastic Constant Matrix: (Units=GPa)
#
#
# Indices 1 2 3 4 5 6 
#
# 1 92.6814 29.4752 51.9487 0.0000 0.0000 0.0000
# 2 29.4752 100.4646 77.4842 0.0000 0.0000 0.0000
# 3 51.9487 77.4842 167.2133 0.0000 0.0000 0.0000
# 4 0.0000 0.0000 0.0000 20.6133 0.0000 0.0000
# 5 0.0000 0.0000 0.0000 0.0000 25.1344 0.0000
# 6 0.0000 0.0000 0.0000 0.0000 0.0000 10.9094
#
#
#
# Elastic Compliance Matrix: (Units=1/GPa)
#
#
# Indices 1 2 3 4 5 6 
#
# 1 0.013142 -0.001100 -0.003573 0.000000 0.000000 0.000000
# 2 -0.001100 0.015582 -0.006879 0.000000 0.000000 0.000000
# 3 -0.003573 -0.006879 0.010278 0.000000 0.000000 0.000000
# 4 0.000000 0.000000 0.000000 0.048512 0.000000 0.000000
# 5 0.000000 0.000000 0.000000 0.000000 0.039786 0.000000
# 6 0.000000 0.000000 0.000000 0.000000 0.000000 0.091664
#
#
# Mechanical properties :
#
#
# Convention : Reuss Voigt Hill
#
# Bulk Modulus (GPa) = 62.89958 75.35282 69.12620
# Shear Modulus (GPa) = 20.21287 24.76151 22.48719
#
# Velocity S-wave (km/s) = 3.21709 3.56072 3.39325
# Velocity P-wave (km/s) = 6.78278 7.44903 7.12370
#
# Compressibility (1/GPa) = 0.01589836
#
# Stress axis : x y z
#
# Youngs Moduli (GPa) = 76.09014 64.17825 97.29567
#
# Poissons Ratio (x) = 0.07059 0.34767
# Poissons Ratio (y) = 0.08369 0.66926
# Poissons Ratio (z) = 0.27189 0.44146
#
# Static dielectric constant tensor:
#      x y z
#    x 3.545460 0.000000 0.000000 
#    y 0.000000 3.534740 0.000000 
#    z 0.000000 0.000000 3.471260 
# 
# 
# High freq. dielectric constant tensor:
#      x y z
#    x 1.758940 0.000000 0.000000 
#    y 0.000000 1.742030 0.000000 
#    z 0.000000 0.000000 1.759470 
# 
# From -- ./inp_files/37077.got.cif
#   From: 2010.03.12/outbox.cif.g09.slc.cpg/sg51_19_cif.got.tgz:37077.got - 2010.04.16 13:43:02.
