data_PCOD8210782
_publ_section_title
;
Structure prediction by ZEFSAII (Michael W. Deem and Ramdas Pophale) SiO2 
 PCOD8210782
Probable space group: P M M A
;
_chemical_formula_sum "Si O2"
_cell_formula_units_Z 48
_cell_length_a 9.253822
_cell_length_b 7.818538
_cell_length_c 34.572886
_cell_angle_alpha 90.000000
_cell_angle_beta 90.000000
_cell_angle_gamma 90.000000
_cell_volume 2501.395285
_symmetry_space_group_name_H-M "P M M A"
_symmetry_group_IT_number 51
_symmetry_cell_setting 'orthorhombic'
loop_
_space_group_symop_operation_xyz
x,y,z
1/2-x,-y,z
1/2+x,-y,-z
-x,y,-z
-x,-y,-z
1/2+x,y,-z
1/2-x,y,z
x,-y,z
loop_
_atom_site_type_symbol
_atom_site_label
_atom_site_fract_x
_atom_site_fract_y
_atom_site_fract_z
Si Si1 0.918061 0.693636 0.539078
Si Si2 0.080464 0.000000 0.405279
Si Si3 0.578895 0.310997 0.272813
Si Si4 0.912322 0.298672 0.110022
Si Si5 0.422297 0.000000 0.675387
Si Si6 0.085779 0.199127 0.808036
Si Si7 0.412947 0.295982 0.037084
O O1 0.750000 0.712117 0.529748
O O2 0.955939 0.500000 0.552938
O O3 0.000000 0.740786 0.500000
O O4 0.964857 0.828901 0.571636
O O5 0.990216 0.000000 0.366508
O O6 0.250000 0.000000 0.395821
O O7 0.750000 0.286023 0.269564
O O8 0.537445 0.500000 0.288348
O O9 0.512938 0.288445 0.229469
O O10 0.519309 0.168206 0.302178
O O11 0.750000 0.220421 0.106876
O O12 0.904248 0.500000 0.105897
O O13 0.987794 0.248998 0.151085
O O14 0.010037 0.222892 0.075610
O O15 0.250000 0.000000 0.671536
O O16 0.250000 0.264308 0.811646
O O17 0.076154 0.000000 0.800072
O O18 0.250000 0.224519 0.035441
O O19 0.411941 0.500000 0.037374
O O20 0.500000 0.227013 0.000000
#
# Coordination Sequence:
#
# PCOD8210782 Si02
#       7
#     8   4   8   8   4   8   8
#     4   9  18  33  53  77 104 135 173 216 260 306
#     4  10  21  35  51  72 104 142 174 207 255 310
#     4   9  16  28  47  71 100 130 161 205 258 300
#     4   9  16  25  40  65  91 113 143 182 226 279
#     4  10  20  33  49  74 103 132 173 219 254 294
#     4   9  15  25  43  67  94 120 149 190 239 289
#     4   9  16  26  41  61  87 118 149 184 226 272
#
# _framework density 19.189291000000001
#
# number of rings (size 3 to 8) (size 9 to 14) (size 15 to 20)
#    0.000    2.833    0.833    1.250    0.000    5.333 
#    0.000    0.000    0.000    2.000    0.000    0.000 
#    0.000    0.000    0.000    0.000    0.000    0.000 
#
# Total GULP energy -594964.254751 kJ/mol
# GULP energy per Si atom -12395.088641 kJ/mol
# Density = 1.914562 g / cm^3
# Si number density = 19.189291 Si / 1000 Ang^3
#
#
#
# Elastic Constant Matrix: (Units=GPa)
#
#
# Indices 1 2 3 4 5 6 
#
# 1 57.2008 26.0853 53.7408 0.0000 0.0000 0.0000
# 2 26.0853 98.3144 73.3661 0.0000 0.0000 0.0000
# 3 53.7408 73.3661 183.7427 0.0000 0.0000 0.0000
# 4 0.0000 0.0000 0.0000 22.8205 0.0000 0.0000
# 5 0.0000 0.0000 0.0000 0.0000 26.5877 0.0000
# 6 0.0000 0.0000 0.0000 0.0000 0.0000 7.4643
#
#
#
# Elastic Compliance Matrix: (Units=1/GPa)
#
#
# Indices 1 2 3 4 5 6 
#
# 1 0.024288 -0.001628 -0.006454 0.000000 0.000000 0.000000
# 2 -0.001628 0.014598 -0.005352 0.000000 0.000000 0.000000
# 3 -0.006454 -0.005352 0.009467 0.000000 0.000000 0.000000
# 4 0.000000 0.000000 0.000000 0.043820 0.000000 0.000000
# 5 0.000000 0.000000 0.000000 0.000000 0.037611 0.000000
# 6 0.000000 0.000000 0.000000 0.000000 0.000000 0.133971
#
#
# Mechanical properties :
#
#
# Convention : Reuss Voigt Hill
#
# Bulk Modulus (GPa) = 46.54592 71.73802 59.14197
# Shear Modulus (GPa) = 16.79063 23.77889 20.28476
#
# Velocity S-wave (km/s) = 2.96125 3.52401 3.25482
# Velocity P-wave (km/s) = 6.00007 7.35009 6.70912
#
# Compressibility (1/GPa) = 0.02148416
#
# Stress axis : x y z
#
# Youngs Moduli (GPa) = 41.17261 68.50411 105.62946
#
# Poissons Ratio (x) = 0.11155 0.68168
# Poissons Ratio (y) = 0.06704 0.56537
# Poissons Ratio (z) = 0.26571 0.36666
#
# Static dielectric constant tensor:
#      x y z
#    x 3.260290 0.000000 0.000000 
#    y 0.000000 3.460600 0.000000 
#    z 0.000000 0.000000 3.606250 
# 
# 
# High freq. dielectric constant tensor:
#      x y z
#    x 1.693490 0.000000 0.000000 
#    y 0.000000 1.743650 0.000000 
#    z 0.000000 0.000000 1.753030 
# 
# From -- ./inp_files/37222.got.cif
#   From: 2010.03.12/outbox.cif.g09.slc.cpg/sg51_19_cif.got.tgz:37222.got - 2010.04.16 13:43:02.
