data_PCOD8210457
_publ_section_title
;
Structure prediction by ZEFSAII (Michael W. Deem and Ramdas Pophale) SiO2 
 PCOD8210457
Probable space group: P M M A
;
_chemical_formula_sum "Si O2"
_cell_formula_units_Z 44
_cell_length_a 9.997408
_cell_length_b 26.658656
_cell_length_c 9.300411
_cell_angle_alpha 90.000000
_cell_angle_beta 90.000000
_cell_angle_gamma 90.000000
_cell_volume 2478.721924
_symmetry_space_group_name_H-M "P M M A"
_symmetry_group_IT_number 51
_symmetry_cell_setting 'orthorhombic'
loop_
_space_group_symop_operation_xyz
x,y,z
1/2-x,-y,z
1/2+x,-y,-z
-x,y,-z
-x,-y,-z
1/2+x,y,-z
1/2-x,y,z
x,-y,z
loop_
_atom_site_type_symbol
_atom_site_label
_atom_site_fract_x
_atom_site_fract_y
_atom_site_fract_z
Si Si1 0.595821 0.000000 0.136190
Si Si2 0.596403 0.080988 0.371727
Si Si3 0.250000 0.442256 0.180118
Si Si4 0.599093 0.803990 0.376511
Si Si5 0.750000 0.555478 0.163303
Si Si6 0.907174 0.723049 0.136221
Si Si7 0.995511 0.382763 0.171424
O O1 0.564174 0.049251 0.229941
O O2 0.750000 0.000000 0.084586
O O3 0.500000 0.000000 0.000000
O O4 0.500000 0.062885 0.500000
O O5 0.750000 0.072324 0.420549
O O6 0.567770 0.138804 0.333022
O O7 0.250000 0.500000 0.239296
O O8 0.373773 0.409117 0.237073
O O9 0.250000 0.444745 0.008784
O O10 0.500000 0.784968 0.500000
O O11 0.750000 0.798522 0.435314
O O12 0.577517 0.770994 0.236099
O O13 0.750000 0.500000 0.225533
O O14 0.622684 0.582755 0.228436
O O15 0.750000 0.713794 0.093650
O O16 0.967269 0.674458 0.220349
O O17 0.000000 0.734463 0.000000
O O18 0.000000 0.381974 0.000000
#
# Coordination Sequence:
#
# PCOD8210457 Si02
#       7
#     4   8   4   8   4   8   8
#     4  10  21  34  50  78 112 144 173 210 252 298
#     4   9  18  34  55  76 102 134 173 215 256 297
#     4   9  16  24  36  56  85 121 157 194 235 288
#     4   9  19  36  54  75 101 131 169 215 255 297
#     4   9  14  22  36  54  81 119 155 188 231 288
#     4  10  20  32  48  70  99 131 164 202 250 303
#     4   9  16  25  37  57  87 120 155 193 239 290
#
# _framework density 17.751083999999999
#
# number of rings (size 3 to 8) (size 9 to 14) (size 15 to 20)
#    0.000    2.727    0.909    0.818    3.818    4.364 
#    0.000    0.000    0.000    0.000    0.000    0.000 
#    0.000    4.364    0.000    0.000    0.000    0.000 
#
# Total GULP energy -545368.703958 kJ/mol
# GULP energy per Si atom -12394.743272 kJ/mol
# Density = 1.771068 g / cm^3
# Si number density = 17.751084 Si / 1000 Ang^3
#
#
#
# Elastic Constant Matrix: (Units=GPa)
#
#
# Indices 1 2 3 4 5 6 
#
# 1 144.0864 64.4709 57.2719 0.0000 0.0000 0.0000
# 2 64.4709 111.5782 46.0284 0.0000 0.0000 0.0000
# 3 57.2719 46.0284 64.7337 0.0000 0.0000 0.0000
# 4 0.0000 0.0000 0.0000 3.7405 0.0000 0.0000
# 5 0.0000 0.0000 0.0000 0.0000 15.1954 0.0000
# 6 0.0000 0.0000 0.0000 0.0000 0.0000 30.7462
#
#
#
# Elastic Compliance Matrix: (Units=1/GPa)
#
#
# Indices 1 2 3 4 5 6 
#
# 1 0.011592 -0.003491 -0.007774 0.000000 0.000000 0.000000
# 2 -0.003491 0.013734 -0.006676 0.000000 0.000000 0.000000
# 3 -0.007774 -0.006676 0.027073 0.000000 0.000000 0.000000
# 4 0.000000 0.000000 0.000000 0.267347 0.000000 0.000000
# 5 0.000000 0.000000 0.000000 0.000000 0.065809 0.000000
# 6 0.000000 0.000000 0.000000 0.000000 0.000000 0.032524
#
#
# Mechanical properties :
#
#
# Convention : Reuss Voigt Hill
#
# Bulk Modulus (GPa) = 60.54707 72.88231 66.71469
# Shear Modulus (GPa) = 10.88216 20.11157 15.49686
#
# Velocity S-wave (km/s) = 2.47865 3.36962 2.95788
# Velocity P-wave (km/s) = 6.50958 7.50242 7.02356
#
# Compressibility (1/GPa) = 0.01651608
#
# Stress axis : x y z
#
# Youngs Moduli (GPa) = 86.26366 72.81292 36.93768
#
# Poissons Ratio (x) = 0.25422 0.28714
# Poissons Ratio (y) = 0.30118 0.24661
# Poissons Ratio (z) = 0.67058 0.48613
#
# Static dielectric constant tensor:
#      x y z
#    x 3.500620 0.000000 0.000000 
#    y 0.000000 3.561400 0.000000 
#    z 0.000000 0.000000 2.693520 
# 
# 
# High freq. dielectric constant tensor:
#      x y z
#    x 1.702650 0.000000 0.000000 
#    y 0.000000 1.706770 0.000000 
#    z 0.000000 0.000000 1.623550 
# 
# From -- ./inp_files/5913.got.cif
#   From: 2010.03.12/outbox.cif.g09.slc.cpg/sg51_3_cif.got.tgz:5913.got - 2010.04.16 13:43:02.
