data_PCOD8210344
_publ_section_title
;
Structure prediction by ZEFSAII (Michael W. Deem and Ramdas Pophale) SiO2 
 PCOD8210344
Probable space group: P M M A
;
_chemical_formula_sum "Si O2"
_cell_formula_units_Z 52
_cell_length_a 8.774758
_cell_length_b 12.242278
_cell_length_c 27.028962
_cell_angle_alpha 90.000000
_cell_angle_beta 90.000000
_cell_angle_gamma 90.000000
_cell_volume 2903.532910
_symmetry_space_group_name_H-M "P M M A"
_symmetry_group_IT_number 51
_symmetry_cell_setting 'orthorhombic'
loop_
_space_group_symop_operation_xyz
x,y,z
1/2-x,-y,z
1/2+x,-y,-z
-x,y,-z
-x,-y,-z
1/2+x,y,-z
1/2-x,y,z
x,-y,z
loop_
_atom_site_type_symbol
_atom_site_label
_atom_site_fract_x
_atom_site_fract_y
_atom_site_fract_z
Si Si1 0.425567 0.879735 0.821976
Si Si2 0.430823 0.500000 0.783954
Si Si3 0.570453 0.876240 0.552084
Si Si4 0.430647 0.500000 0.673108
Si Si5 0.571329 0.662204 0.134328
Si Si6 0.071522 0.266015 0.637157
Si Si7 0.575011 0.124525 0.718171
Si Si8 0.569562 0.500000 0.053682
O O1 0.250000 0.863353 0.805149
O O2 0.471039 0.790584 0.863612
O O3 0.533820 0.863341 0.775362
O O4 0.449732 0.000000 0.845256
O O5 0.250000 0.500000 0.778445
O O6 0.502560 0.500000 0.728724
O O7 0.488814 0.605491 0.815053
O O8 0.500000 0.841057 0.500000
O O9 0.750000 0.869899 0.547506
O O10 0.517400 0.789547 0.592437
O O11 0.518948 0.000000 0.566332
O O12 0.250000 0.500000 0.678063
O O13 0.483351 0.608198 0.643362
O O14 0.750000 0.641693 0.132863
O O15 0.507984 0.606029 0.084328
O O16 0.250000 0.259159 0.626267
O O17 0.035401 0.202463 0.687533
O O18 0.750000 0.159112 0.709964
O O19 0.549718 0.000000 0.700460
O O20 0.750000 0.500000 0.047648
O O21 0.500000 0.500000 0.000000
#
# Coordination Sequence:
#
# PCOD8210344 Si02
#       8
#     8   4   8   4   8   8   8   4
#     4   9  16  27  45  68  92 121 159 197 232 280
#     4   8  12  22  41  63  89 120 153 188 226 267
#     4  10  21  38  59  81 102 123 153 198 250 298
#     4   9  19  32  48  73 102 131 162 199 238 277
#     4   8  14  25  44  68  90 116 152 194 238 278
#     4  11  21  34  53  75 100 131 168 204 240 285
#     4  10  20  32  46  69 103 137 165 198 242 287
#     4   9  17  30  48  68  90 117 152 197 245 288
#
# _framework density 17.909217000000002
#
# number of rings (size 3 to 8) (size 9 to 14) (size 15 to 20)
#    0.000    2.615    0.000    3.692    0.000    6.154 
#    0.000    2.692    0.000    0.462    0.000    0.000 
#    0.000    0.000    0.000    0.000    0.000    0.000 
#
# Total GULP energy -644515.300135 kJ/mol
# GULP energy per Si atom -12394.525003 kJ/mol
# Density = 1.786845 g / cm^3
# Si number density = 17.909217 Si / 1000 Ang^3
#
#
#
# Elastic Constant Matrix: (Units=GPa)
#
#
# Indices 1 2 3 4 5 6 
#
# 1 36.3100 26.1799 20.8858 0.0000 0.0000 0.0000
# 2 26.1799 149.2542 75.7560 0.0000 0.0000 0.0000
# 3 20.8858 75.7560 116.1092 0.0000 0.0000 0.0000
# 4 0.0000 0.0000 0.0000 19.7574 0.0000 0.0000
# 5 0.0000 0.0000 0.0000 0.0000 25.1288 0.0000
# 6 0.0000 0.0000 0.0000 0.0000 0.0000 15.1091
#
#
#
# Elastic Compliance Matrix: (Units=1/GPa)
#
#
# Indices 1 2 3 4 5 6 
#
# 1 0.032285 -0.004060 -0.003159 0.000000 0.000000 0.000000
# 2 -0.004060 0.010528 -0.006139 0.000000 0.000000 0.000000
# 3 -0.003159 -0.006139 0.013186 0.000000 0.000000 0.000000
# 4 0.000000 0.000000 0.000000 0.050614 0.000000 0.000000
# 5 0.000000 0.000000 0.000000 0.000000 0.039795 0.000000
# 6 0.000000 0.000000 0.000000 0.000000 0.000000 0.066185
#
#
# Mechanical properties :
#
#
# Convention : Reuss Voigt Hill
#
# Bulk Modulus (GPa) = 34.14786 60.81299 47.48043
# Shear Modulus (GPa) = 20.07483 23.92250 21.99866
#
# Velocity S-wave (km/s) = 3.35165 3.65878 3.50857
# Velocity P-wave (km/s) = 5.83838 7.20270 6.55612
#
# Compressibility (1/GPa) = 0.02928441
#
# Stress axis : x y z
#
# Youngs Moduli (GPa) = 30.97458 94.98624 75.83825
#
# Poissons Ratio (x) = 0.38561 0.23954
# Poissons Ratio (y) = 0.12575 0.46555
# Poissons Ratio (z) = 0.09784 0.58309
#
# Static dielectric constant tensor:
#      x y z
#    x 3.070440 0.000000 0.000000 
#    y 0.000000 3.650980 0.000000 
#    z 0.000000 0.000000 3.355780 
# 
# 
# High freq. dielectric constant tensor:
#      x y z
#    x 1.667300 0.000000 0.000000 
#    y 0.000000 1.701100 0.000000 
#    z 0.000000 0.000000 1.671280 
# 
# From -- ./inp_files/36290.got.cif
#   From: 2010.03.12/outbox.cif.g09.slc.cpg/sg51_19_cif.got.tgz:36290.got - 2010.04.16 13:43:02.
