data_PCOD8210764
_publ_section_title
;
Structure prediction by ZEFSAII (Michael W. Deem and Ramdas Pophale) SiO2 
 PCOD8210764
Probable space group: P M M A
;
_chemical_formula_sum "Si O2"
_cell_formula_units_Z 44
_cell_length_a 9.170988
_cell_length_b 7.799082
_cell_length_c 30.332028
_cell_angle_alpha 90.000000
_cell_angle_beta 90.000000
_cell_angle_gamma 90.000000
_cell_volume 2169.507021
_symmetry_space_group_name_H-M "P M M A"
_symmetry_group_IT_number 51
_symmetry_cell_setting 'orthorhombic'
loop_
_space_group_symop_operation_xyz
x,y,z
1/2-x,-y,z
1/2+x,-y,-z
-x,y,-z
-x,-y,-z
1/2+x,y,-z
1/2-x,y,z
x,-y,z
loop_
_atom_site_type_symbol
_atom_site_label
_atom_site_fract_x
_atom_site_fract_y
_atom_site_fract_z
Si Si1 0.412808 0.796935 0.287415
Si Si2 0.423473 0.809027 0.892560
Si Si3 0.912377 0.700768 0.373481
Si Si4 0.076301 0.500000 0.953360
Si Si5 0.914595 0.704527 0.542773
Si Si6 0.588225 0.797141 0.204741
O O1 0.250000 0.721051 0.292336
O O2 0.509477 0.738596 0.327938
O O3 0.482958 0.721540 0.242482
O O4 0.407485 0.000000 0.285352
O O5 0.250000 0.814497 0.891364
O O6 0.478796 0.669696 0.927712
O O7 0.476765 0.752596 0.843668
O O8 0.482932 0.000000 0.904996
O O9 0.750000 0.782321 0.372989
O O10 0.899452 0.500000 0.380774
O O11 0.005113 0.779282 0.413892
O O12 0.250000 0.500000 0.958912
O O13 0.000000 0.500000 0.000000
O O14 0.750000 0.776505 0.541906
O O15 0.912545 0.500000 0.543344
O O16 0.000000 0.773000 0.500000
O O17 0.750000 0.716926 0.210733
O O18 0.599921 0.000000 0.209323
#
# Coordination Sequence:
#
# PCOD8210764 Si02
#       6
#     8   8   8   4   8   8
#     4  10  20  33  50  73 102 135 166 199 249 310
#     4   8  15  30  52  75 100 134 175 217 261 309
#     4  10  20  33  49  71  98 128 166 210 251 296
#     4  10  20  34  52  76 106 138 174 218 263 314
#     4   9  16  27  45  68  94 125 161 204 253 304
#     4   8  14  28  50  71  92 123 164 205 242 288
#
# _framework density 20.281105
#
# number of rings (size 3 to 8) (size 9 to 14) (size 15 to 20)
#    0.000    2.909    0.000    2.727    0.000    4.727 
#    1.636    0.909    0.000    1.636    0.000    0.000 
#    0.000    0.000    0.000    0.000    0.000    0.000 
#
# Total GULP energy -545410.906463 kJ/mol
# GULP energy per Si atom -12395.702420 kJ/mol
# Density = 2.023494 g / cm^3
# Si number density = 20.281105 Si / 1000 Ang^3
#
#
#
# Elastic Constant Matrix: (Units=GPa)
#
#
# Indices 1 2 3 4 5 6 
#
# 1 143.5031 21.3894 85.0851 0.0000 0.0000 0.0000
# 2 21.3894 48.0459 40.8355 0.0000 0.0000 0.0000
# 3 85.0851 40.8355 199.3187 0.0000 0.0000 0.0000
# 4 0.0000 0.0000 0.0000 35.3518 0.0000 0.0000
# 5 0.0000 0.0000 0.0000 0.0000 40.1524 0.0000
# 6 0.0000 0.0000 0.0000 0.0000 0.0000 11.0477
#
#
#
# Elastic Compliance Matrix: (Units=1/GPa)
#
#
# Indices 1 2 3 4 5 6 
#
# 1 0.009364 -0.000934 -0.003806 0.000000 0.000000 0.000000
# 2 -0.000934 0.025295 -0.004784 0.000000 0.000000 0.000000
# 3 -0.003806 -0.004784 0.007622 0.000000 0.000000 0.000000
# 4 0.000000 0.000000 0.000000 0.028287 0.000000 0.000000
# 5 0.000000 0.000000 0.000000 0.000000 0.024905 0.000000
# 6 0.000000 0.000000 0.000000 0.000000 0.000000 0.090517
#
#
# Mechanical properties :
#
#
# Convention : Reuss Voigt Hill
#
# Bulk Modulus (GPa) = 43.04073 76.16528 59.60301
# Shear Modulus (GPa) = 23.49818 33.54755 28.52286
#
# Velocity S-wave (km/s) = 3.40755 4.07151 3.75424
# Velocity P-wave (km/s) = 6.06218 7.72912 6.94584
#
# Compressibility (1/GPa) = 0.02323381
#
# Stress axis : x y z
#
# Youngs Moduli (GPa) = 106.78730 39.53360 131.20111
#
# Poissons Ratio (x) = 0.03692 0.49937
# Poissons Ratio (y) = 0.09974 0.62761
# Poissons Ratio (z) = 0.40645 0.18911
#
# Static dielectric constant tensor:
#      x y z
#    x 3.936580 0.000000 0.000000 
#    y 0.000000 3.518930 0.000000 
#    z 0.000000 0.000000 3.884040 
# 
# 
# High freq. dielectric constant tensor:
#      x y z
#    x 1.775280 0.000000 0.000000 
#    y 0.000000 1.761900 0.000000 
#    z 0.000000 0.000000 1.800590 
# 
# From -- ./inp_files/36831.got.cif
#   From: 2010.03.12/outbox.cif.g09.slc.cpg/sg51_19_cif.got.tgz:36831.got - 2010.04.16 13:43:02.
