data_PCOD8210111
_publ_section_title
;
Structure prediction by ZEFSAII (Michael W. Deem and Ramdas Pophale) SiO2 
 PCOD8210111
Probable space group: P M M A
;
_chemical_formula_sum "Si O2"
_cell_formula_units_Z 64
_cell_length_a 8.804872
_cell_length_b 23.461928
_cell_length_c 15.433951
_cell_angle_alpha 90.000000
_cell_angle_beta 90.000000
_cell_angle_gamma 90.000000
_cell_volume 3188.334376
_symmetry_space_group_name_H-M "P M M A"
_symmetry_group_IT_number 51
_symmetry_cell_setting 'orthorhombic'
loop_
_space_group_symop_operation_xyz
x,y,z
1/2-x,-y,z
1/2+x,-y,-z
-x,y,-z
-x,-y,-z
1/2+x,y,-z
1/2-x,y,z
x,-y,z
loop_
_atom_site_type_symbol
_atom_site_label
_atom_site_fract_x
_atom_site_fract_y
_atom_site_fract_z
Si Si1 0.930088 0.866042 0.089549
Si Si2 0.575938 0.932841 0.754561
Si Si3 0.571405 0.876342 0.409411
Si Si4 0.571987 0.749532 0.352767
Si Si5 0.071135 0.362757 0.412903
Si Si6 0.574264 0.434113 0.751569
Si Si7 0.070453 0.374420 0.910034
Si Si8 0.069962 0.746082 0.843301
O O1 0.750000 0.868903 0.084505
O O2 0.989116 0.801439 0.105388
O O3 0.983585 0.905745 0.166948
O O4 0.000000 0.888691 0.000000
O O5 0.750000 0.912385 0.758348
O O6 0.503386 0.914348 0.664367
O O7 0.562446 0.000000 0.763619
O O8 0.500000 0.895898 0.500000
O O9 0.750000 0.887888 0.409559
O O10 0.533978 0.810256 0.393915
O O11 0.750000 0.735270 0.356854
O O12 0.480849 0.702592 0.406295
O O13 0.509494 0.748967 0.254707
O O14 0.250000 0.366471 0.420686
O O15 0.012380 0.398307 0.330178
O O16 0.000000 0.389667 0.500000
O O17 0.750000 0.420203 0.769887
O O18 0.548763 0.500000 0.730017
O O19 0.478167 0.418026 0.835726
O O20 0.250000 0.374705 0.917951
O O21 0.007260 0.311034 0.888658
O O22 0.000000 0.395581 0.000000
O O23 0.250000 0.745908 0.841225
#
# Coordination Sequence:
#
# PCOD8210111 Si02
#       8
#     8   8   8   8   8   8   8   8
#     4  11  22  40  64  93 125 160 199 244 299 358
#     4  11  25  44  64  88 119 158 206 255 301 352
#     4  11  23  40  64  92 124 160 199 244 299 358
#     4  10  19  37  62  90 123 157 194 240 294 355
#     4  11  23  38  60  90 120 156 197 242 298 355
#     4  10  23  43  62  83 115 154 201 252 296 345
#     4  11  22  38  62  90 122 156 194 240 293 354
#     4   9  18  35  60  90 123 156 191 237 294 353
#
# _framework density 20.073176
#
# number of rings (size 3 to 8) (size 9 to 14) (size 15 to 20)
#    0.000    1.500    2.500    2.625    0.000    4.750 
#    0.000    1.875    0.000    0.000    0.000    0.000 
#    0.000    0.000    0.000    0.000    0.000    0.000 
#
# Total GULP energy -793938.900557 kJ/mol
# GULP energy per Si atom -12405.295321 kJ/mol
# Density = 2.002749 g / cm^3
# Si number density = 20.073176 Si / 1000 Ang^3
#
#
#
# Elastic Constant Matrix: (Units=GPa)
#
#
# Indices 1 2 3 4 5 6 
#
# 1 72.3906 24.0618 33.8840 0.0000 0.0000 0.0000
# 2 24.0618 63.6443 15.0047 0.0000 0.0000 0.0000
# 3 33.8840 15.0047 138.4823 0.0000 0.0000 0.0000
# 4 0.0000 0.0000 0.0000 8.4959 0.0000 0.0000
# 5 0.0000 0.0000 0.0000 0.0000 31.4733 0.0000
# 6 0.0000 0.0000 0.0000 0.0000 0.0000 25.2571
#
#
#
# Elastic Compliance Matrix: (Units=1/GPa)
#
#
# Indices 1 2 3 4 5 6 
#
# 1 0.017423 -0.005728 -0.003642 0.000000 0.000000 0.000000
# 2 -0.005728 0.018008 -0.000550 0.000000 0.000000 0.000000
# 3 -0.003642 -0.000550 0.008172 0.000000 0.000000 0.000000
# 4 0.000000 0.000000 0.000000 0.117704 0.000000 0.000000
# 5 0.000000 0.000000 0.000000 0.000000 0.031773 0.000000
# 6 0.000000 0.000000 0.000000 0.000000 0.000000 0.039593
#
#
# Mechanical properties :
#
#
# Convention : Reuss Voigt Hill
#
# Bulk Modulus (GPa) = 42.08413 46.71313 44.39863
# Shear Modulus (GPa) = 19.19878 26.48304 22.84091
#
# Velocity S-wave (km/s) = 3.09599 3.63619 3.37691
# Velocity P-wave (km/s) = 5.81301 6.39931 6.11319
#
# Compressibility (1/GPa) = 0.02376193
#
# Stress axis : x y z
#
# Youngs Moduli (GPa) = 57.39584 55.53227 122.37045
#
# Poissons Ratio (x) = 0.31810 0.44572
# Poissons Ratio (y) = 0.32878 0.06725
# Poissons Ratio (z) = 0.20906 0.03052
#
# Static dielectric constant tensor:
#      x y z
#    x 3.541530 0.000000 0.000000 
#    y 0.000000 3.639750 0.000000 
#    z 0.000000 0.000000 3.784170 
# 
# 
# High freq. dielectric constant tensor:
#      x y z
#    x 1.777080 0.000000 0.000000 
#    y 0.000000 1.779300 0.000000 
#    z 0.000000 0.000000 1.800820 
# 
# From -- ./inp_files/22257.got.cif
#   From: 2010.03.12/outbox.cif.g09.slc.cpg/sg51_12_cif.got.tgz:22257.got - 2010.04.16 13:43:02.
