data_PCOD8210583
_publ_section_title
;
Structure prediction by ZEFSAII (Michael W. Deem and Ramdas Pophale) SiO2 
 PCOD8210583
Probable space group: P M M A
;
_chemical_formula_sum "Si O2"
_cell_formula_units_Z 64
_cell_length_a 14.417326
_cell_length_b 9.300775
_cell_length_c 25.071960
_cell_angle_alpha 90.000000
_cell_angle_beta 90.000000
_cell_angle_gamma 90.000000
_cell_volume 3361.956913
_symmetry_space_group_name_H-M "P M M A"
_symmetry_group_IT_number 51
_symmetry_cell_setting 'orthorhombic'
loop_
_space_group_symop_operation_xyz
x,y,z
1/2-x,-y,z
1/2+x,-y,-z
-x,y,-z
-x,-y,-z
1/2+x,y,-z
1/2-x,y,z
x,-y,z
loop_
_atom_site_type_symbol
_atom_site_label
_atom_site_fract_x
_atom_site_fract_y
_atom_site_fract_z
Si Si1 0.463602 0.167301 0.178998
Si Si2 0.356537 0.833901 0.472094
Si Si3 0.646859 0.664071 0.421185
Si Si4 0.142571 0.670061 0.271183
Si Si5 0.395301 0.663273 0.981591
Si Si6 0.545451 0.665862 0.620496
Si Si7 0.354306 0.834844 0.875259
Si Si8 0.149178 0.159332 0.078943
O O1 0.418111 0.259520 0.225157
O O2 0.574408 0.195686 0.173724
O O3 0.421636 0.220783 0.122631
O O4 0.440677 0.000000 0.189273
O O5 0.250000 0.812957 0.455591
O O6 0.376672 0.765733 0.529391
O O7 0.418958 0.757587 0.428593
O O8 0.384614 0.000000 0.475190
O O9 0.750000 0.699806 0.397743
O O10 0.644351 0.500000 0.441876
O O11 0.566901 0.686646 0.376318
O O12 0.250000 0.721214 0.269721
O O13 0.136296 0.500000 0.264269
O O14 0.094782 0.721410 0.325977
O O15 0.361167 0.500000 0.976820
O O16 0.378397 0.736722 0.925250
O O17 0.500000 0.675362 0.000000
O O18 0.338097 0.741481 0.027494
O O19 0.571781 0.500000 0.610726
O O20 0.250000 0.802612 0.854776
O O21 0.364760 0.000000 0.893758
O O22 0.250000 0.152298 0.106704
O O23 0.116600 0.000000 0.060768
#
# Coordination Sequence:
#
# PCOD8210583 Si02
#       8
#     8   8   8   8   8   8   8   8
#     4  10  21  38  59  80 105 136 176 223 266 314
#     4  10  20  32  49  78 114 147 180 222 271 321
#     4   9  18  33  53  77 107 145 185 221 260 313
#     4  10  22  39  58  81 109 139 173 219 273 323
#     4  11  22  34  51  79 113 145 175 212 259 314
#     4  10  20  35  55  78 106 143 184 224 267 318
#     4  10  21  38  60  82 106 141 182 221 263 315
#     4  10  20  34  54  78 103 136 177 215 257 313
#
# _framework density 19.036529999999999
#
# number of rings (size 3 to 8) (size 9 to 14) (size 15 to 20)
#    0.000    2.000    1.250    2.250    0.000    8.000 
#    0.000    0.625    0.000    0.750    0.000    0.000 
#    0.000    0.000    0.000    0.000    0.000    0.000 
#
# Total GULP energy -793411.977596 kJ/mol
# GULP energy per Si atom -12397.062150 kJ/mol
# Density = 1.899320 g / cm^3
# Si number density = 19.036530 Si / 1000 Ang^3
#
#
#
# Elastic Constant Matrix: (Units=GPa)
#
#
# Indices 1 2 3 4 5 6 
#
# 1 143.4032 45.0532 65.6701 0.0000 0.0000 0.0000
# 2 45.0532 71.0205 36.4767 0.0000 0.0000 0.0000
# 3 65.6701 36.4767 78.3944 0.0000 0.0000 0.0000
# 4 0.0000 0.0000 0.0000 51.1425 0.0000 0.0000
# 5 0.0000 0.0000 0.0000 0.0000 29.2347 0.0000
# 6 0.0000 0.0000 0.0000 0.0000 0.0000 31.3222
#
#
#
# Elastic Compliance Matrix: (Units=1/GPa)
#
#
# Indices 1 2 3 4 5 6 
#
# 1 0.011834 -0.003174 -0.008436 0.000000 0.000000 0.000000
# 2 -0.003174 0.019353 -0.006346 0.000000 0.000000 0.000000
# 3 -0.008436 -0.006346 0.022776 0.000000 0.000000 0.000000
# 4 0.000000 0.000000 0.000000 0.019553 0.000000 0.000000
# 5 0.000000 0.000000 0.000000 0.000000 0.034206 0.000000
# 6 0.000000 0.000000 0.000000 0.000000 0.000000 0.031926
#
#
# Mechanical properties :
#
#
# Convention : Reuss Voigt Hill
#
# Bulk Modulus (GPa) = 55.40133 65.24646 60.32390
# Shear Modulus (GPa) = 27.53640 32.04777 29.79209
#
# Velocity S-wave (km/s) = 3.80742 4.10748 3.96029
# Velocity P-wave (km/s) = 6.96379 7.53950 7.25735
#
# Compressibility (1/GPa) = 0.01805011
#
# Stress axis : x y z
#
# Youngs Moduli (GPa) = 84.50366 51.67033 43.90645
#
# Poissons Ratio (x) = 0.16401 0.37040
# Poissons Ratio (y) = 0.26823 0.27864
# Poissons Ratio (z) = 0.71288 0.32791
#
# Static dielectric constant tensor:
#      x y z
#    x 3.899950 0.000000 0.000000 
#    y 0.000000 3.486750 0.000000 
#    z 0.000000 0.000000 3.224630 
# 
# 
# High freq. dielectric constant tensor:
#      x y z
#    x 1.764340 0.000000 0.000000 
#    y 0.000000 1.736190 0.000000 
#    z 0.000000 0.000000 1.707150 
# 
# From -- ./inp_files/35688.got.cif
#   From: 2010.03.12/outbox.cif.g09.slc.cpg/sg51_18_cif.got.tgz:35688.got - 2010.04.16 13:43:02.
