data_PCOD8210267
_publ_section_title
;
Structure prediction by ZEFSAII (Michael W. Deem and Ramdas Pophale) SiO2 
 PCOD8210267
Probable space group: P M M A
;
_chemical_formula_sum "Si O2"
_cell_formula_units_Z 56
_cell_length_a 8.942432
_cell_length_b 15.392538
_cell_length_c 20.731401
_cell_angle_alpha 90.000000
_cell_angle_beta 90.000000
_cell_angle_gamma 90.000000
_cell_volume 2853.609439
_symmetry_space_group_name_H-M "P M M A"
_symmetry_group_IT_number 51
_symmetry_cell_setting 'orthorhombic'
loop_
_space_group_symop_operation_xyz
x,y,z
1/2-x,-y,z
1/2+x,-y,-z
-x,y,-z
-x,-y,-z
1/2+x,y,-z
1/2-x,y,z
x,-y,z
loop_
_atom_site_type_symbol
_atom_site_label
_atom_site_fract_x
_atom_site_fract_y
_atom_site_fract_z
Si Si1 0.575741 0.100583 0.932153
Si Si2 0.583056 0.378171 0.322225
Si Si3 0.909884 0.404833 0.555455
Si Si4 0.584063 0.819541 0.315243
Si Si5 0.417733 0.102696 0.435816
Si Si6 0.074182 0.402677 0.190511
Si Si7 0.571214 0.223699 0.172155
O O1 0.750000 0.125329 0.935449
O O2 0.492085 0.158090 0.879917
O O3 0.553578 0.000000 0.913481
O O4 0.500000 0.121591 0.000000
O O5 0.750000 0.413492 0.307584
O O6 0.511726 0.422455 0.383280
O O7 0.590647 0.277781 0.340137
O O8 0.474871 0.402635 0.264247
O O9 0.750000 0.357827 0.570870
O O10 0.873031 0.500000 0.527303
O O11 0.000000 0.351436 0.500000
O O12 0.750000 0.861418 0.313885
O O13 0.486359 0.872148 0.366420
O O14 0.518561 0.814424 0.241868
O O15 0.500000 0.140074 0.500000
O O16 0.250000 0.139356 0.437730
O O17 0.420462 0.000000 0.439038
O O18 0.250000 0.384869 0.185152
O O19 0.037013 0.500000 0.161571
O O20 0.988930 0.321554 0.156697
O O21 0.750000 0.228805 0.169959
#
# Coordination Sequence:
#
# PCOD8210267 Si02
#       7
#     8   8   8   8   8   8   8
#     4  10  21  38  62  92 126 163 200 237 280 335
#     4  10  20  33  49  70  96 127 166 212 265 326
#     4  10  20  32  45  62  85 116 156 202 255 315
#     4   9  20  36  52  74 103 135 172 216 268 323
#     4  10  21  36  54  74  96 128 172 221 275 337
#     4  10  20  34  54  80 110 146 188 234 284 337
#     4  10  21  37  58  86 120 156 195 240 289 342
#
# _framework density 19.624269999999999
#
# number of rings (size 3 to 8) (size 9 to 14) (size 15 to 20)
#    0.000    2.143    0.000    3.857    0.000   10.000 
#    0.000    2.857    0.000    0.429    0.000    0.000 
#    0.000    0.000    0.000    0.000    0.000    0.000 
#
# Total GULP energy -693750.552281 kJ/mol
# GULP energy per Si atom -12388.402719 kJ/mol
# Density = 1.957960 g / cm^3
# Si number density = 19.624270 Si / 1000 Ang^3
#
#
#
# Elastic Constant Matrix: (Units=GPa)
#
#
# Indices 1 2 3 4 5 6 
#
# 1 125.5622 42.5044 54.3196 0.0000 0.0000 0.0000
# 2 42.5044 66.7625 49.9964 0.0000 0.0000 0.0000
# 3 54.3196 49.9964 102.7699 0.0000 0.0000 0.0000
# 4 0.0000 0.0000 0.0000 17.1158 0.0000 0.0000
# 5 0.0000 0.0000 0.0000 0.0000 34.6575 0.0000
# 6 0.0000 0.0000 0.0000 0.0000 0.0000 18.1124
#
#
#
# Elastic Compliance Matrix: (Units=1/GPa)
#
#
# Indices 1 2 3 4 5 6 
#
# 1 0.011018 -0.004174 -0.003793 0.000000 0.000000 0.000000
# 2 -0.004174 0.025144 -0.010026 0.000000 0.000000 0.000000
# 3 -0.003793 -0.010026 0.016613 0.000000 0.000000 0.000000
# 4 0.000000 0.000000 0.000000 0.058425 0.000000 0.000000
# 5 0.000000 0.000000 0.000000 0.000000 0.028854 0.000000
# 6 0.000000 0.000000 0.000000 0.000000 0.000000 0.055211
#
#
# Mechanical properties :
#
#
# Convention : Reuss Voigt Hill
#
# Bulk Modulus (GPa) = 59.56416 65.41504 62.48960
# Shear Modulus (GPa) = 21.11061 23.86210 22.48635
#
# Velocity S-wave (km/s) = 3.28341 3.49083 3.38870
# Velocity P-wave (km/s) = 6.69272 7.04656 6.87192
#
# Compressibility (1/GPa) = 0.01678862
#
# Stress axis : x y z
#
# Youngs Moduli (GPa) = 90.75990 39.77062 60.19452
#
# Poissons Ratio (x) = 0.16601 0.22831
# Poissons Ratio (y) = 0.37885 0.60351
# Poissons Ratio (z) = 0.34425 0.39874
#
# Static dielectric constant tensor:
#      x y z
#    x 3.988890 0.000000 0.000000 
#    y 0.000000 3.643030 0.000000 
#    z 0.000000 0.000000 3.362640 
# 
# 
# High freq. dielectric constant tensor:
#      x y z
#    x 1.781790 0.000000 0.000000 
#    y 0.000000 1.761310 0.000000 
#    z 0.000000 0.000000 1.740250 
# 
# From -- ./inp_files/31897.got.cif
#   From: 2010.03.12/outbox.cif.g09.slc.cpg/sg51_16_cif.got.tgz:31897.got - 2010.04.16 13:43:02.
