data_PCOD8210145
_publ_section_title
;
Structure prediction by ZEFSAII (Michael W. Deem and Ramdas Pophale) SiO2 
 PCOD8210145
Probable space group: P M M A
;
_chemical_formula_sum "Si O2"
_cell_formula_units_Z 52
_cell_length_a 9.074196
_cell_length_b 28.674347
_cell_length_c 11.574983
_cell_angle_alpha 90.000000
_cell_angle_beta 90.000000
_cell_angle_gamma 90.000000
_cell_volume 3011.771741
_symmetry_space_group_name_H-M "P M M A"
_symmetry_group_IT_number 51
_symmetry_cell_setting 'orthorhombic'
loop_
_space_group_symop_operation_xyz
x,y,z
1/2-x,-y,z
1/2+x,-y,-z
-x,y,-z
-x,-y,-z
1/2+x,y,-z
1/2-x,y,z
x,-y,z
loop_
_atom_site_type_symbol
_atom_site_label
_atom_site_fract_x
_atom_site_fract_y
_atom_site_fract_z
Si Si1 0.424069 0.861569 0.876072
Si Si2 0.000000 0.702144 0.000000
Si Si3 0.919534 0.551720 0.879129
Si Si4 0.577568 0.050746 0.876549
Si Si5 0.909342 0.225594 0.814194
Si Si6 0.916367 0.638263 0.205987
Si Si7 0.081029 0.297168 0.380653
O O1 0.250000 0.867464 0.884069
O O2 0.495626 0.906592 0.809039
O O3 0.461287 0.812561 0.816103
O O4 0.500000 0.859087 0.000000
O O5 0.093846 0.736264 0.082277
O O6 0.910986 0.668008 0.086294
O O7 0.750000 0.566383 0.897865
O O8 0.930739 0.500000 0.822682
O O9 0.998975 0.589402 0.800092
O O10 0.000000 0.551532 0.000000
O O11 0.750000 0.062216 0.891614
O O12 0.557180 0.000000 0.814390
O O13 0.500000 0.047766 0.000000
O O14 0.750000 0.200446 0.822008
O O15 0.927726 0.249526 0.690869
O O16 0.750000 0.628154 0.243000
O O17 0.996869 0.663515 0.310225
O O18 0.250000 0.312445 0.401045
O O19 0.000000 0.287919 0.500000
#
# Coordination Sequence:
#
# PCOD8210145 Si02
#       7
#     8   4   8   8   8   8   8
#     4  11  20  28  42  64  94 128 163 202 246 295
#     4  10  20  30  49  74 103 132 166 202 246 296
#     4  10  20  33  50  75 108 141 171 204 246 297
#     4   9  16  26  40  57  82 120 163 202 240 286
#     4  10  20  33  49  70  99 130 164 205 247 294
#     4  11  21  33  54  79 106 136 169 208 250 299
#     4  10  22  39  57  76 100 131 171 212 253 298
#
# _framework density 17.265584
#
# number of rings (size 3 to 8) (size 9 to 14) (size 15 to 20)
#    0.000    1.846    1.538    4.615    0.000    6.154 
#    0.000    0.000    0.000    0.462    0.000    0.000 
#    0.000    0.615    0.000    2.000    0.000    2.769 
#
# Total GULP energy -644291.692829 kJ/mol
# GULP energy per Si atom -12390.224862 kJ/mol
# Density = 1.722629 g / cm^3
# Si number density = 17.265584 Si / 1000 Ang^3
#
#
#
# Elastic Constant Matrix: (Units=GPa)
#
#
# Indices 1 2 3 4 5 6 
#
# 1 169.8222 67.1206 36.3461 0.0000 0.0000 0.0000
# 2 67.1206 121.7546 26.9559 0.0000 0.0000 0.0000
# 3 36.3461 26.9559 72.2020 0.0000 0.0000 0.0000
# 4 0.0000 0.0000 0.0000 18.5015 0.0000 0.0000
# 5 0.0000 0.0000 0.0000 0.0000 18.3891 0.0000
# 6 0.0000 0.0000 0.0000 0.0000 0.0000 29.2777
#
#
#
# Elastic Compliance Matrix: (Units=1/GPa)
#
#
# Indices 1 2 3 4 5 6 
#
# 1 0.007946 -0.003810 -0.002578 0.000000 0.000000 0.000000
# 2 -0.003810 0.010780 -0.002107 0.000000 0.000000 0.000000
# 3 -0.002578 -0.002107 0.015934 0.000000 0.000000 0.000000
# 4 0.000000 0.000000 0.000000 0.054050 0.000000 0.000000
# 5 0.000000 0.000000 0.000000 0.000000 0.054380 0.000000
# 6 0.000000 0.000000 0.000000 0.000000 0.000000 0.034156
#
#
# Mechanical properties :
#
#
# Convention : Reuss Voigt Hill
#
# Bulk Modulus (GPa) = 56.58756 69.40267 62.99512
# Shear Modulus (GPa) = 24.98448 28.79074 26.88761
#
# Velocity S-wave (km/s) = 3.80816 4.08796 3.95054
# Velocity P-wave (km/s) = 7.22371 7.90988 7.57457
#
# Compressibility (1/GPa) = 0.01767173
#
# Stress axis : x y z
#
# Youngs Moduli (GPa) = 125.85012 92.76519 62.75834
#
# Poissons Ratio (x) = 0.35341 0.16177
# Poissons Ratio (y) = 0.47946 0.13222
# Poissons Ratio (z) = 0.32439 0.19543
#
# Static dielectric constant tensor:
#      x y z
#    x 3.355650 0.000000 0.000000 
#    y 0.000000 4.132000 0.000000 
#    z 0.000000 0.000000 2.742710 
# 
# 
# High freq. dielectric constant tensor:
#      x y z
#    x 1.686590 0.000000 0.000000 
#    y 0.000000 1.683740 0.000000 
#    z 0.000000 0.000000 1.601440 
# 
# From -- ./inp_files/14747.got.cif
#   From: 2010.03.12/outbox.cif.g09.slc.cpg/sg51_8_cif.got.tgz:14747.got - 2010.04.16 13:43:02.
