data_PCOD8210803
_publ_section_title
;
Structure prediction by ZEFSAII (Michael W. Deem and Ramdas Pophale) SiO2 
 PCOD8210803
Probable space group: P M M A
;
_chemical_formula_sum "Si O2"
_cell_formula_units_Z 64
_cell_length_a 18.792371
_cell_length_b 9.096054
_cell_length_c 18.971729
_cell_angle_alpha 90.000000
_cell_angle_beta 90.000000
_cell_angle_gamma 90.000000
_cell_volume 3242.959463
_symmetry_space_group_name_H-M "P M M A"
_symmetry_group_IT_number 51
_symmetry_cell_setting 'orthorhombic'
loop_
_space_group_symop_operation_xyz
x,y,z
1/2-x,-y,z
1/2+x,-y,-z
-x,y,-z
-x,-y,-z
1/2+x,y,-z
1/2-x,y,z
x,-y,z
loop_
_atom_site_type_symbol
_atom_site_label
_atom_site_fract_x
_atom_site_fract_y
_atom_site_fract_z
Si Si1 0.406620 0.172249 0.604043
Si Si2 0.329730 0.840046 0.866322
Si Si3 0.866348 0.662739 0.264859
Si Si4 0.833821 0.330506 0.000195
Si Si5 0.046381 0.826549 0.068450
Si Si6 0.975908 0.336174 0.789666
Si Si7 0.063191 0.172480 0.343892
Si Si8 0.169458 0.825712 0.462603
O O1 0.358416 0.259165 0.660060
O O2 0.490058 0.209559 0.614269
O O3 0.378363 0.227466 0.528480
O O4 0.393019 0.000000 0.614863
O O5 0.250000 0.870263 0.890756
O O6 0.326190 0.762478 0.791329
O O7 0.369772 0.000000 0.863593
O O8 0.363398 0.735315 0.925774
O O9 0.831820 0.500000 0.267563
O O10 0.947687 0.650800 0.244370
O O11 0.750000 0.310821 0.988394
O O12 0.855935 0.500000 0.999188
O O13 0.874758 0.242972 0.938947
O O14 0.014030 0.758617 0.139561
O O15 0.052762 0.000000 0.077149
O O16 0.000000 0.782896 0.000000
O O17 0.945429 0.500000 0.805700
O O18 0.927778 0.254992 0.730980
O O19 0.129012 0.226456 0.391969
O O20 0.066718 0.000000 0.327861
O O21 0.250000 0.760417 0.464685
O O22 0.173267 0.000000 0.463797
#
# Coordination Sequence:
#
# PCOD8210803 Si02
#       8
#     8   8   8   8   8   8   8   8
#     4   9  17  30  50  75 103 135 171 211 257 314
#     4  10  20  33  50  72 100 137 178 216 257 311
#     4  10  20  33  50  74 104 137 173 216 265 314
#     4  10  21  37  56  78 106 141 179 219 267 323
#     4  11  23  37  57  85 113 142 179 224 272 321
#     4  10  21  36  54  77 105 137 175 219 267 318
#     4   9  17  32  54  76 100 134 175 215 258 312
#     4   9  17  30  51  79 106 132 169 218 266 310
#
# _framework density 19.735059
#
# number of rings (size 3 to 8) (size 9 to 14) (size 15 to 20)
#    0.000    2.250    0.000    3.000    0.000    8.000 
#    0.000    2.500    0.000    6.375    0.000    0.000 
#    0.000    0.000    0.000    0.000    0.000    0.000 
#
# Total GULP energy -793382.288958 kJ/mol
# GULP energy per Si atom -12396.598265 kJ/mol
# Density = 1.969014 g / cm^3
# Si number density = 19.735059 Si / 1000 Ang^3
#
#
#
# Elastic Constant Matrix: (Units=GPa)
#
#
# Indices 1 2 3 4 5 6 
#
# 1 58.0299 27.8588 31.4540 0.0000 0.0000 0.0000
# 2 27.8588 109.6387 49.3034 0.0000 0.0000 0.0000
# 3 31.4540 49.3034 120.6966 0.0000 0.0000 0.0000
# 4 0.0000 0.0000 0.0000 21.3942 0.0000 0.0000
# 5 0.0000 0.0000 0.0000 0.0000 27.6637 0.0000
# 6 0.0000 0.0000 0.0000 0.0000 0.0000 16.3776
#
#
#
# Elastic Compliance Matrix: (Units=1/GPa)
#
#
# Indices 1 2 3 4 5 6 
#
# 1 0.021135 -0.003545 -0.004060 0.000000 0.000000 0.000000
# 2 -0.003545 0.011768 -0.003883 0.000000 0.000000 0.000000
# 3 -0.004060 -0.003883 0.010930 0.000000 0.000000 0.000000
# 4 0.000000 0.000000 0.000000 0.046742 0.000000 0.000000
# 5 0.000000 0.000000 0.000000 0.000000 0.036148 0.000000
# 6 0.000000 0.000000 0.000000 0.000000 0.000000 0.061059
#
#
# Mechanical properties :
#
#
# Convention : Reuss Voigt Hill
#
# Bulk Modulus (GPa) = 47.94644 56.17749 52.06196
# Shear Modulus (GPa) = 22.96645 25.07037 24.01841
#
# Velocity S-wave (km/s) = 3.41506 3.56806 3.49240
# Velocity P-wave (km/s) = 6.31649 6.74554 6.53454
#
# Compressibility (1/GPa) = 0.02085661
#
# Stress axis : x y z
#
# Youngs Moduli (GPa) = 47.31547 84.97755 91.49508
#
# Poissons Ratio (x) = 0.30121 0.37146
# Poissons Ratio (y) = 0.16771 0.35530
# Poissons Ratio (z) = 0.19209 0.32999
#
# Static dielectric constant tensor:
#      x y z
#    x 3.522760 0.000000 0.000000 
#    y 0.000000 3.749600 0.000000 
#    z 0.000000 0.000000 3.630180 
# 
# 
# High freq. dielectric constant tensor:
#      x y z
#    x 1.752540 0.000000 0.000000 
#    y 0.000000 1.763180 0.000000 
#    z 0.000000 0.000000 1.766690 
# 
# From -- ./inp_files/30610.got.cif
#   From: 2010.03.12/outbox.cif.g09.slc.cpg/sg51_16_cif.got.tgz:30610.got - 2010.04.16 13:43:02.
