data_PCOD8210191
_publ_section_title
;
Structure prediction by ZEFSAII (Michael W. Deem and Ramdas Pophale) SiO2 
 PCOD8210191
Probable space group: P M M A
;
_chemical_formula_sum "Si O2"
_cell_formula_units_Z 64
_cell_length_a 9.138320
_cell_length_b 22.363515
_cell_length_c 18.101631
_cell_angle_alpha 90.000000
_cell_angle_beta 90.000000
_cell_angle_gamma 90.000000
_cell_volume 3699.339030
_symmetry_space_group_name_H-M "P M M A"
_symmetry_group_IT_number 51
_symmetry_cell_setting 'orthorhombic'
loop_
_space_group_symop_operation_xyz
x,y,z
1/2-x,-y,z
1/2+x,-y,-z
-x,y,-z
-x,-y,-z
1/2+x,y,-z
1/2-x,y,z
x,-y,z
loop_
_atom_site_type_symbol
_atom_site_label
_atom_site_fract_x
_atom_site_fract_y
_atom_site_fract_z
Si Si1 0.414540 0.434009 0.231250
Si Si2 0.575273 0.313435 0.572864
Si Si3 0.578289 0.432048 0.379539
Si Si4 0.414193 0.322177 0.147435
Si Si5 0.406945 0.761630 0.937521
Si Si6 0.582244 0.236393 0.714739
Si Si7 0.918298 0.929412 0.924359
Si Si8 0.913530 0.147272 0.192191
O O1 0.250000 0.418252 0.261989
O O2 0.416714 0.500000 0.197483
O O3 0.534794 0.427320 0.294243
O O4 0.454950 0.390435 0.164336
O O5 0.500000 0.285333 0.500000
O O6 0.750000 0.316654 0.565433
O O7 0.514388 0.381417 0.578692
O O8 0.528133 0.269296 0.639835
O O9 0.750000 0.418477 0.388344
O O10 0.541634 0.500000 0.408086
O O11 0.250000 0.314368 0.119127
O O12 0.516998 0.301191 0.081151
O O13 0.438675 0.284936 0.221971
O O14 0.250000 0.748164 0.971753
O O15 0.396780 0.799251 0.864370
O O16 0.500000 0.796345 0.000000
O O17 0.750000 0.216060 0.706552
O O18 0.491355 0.175463 0.734731
O O19 0.750000 0.907228 0.929788
O O20 0.991986 0.903363 0.849671
O O21 0.926516 0.000000 0.915281
O O22 0.000000 0.909642 0.000000
O O23 0.750000 0.123130 0.212769
#
# Coordination Sequence:
#
# PCOD8210191 Si02
#       8
#     8   8   8   8   8   8   8   8
#     4   9  16  28  47  68  88 112 145 185 231 286
#     4  11  22  36  52  71  95 128 162 200 250 301
#     4  10  20  32  47  68  93 122 156 196 241 293
#     4   9  16  29  47  66  87 114 145 184 233 284
#     4  10  20  31  44  66  91 119 152 191 235 279
#     4   9  18  33  50  69  94 124 160 198 241 290
#     4  10  20  33  50  74 107 146 182 213 245 283
#     4  10  20  32  50  74  99 131 167 204 244 281
#
# _framework density 17.300387000000001
#
# number of rings (size 3 to 8) (size 9 to 14) (size 15 to 20)
#    0.000    2.250    1.250    2.250    0.000    5.750 
#    0.000    0.000    0.000    0.375    0.000    0.000 
#    0.000    0.500    0.000    1.625    0.000    2.000 
#
# Total GULP energy -793063.604557 kJ/mol
# GULP energy per Si atom -12391.618821 kJ/mol
# Density = 1.726101 g / cm^3
# Si number density = 17.300387 Si / 1000 Ang^3
#
#
#
# Elastic Constant Matrix: (Units=GPa)
#
#
# Indices 1 2 3 4 5 6 
#
# 1 115.4995 36.2266 38.7901 0.0000 0.0000 0.0000
# 2 36.2266 56.9601 25.8463 0.0000 0.0000 0.0000
# 3 38.7901 25.8463 55.9771 0.0000 0.0000 0.0000
# 4 0.0000 0.0000 0.0000 -3.0011 0.0000 0.0000
# 5 0.0000 0.0000 0.0000 0.0000 27.2809 0.0000
# 6 0.0000 0.0000 0.0000 0.0000 0.0000 1.6934
#
#
#
# Elastic Compliance Matrix: (Units=1/GPa)
#
#
# Indices 1 2 3 4 5 6 
#
# 1 0.012320 -0.005012 -0.006223 0.000000 0.000000 0.000000
# 2 -0.005012 0.024248 -0.007723 0.000000 0.000000 0.000000
# 3 -0.006223 -0.007723 0.025743 0.000000 0.000000 0.000000
# 4 0.000000 0.000000 0.000000 -0.333214 0.000000 0.000000
# 5 0.000000 0.000000 0.000000 0.000000 0.036656 0.000000
# 6 0.000000 0.000000 0.000000 0.000000 0.000000 0.590516
#
#
# Mechanical properties :
#
#
# Convention : Reuss Voigt Hill
#
# Bulk Modulus (GPa) = 40.99230 47.79586 44.39408
# Shear Modulus (GPa) = 12.42805 13.69957 13.06381
#
# Velocity S-wave (km/s) = 2.68315 2.81706 2.75092
# Velocity P-wave (km/s) = 5.77451 6.18613 5.98386
#
# Compressibility (1/GPa) = 0.02439483
#
# Stress axis : x y z
#
# Youngs Moduli (GPa) = 81.16858 41.24052 38.84558
#
# Poissons Ratio (x) = 0.20668 0.24175
# Poissons Ratio (y) = 0.40679 0.30001
# Poissons Ratio (z) = 0.50514 0.31851
#
# Static dielectric constant tensor:
#      x y z
#    x 3.609640 0.000000 0.000000 
#    y 0.000000 3.167400 0.000000 
#    z 0.000000 0.000000 3.086230 
# 
# 
# High freq. dielectric constant tensor:
#      x y z
#    x 1.680770 0.000000 0.000000 
#    y 0.000000 1.647170 0.000000 
#    z 0.000000 0.000000 1.637620 
# 
# From -- ./inp_files/28320.got.cif
#   From: 2010.03.12/outbox.cif.g09.slc.cpg/sg51_15_cif.got.tgz:28320.got - 2010.04.16 13:43:02.
