data_PCOD8210102
_publ_section_title
;
Structure prediction by ZEFSAII (Michael W. Deem and Ramdas Pophale) SiO2 
 PCOD8210102
Probable space group: P M M A
;
_chemical_formula_sum "Si O2"
_cell_formula_units_Z 58
_cell_length_a 29.151649
_cell_length_b 8.707134
_cell_length_c 11.721145
_cell_angle_alpha 90.000000
_cell_angle_beta 90.000000
_cell_angle_gamma 90.000000
_cell_volume 2975.146754
_symmetry_space_group_name_H-M "P M M A"
_symmetry_group_IT_number 51
_symmetry_cell_setting 'orthorhombic'
loop_
_space_group_symop_operation_xyz
x,y,z
1/2-x,-y,z
1/2+x,-y,-z
-x,y,-z
-x,-y,-z
1/2+x,y,-z
1/2-x,y,z
x,-y,z
loop_
_atom_site_type_symbol
_atom_site_label
_atom_site_fract_x
_atom_site_fract_y
_atom_site_fract_z
Si Si1 0.519949 0.676342 0.719498
Si Si2 0.335352 0.164705 0.292535
Si Si3 0.302072 0.678632 0.068730
Si Si4 0.121742 0.676560 0.896908
Si Si5 0.048915 0.176307 0.055886
Si Si6 0.921750 0.178253 0.312697
Si Si7 0.403856 0.675383 0.455885
Si Si8 0.750000 0.000000 0.626525
O O1 0.521141 0.500000 0.759490
O O2 0.546606 0.778771 0.811690
O O3 0.467640 0.725390 0.705324
O O4 0.546009 0.698291 0.599722
O O5 0.328717 0.230240 0.166055
O O6 0.364429 0.283613 0.366735
O O7 0.286525 0.138016 0.352595
O O8 0.361806 0.000000 0.280242
O O9 0.250000 0.738651 0.055013
O O10 0.303170 0.500000 0.101143
O O11 0.327738 0.707998 0.948300
O O12 0.115913 0.500000 0.861078
O O13 0.115058 0.780509 0.784871
O O14 0.084757 0.715174 0.993341
O O15 0.064071 0.000000 0.042713
O O16 0.000000 0.206372 0.000000
O O17 0.899206 0.215730 0.434302
O O18 0.934020 0.000000 0.304780
O O19 0.397133 0.500000 0.494902
#
# Coordination Sequence:
#
# PCOD8210102 Si02
#       8
#     8   8   8   8   8   8   8   2
#     4  11  23  39  60  86 119 156 199 245 293 347
#     4  10  19  37  60  91 122 151 187 237 291 351
#     4  10  20  37  62  91 121 150 189 240 295 355
#     4  11  23  38  60  85 116 159 199 242 297 352
#     4  11  22  36  56  86 119 154 194 240 287 347
#     4  12  25  41  59  83 116 159 202 245 294 349
#     4  11  24  40  61  88 117 155 201 244 292 349
#     4   8  20  36  62  92 124 154 186 234 310 350
#
# _framework density 19.494837
#
# number of rings (size 3 to 8) (size 9 to 14) (size 15 to 20)
#    0.414    0.828    2.069    4.552    0.000    8.828 
#    0.000    0.000    1.517    0.000    0.000    0.000 
#    0.000    0.000    0.000    0.000    0.000    0.000 
#
# Total GULP energy -718552.449556 kJ/mol
# GULP energy per Si atom -12388.835337 kJ/mol
# Density = 1.945047 g / cm^3
# Si number density = 19.494837 Si / 1000 Ang^3
#
#
#
# Elastic Constant Matrix: (Units=GPa)
#
#
# Indices 1 2 3 4 5 6 
#
# 1 63.4957 23.8373 40.3191 0.0000 0.0000 0.0000
# 2 23.8373 66.3249 26.4983 0.0000 0.0000 0.0000
# 3 40.3191 26.4983 98.9759 0.0000 0.0000 0.0000
# 4 0.0000 0.0000 0.0000 29.0621 0.0000 0.0000
# 5 0.0000 0.0000 0.0000 0.0000 16.6550 0.0000
# 6 0.0000 0.0000 0.0000 0.0000 0.0000 24.7695
#
#
#
# Elastic Compliance Matrix: (Units=1/GPa)
#
#
# Indices 1 2 3 4 5 6 
#
# 1 0.022625 -0.004982 -0.007883 0.000000 0.000000 0.000000
# 2 -0.004982 0.017980 -0.002784 0.000000 0.000000 0.000000
# 3 -0.007883 -0.002784 0.014060 0.000000 0.000000 0.000000
# 4 0.000000 0.000000 0.000000 0.034409 0.000000 0.000000
# 5 0.000000 0.000000 0.000000 0.000000 0.060042 0.000000
# 6 0.000000 0.000000 0.000000 0.000000 0.000000 0.040372
#
#
# Mechanical properties :
#
#
# Convention : Reuss Voigt Hill
#
# Bulk Modulus (GPa) = 42.79532 45.56732 44.18132
# Shear Modulus (GPa) = 21.87462 23.30678 22.59070
#
# Velocity S-wave (km/s) = 3.35337 3.46140 3.40781
# Velocity P-wave (km/s) = 6.08221 6.27693 6.18034
#
# Compressibility (1/GPa) = 0.02336704
#
# Stress axis : x y z
#
# Youngs Moduli (GPa) = 44.19918 55.61666 71.12378
#
# Poissons Ratio (x) = 0.27709 0.56065
# Poissons Ratio (y) = 0.22020 0.19803
# Poissons Ratio (z) = 0.34841 0.15485
#
# Static dielectric constant tensor:
#      x y z
#    x 3.674090 0.000000 0.000000 
#    y 0.000000 3.673510 0.000000 
#    z 0.000000 0.000000 3.503070 
# 
# 
# High freq. dielectric constant tensor:
#      x y z
#    x 1.759180 0.000000 0.000000 
#    y 0.000000 1.774260 0.000000 
#    z 0.000000 0.000000 1.744730 
# 
# From -- ./inp_files/19162.got.cif
#   From: 2010.03.12/outbox.cif.g09.slc.cpg/sg51_10_cif.got.tgz:19162.got - 2010.04.16 13:43:02.
