data_PCOD8210183
_publ_section_title
;
Structure prediction by ZEFSAII (Michael W. Deem and Ramdas Pophale) SiO2 
 PCOD8210183
Probable space group: P M M A
;
_chemical_formula_sum "Si O2"
_cell_formula_units_Z 48
_cell_length_a 9.581031
_cell_length_b 19.222250
_cell_length_c 18.341046
_cell_angle_alpha 90.000000
_cell_angle_beta 90.000000
_cell_angle_gamma 90.000000
_cell_volume 3377.851608
_symmetry_space_group_name_H-M "P M M A"
_symmetry_group_IT_number 51
_symmetry_cell_setting 'orthorhombic'
loop_
_space_group_symop_operation_xyz
x,y,z
1/2-x,-y,z
1/2+x,-y,-z
-x,y,-z
-x,-y,-z
1/2+x,y,-z
1/2-x,y,z
x,-y,z
loop_
_atom_site_type_symbol
_atom_site_label
_atom_site_fract_x
_atom_site_fract_y
_atom_site_fract_z
Si Si1 0.591946 0.917408 0.433519
Si Si2 0.020637 0.144204 0.153373
Si Si3 0.915944 0.275136 0.076011
Si Si4 0.905619 0.920278 0.700878
Si Si5 0.250000 0.083138 0.052125
Si Si6 0.591274 0.573547 0.070947
Si Si7 0.250000 0.079638 0.890122
O O1 0.500000 0.886683 0.500000
O O2 0.750000 0.887315 0.435638
O O3 0.517718 0.895002 0.358445
O O4 0.596277 0.000000 0.439552
O O5 0.092128 0.133528 0.231575
O O6 0.112916 0.112920 0.089208
O O7 0.983545 0.224163 0.135973
O O8 0.880897 0.099828 0.157963
O O9 0.750000 0.259396 0.064840
O O10 0.939545 0.352842 0.110964
O O11 0.000000 0.267516 0.000000
O O12 0.750000 0.916713 0.666643
O O13 0.936119 0.000000 0.726306
O O14 0.250000 0.000000 0.057330
O O15 0.250000 0.114651 0.970353
O O16 0.750000 0.575832 0.044000
O O17 0.565422 0.500000 0.115841
O O18 0.500000 0.570487 0.000000
O O19 0.250000 0.000000 0.907470
#
# Coordination Sequence:
#
# PCOD8210183 Si02
#       7
#     8   8   8   8   4   8   4
#     4   9  17  29  47  68  86 103 126 159 203 253
#     4  12  22  32  44  59  79 105 138 181 221 261
#     4  10  20  31  44  61  80 104 134 172 215 259
#     4  10  20  33  46  59  79 106 137 174 213 252
#     4  11  22  36  46  54  70 102 146 186 224 257
#     4   8  14  26  43  61  79  98 123 158 203 254
#     4  11  22  32  44  56  72 100 140 186 226 257
#
# _framework density 14.210215
#
# number of rings (size 3 to 8) (size 9 to 14) (size 15 to 20)
#    0.000    2.000    1.667    3.500    2.333    3.333 
#    0.000    0.000    0.000    0.000    0.000    0.000 
#    0.000    0.000    0.000    0.000    0.000    0.833 
#
# Total GULP energy -594642.728863 kJ/mol
# GULP energy per Si atom -12388.390185 kJ/mol
# Density = 1.417787 g / cm^3
# Si number density = 14.210215 Si / 1000 Ang^3
#
#
#
# Elastic Constant Matrix: (Units=GPa)
#
#
# Indices 1 2 3 4 5 6 
#
# 1 82.3899 23.3170 19.5237 0.0000 0.0000 0.0000
# 2 23.3170 90.9220 22.5932 0.0000 0.0000 0.0000
# 3 19.5237 22.5932 53.3812 0.0000 0.0000 0.0000
# 4 0.0000 0.0000 0.0000 6.7197 0.0000 0.0000
# 5 0.0000 0.0000 0.0000 0.0000 21.6900 0.0000
# 6 0.0000 0.0000 0.0000 0.0000 0.0000 15.2204
#
#
#
# Elastic Compliance Matrix: (Units=1/GPa)
#
#
# Indices 1 2 3 4 5 6 
#
# 1 0.013800 -0.002553 -0.003967 0.000000 0.000000 0.000000
# 2 -0.002553 0.012764 -0.004468 0.000000 0.000000 0.000000
# 3 -0.003967 -0.004468 0.022075 0.000000 0.000000 0.000000
# 4 0.000000 0.000000 0.000000 0.148816 0.000000 0.000000
# 5 0.000000 0.000000 0.000000 0.000000 0.046104 0.000000
# 6 0.000000 0.000000 0.000000 0.000000 0.000000 0.065701
#
#
# Mechanical properties :
#
#
# Convention : Reuss Voigt Hill
#
# Bulk Modulus (GPa) = 37.50604 39.72899 38.61752
# Shear Modulus (GPa) = 14.70055 19.47664 17.08859
#
# Velocity S-wave (km/s) = 3.21986 3.70619 3.47155
# Velocity P-wave (km/s) = 6.34621 6.80685 6.58056
#
# Compressibility (1/GPa) = 0.02666237
#
# Stress axis : x y z
#
# Youngs Moduli (GPa) = 72.46395 78.34799 45.30005
#
# Poissons Ratio (x) = 0.20005 0.17968
# Poissons Ratio (y) = 0.18503 0.20241
# Poissons Ratio (z) = 0.28743 0.35008
#
# Static dielectric constant tensor:
#      x y z
#    x 3.066570 0.000000 0.000000 
#    y 0.000000 3.046250 0.000000 
#    z 0.000000 0.000000 2.504150 
# 
# 
# High freq. dielectric constant tensor:
#      x y z
#    x 1.568810 0.000000 0.000000 
#    y 0.000000 1.516870 0.000000 
#    z 0.000000 0.000000 1.498400 
# 
# From -- ./inp_files/32482.got.cif
#   From: 2010.03.12/outbox.cif.g09.slc.cpg/sg51_17_cif.got.tgz:32482.got - 2010.04.16 13:43:02.
