data_PCOD8210171
_publ_section_title
;
Structure prediction by ZEFSAII (Michael W. Deem and Ramdas Pophale) SiO2 
 PCOD8210171
Probable space group: P M M A
;
_chemical_formula_sum "Si O2"
_cell_formula_units_Z 48
_cell_length_a 8.921434
_cell_length_b 18.510500
_cell_length_c 19.844386
_cell_angle_alpha 90.000000
_cell_angle_beta 90.000000
_cell_angle_gamma 90.000000
_cell_volume 3277.105953
_symmetry_space_group_name_H-M "P M M A"
_symmetry_group_IT_number 51
_symmetry_cell_setting 'orthorhombic'
loop_
_space_group_symop_operation_xyz
x,y,z
1/2-x,-y,z
1/2+x,-y,-z
-x,y,-z
-x,-y,-z
1/2+x,y,-z
1/2-x,y,z
x,-y,z
loop_
_atom_site_type_symbol
_atom_site_label
_atom_site_fract_x
_atom_site_fract_y
_atom_site_fract_z
Si Si1 0.087120 0.418075 0.938926
Si Si2 0.918089 0.585567 0.565778
Si Si3 0.572376 0.219743 0.926092
Si Si4 0.425684 0.350721 0.172000
Si Si5 0.427281 0.416717 0.703547
Si Si6 0.574557 0.921727 0.072309
O O1 0.250000 0.380557 0.928395
O O2 0.114759 0.500000 0.960045
O O3 0.987010 0.417369 0.871933
O O4 0.000000 0.377601 0.000000
O O5 0.750000 0.617459 0.570695
O O6 0.910769 0.500000 0.559316
O O7 0.000000 0.618331 0.500000
O O8 0.012040 0.608135 0.631209
O O9 0.750000 0.215924 0.934751
O O10 0.526508 0.280370 0.871278
O O11 0.509056 0.145524 0.892003
O O12 0.500000 0.233325 0.000000
O O13 0.250000 0.355908 0.183322
O O14 0.504680 0.358776 0.244118
O O15 0.250000 0.409787 0.704118
O O16 0.475549 0.500000 0.719405
O O17 0.750000 0.904084 0.065125
O O18 0.551574 0.000000 0.109382
O O19 0.500000 0.927802 0.000000
#
# Coordination Sequence:
#
# PCOD8210171 Si02
#       6
#     8   8   8   8   8   8
#     4  10  20  32  44  56  69  90 124 165 207 246
#     4   9  16  27  44  64  84 104 127 159 198 239
#     4  10  20  31  43  59  78 102 132 165 202 243
#     4  11  22  32  42  57  77 102 132 165 202 242
#     4  10  20  32  45  61  80 104 135 169 206 246
#     4   9  16  26  42  62  80  98 122 154 193 236
#
# _framework density 14.647069999999999
#
# number of rings (size 3 to 8) (size 9 to 14) (size 15 to 20)
#    0.000    2.167    0.000    5.000    0.000   11.000 
#    0.000    0.000    0.000    0.000    0.000    0.000 
#    0.000    0.000    0.000    0.000    0.000    0.833 
#
# Total GULP energy -594719.954798 kJ/mol
# GULP energy per Si atom -12389.999058 kJ/mol
# Density = 1.461373 g / cm^3
# Si number density = 14.647070 Si / 1000 Ang^3
#
#
#
# Elastic Constant Matrix: (Units=GPa)
#
#
# Indices 1 2 3 4 5 6 
#
# 1 96.3703 38.9433 46.7348 0.0000 0.0000 0.0000
# 2 38.9433 62.2519 34.3052 0.0000 0.0000 0.0000
# 3 46.7348 34.3052 103.3764 0.0000 0.0000 0.0000
# 4 0.0000 0.0000 0.0000 7.4421 0.0000 0.0000
# 5 0.0000 0.0000 0.0000 0.0000 26.6933 0.0000
# 6 0.0000 0.0000 0.0000 0.0000 0.0000 17.6522
#
#
#
# Elastic Compliance Matrix: (Units=1/GPa)
#
#
# Indices 1 2 3 4 5 6 
#
# 1 0.015517 -0.007149 -0.004643 0.000000 0.000000 0.000000
# 2 -0.007149 0.022952 -0.004385 0.000000 0.000000 0.000000
# 3 -0.004643 -0.004385 0.013227 0.000000 0.000000 0.000000
# 4 0.000000 0.000000 0.000000 0.134371 0.000000 0.000000
# 5 0.000000 0.000000 0.000000 0.000000 0.037463 0.000000
# 6 0.000000 0.000000 0.000000 0.000000 0.000000 0.056650
#
#
# Mechanical properties :
#
#
# Convention : Reuss Voigt Hill
#
# Bulk Modulus (GPa) = 51.69520 55.77392 53.73456
# Shear Modulus (GPa) = 15.67496 19.82520 17.75008
#
# Velocity S-wave (km/s) = 3.27491 3.68302 3.48494
# Velocity P-wave (km/s) = 7.04773 7.49983 7.27729
#
# Compressibility (1/GPa) = 0.01934416
#
# Stress axis : x y z
#
# Youngs Moduli (GPa) = 64.44611 43.56899 75.60075
#
# Poissons Ratio (x) = 0.31145 0.35099
# Poissons Ratio (y) = 0.46069 0.33150
# Poissons Ratio (z) = 0.29920 0.19104
#
# Static dielectric constant tensor:
#      x y z
#    x 3.153470 0.000000 0.000000 
#    y 0.000000 3.038460 0.000000 
#    z 0.000000 0.000000 2.703170 
# 
# 
# High freq. dielectric constant tensor:
#      x y z
#    x 1.586910 0.000000 0.000000 
#    y 0.000000 1.524470 0.000000 
#    z 0.000000 0.000000 1.527090 
# 
# From -- ./inp_files/28081.got.cif
#   From: 2010.03.12/outbox.cif.g09.slc.cpg/sg51_15_cif.got.tgz:28081.got - 2010.04.16 13:43:02.
