data_PCOD8210777
_publ_section_title
;
Structure prediction by ZEFSAII (Michael W. Deem and Ramdas Pophale) SiO2 
 PCOD8210777
Probable space group: P M M A
;
_chemical_formula_sum "Si O2"
_cell_formula_units_Z 40
_cell_length_a 15.095455
_cell_length_b 9.048565
_cell_length_c 15.507703
_cell_angle_alpha 90.000000
_cell_angle_beta 90.000000
_cell_angle_gamma 90.000000
_cell_volume 2118.231359
_symmetry_space_group_name_H-M "P M M A"
_symmetry_group_IT_number 51
_symmetry_cell_setting 'orthorhombic'
loop_
_space_group_symop_operation_xyz
x,y,z
1/2-x,-y,z
1/2+x,-y,-z
-x,y,-z
-x,-y,-z
1/2+x,y,-z
1/2-x,y,z
x,-y,z
loop_
_atom_site_type_symbol
_atom_site_label
_atom_site_fract_x
_atom_site_fract_y
_atom_site_fract_z
Si Si1 0.114989 0.825310 0.320680
Si Si2 0.750000 0.822606 0.344949
Si Si3 0.750000 0.673051 0.997458
Si Si4 0.071558 0.173816 0.739953
Si Si5 0.750000 0.826035 0.537604
Si Si6 0.250000 0.326686 0.202177
Si Si7 0.923035 0.174168 0.064726
O O1 0.161563 0.776322 0.410336
O O2 0.162022 0.744461 0.241611
O O3 0.011705 0.777917 0.319916
O O4 0.125998 0.000000 0.305847
O O5 0.662863 0.757809 0.297036
O O6 0.750000 0.756979 0.442263
O O7 0.750000 0.000000 0.345172
O O8 0.750000 0.500000 0.013996
O O9 0.665374 0.742024 0.041824
O O10 0.750000 0.713226 0.897557
O O11 0.052063 0.222467 0.838029
O O12 0.082665 0.000000 0.736045
O O13 0.750000 0.000000 0.527776
O O14 0.250000 0.500000 0.220512
O O15 0.906383 0.000000 0.057115
O O16 0.000000 0.226269 0.000000
#
# Coordination Sequence:
#
# PCOD8210777 Si02
#       7
#     8   4   4   8   4   4   8
#     4   9  17  31  51  74  98 124 161 204 244 287
#     4   9  16  26  42  70 107 134 156 195 247 295
#     4  11  23  35  49  72 103 136 166 205 257 305
#     4   9  17  29  47  71  99 131 164 203 247 288
#     4   8  15  26  43  72 103 128 155 194 244 296
#     4  10  20  33  49  72  99 128 161 198 248 300
#     4  10  20  34  53  75  98 131 176 215 248 292
#
# _framework density 18.883678
#
# number of rings (size 3 to 8) (size 9 to 14) (size 15 to 20)
#    0.000    2.600    0.000    3.000    0.000    6.000 
#    0.000    5.000    0.000    0.000    0.000   22.400 
#    0.000    0.000    0.000    0.000    0.000    0.000 
#
# Total GULP energy -495876.996928 kJ/mol
# GULP energy per Si atom -12396.924923 kJ/mol
# Density = 1.884070 g / cm^3
# Si number density = 18.883678 Si / 1000 Ang^3
#
#
#
# Elastic Constant Matrix: (Units=GPa)
#
#
# Indices 1 2 3 4 5 6 
#
# 1 173.3268 10.3274 81.8509 0.0000 0.0000 0.0000
# 2 10.3274 15.5618 15.1186 0.0000 0.0000 0.0000
# 3 81.8509 15.1186 139.7942 0.0000 0.0000 0.0000
# 4 0.0000 0.0000 0.0000 12.0353 0.0000 0.0000
# 5 0.0000 0.0000 0.0000 0.0000 15.2216 0.0000
# 6 0.0000 0.0000 0.0000 0.0000 0.0000 13.9604
#
#
#
# Elastic Compliance Matrix: (Units=1/GPa)
#
#
# Indices 1 2 3 4 5 6 
#
# 1 0.007984 -0.000846 -0.004583 0.000000 0.000000 0.000000
# 2 -0.000846 0.071894 -0.007280 0.000000 0.000000 0.000000
# 3 -0.004583 -0.007280 0.010624 0.000000 0.000000 0.000000
# 4 0.000000 0.000000 0.000000 0.083089 0.000000 0.000000
# 5 0.000000 0.000000 0.000000 0.000000 0.065696 0.000000
# 6 0.000000 0.000000 0.000000 0.000000 0.000000 0.071631
#
#
# Mechanical properties :
#
#
# Convention : Reuss Voigt Hill
#
# Bulk Modulus (GPa) = 15.36479 60.36409 37.86444
# Shear Modulus (GPa) = 13.96525 23.00253 18.48389
#
# Velocity S-wave (km/s) = 2.72240 3.49394 3.13202
# Velocity P-wave (km/s) = 4.24690 6.95072 5.75972
#
# Compressibility (1/GPa) = 0.06508387
#
# Stress axis : x y z
#
# Youngs Moduli (GPa) = 125.24604 13.90942 94.12365
#
# Poissons Ratio (x) = 0.01176 0.43141
# Poissons Ratio (y) = 0.10594 0.68522
# Poissons Ratio (z) = 0.57405 0.10126
#
# Static dielectric constant tensor:
#      x y z
#    x 3.777280 0.000000 0.000000 
#    y 0.000000 2.984670 0.000000 
#    z 0.000000 0.000000 3.723840 
# 
# 
# High freq. dielectric constant tensor:
#      x y z
#    x 1.748280 0.000000 0.000000 
#    y 0.000000 1.679790 0.000000 
#    z 0.000000 0.000000 1.739540 
# 
# From -- ./inp_files/23870.got.cif
#   From: 2010.03.12/outbox.cif.g09.slc.cpg/sg51_12_cif.got.tgz:23870.got - 2010.04.16 13:43:02.
