data_PCOD8210096
_publ_section_title
;
Structure prediction by ZEFSAII (Michael W. Deem and Ramdas Pophale) SiO2 
 PCOD8210096
Probable space group: P M M A
;
_chemical_formula_sum "Si O2"
_cell_formula_units_Z 64
_cell_length_a 27.453223
_cell_length_b 26.775253
_cell_length_c 5.102762
_cell_angle_alpha 90.000000
_cell_angle_beta 90.000000
_cell_angle_gamma 90.000000
_cell_volume 3750.871912
_symmetry_space_group_name_H-M "P M M A"
_symmetry_group_IT_number 51
_symmetry_cell_setting 'orthorhombic'
loop_
_space_group_symop_operation_xyz
x,y,z
1/2-x,-y,z
1/2+x,-y,-z
-x,y,-z
-x,-y,-z
1/2+x,y,-z
1/2-x,y,z
x,-y,z
loop_
_atom_site_type_symbol
_atom_site_label
_atom_site_fract_x
_atom_site_fract_y
_atom_site_fract_z
Si Si1 0.942372 0.728145 0.027496
Si Si2 0.941863 0.443652 0.497249
Si Si3 0.804336 0.889604 0.037684
Si Si4 0.057381 0.109011 0.475410
Si Si5 0.557958 0.615049 0.996785
Si Si6 0.195737 0.823043 0.460882
Si Si7 0.096745 0.219252 0.472917
Si Si8 0.401475 0.942482 0.974180
O O1 0.927616 0.743751 0.319765
O O2 0.923463 0.671838 0.984680
O O3 0.917403 0.764194 0.818338
O O4 0.000000 0.732336 0.000000
O O5 0.921440 0.500000 0.490508
O O6 0.921382 0.415256 0.750365
O O7 0.000000 0.444610 0.500000
O O8 0.921501 0.413090 0.250740
O O9 0.750000 0.912265 0.003070
O O10 0.810497 0.865873 0.323249
O O11 0.843427 0.933620 0.006892
O O12 0.813893 0.847121 0.822239
O O13 0.079051 0.163409 0.527778
O O14 0.079305 0.070975 0.686445
O O15 0.000000 0.111730 0.500000
O O16 0.070391 0.090929 0.185004
O O17 0.500000 0.614694 0.000000
O O18 0.250000 0.799334 0.476859
O O19 0.155589 0.779711 0.501400
O O20 0.412439 0.000000 0.031288
#
# Coordination Sequence:
#
# PCOD8210096 Si02
#       8
#     8   8   8   8   8   8   8   8
#     4  11  22  33  49  74 103 138 171 208 251 288
#     4   9  15  24  40  59  83 124 174 217 249 279
#     4  10  19  37  59  80 102 124 151 193 248 300
#     4  12  25  40  57  76 101 134 170 207 238 284
#     4   9  17  28  39  59  93 125 165 213 248 282
#     4  10  20  36  59  79  99 124 156 200 247 296
#     4  12  21  37  56  75  98 128 168 206 245 297
#     4  12  24  40  58  79 104 129 160 199 249 302
#
# _framework density 17.0627
#
# number of rings (size 3 to 8) (size 9 to 14) (size 15 to 20)
#    0.000    1.375    2.500    4.500    0.000    5.250 
#    0.000    0.000    0.000    3.750    0.000    0.000 
#    0.000    0.000    0.000    0.000    0.000   43.750 
#
# Total GULP energy -793773.911574 kJ/mol
# GULP energy per Si atom -12402.717368 kJ/mol
# Density = 1.702386 g / cm^3
# Si number density = 17.062700 Si / 1000 Ang^3
#
#
#
# Elastic Constant Matrix: (Units=GPa)
#
#
# Indices 1 2 3 4 5 6 
#
# 1 88.0956 32.1796 18.2707 0.0000 0.0000 0.0000
# 2 32.1796 89.9709 23.3636 0.0000 0.0000 0.0000
# 3 18.2707 23.3636 89.5479 0.0000 0.0000 0.0000
# 4 0.0000 0.0000 0.0000 44.8263 0.0000 0.0000
# 5 0.0000 0.0000 0.0000 0.0000 19.4089 0.0000
# 6 0.0000 0.0000 0.0000 0.0000 0.0000 5.4575
#
#
#
# Elastic Compliance Matrix: (Units=1/GPa)
#
#
# Indices 1 2 3 4 5 6 
#
# 1 0.013261 -0.004334 -0.001575 0.000000 0.000000 0.000000
# 2 -0.004334 0.013339 -0.002596 0.000000 0.000000 0.000000
# 3 -0.001575 -0.002596 0.012166 0.000000 0.000000 0.000000
# 4 0.000000 0.000000 0.000000 0.022308 0.000000 0.000000
# 5 0.000000 0.000000 0.000000 0.000000 0.051523 0.000000
# 6 0.000000 0.000000 0.000000 0.000000 0.000000 0.183234
#
#
# Mechanical properties :
#
#
# Convention : Reuss Voigt Hill
#
# Bulk Modulus (GPa) = 45.96419 46.13803 46.05111
# Shear Modulus (GPa) = 15.62047 26.85857 21.23952
#
# Velocity S-wave (km/s) = 3.02896 3.97181 3.53199
# Velocity P-wave (km/s) = 6.26336 6.93777 6.60918
#
# Compressibility (1/GPa) = 0.02175607
#
# Stress axis : x y z
#
# Youngs Moduli (GPa) = 75.40859 74.96824 82.19738
#
# Poissons Ratio (x) = 0.32492 0.12945
# Poissons Ratio (y) = 0.32683 0.21338
# Poissons Ratio (z) = 0.11876 0.19461
#
# Static dielectric constant tensor:
#      x y z
#    x 3.193030 0.000000 0.000000 
#    y 0.000000 3.113330 0.000000 
#    z 0.000000 0.000000 3.469330 
# 
# 
# High freq. dielectric constant tensor:
#      x y z
#    x 1.627430 0.000000 0.000000 
#    y 0.000000 1.641490 0.000000 
#    z 0.000000 0.000000 1.683810 
# 
# From -- ./inp_files/3193.got.cif
#   From: 2010.03.12/outbox.cif.g09.slc.cpg/sg51_2_cif.got.tgz:3193.got - 2010.04.16 13:43:02.
