data_PCOD8210566
_publ_section_title
;
Structure prediction by ZEFSAII (Michael W. Deem and Ramdas Pophale) SiO2 
 PCOD8210566
Probable space group: P M M A
;
_chemical_formula_sum "Si O2"
_cell_formula_units_Z 52
_cell_length_a 9.005686
_cell_length_b 14.446654
_cell_length_c 20.501830
_cell_angle_alpha 90.000000
_cell_angle_beta 90.000000
_cell_angle_gamma 90.000000
_cell_volume 2667.329695
_symmetry_space_group_name_H-M "P M M A"
_symmetry_group_IT_number 51
_symmetry_cell_setting 'orthorhombic'
loop_
_space_group_symop_operation_xyz
x,y,z
1/2-x,-y,z
1/2+x,-y,-z
-x,y,-z
-x,-y,-z
1/2+x,y,-z
1/2-x,y,z
x,-y,z
loop_
_atom_site_type_symbol
_atom_site_label
_atom_site_fract_x
_atom_site_fract_y
_atom_site_fract_z
Si Si1 0.576557 0.702967 0.569890
Si Si2 0.578536 0.794618 0.064378
Si Si3 0.919532 0.396078 0.751061
Si Si4 0.575843 0.768969 0.311169
Si Si5 0.082357 0.399033 0.883208
Si Si6 0.581311 0.500000 0.567131
Si Si7 0.426729 0.104509 0.806118
O O1 0.500000 0.712793 0.500000
O O2 0.750000 0.723393 0.561776
O O3 0.506760 0.778784 0.619117
O O4 0.547590 0.599274 0.602004
O O5 0.750000 0.819888 0.057766
O O6 0.549688 0.684109 0.066881
O O7 0.512526 0.842681 0.129644
O O8 0.500000 0.834736 0.000000
O O9 0.750000 0.360104 0.742193
O O10 0.932364 0.500000 0.721901
O O11 0.037940 0.331870 0.715882
O O12 0.960221 0.396090 0.826986
O O13 0.750000 0.778828 0.322879
O O14 0.516153 0.845268 0.259691
O O15 0.250000 0.385189 0.854417
O O16 0.071691 0.500000 0.918360
O O17 0.750000 0.500000 0.546211
O O18 0.500000 0.500000 0.500000
O O19 0.250000 0.107364 0.806638
O O20 0.487803 0.000000 0.806219
#
# Coordination Sequence:
#
# PCOD8210566 Si02
#       7
#     8   8   8   8   8   4   8
#     4  10  20  35  53  79 115 153 190 227 268 318
#     4  10  20  35  54  80 110 144 182 223 273 330
#     4  10  20  32  49  76 110 145 182 226 273 322
#     4  11  21  35  57  83 108 144 188 228 277 330
#     4   9  17  32  52  74 105 144 185 226 266 320
#     4   8  16  30  48  70 106 150 187 218 253 302
#     4   9  19  38  61  82 107 139 179 229 286 344
#
# _framework density 19.495152000000001
#
# number of rings (size 3 to 8) (size 9 to 14) (size 15 to 20)
#    0.000    2.308    1.538    1.385    1.077    2.769 
#    0.000    0.000    0.000    4.154    0.000    0.000 
#    0.000    0.000    0.000    0.000    0.000    0.000 
#
# Total GULP energy -644388.443226 kJ/mol
# GULP energy per Si atom -12392.085447 kJ/mol
# Density = 1.945078 g / cm^3
# Si number density = 19.495152 Si / 1000 Ang^3
#
#
#
# Elastic Constant Matrix: (Units=GPa)
#
#
# Indices 1 2 3 4 5 6 
#
# 1 57.9042 33.1594 39.2404 0.0000 0.0000 0.0000
# 2 33.1594 102.2187 64.0465 0.0000 0.0000 0.0000
# 3 39.2404 64.0465 122.0050 0.0000 0.0000 0.0000
# 4 0.0000 0.0000 0.0000 16.9211 0.0000 0.0000
# 5 0.0000 0.0000 0.0000 0.0000 33.2044 0.0000
# 6 0.0000 0.0000 0.0000 0.0000 0.0000 13.1398
#
#
#
# Elastic Compliance Matrix: (Units=1/GPa)
#
#
# Indices 1 2 3 4 5 6 
#
# 1 0.023265 -0.004260 -0.005246 0.000000 0.000000 0.000000
# 2 -0.004260 0.015358 -0.006692 0.000000 0.000000 0.000000
# 3 -0.005246 -0.006692 0.013397 0.000000 0.000000 0.000000
# 4 0.000000 0.000000 0.000000 0.059098 0.000000 0.000000
# 5 0.000000 0.000000 0.000000 0.000000 0.030116 0.000000
# 6 0.000000 0.000000 0.000000 0.000000 0.000000 0.076105
#
#
# Mechanical properties :
#
#
# Convention : Reuss Voigt Hill
#
# Bulk Modulus (GPa) = 50.96108 61.66897 56.31503
# Shear Modulus (GPa) = 19.51026 22.36517 20.93772
#
# Velocity S-wave (km/s) = 3.16693 3.39073 3.28074
# Velocity P-wave (km/s) = 6.29045 6.85792 6.58031
#
# Compressibility (1/GPa) = 0.01962282
#
# Stress axis : x y z
#
# Youngs Moduli (GPa) = 42.98351 65.11371 74.64489
#
# Poissons Ratio (x) = 0.27737 0.39162
# Poissons Ratio (y) = 0.18310 0.49952
# Poissons Ratio (z) = 0.22551 0.43574
#
# Static dielectric constant tensor:
#      x y z
#    x 3.333070 0.000000 0.000000 
#    y 0.000000 3.644070 0.000000 
#    z 0.000000 0.000000 3.483200 
# 
# 
# High freq. dielectric constant tensor:
#      x y z
#    x 1.743580 0.000000 0.000000 
#    y 0.000000 1.735980 0.000000 
#    z 0.000000 0.000000 1.756250 
# 
# From -- ./inp_files/31697.got.cif
#   From: 2010.03.12/outbox.cif.g09.slc.cpg/sg51_16_cif.got.tgz:31697.got - 2010.04.16 13:43:02.
