data_PCOD8211738
_publ_section_title
;
Structure prediction by ZEFSAII (Michael W. Deem and Ramdas Pophale) SiO2 
 PCOD8211738
Probable space group: P M M A
;
_chemical_formula_sum "Si O2"
_cell_formula_units_Z 64
_cell_length_a 15.820427
_cell_length_b 9.302441
_cell_length_c 23.327799
_cell_angle_alpha 90.000000
_cell_angle_beta 90.000000
_cell_angle_gamma 90.000000
_cell_volume 3433.119258
_symmetry_space_group_name_H-M "P M M A"
_symmetry_group_IT_number 51
_symmetry_cell_setting 'orthorhombic'
loop_
_space_group_symop_operation_xyz
x,y,z
1/2-x,-y,z
1/2+x,-y,-z
-x,y,-z
-x,-y,-z
1/2+x,y,-z
1/2-x,y,z
x,-y,z
loop_
_atom_site_type_symbol
_atom_site_label
_atom_site_fract_x
_atom_site_fract_y
_atom_site_fract_z
Si Si1 0.902301 0.832251 0.436659
Si Si2 0.156168 0.335351 0.667962
Si Si3 0.344230 0.665234 0.329321
Si Si4 0.915481 0.337762 0.036788
Si Si5 0.843417 0.162474 0.940945
Si Si6 0.001636 0.830022 0.866410
Si Si7 0.998402 0.670047 0.252744
Si Si8 0.403681 0.832211 0.434732
O O1 0.844893 0.749207 0.391658
O O2 0.872763 0.793405 0.501109
O O3 0.999162 0.786048 0.427532
O O4 0.891090 0.000000 0.425532
O O5 0.250000 0.314614 0.695281
O O6 0.138201 0.500000 0.653031
O O7 0.083922 0.281267 0.711316
O O8 0.250000 0.688098 0.302908
O O9 0.361474 0.500000 0.343660
O O10 0.415887 0.718746 0.285165
O O11 0.347481 0.748756 0.389117
O O12 0.887780 0.500000 0.052977
O O13 0.926915 0.244388 0.094284
O O14 0.845399 0.263376 0.996958
O O15 0.000000 0.338096 0.000000
O O16 0.750000 0.175142 0.913805
O O17 0.909520 0.207701 0.892066
O O18 0.863514 0.000000 0.961241
O O19 0.006160 0.760640 0.804582
O O20 0.018572 0.000000 0.863054
O O21 0.998186 0.500000 0.239257
O O22 0.392574 0.000000 0.423188
#
# Coordination Sequence:
#
# PCOD8211738 Si02
#       8
#     8   8   8   8   8   8   8   8
#     4   9  18  33  54  79 106 135 170 215 269 327
#     4  10  21  37  57  79 101 132 177 224 273 328
#     4  10  21  36  54  77 105 140 181 221 267 325
#     4   9  17  31  52  78 106 137 173 210 250 301
#     4   9  18  33  53  80 114 144 172 214 263 310
#     4  10  20  34  55  79 104 141 184 220 261 315
#     4  10  21  38  55  74 105 142 178 227 277 314
#     4   9  18  33  53  78 107 138 172 213 265 327
#
# _framework density 18.641938
#
# number of rings (size 3 to 8) (size 9 to 14) (size 15 to 20)
#    0.000    2.500    1.250    1.500    0.000    5.250 
#    0.000    4.375    0.000    2.250    0.000    0.000 
#    0.000    0.000    0.000    0.000    0.000    0.000 
#
# Total GULP energy -793505.621288 kJ/mol
# GULP energy per Si atom -12398.525333 kJ/mol
# Density = 1.859951 g / cm^3
# Si number density = 18.641938 Si / 1000 Ang^3
#
#
#
# Elastic Constant Matrix: (Units=GPa)
#
#
# Indices 1 2 3 4 5 6 
#
# 1 87.9160 27.6052 45.8870 0.0000 0.0000 0.0000
# 2 27.6052 71.5502 56.5936 0.0000 0.0000 0.0000
# 3 45.8870 56.5936 126.9930 0.0000 0.0000 0.0000
# 4 0.0000 0.0000 0.0000 38.2208 0.0000 0.0000
# 5 0.0000 0.0000 0.0000 0.0000 16.2514 0.0000
# 6 0.0000 0.0000 0.0000 0.0000 0.0000 20.4145
#
#
#
# Elastic Compliance Matrix: (Units=1/GPa)
#
#
# Indices 1 2 3 4 5 6 
#
# 1 0.014239 -0.002199 -0.004165 0.000000 0.000000 0.000000
# 2 -0.002199 0.021924 -0.008976 0.000000 0.000000 0.000000
# 3 -0.004165 -0.008976 0.013379 0.000000 0.000000 0.000000
# 4 0.000000 0.000000 0.000000 0.026164 0.000000 0.000000
# 5 0.000000 0.000000 0.000000 0.000000 0.061533 0.000000
# 6 0.000000 0.000000 0.000000 0.000000 0.000000 0.048985
#
#
# Mechanical properties :
#
#
# Convention : Reuss Voigt Hill
#
# Bulk Modulus (GPa) = 53.01490 60.73675 56.87582
# Shear Modulus (GPa) = 22.40228 25.40223 23.90226
#
# Velocity S-wave (km/s) = 3.47034 3.69540 3.58463
# Velocity P-wave (km/s) = 6.67517 7.13158 6.90714
#
# Compressibility (1/GPa) = 0.01886262
#
# Stress axis : x y z
#
# Youngs Moduli (GPa) = 70.23019 45.61178 74.74216
#
# Poissons Ratio (x) = 0.10031 0.31129
# Poissons Ratio (y) = 0.15446 0.67086
# Poissons Ratio (z) = 0.29250 0.40940
#
# Static dielectric constant tensor:
#      x y z
#    x 3.443470 0.000000 0.000000 
#    y 0.000000 3.415780 0.000000 
#    z 0.000000 0.000000 3.272550 
# 
# 
# High freq. dielectric constant tensor:
#      x y z
#    x 1.718470 0.000000 0.000000 
#    y 0.000000 1.722200 0.000000 
#    z 0.000000 0.000000 1.711040 
# 
# From -- ./inp_files/35712.got.cif
#   From: 2010.03.12/outbox.cif.g09.slc.cpg/sg51_18_cif.got.tgz:35712.got - 2010.04.16 13:43:02.
