data_PCOD8211042
_publ_section_title
;
Structure prediction by ZEFSAII (Michael W. Deem and Ramdas Pophale) SiO2 
 PCOD8211042
Probable space group: P M M A
;
_chemical_formula_sum "Si O2"
_cell_formula_units_Z 48
_cell_length_a 9.143264
_cell_length_b 9.014781
_cell_length_c 30.870647
_cell_angle_alpha 90.000000
_cell_angle_beta 90.000000
_cell_angle_gamma 90.000000
_cell_volume 2544.498341
_symmetry_space_group_name_H-M "P M M A"
_symmetry_group_IT_number 51
_symmetry_cell_setting 'orthorhombic'
loop_
_space_group_symop_operation_xyz
x,y,z
1/2-x,-y,z
1/2+x,-y,-z
-x,y,-z
-x,-y,-z
1/2+x,y,-z
1/2-x,y,z
x,-y,z
loop_
_atom_site_type_symbol
_atom_site_label
_atom_site_fract_x
_atom_site_fract_y
_atom_site_fract_z
Si Si1 0.921214 0.327948 0.127578
Si Si2 0.578827 0.670590 0.456990
Si Si3 0.915138 0.676515 0.958280
Si Si4 0.082481 0.174556 0.204814
Si Si5 0.923186 0.831319 0.370817
Si Si6 0.580774 0.327473 0.706695
O O1 0.750000 0.301469 0.121089
O O2 0.957221 0.500000 0.136105
O O3 0.002298 0.269025 0.084706
O O4 0.977483 0.233424 0.167624
O O5 0.500000 0.730277 0.500000
O O6 0.750000 0.690977 0.464201
O O7 0.537044 0.500000 0.447932
O O8 0.521984 0.766597 0.416581
O O9 0.750000 0.739046 0.958000
O O10 0.914127 0.500000 0.960289
O O11 0.000000 0.740950 0.000000
O O12 0.250000 0.219540 0.194401
O O13 0.030133 0.246243 0.249663
O O14 0.063975 0.000000 0.208997
O O15 0.750000 0.819862 0.367626
O O16 0.988456 0.733820 0.332795
O O17 0.978053 0.000000 0.366695
O O18 0.750000 0.295787 0.697106
O O19 0.547465 0.500000 0.712465
#
# Coordination Sequence:
#
# PCOD8211042 Si02
#       6
#     8   8   8   8   8   8
#     4  10  20  33  51  77 107 139 177 218 260 310
#     4   9  18  33  52  74 102 137 177 220 263 308
#     4   9  16  27  46  73 105 139 175 218 265 310
#     4  10  21  37  56  77 103 136 173 214 262 314
#     4  10  21  36  54  78 109 143 177 214 260 314
#     4  10  21  37  58  82 106 135 174 218 263 313
#
# _framework density 18.864231
#
# number of rings (size 3 to 8) (size 9 to 14) (size 15 to 20)
#    0.000    2.333    0.000    2.500    0.000    7.667 
#    0.000    1.667    0.000    0.500    0.000    0.000 
#    0.000    0.000    0.000    0.000    0.000    0.000 
#
# Total GULP energy -595372.218907 kJ/mol
# GULP energy per Si atom -12403.587894 kJ/mol
# Density = 1.882129 g / cm^3
# Si number density = 18.864231 Si / 1000 Ang^3
#
#
#
# Elastic Constant Matrix: (Units=GPa)
#
#
# Indices 1 2 3 4 5 6 
#
# 1 75.3280 33.5038 62.9263 0.0000 0.0000 0.0000
# 2 33.5038 67.6831 51.3844 0.0000 0.0000 0.0000
# 3 62.9263 51.3844 162.3380 0.0000 0.0000 0.0000
# 4 0.0000 0.0000 0.0000 -7.8225 0.0000 0.0000
# 5 0.0000 0.0000 0.0000 0.0000 39.1128 0.0000
# 6 0.0000 0.0000 0.0000 0.0000 0.0000 23.7359
#
#
#
# Elastic Compliance Matrix: (Units=1/GPa)
#
#
# Indices 1 2 3 4 5 6 
#
# 1 0.021121 -0.005581 -0.006421 0.000000 0.000000 0.000000
# 2 -0.005581 0.020923 -0.004459 0.000000 0.000000 0.000000
# 3 -0.006421 -0.004459 0.010060 0.000000 0.000000 0.000000
# 4 0.000000 0.000000 0.000000 -0.127837 0.000000 0.000000
# 5 0.000000 0.000000 0.000000 0.000000 0.025567 0.000000
# 6 0.000000 0.000000 0.000000 0.000000 0.000000 0.042130
#
#
# Mechanical properties :
#
#
# Convention : Reuss Voigt Hill
#
# Bulk Modulus (GPa) = 52.13026 66.77535 59.45280
# Shear Modulus (GPa) = 159.84845 21.50756 90.67801
#
# Velocity S-wave (km/s) = 9.21522 3.38024 6.94068
# Velocity P-wave (km/s) = 11.87103 7.12105 9.78853
#
# Compressibility (1/GPa) = 0.01918272
#
# Stress axis : x y z
#
# Youngs Moduli (GPa) = 47.34646 47.79483 99.40060
#
# Poissons Ratio (x) = 0.26672 0.63821
# Poissons Ratio (y) = 0.26422 0.44327
# Poissons Ratio (z) = 0.30399 0.21314
#
# Static dielectric constant tensor:
#      x y z
#    x 3.489260 0.000000 0.000000 
#    y 0.000000 3.339920 0.000000 
#    z 0.000000 0.000000 3.616050 
# 
# 
# High freq. dielectric constant tensor:
#      x y z
#    x 1.730690 0.000000 0.000000 
#    y 0.000000 1.716430 0.000000 
#    z 0.000000 0.000000 1.747920 
# 
# From -- ./inp_files/36937.got.cif
#   From: 2010.03.12/outbox.cif.g09.slc.cpg/sg51_19_cif.got.tgz:36937.got - 2010.04.16 13:43:02.
