data_PCOD8211628
_publ_section_title
;
Structure prediction by ZEFSAII (Michael W. Deem and Ramdas Pophale) SiO2 
 PCOD8211628
Probable space group: P M M A
;
_chemical_formula_sum "Si O2"
_cell_formula_units_Z 64
_cell_length_a 18.435008
_cell_length_b 9.240160
_cell_length_c 20.725063
_cell_angle_alpha 90.000000
_cell_angle_beta 90.000000
_cell_angle_gamma 90.000000
_cell_volume 3530.357459
_symmetry_space_group_name_H-M "P M M A"
_symmetry_group_IT_number 51
_symmetry_cell_setting 'orthorhombic'
loop_
_space_group_symop_operation_xyz
x,y,z
1/2-x,-y,z
1/2+x,-y,-z
-x,y,-z
-x,-y,-z
1/2+x,y,-z
1/2-x,y,z
x,-y,z
loop_
_atom_site_type_symbol
_atom_site_label
_atom_site_fract_x
_atom_site_fract_y
_atom_site_fract_z
Si Si1 0.832115 0.331483 0.620755
Si Si2 0.404946 0.329846 0.244565
Si Si3 0.165040 0.831830 0.125914
Si Si4 0.965699 0.168846 0.303073
Si Si5 0.458837 0.832145 0.437112
Si Si6 0.332853 0.335165 0.892678
Si Si7 0.081983 0.829392 0.998053
Si Si8 0.667329 0.667053 0.256671
O O1 0.750000 0.277500 0.611278
O O2 0.839748 0.500000 0.606356
O O3 0.855396 0.295679 0.693654
O O4 0.882341 0.248883 0.569697
O O5 0.417557 0.500000 0.234582
O O6 0.363536 0.265356 0.183829
O O7 0.482778 0.253216 0.252787
O O8 0.250000 0.804807 0.116282
O O9 0.148331 0.000000 0.140495
O O10 0.124828 0.777600 0.061459
O O11 0.884471 0.229837 0.298148
O O12 0.990717 0.198765 0.375807
O O13 0.967511 0.000000 0.285683
O O14 0.500000 0.771837 0.500000
O O15 0.440677 0.000000 0.445108
O O16 0.250000 0.308532 0.912669
O O17 0.355096 0.500000 0.906377
O O18 0.382906 0.231408 0.933681
O O19 0.344444 0.296878 0.818164
O O20 0.084929 0.000000 0.992297
O O21 0.000000 0.771609 0.000000
O O22 0.750000 0.700422 0.276958
O O23 0.648686 0.500000 0.270792
#
# Coordination Sequence:
#
# PCOD8211628 Si02
#       8
#     8   8   8   8   8   8   8   8
#     4   9  18  33  53  79 109 138 174 218 259 306
#     4  10  20  34  54  79 107 139 173 214 264 315
#     4  10  21  36  52  73 105 140 173 215 265 314
#     4  10  20  34  55  81 108 138 175 217 259 309
#     4   9  19  36  55  77 107 143 180 216 256 304
#     4   9  19  36  56  76  99 130 171 217 262 311
#     4  10  22  37  52  74 104 137 173 215 262 312
#     4   9  19  36  56  79 108 139 173 217 267 315
#
# _framework density 18.128477
#
# number of rings (size 3 to 8) (size 9 to 14) (size 15 to 20)
#    0.000    2.500    0.000    2.250    1.750    4.500 
#    0.000    1.875    0.000    3.750    0.000    0.000 
#    0.000    0.000    0.000    0.000    0.000    0.000 
#
# Total GULP energy -793788.939765 kJ/mol
# GULP energy per Si atom -12402.952184 kJ/mol
# Density = 1.808722 g / cm^3
# Si number density = 18.128477 Si / 1000 Ang^3
#
#
#
# Elastic Constant Matrix: (Units=GPa)
#
#
# Indices 1 2 3 4 5 6 
#
# 1 138.3496 57.3354 60.0596 0.0000 0.0000 0.0000
# 2 57.3354 65.8127 41.8734 0.0000 0.0000 0.0000
# 3 60.0596 41.8734 70.7666 0.0000 0.0000 0.0000
# 4 0.0000 0.0000 0.0000 28.2658 0.0000 0.0000
# 5 0.0000 0.0000 0.0000 0.0000 30.4449 0.0000
# 6 0.0000 0.0000 0.0000 0.0000 0.0000 32.3592
#
#
#
# Elastic Compliance Matrix: (Units=1/GPa)
#
#
# Indices 1 2 3 4 5 6 
#
# 1 0.013193 -0.007008 -0.007050 0.000000 0.000000 0.000000
# 2 -0.007008 0.028091 -0.010674 0.000000 0.000000 0.000000
# 3 -0.007050 -0.010674 0.026431 0.000000 0.000000 0.000000
# 4 0.000000 0.000000 0.000000 0.035379 0.000000 0.000000
# 5 0.000000 0.000000 0.000000 0.000000 0.032846 0.000000
# 6 0.000000 0.000000 0.000000 0.000000 0.000000 0.030903
#
#
# Mechanical properties :
#
#
# Convention : Reuss Voigt Hill
#
# Bulk Modulus (GPa) = 54.79452 65.94063 60.36758
# Shear Modulus (GPa) = 22.48293 25.92467 24.20380
#
# Velocity S-wave (km/s) = 3.52547 3.78571 3.65790
# Velocity P-wave (km/s) = 6.84567 7.45398 7.15629
#
# Compressibility (1/GPa) = 0.01825000
#
# Stress axis : x y z
#
# Youngs Moduli (GPa) = 75.79852 35.59814 37.83487
#
# Poissons Ratio (x) = 0.24946 0.26674
# Poissons Ratio (y) = 0.53118 0.40387
# Poissons Ratio (z) = 0.53440 0.37999
#
# Static dielectric constant tensor:
#      x y z
#    x 3.562760 0.000000 0.000000 
#    y 0.000000 3.281130 0.000000 
#    z 0.000000 0.000000 3.250660 
# 
# 
# High freq. dielectric constant tensor:
#      x y z
#    x 1.711780 0.000000 0.000000 
#    y 0.000000 1.700340 0.000000 
#    z 0.000000 0.000000 1.691850 
# 
# From -- ./inp_files/33985.got.cif
#   From: 2010.03.12/outbox.cif.g09.slc.cpg/sg51_17_cif.got.tgz:33985.got - 2010.04.16 13:43:02.
