data_PCOD8211013
_publ_section_title
;
Structure prediction by ZEFSAII (Michael W. Deem and Ramdas Pophale) SiO2 
 PCOD8211013
Probable space group: P M M A
;
_chemical_formula_sum "Si O2"
_cell_formula_units_Z 48
_cell_length_a 9.049316
_cell_length_b 9.224004
_cell_length_c 30.782428
_cell_angle_alpha 90.000000
_cell_angle_beta 90.000000
_cell_angle_gamma 90.000000
_cell_volume 2569.437800
_symmetry_space_group_name_H-M "P M M A"
_symmetry_group_IT_number 51
_symmetry_cell_setting 'orthorhombic'
loop_
_space_group_symop_operation_xyz
x,y,z
1/2-x,-y,z
1/2+x,-y,-z
-x,y,-z
-x,-y,-z
1/2+x,y,-z
1/2-x,y,z
x,-y,z
loop_
_atom_site_type_symbol
_atom_site_label
_atom_site_fract_x
_atom_site_fract_y
_atom_site_fract_z
Si Si1 0.083519 0.327456 0.042139
Si Si2 0.578101 0.831242 0.543736
Si Si3 0.920250 0.829752 0.794732
Si Si4 0.923450 0.667002 0.128839
Si Si5 0.579530 0.332817 0.707994
Si Si6 0.580748 0.670622 0.379113
O O1 0.250000 0.266633 0.042577
O O2 0.082924 0.500000 0.040203
O O3 0.001032 0.273753 0.085347
O O4 0.000000 0.263948 0.000000
O O5 0.500000 0.775463 0.500000
O O6 0.750000 0.796597 0.539343
O O7 0.514065 0.746648 0.584252
O O8 0.546417 0.000000 0.551119
O O9 0.750000 0.790909 0.804884
O O10 0.968917 0.762999 0.748847
O O11 0.023143 0.762840 0.831345
O O12 0.946964 0.000000 0.792738
O O13 0.750000 0.685692 0.122525
O O14 0.966407 0.500000 0.137675
O O15 0.750000 0.306757 0.695675
O O16 0.549597 0.500000 0.719794
O O17 0.481056 0.281378 0.667613
O O18 0.750000 0.720666 0.382604
O O19 0.563037 0.500000 0.385329
#
# Coordination Sequence:
#
# PCOD8211013 Si02
#       6
#     8   8   8   8   8   8
#     4   9  16  27  46  73 104 135 169 212 259 306
#     4  10  21  37  57  80 107 141 180 220 262 309
#     4  10  21  36  54  77 105 137 174 216 262 313
#     4  10  20  33  51  76 105 138 176 216 259 308
#     4   9  18  34  55  77 104 139 177 217 261 310
#     4  10  21  36  55  81 111 141 174 214 261 312
#
# _framework density 18.681131000000001
#
# number of rings (size 3 to 8) (size 9 to 14) (size 15 to 20)
#    0.000    2.333    0.000    2.500    0.000    7.667 
#    0.000    3.333    0.000    0.500    0.000    0.000 
#    0.000    0.000    0.000    0.000    0.000    0.000 
#
# Total GULP energy -595381.068612 kJ/mol
# GULP energy per Si atom -12403.772263 kJ/mol
# Density = 1.863861 g / cm^3
# Si number density = 18.681131 Si / 1000 Ang^3
#
#
#
# Elastic Constant Matrix: (Units=GPa)
#
#
# Indices 1 2 3 4 5 6 
#
# 1 105.9521 36.5362 74.4933 0.0000 0.0000 0.0000
# 2 36.5362 49.0935 54.3560 0.0000 0.0000 0.0000
# 3 74.4933 54.3560 156.8104 0.0000 0.0000 0.0000
# 4 0.0000 0.0000 0.0000 -32.8361 0.0000 0.0000
# 5 0.0000 0.0000 0.0000 0.0000 42.7827 0.0000
# 6 0.0000 0.0000 0.0000 0.0000 0.0000 22.5754
#
#
#
# Elastic Compliance Matrix: (Units=1/GPa)
#
#
# Indices 1 2 3 4 5 6 
#
# 1 0.014977 -0.005304 -0.005276 0.000000 0.000000 0.000000
# 2 -0.005304 0.034935 -0.009590 0.000000 0.000000 0.000000
# 3 -0.005276 -0.009590 0.012208 0.000000 0.000000 0.000000
# 4 0.000000 0.000000 0.000000 -0.030454 0.000000 0.000000
# 5 0.000000 0.000000 0.000000 0.000000 0.023374 0.000000
# 6 0.000000 0.000000 0.000000 0.000000 0.000000 0.044296
#
#
# Mechanical properties :
#
#
# Convention : Reuss Voigt Hill
#
# Bulk Modulus (GPa) = 45.91624 71.40299 58.65962
# Shear Modulus (GPa) = 34.02862 16.26907 25.14885
#
# Velocity S-wave (km/s) = 4.27259 2.95427 3.67306
# Velocity P-wave (km/s) = 6.99803 7.06696 7.03258
#
# Compressibility (1/GPa) = 0.02177879
#
# Stress axis : x y z
#
# Youngs Moduli (GPa) = 66.76920 28.62492 81.91530
#
# Poissons Ratio (x) = 0.15184 0.43220
# Poissons Ratio (y) = 0.35417 0.78554
# Poissons Ratio (z) = 0.35229 0.27450
#
# Static dielectric constant tensor:
#      x y z
#    x 3.674870 0.000000 0.000000 
#    y 0.000000 3.183110 0.000000 
#    z 0.000000 0.000000 3.551150 
# 
# 
# High freq. dielectric constant tensor:
#      x y z
#    x 1.734780 0.000000 0.000000 
#    y 0.000000 1.697430 0.000000 
#    z 0.000000 0.000000 1.739620 
# 
# From -- ./inp_files/36890.got.cif
#   From: 2010.03.12/outbox.cif.g09.slc.cpg/sg51_19_cif.got.tgz:36890.got - 2010.04.16 13:43:02.
