data_PCOD8211639
_publ_section_title
;
Structure prediction by ZEFSAII (Michael W. Deem and Ramdas Pophale) SiO2 
 PCOD8211639
Probable space group: P M M A
;
_chemical_formula_sum "Si O2"
_cell_formula_units_Z 40
_cell_length_a 18.091813
_cell_length_b 8.629260
_cell_length_c 13.735689
_cell_angle_alpha 90.000000
_cell_angle_beta 90.000000
_cell_angle_gamma 90.000000
_cell_volume 2144.401458
_symmetry_space_group_name_H-M "P M M A"
_symmetry_group_IT_number 51
_symmetry_cell_setting 'orthorhombic'
loop_
_space_group_symop_operation_xyz
x,y,z
1/2-x,-y,z
1/2+x,-y,-z
-x,y,-z
-x,-y,-z
1/2+x,y,-z
1/2-x,y,z
x,-y,z
loop_
_atom_site_type_symbol
_atom_site_label
_atom_site_fract_x
_atom_site_fract_y
_atom_site_fract_z
Si Si1 0.024581 0.818086 0.605465
Si Si2 0.665928 0.321765 0.929236
Si Si3 0.467271 0.680038 0.202757
Si Si4 0.390009 0.180478 0.876383
Si Si5 0.333006 0.680069 0.686167
O O1 0.110677 0.777576 0.620158
O O2 0.000000 0.757150 0.500000
O O3 0.973567 0.736044 0.686134
O O4 0.012743 0.000000 0.615557
O O5 0.750000 0.282726 0.899938
O O6 0.657303 0.500000 0.962129
O O7 0.615429 0.286578 0.835108
O O8 0.640189 0.213558 0.016814
O O9 0.487447 0.500000 0.197499
O O10 0.524472 0.770029 0.133023
O O11 0.340786 0.273903 0.799020
O O12 0.382810 0.000000 0.853200
O O13 0.250000 0.716550 0.650848
O O14 0.351967 0.500000 0.674902
#
# Coordination Sequence:
#
# PCOD8211639 Si02
#       5
#     8   8   8   8   8
#     4  10  21  37  57  79 104 135 170 211 261 313
#     4  10  21  36  52  73 104 140 176 212 251 299
#     4  10  20  35  56  77 100 135 175 215 258 303
#     4  11  21  32  51  78 107 139 173 210 254 305
#     4  10  20  34  54  80 107 135 170 214 260 304
#
# _framework density 18.653224999999999
#
# number of rings (size 3 to 8) (size 9 to 14) (size 15 to 20)
#    0.000    1.800    0.000    7.200    0.000   10.000 
#    0.000    1.000    0.000    3.600    0.000    0.000 
#    0.000    0.000    0.000    0.000    0.000    0.000 
#
# Total GULP energy -496109.326574 kJ/mol
# GULP energy per Si atom -12402.733164 kJ/mol
# Density = 1.861077 g / cm^3
# Si number density = 18.653225 Si / 1000 Ang^3
#
#
#
# Elastic Constant Matrix: (Units=GPa)
#
#
# Indices 1 2 3 4 5 6 
#
# 1 124.4627 20.7005 64.1798 0.0000 0.0000 0.0000
# 2 20.7005 46.7300 18.6715 0.0000 0.0000 0.0000
# 3 64.1798 18.6715 105.6700 0.0000 0.0000 0.0000
# 4 0.0000 0.0000 0.0000 29.6508 0.0000 0.0000
# 5 0.0000 0.0000 0.0000 0.0000 18.7333 0.0000
# 6 0.0000 0.0000 0.0000 0.0000 0.0000 12.8076
#
#
#
# Elastic Compliance Matrix: (Units=1/GPa)
#
#
# Indices 1 2 3 4 5 6 
#
# 1 0.011981 -0.002582 -0.006821 0.000000 0.000000 0.000000
# 2 -0.002582 0.023582 -0.002598 0.000000 0.000000 0.000000
# 3 -0.006821 -0.002598 0.014065 0.000000 0.000000 0.000000
# 4 0.000000 0.000000 0.000000 0.033726 0.000000 0.000000
# 5 0.000000 0.000000 0.000000 0.000000 0.053381 0.000000
# 6 0.000000 0.000000 0.000000 0.000000 0.000000 0.078078
#
#
# Mechanical properties :
#
#
# Convention : Reuss Voigt Hill
#
# Bulk Modulus (GPa) = 39.02381 53.77403 46.39892
# Shear Modulus (GPa) = 20.21369 23.79241 22.00305
#
# Velocity S-wave (km/s) = 3.29547 3.57531 3.43823
# Velocity P-wave (km/s) = 5.95367 6.77751 6.37890
#
# Compressibility (1/GPa) = 0.02562538
#
# Stress axis : x y z
#
# Youngs Moduli (GPa) = 83.46518 42.40590 71.09793
#
# Poissons Ratio (x) = 0.10950 0.48493
# Poissons Ratio (y) = 0.21552 0.18475
# Poissons Ratio (z) = 0.56928 0.11019
#
# Static dielectric constant tensor:
#      x y z
#    x 3.521510 0.000000 0.000000 
#    y 0.000000 3.474630 0.000000 
#    z 0.000000 0.000000 3.306700 
# 
# 
# High freq. dielectric constant tensor:
#      x y z
#    x 1.726560 0.000000 0.000000 
#    y 0.000000 1.734510 0.000000 
#    z 0.000000 0.000000 1.705140 
# 
# From -- ./inp_files/24538.got.cif
#   From: 2010.03.12/outbox.cif.g09.slc.cpg/sg51_13_cif.got.tgz:24538.got - 2010.04.16 13:43:02.
