data_PCOD8211509
_publ_section_title
;
Structure prediction by ZEFSAII (Michael W. Deem and Ramdas Pophale) SiO2 
 PCOD8211509
Probable space group: P M M A
;
_chemical_formula_sum "Si O2"
_cell_formula_units_Z 64
_cell_length_a 15.445148
_cell_length_b 9.016255
_cell_length_c 23.246631
_cell_angle_alpha 90.000000
_cell_angle_beta 90.000000
_cell_angle_gamma 90.000000
_cell_volume 3237.265226
_symmetry_space_group_name_H-M "P M M A"
_symmetry_group_IT_number 51
_symmetry_cell_setting 'orthorhombic'
loop_
_space_group_symop_operation_xyz
x,y,z
1/2-x,-y,z
1/2+x,-y,-z
-x,y,-z
-x,-y,-z
1/2+x,y,-z
1/2-x,y,z
x,-y,z
loop_
_atom_site_type_symbol
_atom_site_label
_atom_site_fract_x
_atom_site_fract_y
_atom_site_fract_z
Si Si1 0.151660 0.164460 0.530732
Si Si2 0.494872 0.175053 0.863498
Si Si3 0.400842 0.334575 0.423330
Si Si4 0.847312 0.168983 0.684842
Si Si5 0.000247 0.675721 0.745269
Si Si6 0.150581 0.674107 0.073618
Si Si7 0.348415 0.829220 0.954679
Si Si8 0.912067 0.336436 0.369323
O O1 0.250000 0.160652 0.509928
O O2 0.099438 0.268861 0.487397
O O3 0.149385 0.224392 0.596389
O O4 0.111052 0.000000 0.529693
O O5 0.468035 0.245634 0.802956
O O6 0.586368 0.242302 0.883340
O O7 0.416406 0.216939 0.905906
O O8 0.506119 0.000000 0.857158
O O9 0.360611 0.500000 0.424248
O O10 0.346789 0.231977 0.379948
O O11 0.498527 0.341198 0.403148
O O12 0.750000 0.176133 0.709103
O O13 0.905773 0.265764 0.727434
O O14 0.881534 0.000000 0.683516
O O15 0.993187 0.500000 0.753807
O O16 0.070466 0.716830 0.696034
O O17 0.250000 0.711556 0.090569
O O18 0.132441 0.500000 0.077226
O O19 0.131207 0.727577 0.009184
O O20 0.250000 0.803239 0.932392
O O21 0.361895 0.000000 0.973083
O O22 0.869624 0.500000 0.368674
#
# Coordination Sequence:
#
# PCOD8211509 Si02
#       8
#     8   8   8   8   8   8   8   8
#     4  11  23  35  50  77 107 133 167 212 261 314
#     4  11  22  36  58  85 113 149 189 229 275 325
#     4  10  20  34  54  79 105 134 170 211 258 317
#     4  10  20  34  53  78 108 140 175 217 265 320
#     4  10  22  39  57  77 104 139 181 226 267 315
#     4  10  21  36  56  85 120 155 188 225 272 324
#     4   9  19  37  59  84 115 149 186 229 278 331
#     4   9  20  38  56  74  98 132 173 214 261 315
#
# _framework density 19.769774000000002
#
# number of rings (size 3 to 8) (size 9 to 14) (size 15 to 20)
#    0.000    2.000    0.000    4.125    0.000   11.750 
#    0.000    0.625    0.000    2.250    0.000    0.000 
#    0.000    0.000    0.000    0.000    0.000    0.000 
#
# Total GULP energy -793669.550684 kJ/mol
# GULP energy per Si atom -12401.086729 kJ/mol
# Density = 1.972478 g / cm^3
# Si number density = 19.769774 Si / 1000 Ang^3
#
#
#
# Elastic Constant Matrix: (Units=GPa)
#
#
# Indices 1 2 3 4 5 6 
#
# 1 47.4680 24.8443 27.5073 0.0000 0.0000 0.0000
# 2 24.8443 111.3926 49.8131 0.0000 0.0000 0.0000
# 3 27.5073 49.8131 116.4410 0.0000 0.0000 0.0000
# 4 0.0000 0.0000 0.0000 38.5408 0.0000 0.0000
# 5 0.0000 0.0000 0.0000 0.0000 18.2517 0.0000
# 6 0.0000 0.0000 0.0000 0.0000 0.0000 4.8160
#
#
#
# Elastic Compliance Matrix: (Units=1/GPa)
#
#
# Indices 1 2 3 4 5 6 
#
# 1 0.025594 -0.003715 -0.004457 0.000000 0.000000 0.000000
# 2 -0.003715 0.011640 -0.004102 0.000000 0.000000 0.000000
# 3 -0.004457 -0.004102 0.011396 0.000000 0.000000 0.000000
# 4 0.000000 0.000000 0.000000 0.025947 0.000000 0.000000
# 5 0.000000 0.000000 0.000000 0.000000 0.054789 0.000000
# 6 0.000000 0.000000 0.000000 0.000000 0.000000 0.207641
#
#
# Mechanical properties :
#
#
# Convention : Reuss Voigt Hill
#
# Bulk Modulus (GPa) = 41.52509 53.29233 47.40871
# Shear Modulus (GPa) = 13.52878 23.86416 18.69647
#
# Velocity S-wave (km/s) = 2.61878 3.47811 3.07858
# Velocity P-wave (km/s) = 5.49490 6.56846 6.05552
#
# Compressibility (1/GPa) = 0.02408183
#
# Stress axis : x y z
#
# Youngs Moduli (GPa) = 39.07161 85.90890 87.75257
#
# Poissons Ratio (x) = 0.31918 0.39109
# Poissons Ratio (y) = 0.14516 0.35996
# Poissons Ratio (z) = 0.17413 0.35240
#
# Static dielectric constant tensor:
#      x y z
#    x 3.475860 0.000000 0.000000 
#    y 0.000000 3.793800 0.000000 
#    z 0.000000 0.000000 3.627440 
# 
# 
# High freq. dielectric constant tensor:
#      x y z
#    x 1.759090 0.000000 0.000000 
#    y 0.000000 1.782350 0.000000 
#    z 0.000000 0.000000 1.764220 
# 
# From -- ./inp_files/35641.got.cif
#   From: 2010.03.12/outbox.cif.g09.slc.cpg/sg51_18_cif.got.tgz:35641.got - 2010.04.16 13:43:02.
