data_PCOD8211997
_publ_section_title
;
Structure prediction by ZEFSAII (Michael W. Deem and Ramdas Pophale) SiO2 
 PCOD8211997
Probable space group: P M M A
;
_chemical_formula_sum "Si O2"
_cell_formula_units_Z 48
_cell_length_a 9.102261
_cell_length_b 30.328024
_cell_length_c 9.438946
_cell_angle_alpha 90.000000
_cell_angle_beta 90.000000
_cell_angle_gamma 90.000000
_cell_volume 2605.654930
_symmetry_space_group_name_H-M "P M M A"
_symmetry_group_IT_number 51
_symmetry_cell_setting 'orthorhombic'
loop_
_space_group_symop_operation_xyz
x,y,z
1/2-x,-y,z
1/2+x,-y,-z
-x,y,-z
-x,-y,-z
1/2+x,y,-z
1/2-x,y,z
x,-y,z
loop_
_atom_site_type_symbol
_atom_site_label
_atom_site_fract_x
_atom_site_fract_y
_atom_site_fract_z
Si Si1 0.418987 0.076853 0.146626
Si Si2 0.577224 0.580876 0.150628
Si Si3 0.076440 0.000000 0.350178
Si Si4 0.922846 0.500000 0.348033
Si Si5 0.921124 0.176074 0.852111
Si Si6 0.920237 0.342935 0.355361
Si Si7 0.922355 0.757767 0.354539
O O1 0.250000 0.067494 0.113357
O O2 0.442113 0.126371 0.206248
O O3 0.477161 0.043276 0.265317
O O4 0.500000 0.068351 0.000000
O O5 0.750000 0.579183 0.122112
O O6 0.527897 0.542283 0.257035
O O7 0.528032 0.626639 0.224765
O O8 0.500000 0.575672 0.000000
O O9 0.000000 0.000000 0.500000
O O10 0.250000 0.000000 0.373600
O O11 0.750000 0.500000 0.376411
O O12 0.000000 0.500000 0.500000
O O13 0.750000 0.188547 0.865249
O O14 0.004012 0.210774 0.757206
O O15 0.000000 0.179591 0.000000
O O16 0.750000 0.350568 0.386782
O O17 0.954017 0.292733 0.311068
O O18 0.000000 0.356555 0.500000
O O19 0.750000 0.767508 0.366831
O O20 0.000000 0.769270 0.500000
#
# Coordination Sequence:
#
# PCOD8211997 Si02
#       7
#     8   8   4   4   8   8   8
#     4   9  19  35  55  77 102 133 171 210 252 304
#     4  10  21  36  53  78 108 137 171 213 257 305
#     4  10  21  36  52  76 106 134 167 208 252 302
#     4  10  21  36  56  80 106 136 173 212 254 306
#     4  10  20  35  54  78 106 137 173 215 260 309
#     4   9  19  35  54  76 103 135 175 215 255 306
#     4  10  20  35  54  77 105 139 176 217 262 310
#
# _framework density 18.421472000000001
#
# number of rings (size 3 to 8) (size 9 to 14) (size 15 to 20)
#    0.000    2.333    0.000    2.000    0.000    4.667 
#    0.000    3.333    0.000    0.000    0.000    0.000 
#    0.000    0.000    0.000    0.000    0.000    0.000 
#
# Total GULP energy -595211.929699 kJ/mol
# GULP energy per Si atom -12400.248535 kJ/mol
# Density = 1.837954 g / cm^3
# Si number density = 18.421472 Si / 1000 Ang^3
#
#
#
# Elastic Constant Matrix: (Units=GPa)
#
#
# Indices 1 2 3 4 5 6 
#
# 1 74.7949 49.6952 55.3281 0.0000 0.0000 0.0000
# 2 49.6952 119.0520 79.3714 0.0000 0.0000 0.0000
# 3 55.3281 79.3714 128.7811 0.0000 0.0000 0.0000
# 4 0.0000 0.0000 0.0000-1568.2194 0.0000 0.0000
# 5 0.0000 0.0000 0.0000 0.0000 41.2192 0.0000
# 6 0.0000 0.0000 0.0000 0.0000 0.0000 25.4580
#
#
#
# Elastic Compliance Matrix: (Units=1/GPa)
#
#
# Indices 1 2 3 4 5 6 
#
# 1 0.021028 -0.004676 -0.006152 0.000000 0.000000 0.000000
# 2 -0.004676 0.015298 -0.007420 0.000000 0.000000 0.000000
# 3 -0.006152 -0.007420 0.014981 0.000000 0.000000 0.000000
# 4 0.000000 0.000000 0.000000 -0.000638 0.000000 0.000000
# 5 0.000000 0.000000 0.000000 0.000000 0.024261 0.000000
# 6 0.000000 0.000000 0.000000 0.000000 0.000000 0.039280
#
#
# Mechanical properties :
#
#
# Convention : Reuss Voigt Hill
#
# Bulk Modulus (GPa) = 67.51552 76.82415 72.16983
# Shear Modulus (GPa) = 32.12469 -291.09290 -129.48410
#
# Velocity S-wave (km/s) = 4.18050 -12.58417 -8.39299
# Velocity P-wave (km/s) = 7.74804 13.01362 7.39331
#
# Compressibility (1/GPa) = 0.01481141
#
# Stress axis : x y z
#
# Youngs Moduli (GPa) = 47.55668 65.36680 66.74929
#
# Poissons Ratio (x) = 0.30564 0.41066
# Poissons Ratio (y) = 0.22236 0.49528
# Poissons Ratio (z) = 0.29258 0.48502
#
# Static dielectric constant tensor:
#      x y z
#    x 3.417610 0.000000 0.000000 
#    y 0.000000 3.785600 0.000000 
#    z 0.000000 0.000000 3.317770 
# 
# 
# High freq. dielectric constant tensor:
#      x y z
#    x 1.715580 0.000000 0.000000 
#    y 0.000000 1.730170 0.000000 
#    z 0.000000 0.000000 1.711860 
# 
# From -- ./inp_files/6181.got.cif
#   From: 2010.03.12/outbox.cif.g09.slc.cpg/sg51_4_cif.got.tgz:6181.got - 2010.04.16 13:43:02.
