data_PCOD8211880
_publ_section_title
;
Structure prediction by ZEFSAII (Michael W. Deem and Ramdas Pophale) SiO2 
 PCOD8211880
Probable space group: P M M A
;
_chemical_formula_sum "Si O2"
_cell_formula_units_Z 64
_cell_length_a 19.350787
_cell_length_b 8.741609
_cell_length_c 20.721758
_cell_angle_alpha 90.000000
_cell_angle_beta 90.000000
_cell_angle_gamma 90.000000
_cell_volume 3505.230704
_symmetry_space_group_name_H-M "P M M A"
_symmetry_group_IT_number 51
_symmetry_cell_setting 'orthorhombic'
loop_
_space_group_symop_operation_xyz
x,y,z
1/2-x,-y,z
1/2+x,-y,-z
-x,y,-z
-x,-y,-z
1/2+x,y,-z
1/2-x,y,z
x,-y,z
loop_
_atom_site_type_symbol
_atom_site_label
_atom_site_fract_x
_atom_site_fract_y
_atom_site_fract_z
Si Si1 0.539288 0.319306 0.062662
Si Si2 0.671462 0.822504 0.869129
Si Si3 0.957943 0.320225 0.812610
Si Si4 0.827267 0.820897 0.017365
Si Si5 0.671656 0.821428 0.482861
Si Si6 0.545469 0.819987 0.680676
Si Si7 0.960836 0.678597 0.433992
Si Si8 0.672086 0.323705 0.620422
O O1 0.535235 0.500000 0.061126
O O2 0.503264 0.257741 0.127539
O O3 0.618840 0.267333 0.062557
O O4 0.500000 0.250342 0.000000
O O5 0.750000 0.791963 0.847182
O O6 0.622168 0.719811 0.825013
O O7 0.652360 0.000000 0.860130
O O8 0.661712 0.772224 0.943267
O O9 0.966285 0.500000 0.802608
O O10 0.985635 0.234960 0.748850
O O11 0.750000 0.775389 0.039640
O O12 0.838996 0.000000 0.025372
O O13 0.750000 0.782838 0.461088
O O14 0.619367 0.726974 0.437986
O O15 0.660030 0.774297 0.556498
O O16 0.655567 0.000000 0.476151
O O17 0.494435 0.772284 0.623797
O O18 0.620076 0.738759 0.674090
O O19 0.555714 0.000000 0.680206
O O20 0.966752 0.500000 0.418730
O O21 0.000000 0.721729 0.500000
O O22 0.750000 0.304502 0.646576
O O23 0.655343 0.500000 0.604032
#
# Coordination Sequence:
#
# PCOD8211880 Si02
#       8
#     8   8   8   8   8   8   8   8
#     4  10  20  35  55  82 110 142 183 227 274 325
#     4   9  18  33  52  77 110 146 185 224 266 322
#     4  11  23  38  55  77 111 147 185 229 275 331
#     4   9  18  32  53  82 112 142 179 225 274 324
#     4  10  20  34  56  87 118 147 183 228 276 325
#     4  12  25  39  57  80 111 148 189 233 279 330
#     4  11  22  37  60  86 113 148 187 229 278 330
#     4  10  20  35  55  80 112 149 188 227 271 326
#
# _framework density 18.258427999999999
#
# number of rings (size 3 to 8) (size 9 to 14) (size 15 to 20)
#    0.000    1.750    2.500    3.375    0.000    4.250 
#    0.000    1.250    0.000    0.750    0.000    3.500 
#    0.000    0.000    0.000    0.000    0.000    0.000 
#
# Total GULP energy -793795.525107 kJ/mol
# GULP energy per Si atom -12403.055080 kJ/mol
# Density = 1.821687 g / cm^3
# Si number density = 18.258428 Si / 1000 Ang^3
#
#
#
# Elastic Constant Matrix: (Units=GPa)
#
#
# Indices 1 2 3 4 5 6 
#
# 1 101.0894 27.0414 48.3171 0.0000 0.0000 0.0000
# 2 27.0414 42.7836 23.2317 0.0000 0.0000 0.0000
# 3 48.3171 23.2317 93.9345 0.0000 0.0000 0.0000
# 4 0.0000 0.0000 0.0000 27.5981 0.0000 0.0000
# 5 0.0000 0.0000 0.0000 0.0000 22.8574 0.0000
# 6 0.0000 0.0000 0.0000 0.0000 0.0000 33.0537
#
#
#
# Elastic Compliance Matrix: (Units=1/GPa)
#
#
# Indices 1 2 3 4 5 6 
#
# 1 0.014268 -0.005814 -0.005901 0.000000 0.000000 0.000000
# 2 -0.005814 0.029368 -0.004273 0.000000 0.000000 0.000000
# 3 -0.005901 -0.004273 0.014738 0.000000 0.000000 0.000000
# 4 0.000000 0.000000 0.000000 0.036234 0.000000 0.000000
# 5 0.000000 0.000000 0.000000 0.000000 0.043750 0.000000
# 6 0.000000 0.000000 0.000000 0.000000 0.000000 0.030254
#
#
# Mechanical properties :
#
#
# Convention : Reuss Voigt Hill
#
# Bulk Modulus (GPa) = 37.88097 48.33199 43.10648
# Shear Modulus (GPa) = 23.87924 25.98297 24.93111
#
# Velocity S-wave (km/s) = 3.62034 3.77645 3.69922
# Velocity P-wave (km/s) = 6.18611 6.74863 6.47348
#
# Compressibility (1/GPa) = 0.02639848
#
# Stress axis : x y z
#
# Youngs Moduli (GPa) = 70.08709 34.05044 67.85240
#
# Poissons Ratio (x) = 0.19796 0.40041
# Poissons Ratio (y) = 0.40747 0.28992
# Poissons Ratio (z) = 0.41360 0.14549
#
# Static dielectric constant tensor:
#      x y z
#    x 3.491680 0.000000 0.000000 
#    y 0.000000 3.296990 0.000000 
#    z 0.000000 0.000000 3.215850 
# 
# 
# High freq. dielectric constant tensor:
#      x y z
#    x 1.709810 0.000000 0.000000 
#    y 0.000000 1.712450 0.000000 
#    z 0.000000 0.000000 1.683180 
# 
# From -- ./inp_files/33790.got.cif
#   From: 2010.03.12/outbox.cif.g09.slc.cpg/sg51_17_cif.got.tgz:33790.got - 2010.04.16 13:43:02.
