data_PCOD8211775
_publ_section_title
;
Structure prediction by ZEFSAII (Michael W. Deem and Ramdas Pophale) SiO2 
 PCOD8211775
Probable space group: P M M A
;
_chemical_formula_sum "Si O2"
_cell_formula_units_Z 64
_cell_length_a 9.193261
_cell_length_b 25.425467
_cell_length_c 14.281159
_cell_angle_alpha 90.000000
_cell_angle_beta 90.000000
_cell_angle_gamma 90.000000
_cell_volume 3338.120294
_symmetry_space_group_name_H-M "P M M A"
_symmetry_group_IT_number 51
_symmetry_cell_setting 'orthorhombic'
loop_
_space_group_symop_operation_xyz
x,y,z
1/2-x,-y,z
1/2+x,-y,-z
-x,y,-z
-x,-y,-z
1/2+x,y,-z
1/2-x,y,z
x,-y,z
loop_
_atom_site_type_symbol
_atom_site_label
_atom_site_fract_x
_atom_site_fract_y
_atom_site_fract_z
Si Si1 0.919813 0.778881 0.093843
Si Si2 0.583837 0.059503 0.730557
Si Si3 0.419961 0.847738 0.402474
Si Si4 0.079574 0.749705 0.275415
Si Si5 0.918578 0.347452 0.595948
Si Si6 0.580861 0.440074 0.727646
Si Si7 0.913386 0.437428 0.088764
Si Si8 0.419180 0.901684 0.906762
O O1 0.750000 0.765781 0.085201
O O2 0.948475 0.840378 0.110655
O O3 0.988339 0.747497 0.180191
O O4 0.000000 0.759760 0.000000
O O5 0.750000 0.072890 0.759506
O O6 0.533543 0.097843 0.647095
O O7 0.482138 0.066150 0.820106
O O8 0.569317 0.000000 0.693335
O O9 0.500000 0.842397 0.500000
O O10 0.250000 0.845535 0.423661
O O11 0.468087 0.800002 0.335958
O O12 0.250000 0.751926 0.250722
O O13 0.036452 0.697556 0.331491
O O14 0.750000 0.343858 0.572370
O O15 0.960013 0.404133 0.639140
O O16 0.000000 0.338483 0.500000
O O17 0.750000 0.434889 0.753885
O O18 0.539637 0.500000 0.701699
O O19 0.491828 0.419150 0.816602
O O20 0.750000 0.414813 0.087586
O O21 0.912094 0.500000 0.083153
O O22 0.000000 0.414007 0.000000
O O23 0.250000 0.914563 0.917796
O O24 0.500000 0.921163 0.000000
#
# Coordination Sequence:
#
# PCOD8211775 Si02
#       8
#     8   8   8   8   8   8   8   8
#     4  10  20  34  57  87 115 145 180 219 266 323
#     4  10  21  37  55  77 108 145 184 226 272 322
#     4  10  21  36  56  79 104 137 177 223 274 323
#     4  10  20  37  59  82 110 142 178 223 271 321
#     4  10  22  38  57  82 110 143 182 227 278 325
#     4   9  18  34  54  77 109 147 185 225 270 322
#     4   9  16  27  47  76 107 140 179 221 265 315
#     4  10  20  34  55  82 111 144 181 221 267 322
#
# _framework density 19.172466
#
# number of rings (size 3 to 8) (size 9 to 14) (size 15 to 20)
#    0.000    2.250    1.250    1.500    0.000    5.500 
#    0.000    0.625    0.000    0.000    0.000    0.000 
#    0.000    0.000    0.000    0.000    0.000    0.000 
#
# Total GULP energy -793830.095299 kJ/mol
# GULP energy per Si atom -12403.595239 kJ/mol
# Density = 1.912883 g / cm^3
# Si number density = 19.172466 Si / 1000 Ang^3
#
#
#
# Elastic Constant Matrix: (Units=GPa)
#
#
# Indices 1 2 3 4 5 6 
#
# 1 89.9555 37.9458 69.9421 0.0000 0.0000 0.0000
# 2 37.9458 90.8584 56.7341 0.0000 0.0000 0.0000
# 3 69.9421 56.7341 148.7898 0.0000 0.0000 0.0000
# 4 0.0000 0.0000 0.0000 10.4099 0.0000 0.0000
# 5 0.0000 0.0000 0.0000 0.0000 42.5405 0.0000
# 6 0.0000 0.0000 0.0000 0.0000 0.0000 15.5231
#
#
#
# Elastic Compliance Matrix: (Units=1/GPa)
#
#
# Indices 1 2 3 4 5 6 
#
# 1 0.018103 -0.002949 -0.007385 0.000000 0.000000 0.000000
# 2 -0.002949 0.014926 -0.004305 0.000000 0.000000 0.000000
# 3 -0.007385 -0.004305 0.011834 0.000000 0.000000 0.000000
# 4 0.000000 0.000000 0.000000 0.096063 0.000000 0.000000
# 5 0.000000 0.000000 0.000000 0.000000 0.023507 0.000000
# 6 0.000000 0.000000 0.000000 0.000000 0.000000 0.064420
#
#
# Mechanical properties :
#
#
# Convention : Reuss Voigt Hill
#
# Bulk Modulus (GPa) = 64.16722 73.20529 68.68625
# Shear Modulus (GPa) = 18.98789 24.69346 21.84067
#
# Velocity S-wave (km/s) = 3.15043 3.59272 3.37882
# Velocity P-wave (km/s) = 6.83920 7.44819 7.15018
#
# Compressibility (1/GPa) = 0.01558428
#
# Stress axis : x y z
#
# Youngs Moduli (GPa) = 55.24059 66.99759 84.50218
#
# Poissons Ratio (x) = 0.19757 0.62406
# Poissons Ratio (y) = 0.16290 0.36379
# Poissons Ratio (z) = 0.40796 0.28843
#
# Static dielectric constant tensor:
#      x y z
#    x 2.997300 0.000000 0.000000 
#    y 0.000000 3.430590 0.000000 
#    z 0.000000 0.000000 3.417290 
# 
# 
# High freq. dielectric constant tensor:
#      x y z
#    x 1.745080 0.000000 0.000000 
#    y 0.000000 1.733790 0.000000 
#    z 0.000000 0.000000 1.747550 
# 
# From -- ./inp_files/22255.got.cif
#   From: 2010.03.12/outbox.cif.g09.slc.cpg/sg51_12_cif.got.tgz:22255.got - 2010.04.16 13:43:02.
