data_PCOD8211430
_publ_section_title
;
Structure prediction by ZEFSAII (Michael W. Deem and Ramdas Pophale) SiO2 
 PCOD8211430
Probable space group: P M M A
;
_chemical_formula_sum "Si O2"
_cell_formula_units_Z 40
_cell_length_a 8.984648
_cell_length_b 8.697797
_cell_length_c 25.934829
_cell_angle_alpha 90.000000
_cell_angle_beta 90.000000
_cell_angle_gamma 90.000000
_cell_volume 2026.719860
_symmetry_space_group_name_H-M "P M M A"
_symmetry_group_IT_number 51
_symmetry_cell_setting 'orthorhombic'
loop_
_space_group_symop_operation_xyz
x,y,z
1/2-x,-y,z
1/2+x,-y,-z
-x,y,-z
-x,-y,-z
1/2+x,y,-z
1/2-x,y,z
x,-y,z
loop_
_atom_site_type_symbol
_atom_site_label
_atom_site_fract_x
_atom_site_fract_y
_atom_site_fract_z
Si Si1 0.082558 0.182765 0.151941
Si Si2 0.424959 0.821641 0.744202
Si Si3 0.578663 0.679168 0.647293
Si Si4 0.417382 0.182145 0.550453
Si Si5 0.917986 0.183439 0.050880
O O1 0.250000 0.248227 0.154329
O O2 0.993316 0.237874 0.202170
O O3 0.002050 0.248917 0.101143
O O4 0.084245 0.000000 0.149356
O O5 0.250000 0.794233 0.746031
O O6 0.494495 0.719975 0.699488
O O7 0.463723 0.000000 0.734334
O O8 0.750000 0.728563 0.652618
O O9 0.561363 0.500000 0.635980
O O10 0.506978 0.771460 0.600736
O O11 0.500000 0.249080 0.500000
O O12 0.250000 0.249885 0.552480
O O13 0.411280 0.000000 0.547827
O O14 0.750000 0.246285 0.051092
O O15 0.919029 0.000000 0.051326
O O16 0.000000 0.246289 0.000000
#
# Coordination Sequence:
#
# PCOD8211430 Si02
#       5
#     8   8   8   8   8
#     4   9  16  26  41  62  89 123 163 206 253 305
#     4  10  20  34  53  76 101 132 172 216 261 310
#     4  11  24  39  55  78 108 141 176 214 258 307
#     4  10  21  38  61  87 112 140 175 213 254 302
#     4   9  15  22  33  52  82 120 160 202 250 305
#
# _framework density 19.736324
#
# number of rings (size 3 to 8) (size 9 to 14) (size 15 to 20)
#    0.000    2.200    0.000    3.600    0.000   11.600 
#    0.000    0.000    0.000    0.000    0.000    0.000 
#    0.000    0.800    0.000    3.000    0.000    6.600 
#
# Total GULP energy -496095.971672 kJ/mol
# GULP energy per Si atom -12402.399292 kJ/mol
# Density = 1.969140 g / cm^3
# Si number density = 19.736324 Si / 1000 Ang^3
#
#
#
# Elastic Constant Matrix: (Units=GPa)
#
#
# Indices 1 2 3 4 5 6 
#
# 1 155.4251 12.0645 69.1192 0.0000 0.0000 0.0000
# 2 12.0645 8.1585 3.3113 0.0000 0.0000 0.0000
# 3 69.1192 3.3113 162.5608 0.0000 0.0000 0.0000
# 4 0.0000 0.0000 0.0000 -23.7988 0.0000 0.0000
# 5 0.0000 0.0000 0.0000 0.0000 48.8574 0.0000
# 6 0.0000 0.0000 0.0000 0.0000 0.0000 16.5350
#
#
#
# Elastic Compliance Matrix: (Units=1/GPa)
#
#
# Indices 1 2 3 4 5 6 
#
# 1 0.008929 -0.011760 -0.003557 0.000000 0.000000 0.000000
# 2 -0.011760 0.139082 0.002167 0.000000 0.000000 0.000000
# 3 -0.003557 0.002167 0.007620 0.000000 0.000000 0.000000
# 4 0.000000 0.000000 0.000000 -0.042019 0.000000 0.000000
# 5 0.000000 0.000000 0.000000 0.000000 0.020468 0.000000
# 6 0.000000 0.000000 0.000000 0.000000 0.000000 0.060478
#
#
# Mechanical properties :
#
#
# Convention : Reuss Voigt Hill
#
# Bulk Modulus (GPa) = 7.73208 55.01492 31.37350
# Shear Modulus (GPa) = 18.94186 24.42869 21.68528
#
# Velocity S-wave (km/s) = 3.10134 3.52199 3.31834
# Velocity P-wave (km/s) = 4.09275 6.66893 5.53287
#
# Compressibility (1/GPa) = 0.12933137
#
# Stress axis : x y z
#
# Youngs Moduli (GPa) = 112.00081 7.19001 131.23871
#
# Poissons Ratio (x) = 0.08455 0.46679
# Poissons Ratio (y) = 1.31708 -0.28440
# Poissons Ratio (z) = 0.39836 -0.01558
#
# Static dielectric constant tensor:
#      x y z
#    x 3.723470 0.000000 0.000000 
#    y 0.000000 3.009230 0.000000 
#    z 0.000000 0.000000 3.891060 
# 
# 
# High freq. dielectric constant tensor:
#      x y z
#    x 1.791560 0.000000 0.000000 
#    y 0.000000 1.710520 0.000000 
#    z 0.000000 0.000000 1.788960 
# 
# From -- ./inp_files/34302.got.cif
#   From: 2010.03.12/outbox.cif.g09.slc.cpg/sg51_18_cif.got.tgz:34302.got - 2010.04.16 13:43:02.
