data_PCOD8211285
_publ_section_title
;
Structure prediction by ZEFSAII (Michael W. Deem and Ramdas Pophale) SiO2 
 PCOD8211285
Probable space group: P M M A
;
_chemical_formula_sum "Si O2"
_cell_formula_units_Z 56
_cell_length_a 16.232193
_cell_length_b 8.969806
_cell_length_c 19.151663
_cell_angle_alpha 90.000000
_cell_angle_beta 90.000000
_cell_angle_gamma 90.000000
_cell_volume 2788.474897
_symmetry_space_group_name_H-M "P M M A"
_symmetry_group_IT_number 51
_symmetry_cell_setting 'orthorhombic'
loop_
_space_group_symop_operation_xyz
x,y,z
1/2-x,-y,z
1/2+x,-y,-z
-x,y,-z
-x,-y,-z
1/2+x,y,-z
1/2-x,y,z
x,-y,z
loop_
_atom_site_type_symbol
_atom_site_label
_atom_site_fract_x
_atom_site_fract_y
_atom_site_fract_z
Si Si1 0.512111 0.823044 0.422407
Si Si2 0.503162 0.169156 0.160174
Si Si3 0.090466 0.170004 0.296325
Si Si4 0.750000 0.821211 0.779952
Si Si5 0.157171 0.668872 0.648543
Si Si6 0.418244 0.323840 0.042907
Si Si7 0.250000 0.177975 0.058188
Si Si8 0.341358 0.328236 0.810097
O O1 0.500000 0.757545 0.500000
O O2 0.441891 0.757659 0.369226
O O3 0.602298 0.778247 0.397116
O O4 0.506765 0.000000 0.422427
O O5 0.485281 0.181863 0.242389
O O6 0.435935 0.270821 0.121669
O O7 0.595357 0.228350 0.145791
O O8 0.494788 0.000000 0.133190
O O9 0.171396 0.245373 0.262320
O O10 0.113880 0.000000 0.311226
O O11 0.750000 0.768603 0.860549
O O12 0.750000 0.000000 0.781391
O O13 0.250000 0.684112 0.620387
O O14 0.125304 0.500000 0.639751
O O15 0.154415 0.715216 0.729237
O O16 0.405625 0.500000 0.037572
O O17 0.332248 0.244613 0.020319
O O18 0.500000 0.271878 0.000000
O O19 0.250000 0.000000 0.050690
O O20 0.250000 0.296587 0.839260
O O21 0.365432 0.500000 0.821557
#
# Coordination Sequence:
#
# PCOD8211285 Si02
#       8
#     8   8   8   4   8   8   4   8
#     4  10  20  34  51  78 113 148 189 234 288 350
#     4  11  20  34  60  88 114 147 193 247 298 347
#     4   9  17  31  52  80 112 144 183 236 294 348
#     4   9  16  31  57  85 111 142 183 238 300 346
#     4   9  18  33  53  75 100 138 185 225 271 335
#     4  11  25  44  64  89 125 167 204 243 300 368
#     4  11  21  39  69  99 123 154 203 258 310 364
#     4   9  18  33  53  79 111 147 186 230 286 349
#
# _framework density 20.082663
#
# number of rings (size 3 to 8) (size 9 to 14) (size 15 to 20)
#    0.000    2.143    2.857    1.929    0.000    2.000 
#    2.571    1.429    0.000    0.000    0.000    0.000 
#    0.000    0.000    0.000    0.000    0.000    0.000 
#
# Total GULP energy -694100.886220 kJ/mol
# GULP energy per Si atom -12394.658683 kJ/mol
# Density = 2.003695 g / cm^3
# Si number density = 20.082663 Si / 1000 Ang^3
#
#
#
# Elastic Constant Matrix: (Units=GPa)
#
#
# Indices 1 2 3 4 5 6 
#
# 1 145.9723 41.3899 28.8738 0.0000 0.0000 0.0000
# 2 41.3899 47.3225 19.6762 0.0000 0.0000 0.0000
# 3 28.8738 19.6762 48.1845 0.0000 0.0000 0.0000
# 4 0.0000 0.0000 0.0000 19.4756 0.0000 0.0000
# 5 0.0000 0.0000 0.0000 0.0000 28.9118 0.0000
# 6 0.0000 0.0000 0.0000 0.0000 0.0000 32.9274
#
#
#
# Elastic Compliance Matrix: (Units=1/GPa)
#
#
# Indices 1 2 3 4 5 6 
#
# 1 0.009401 -0.007083 -0.002741 0.000000 0.000000 0.000000
# 2 -0.007083 0.030789 -0.008329 0.000000 0.000000 0.000000
# 3 -0.002741 -0.008329 0.025797 0.000000 0.000000 0.000000
# 4 0.000000 0.000000 0.000000 0.051346 0.000000 0.000000
# 5 0.000000 0.000000 0.000000 0.000000 0.034588 0.000000
# 6 0.000000 0.000000 0.000000 0.000000 0.000000 0.030370
#
#
# Mechanical properties :
#
#
# Convention : Reuss Voigt Hill
#
# Bulk Modulus (GPa) = 33.68993 46.81768 40.25381
# Shear Modulus (GPa) = 21.88266 26.36557 24.12412
#
# Velocity S-wave (km/s) = 3.30453 3.62726 3.46965
# Velocity P-wave (km/s) = 5.60107 6.39576 6.01156
#
# Compressibility (1/GPa) = 0.02968246
#
# Stress axis : x y z
#
# Youngs Moduli (GPa) = 106.37008 32.47868 38.76387
#
# Poissons Ratio (x) = 0.23004 0.10626
# Poissons Ratio (y) = 0.75340 0.32285
# Poissons Ratio (z) = 0.29158 0.27050
#
# Static dielectric constant tensor:
#      x y z
#    x 3.857610 0.000000 0.000000 
#    y 0.000000 3.307500 0.000000 
#    z 0.000000 0.000000 3.641030 
# 
# 
# High freq. dielectric constant tensor:
#      x y z
#    x 1.797320 0.000000 0.000000 
#    y 0.000000 1.752210 0.000000 
#    z 0.000000 0.000000 1.767080 
# 
# From -- ./inp_files/33611.got.cif
#   From: 2010.03.12/outbox.cif.g09.slc.cpg/sg51_17_cif.got.tgz:33611.got - 2010.04.16 13:43:02.
