data_PCOD8211311
_publ_section_title
;
Structure prediction by ZEFSAII (Michael W. Deem and Ramdas Pophale) SiO2 
 PCOD8211311
Probable space group: P M M A
;
_chemical_formula_sum "Si O2"
_cell_formula_units_Z 52
_cell_length_a 9.199053
_cell_length_b 10.480617
_cell_length_c 29.728134
_cell_angle_alpha 90.000000
_cell_angle_beta 90.000000
_cell_angle_gamma 90.000000
_cell_volume 2866.141461
_symmetry_space_group_name_H-M "P M M A"
_symmetry_group_IT_number 51
_symmetry_cell_setting 'orthorhombic'
loop_
_space_group_symop_operation_xyz
x,y,z
1/2-x,-y,z
1/2+x,-y,-z
-x,y,-z
-x,-y,-z
1/2+x,y,-z
1/2-x,y,z
x,-y,z
loop_
_atom_site_type_symbol
_atom_site_label
_atom_site_fract_x
_atom_site_fract_y
_atom_site_fract_z
Si Si1 0.421313 0.765942 0.388710
Si Si2 0.579861 0.146349 0.789077
Si Si3 0.923025 0.642790 0.860140
Si Si4 0.090288 0.349490 0.041039
Si Si5 0.090337 0.354733 0.540453
Si Si6 0.581279 0.000000 0.547160
Si Si7 0.916654 0.148778 0.302465
O O1 0.250000 0.745110 0.383278
O O2 0.499587 0.647469 0.413005
O O3 0.462669 0.881106 0.421861
O O4 0.489886 0.778950 0.339695
O O5 0.750000 0.165656 0.778444
O O6 0.523703 0.246460 0.826481
O O7 0.487897 0.180287 0.745223
O O8 0.550469 0.000000 0.804755
O O9 0.750000 0.640253 0.862703
O O10 0.977357 0.500000 0.845450
O O11 0.982696 0.677569 0.910094
O O12 0.250000 0.287053 0.039010
O O13 0.102786 0.500000 0.034139
O O14 0.000000 0.287608 0.000000
O O15 0.250000 0.288711 0.544962
O O16 0.115273 0.500000 0.526886
O O17 0.000000 0.286246 0.500000
O O18 0.500000 0.000000 0.500000
O O19 0.750000 0.000000 0.536037
O O20 0.750000 0.196325 0.302646
O O21 0.926168 0.000000 0.313059
#
# Coordination Sequence:
#
# PCOD8211311 Si02
#       7
#     8   8   8   8   8   4   8
#     4  11  21  35  54  76 101 128 161 200 241 286
#     4   9  17  30  50  72  92 120 162 208 247 291
#     4   8  14  26  45  69  96 125 158 199 247 294
#     4   8  13  22  38  61  89 121 157 195 235 284
#     4  10  21  37  55  75 100 131 167 202 237 283
#     4  10  22  34  48  74 104 128 150 186 233 282
#     4  10  20  34  52  73  97 128 161 196 242 294
#
# _framework density 18.142859999999999
#
# number of rings (size 3 to 8) (size 9 to 14) (size 15 to 20)
#    0.000    2.615    0.769    2.769    0.000    4.000 
#    0.000    1.538    0.000    4.615    0.000    0.000 
#    0.000    0.000    0.000    0.000    0.000    0.000 
#
# Total GULP energy -644456.996971 kJ/mol
# GULP energy per Si atom -12393.403788 kJ/mol
# Density = 1.810157 g / cm^3
# Si number density = 18.142860 Si / 1000 Ang^3
#
#
#
# Elastic Constant Matrix: (Units=GPa)
#
#
# Indices 1 2 3 4 5 6 
#
# 1 105.6020 27.9090 68.2796 0.0000 0.0000 0.0000
# 2 27.9090 51.1287 50.6059 0.0000 0.0000 0.0000
# 3 68.2796 50.6059 151.5053 0.0000 0.0000 0.0000
# 4 0.0000 0.0000 0.0000 23.8947 0.0000 0.0000
# 5 0.0000 0.0000 0.0000 0.0000 32.0168 0.0000
# 6 0.0000 0.0000 0.0000 0.0000 0.0000 15.0795
#
#
#
# Elastic Compliance Matrix: (Units=1/GPa)
#
#
# Indices 1 2 3 4 5 6 
#
# 1 0.013501 -0.002013 -0.005412 0.000000 0.000000 0.000000
# 2 -0.002013 0.029518 -0.008953 0.000000 0.000000 0.000000
# 3 -0.005412 -0.008953 0.012030 0.000000 0.000000 0.000000
# 4 0.000000 0.000000 0.000000 0.041850 0.000000 0.000000
# 5 0.000000 0.000000 0.000000 0.000000 0.031234 0.000000
# 6 0.000000 0.000000 0.000000 0.000000 0.000000 0.066315
#
#
# Mechanical properties :
#
#
# Convention : Reuss Voigt Hill
#
# Bulk Modulus (GPa) = 44.85518 66.86943 55.86230
# Shear Modulus (GPa) = 21.30976 24.96097 23.13537
#
# Velocity S-wave (km/s) = 3.43089 3.71320 3.57484
# Velocity P-wave (km/s) = 6.36174 7.43781 6.92072
#
# Compressibility (1/GPa) = 0.02229397
#
# Stress axis : x y z
#
# Youngs Moduli (GPa) = 74.06950 33.87734 83.12594
#
# Poissons Ratio (x) = 0.06818 0.44989
# Poissons Ratio (y) = 0.14908 0.74420
# Poissons Ratio (z) = 0.40088 0.30329
#
# Static dielectric constant tensor:
#      x y z
#    x 3.448300 0.000000 0.000000 
#    y 0.000000 3.191640 0.000000 
#    z 0.000000 0.000000 3.463360 
# 
# 
# High freq. dielectric constant tensor:
#      x y z
#    x 1.694870 0.000000 0.000000 
#    y 0.000000 1.669500 0.000000 
#    z 0.000000 0.000000 1.706140 
# 
# From -- ./inp_files/37335.got.cif
#   From: 2010.03.12/outbox.cif.g09.slc.cpg/sg51_19_cif.got.tgz:37335.got - 2010.04.16 13:43:02.
