data_PCOD8211560
_publ_section_title
;
Structure prediction by ZEFSAII (Michael W. Deem and Ramdas Pophale) SiO2 
 PCOD8211560
Probable space group: P M M A
;
_chemical_formula_sum "Si O2"
_cell_formula_units_Z 56
_cell_length_a 19.718684
_cell_length_b 9.095773
_cell_length_c 16.202381
_cell_angle_alpha 90.000000
_cell_angle_beta 90.000000
_cell_angle_gamma 90.000000
_cell_volume 2906.005159
_symmetry_space_group_name_H-M "P M M A"
_symmetry_group_IT_number 51
_symmetry_cell_setting 'orthorhombic'
loop_
_space_group_symop_operation_xyz
x,y,z
1/2-x,-y,z
1/2+x,-y,-z
-x,y,-z
-x,-y,-z
1/2+x,y,-z
1/2-x,y,z
x,-y,z
loop_
_atom_site_type_symbol
_atom_site_label
_atom_site_fract_x
_atom_site_fract_y
_atom_site_fract_z
Si Si1 0.674612 0.171391 0.515765
Si Si2 0.955663 0.172638 0.425149
Si Si3 0.172227 0.171206 0.032612
Si Si4 0.172667 0.671387 0.320807
Si Si5 0.040590 0.175656 0.759259
Si Si6 0.084205 0.325670 0.166587
Si Si7 0.324084 0.826037 0.844753
O O1 0.750000 0.229192 0.492418
O O2 0.623683 0.207899 0.441200
O O3 0.645942 0.247146 0.597981
O O4 0.676027 0.000000 0.534884
O O5 0.973719 0.234113 0.334206
O O6 0.000000 0.243366 0.500000
O O7 0.969257 0.000000 0.424102
O O8 0.250000 0.202152 0.059384
O O9 0.120371 0.268623 0.084696
O O10 0.154710 0.000000 0.044940
O O11 0.160970 0.221950 0.938556
O O12 0.250000 0.715529 0.302477
O O13 0.164370 0.500000 0.336626
O O14 0.129190 0.725449 0.243867
O O15 0.116036 0.229366 0.784939
O O16 0.988906 0.250827 0.822736
O O17 0.033979 0.000000 0.765638
O O18 0.075971 0.500000 0.161096
O O19 0.250000 0.763281 0.816533
O O20 0.320242 0.000000 0.841973
#
# Coordination Sequence:
#
# PCOD8211560 Si02
#       7
#     8   8   8   8   8   8   8
#     4   9  17  29  47  72  98 123 158 207 257 302
#     4   9  17  29  46  70 100 130 161 201 248 296
#     4   9  18  34  56  79 102 130 166 207 250 300
#     4   9  18  32  48  67  95 132 169 204 247 299
#     4  10  20  34  54  76 100 136 175 210 253 304
#     4  11  22  34  49  73 107 139 170 210 252 300
#     4   8  16  33  56  80 102 126 165 215 258 299
#
# _framework density 19.270440000000001
#
# number of rings (size 3 to 8) (size 9 to 14) (size 15 to 20)
#    0.000    2.714    0.000    2.571    0.000    4.286 
#    0.000    8.571    0.000    3.857    0.000    0.000 
#    0.000    0.000    0.000    0.000    0.000    0.000 
#
# Total GULP energy -694197.311957 kJ/mol
# GULP energy per Si atom -12396.380571 kJ/mol
# Density = 1.922658 g / cm^3
# Si number density = 19.270440 Si / 1000 Ang^3
#
#
#
# Elastic Constant Matrix: (Units=GPa)
#
#
# Indices 1 2 3 4 5 6 
#
# 1 115.1388 26.8949 62.1312 0.0000 0.0000 0.0000
# 2 26.8949 30.4547 22.1968 0.0000 0.0000 0.0000
# 3 62.1312 22.1968 97.6026 0.0000 0.0000 0.0000
# 4 0.0000 0.0000 0.0000 9.6266 0.0000 0.0000
# 5 0.0000 0.0000 0.0000 0.0000 29.3525 0.0000
# 6 0.0000 0.0000 0.0000 0.0000 0.0000 15.5650
#
#
#
# Elastic Compliance Matrix: (Units=1/GPa)
#
#
# Indices 1 2 3 4 5 6 
#
# 1 0.014456 -0.007263 -0.007551 0.000000 0.000000 0.000000
# 2 -0.007263 0.043009 -0.005158 0.000000 0.000000 0.000000
# 3 -0.007551 -0.005158 0.016225 0.000000 0.000000 0.000000
# 4 0.000000 0.000000 0.000000 0.103879 0.000000 0.000000
# 5 0.000000 0.000000 0.000000 0.000000 0.034069 0.000000
# 6 0.000000 0.000000 0.000000 0.000000 0.000000 0.064247
#
#
# Mechanical properties :
#
#
# Convention : Reuss Voigt Hill
#
# Bulk Modulus (GPa) = 29.63183 51.73800 40.68492
# Shear Modulus (GPa) = 15.28694 19.70703 17.49699
#
# Velocity S-wave (km/s) = 2.81959 3.20137 3.01652
# Velocity P-wave (km/s) = 5.10003 6.36959 5.76983
#
# Compressibility (1/GPa) = 0.03374749
#
# Stress axis : x y z
#
# Youngs Moduli (GPa) = 69.17423 23.25097 61.63289
#
# Poissons Ratio (x) = 0.16888 0.46537
# Poissons Ratio (y) = 0.50243 0.31787
# Poissons Ratio (z) = 0.52231 0.11992
#
# Static dielectric constant tensor:
#      x y z
#    x 3.894910 0.000000 0.000000 
#    y 0.000000 3.077740 0.000000 
#    z 0.000000 0.000000 3.624310 
# 
# 
# High freq. dielectric constant tensor:
#      x y z
#    x 1.762450 0.000000 0.000000 
#    y 0.000000 1.705720 0.000000 
#    z 0.000000 0.000000 1.746840 
# 
# From -- ./inp_files/25639.got.cif
#   From: 2010.03.12/outbox.cif.g09.slc.cpg/sg51_13_cif.got.tgz:25639.got - 2010.04.16 13:43:02.
