data_PCOD8211504
_publ_section_title
;
Structure prediction by ZEFSAII (Michael W. Deem and Ramdas Pophale) SiO2 
 PCOD8211504
Probable space group: P M M A
;
_chemical_formula_sum "Si O2"
_cell_formula_units_Z 44
_cell_length_a 9.243643
_cell_length_b 17.493827
_cell_length_c 14.215238
_cell_angle_alpha 90.000000
_cell_angle_beta 90.000000
_cell_angle_gamma 90.000000
_cell_volume 2298.699106
_symmetry_space_group_name_H-M "P M M A"
_symmetry_group_IT_number 51
_symmetry_cell_setting 'orthorhombic'
loop_
_space_group_symop_operation_xyz
x,y,z
1/2-x,-y,z
1/2+x,-y,-z
-x,y,-z
-x,-y,-z
1/2+x,y,-z
1/2-x,y,z
x,-y,z
loop_
_atom_site_type_symbol
_atom_site_label
_atom_site_fract_x
_atom_site_fract_y
_atom_site_fract_z
Si Si1 0.416014 0.413280 0.228906
Si Si2 0.418197 0.000000 0.902953
Si Si3 0.412945 0.408977 0.589229
Si Si4 0.581586 0.723279 0.902354
Si Si5 0.418273 0.912880 0.590733
Si Si6 0.918839 0.849268 0.210242
O O1 0.250000 0.408931 0.262245
O O2 0.459385 0.500000 0.202160
O O3 0.512094 0.381450 0.314643
O O4 0.442693 0.362224 0.136716
O O5 0.462614 0.074162 0.844310
O O6 0.250000 0.000000 0.925550
O O7 0.500000 0.000000 0.000000
O O8 0.500000 0.375555 0.500000
O O9 0.250000 0.376586 0.586786
O O10 0.413454 0.500000 0.584996
O O11 0.750000 0.741381 0.918327
O O12 0.517607 0.781068 0.826280
O O13 0.500000 0.732861 0.000000
O O14 0.500000 0.879237 0.500000
O O15 0.250000 0.910230 0.568440
O O16 0.455905 0.860688 0.680178
O O17 0.467445 0.000000 0.611429
O O18 0.750000 0.829902 0.195373
#
# Coordination Sequence:
#
# PCOD8211504 Si02
#       6
#     8   4   8   8   8   8
#     4   9  19  37  58  79 106 142 185 233 282 335
#     4  10  20  34  53  78 106 140 183 226 267 316
#     4   9  16  27  48  79 111 141 174 215 266 324
#     4  11  24  40  58  81 109 142 182 230 285 340
#     4   9  17  32  55  83 114 148 184 223 267 316
#     4  10  20  37  58  80 112 149 184 225 272 323
#
# _framework density 19.141262000000001
#
# number of rings (size 3 to 8) (size 9 to 14) (size 15 to 20)
#    0.000    2.364    0.909    1.636    0.000    6.909 
#    0.000    0.909    0.000    2.182    0.000    0.000 
#    0.000    0.000    0.000    0.000    0.000    0.000 
#
# Total GULP energy -545675.981828 kJ/mol
# GULP energy per Si atom -12401.726860 kJ/mol
# Density = 1.909770 g / cm^3
# Si number density = 19.141262 Si / 1000 Ang^3
#
#
#
# Elastic Constant Matrix: (Units=GPa)
#
#
# Indices 1 2 3 4 5 6 
#
# 1 99.3467 42.6588 72.2002 0.0000 0.0000 0.0000
# 2 42.6588 77.0359 48.5430 0.0000 0.0000 0.0000
# 3 72.2002 48.5430 146.3087 0.0000 0.0000 0.0000
# 4 0.0000 0.0000 0.0000 25.2649 0.0000 0.0000
# 5 0.0000 0.0000 0.0000 0.0000 39.1016 0.0000
# 6 0.0000 0.0000 0.0000 0.0000 0.0000 23.6529
#
#
#
# Elastic Compliance Matrix: (Units=1/GPa)
#
#
# Indices 1 2 3 4 5 6 
#
# 1 0.017249 -0.005295 -0.006755 0.000000 0.000000 0.000000
# 2 -0.005295 0.018038 -0.003372 0.000000 0.000000 0.000000
# 3 -0.006755 -0.003372 0.011287 0.000000 0.000000 0.000000
# 4 0.000000 0.000000 0.000000 0.039581 0.000000 0.000000
# 5 0.000000 0.000000 0.000000 0.000000 0.025574 0.000000
# 6 0.000000 0.000000 0.000000 0.000000 0.000000 0.042278
#
#
# Mechanical properties :
#
#
# Convention : Reuss Voigt Hill
#
# Bulk Modulus (GPa) = 63.57281 72.16615 67.86948
# Shear Modulus (GPa) = 26.30294 28.22317 27.26306
#
# Velocity S-wave (km/s) = 3.71097 3.84405 3.77810
# Velocity P-wave (km/s) = 7.18654 7.58195 7.38689
#
# Compressibility (1/GPa) = 0.01573000
#
# Stress axis : x y z
#
# Youngs Moduli (GPa) = 57.97590 55.43971 88.59726
#
# Poissons Ratio (x) = 0.29354 0.59848
# Poissons Ratio (y) = 0.30697 0.29873
# Poissons Ratio (z) = 0.39163 0.18693
#
# Static dielectric constant tensor:
#      x y z
#    x 3.537890 0.000000 0.000000 
#    y 0.000000 3.471330 0.000000 
#    z 0.000000 0.000000 3.484420 
# 
# 
# High freq. dielectric constant tensor:
#      x y z
#    x 1.744990 0.000000 0.000000 
#    y 0.000000 1.723820 0.000000 
#    z 0.000000 0.000000 1.751530 
# 
# From -- ./inp_files/20892.got.cif
#   From: 2010.03.12/outbox.cif.g09.slc.cpg/sg51_11_cif.got.tgz:20892.got - 2010.04.16 13:43:02.
