data_PCOD8211575
_publ_section_title
;
Structure prediction by ZEFSAII (Michael W. Deem and Ramdas Pophale) SiO2 
 PCOD8211575
Probable space group: P M M A
;
_chemical_formula_sum "Si O2"
_cell_formula_units_Z 48
_cell_length_a 9.364416
_cell_length_b 8.979519
_cell_length_c 30.976573
_cell_angle_alpha 90.000000
_cell_angle_beta 90.000000
_cell_angle_gamma 90.000000
_cell_volume 2604.756565
_symmetry_space_group_name_H-M "P M M A"
_symmetry_group_IT_number 51
_symmetry_cell_setting 'orthorhombic'
loop_
_space_group_symop_operation_xyz
x,y,z
1/2-x,-y,z
1/2+x,-y,-z
-x,y,-z
-x,-y,-z
1/2+x,y,-z
1/2-x,y,z
x,-y,z
loop_
_atom_site_type_symbol
_atom_site_label
_atom_site_fract_x
_atom_site_fract_y
_atom_site_fract_z
Si Si1 0.914291 0.175275 0.129432
Si Si2 0.408430 0.677483 0.539173
Si Si3 0.084343 0.671044 0.958403
Si Si4 0.084337 0.675234 0.205633
Si Si5 0.580415 0.334527 0.366886
Si Si6 0.417339 0.172669 0.718190
O O1 0.750000 0.220654 0.138700
O O2 0.961992 0.230459 0.082331
O O3 0.015809 0.251262 0.163836
O O4 0.935036 0.000000 0.132290
O O5 0.500000 0.746012 0.500000
O O6 0.250000 0.744190 0.534285
O O7 0.403599 0.500000 0.536315
O O8 0.475381 0.721434 0.586096
O O9 0.250000 0.690331 0.968803
O O10 0.044815 0.500000 0.948299
O O11 0.000000 0.730480 0.000000
O O12 0.250000 0.719822 0.207920
O O13 0.062652 0.500000 0.202415
O O14 0.006341 0.732741 0.248090
O O15 0.750000 0.342762 0.370109
O O16 0.520588 0.500000 0.356175
O O17 0.532092 0.220958 0.329630
O O18 0.250000 0.206017 0.725130
O O19 0.451768 0.000000 0.724742
#
# Coordination Sequence:
#
# PCOD8211575 Si02
#       6
#     8   8   8   8   8   8
#     4  10  21  37  57  81 108 139 176 214 253 302
#     4   8  13  22  38  61  88 118 154 197 243 287
#     4   9  18  33  53  77 106 140 177 216 255 295
#     4  11  24  39  55  77 104 134 169 209 255 306
#     4   8  14  26  45  68  94 125 161 201 245 293
#     4  10  20  34  54  78 101 129 167 208 252 303
#
# _framework density 18.427827000000001
#
# number of rings (size 3 to 8) (size 9 to 14) (size 15 to 20)
#    0.000    2.667    0.000    3.000    0.000    6.333 
#    0.000    2.500    0.000    3.500    0.000    0.000 
#    0.000    0.000    0.000    0.000    0.000    0.000 
#
# Total GULP energy -595109.431381 kJ/mol
# GULP energy per Si atom -12398.113154 kJ/mol
# Density = 1.838588 g / cm^3
# Si number density = 18.427827 Si / 1000 Ang^3
#
#
#
# Elastic Constant Matrix: (Units=GPa)
#
#
# Indices 1 2 3 4 5 6 
#
# 1 66.4838 35.7027 66.7283 0.0000 0.0000 0.0000
# 2 35.7027 60.4338 49.1926 0.0000 0.0000 0.0000
# 3 66.7283 49.1926 163.5755 0.0000 0.0000 0.0000
# 4 0.0000 0.0000 0.0000 -16.3401 0.0000 0.0000
# 5 0.0000 0.0000 0.0000 0.0000 32.1954 0.0000
# 6 0.0000 0.0000 0.0000 0.0000 0.0000 19.4898
#
#
#
# Elastic Compliance Matrix: (Units=1/GPa)
#
#
# Indices 1 2 3 4 5 6 
#
# 1 0.029493 -0.010104 -0.008993 0.000000 0.000000 0.000000
# 2 -0.010104 0.025372 -0.003509 0.000000 0.000000 0.000000
# 3 -0.008993 -0.003509 0.010837 0.000000 0.000000 0.000000
# 4 0.000000 0.000000 0.000000 -0.061199 0.000000 0.000000
# 5 0.000000 0.000000 0.000000 0.000000 0.031060 0.000000
# 6 0.000000 0.000000 0.000000 0.000000 0.000000 0.051309
#
#
# Mechanical properties :
#
#
# Convention : Reuss Voigt Hill
#
# Bulk Modulus (GPa) = 48.79955 65.97113 57.38534
# Shear Modulus (GPa) = 35.99396 16.32698 26.16047
#
# Velocity S-wave (km/s) = 4.42434 2.97980 3.77187
# Velocity P-wave (km/s) = 7.25525 6.90770 7.08361
#
# Compressibility (1/GPa) = 0.02049199
#
# Stress axis : x y z
#
# Youngs Moduli (GPa) = 33.90657 39.41365 92.27676
#
# Poissons Ratio (x) = 0.39822 0.82982
# Poissons Ratio (y) = 0.34258 0.32376
# Poissons Ratio (z) = 0.30491 0.13828
#
# Static dielectric constant tensor:
#      x y z
#    x 3.294770 0.000000 0.000000 
#    y 0.000000 3.251680 0.000000 
#    z 0.000000 0.000000 3.761020 
# 
# 
# High freq. dielectric constant tensor:
#      x y z
#    x 1.689810 0.000000 0.000000 
#    y 0.000000 1.697700 0.000000 
#    z 0.000000 0.000000 1.734100 
# 
# From -- ./inp_files/36932.got.cif
#   From: 2010.03.12/outbox.cif.g09.slc.cpg/sg51_19_cif.got.tgz:36932.got - 2010.04.16 13:43:02.
