data_PCOD8211123
_publ_section_title
;
Structure prediction by ZEFSAII (Michael W. Deem and Ramdas Pophale) SiO2 
 PCOD8211123
Probable space group: P M M A
;
_chemical_formula_sum "Si O2"
_cell_formula_units_Z 64
_cell_length_a 23.728011
_cell_length_b 9.280470
_cell_length_c 15.093718
_cell_angle_alpha 90.000000
_cell_angle_beta 90.000000
_cell_angle_gamma 90.000000
_cell_volume 3323.743782
_symmetry_space_group_name_H-M "P M M A"
_symmetry_group_IT_number 51
_symmetry_cell_setting 'orthorhombic'
loop_
_space_group_symop_operation_xyz
x,y,z
1/2-x,-y,z
1/2+x,-y,-z
-x,y,-z
-x,-y,-z
1/2+x,y,-z
1/2-x,y,z
x,-y,z
loop_
_atom_site_type_symbol
_atom_site_label
_atom_site_fract_x
_atom_site_fract_y
_atom_site_fract_z
Si Si1 0.684080 0.665086 0.168176
Si Si2 0.185895 0.156243 0.994006
Si Si3 0.686069 0.329164 0.511199
Si Si4 0.993650 0.831509 0.287881
Si Si5 0.116262 0.329860 0.659238
Si Si6 0.106736 0.666944 0.330138
Si Si7 0.136218 0.335517 0.134394
Si Si8 0.027930 0.163734 0.094771
O O1 0.750000 0.692388 0.183707
O O2 0.671995 0.500000 0.145500
O O3 0.652218 0.714431 0.255723
O O4 0.657977 0.755696 0.086711
O O5 0.250000 0.132707 0.968920
O O6 0.184084 0.242405 0.086340
O O7 0.155653 0.000000 0.002187
O O8 0.750000 0.264909 0.513960
O O9 0.690604 0.500000 0.511866
O O10 0.653041 0.276735 0.424063
O O11 0.649283 0.275853 0.594765
O O12 0.050975 0.763896 0.327097
O O13 0.988573 0.806406 0.181138
O O14 0.942590 0.754062 0.338153
O O15 0.992905 0.000000 0.311399
O O16 0.103854 0.500000 0.654609
O O17 0.089103 0.500000 0.345362
O O18 0.141470 0.683781 0.239276
O O19 0.143155 0.500000 0.105800
O O20 0.077549 0.277901 0.097072
O O21 0.050657 0.000000 0.101757
O O22 0.000000 0.190018 0.000000
#
# Coordination Sequence:
#
# PCOD8211123 Si02
#       8
#     8   8   8   8   8   8   8   8
#     4   9  18  33  52  76 107 141 178 226 281 331
#     4  10  21  35  51  73 104 145 187 222 264 327
#     4   9  18  35  61  89 111 139 183 230 279 334
#     4  10  21  36  54  79 113 151 188 227 274 328
#     4  10  20  34  56  84 113 143 180 229 278 331
#     4   9  19  37  59  82 111 144 183 230 276 328
#     4  10  20  33  52  79 107 137 174 226 279 319
#     4   9  19  35  53  74 102 142 185 224 265 317
#
# _framework density 19.255393999999999
#
# number of rings (size 3 to 8) (size 9 to 14) (size 15 to 20)
#    0.000    2.500    0.000    1.500    1.750    5.000 
#    0.000    4.375    0.000    2.250    0.000    0.000 
#    0.000    0.000    0.000    0.000    0.000    0.000 
#
# Total GULP energy -793364.390685 kJ/mol
# GULP energy per Si atom -12396.318604 kJ/mol
# Density = 1.921157 g / cm^3
# Si number density = 19.255394 Si / 1000 Ang^3
#
#
#
# Elastic Constant Matrix: (Units=GPa)
#
#
# Indices 1 2 3 4 5 6 
#
# 1 94.0222 42.7858 71.7520 0.0000 0.0000 0.0000
# 2 42.7858 92.3398 58.8376 0.0000 0.0000 0.0000
# 3 71.7520 58.8376 138.8006 0.0000 0.0000 0.0000
# 4 0.0000 0.0000 0.0000 18.9954 0.0000 0.0000
# 5 0.0000 0.0000 0.0000 0.0000 32.5509 0.0000
# 6 0.0000 0.0000 0.0000 0.0000 0.0000 18.4904
#
#
#
# Elastic Compliance Matrix: (Units=1/GPa)
#
#
# Indices 1 2 3 4 5 6 
#
# 1 0.018295 -0.003358 -0.008034 0.000000 0.000000 0.000000
# 2 -0.003358 0.015453 -0.004815 0.000000 0.000000 0.000000
# 3 -0.008034 -0.004815 0.013399 0.000000 0.000000 0.000000
# 4 0.000000 0.000000 0.000000 0.052644 0.000000 0.000000
# 5 0.000000 0.000000 0.000000 0.000000 0.030721 0.000000
# 6 0.000000 0.000000 0.000000 0.000000 0.000000 0.054082
#
#
# Mechanical properties :
#
#
# Convention : Reuss Voigt Hill
#
# Bulk Modulus (GPa) = 67.87230 74.65705 71.26468
# Shear Modulus (GPa) = 22.53070 24.12647 23.32858
#
# Velocity S-wave (km/s) = 3.42438 3.54357 3.48449
# Velocity P-wave (km/s) = 7.13864 7.45646 7.29928
#
# Compressibility (1/GPa) = 0.01473355
#
# Stress axis : x y z
#
# Youngs Moduli (GPa) = 54.66016 64.71071 74.63382
#
# Poissons Ratio (x) = 0.21728 0.59961
# Poissons Ratio (y) = 0.18354 0.35936
# Poissons Ratio (z) = 0.43914 0.31158
#
# Static dielectric constant tensor:
#      x y z
#    x 3.417410 0.000000 0.000000 
#    y 0.000000 3.573180 0.000000 
#    z 0.000000 0.000000 3.695400 
# 
# 
# High freq. dielectric constant tensor:
#      x y z
#    x 1.740350 0.000000 0.000000 
#    y 0.000000 1.737050 0.000000 
#    z 0.000000 0.000000 1.755870 
# 
# From -- ./inp_files/26337.got.cif
#   From: 2010.03.12/outbox.cif.g09.slc.cpg/sg51_14_cif.got.tgz:26337.got - 2010.04.16 13:43:02.
