data_PCOD8211778
_publ_section_title
;
Structure prediction by ZEFSAII (Michael W. Deem and Ramdas Pophale) SiO2 
 PCOD8211778
Probable space group: P M M A
;
_chemical_formula_sum "Si O2"
_cell_formula_units_Z 64
_cell_length_a 14.554073
_cell_length_b 8.832638
_cell_length_c 24.667070
_cell_angle_alpha 90.000000
_cell_angle_beta 90.000000
_cell_angle_gamma 90.000000
_cell_volume 3170.973019
_symmetry_space_group_name_H-M "P M M A"
_symmetry_group_IT_number 51
_symmetry_cell_setting 'orthorhombic'
loop_
_space_group_symop_operation_xyz
x,y,z
1/2-x,-y,z
1/2+x,-y,-z
-x,y,-z
-x,-y,-z
1/2+x,y,-z
1/2-x,y,z
x,-y,z
loop_
_atom_site_type_symbol
_atom_site_label
_atom_site_fract_x
_atom_site_fract_y
_atom_site_fract_z
Si Si1 0.851091 0.170913 0.888039
Si Si2 0.145068 0.177731 0.531994
Si Si3 0.519934 0.174624 0.370966
Si Si4 0.354029 0.321305 0.420206
Si Si5 0.015041 0.323805 0.939454
Si Si6 0.026800 0.825529 0.748195
Si Si7 0.349399 0.327515 0.223170
Si Si8 0.644870 0.820475 0.148389
O O1 0.750000 0.183459 0.914978
O O2 0.845055 0.208720 0.825384
O O3 0.916888 0.295909 0.912913
O O4 0.890145 0.000000 0.895170
O O5 0.250000 0.220835 0.543513
O O6 0.088747 0.238942 0.583644
O O7 0.109596 0.259531 0.477900
O O8 0.131392 0.000000 0.523624
O O9 0.422504 0.261630 0.373762
O O10 0.569673 0.193777 0.311989
O O11 0.497955 0.000000 0.381692
O O12 0.250000 0.263006 0.408826
O O13 0.356482 0.500000 0.420942
O O14 0.039554 0.500000 0.940301
O O15 0.095325 0.241225 0.905673
O O16 0.000000 0.258899 0.000000
O O17 0.093219 0.764734 0.796460
O O18 0.934750 0.726022 0.741349
O O19 0.002550 0.000000 0.760231
O O20 0.250000 0.318312 0.253998
O O21 0.365585 0.500000 0.203191
O O22 0.750000 0.760736 0.149974
O O23 0.643631 0.000000 0.145484
#
# Coordination Sequence:
#
# PCOD8211778 Si02
#       8
#     8   8   8   8   8   8   8   8
#     4  10  20  35  58  86 114 145 183 229 280 335
#     4   9  18  34  56  80 108 144 186 233 285 341
#     4  10  21  35  54  82 113 146 188 235 283 337
#     4  10  21  36  54  78 110 148 188 233 288 345
#     4  11  24  40  60  88 121 155 192 237 287 340
#     4  10  21  37  57  83 115 151 190 235 285 337
#     4  10  20  34  55  82 111 145 183 225 278 339
#     4  10  22  41  64  88 116 154 198 240 286 341
#
# _framework density 20.183077999999998
#
# number of rings (size 3 to 8) (size 9 to 14) (size 15 to 20)
#    0.000    2.000    1.250    1.875    0.000    7.500 
#    0.000    7.500    0.000    0.000    0.000    3.500 
#    0.000    0.000    0.000    0.000    0.000    0.000 
#
# Total GULP energy -793231.899706 kJ/mol
# GULP energy per Si atom -12394.248433 kJ/mol
# Density = 2.013714 g / cm^3
# Si number density = 20.183078 Si / 1000 Ang^3
#
#
#
# Elastic Constant Matrix: (Units=GPa)
#
#
# Indices 1 2 3 4 5 6 
#
# 1 111.1670 26.6173 53.3774 0.0000 0.0000 0.0000
# 2 26.6173 41.3181 19.7389 0.0000 0.0000 0.0000
# 3 53.3774 19.7389 114.2920 0.0000 0.0000 0.0000
# 4 0.0000 0.0000 0.0000 14.6407 0.0000 0.0000
# 5 0.0000 0.0000 0.0000 0.0000 16.6882 0.0000
# 6 0.0000 0.0000 0.0000 0.0000 0.0000 24.3931
#
#
#
# Elastic Compliance Matrix: (Units=1/GPa)
#
#
# Indices 1 2 3 4 5 6 
#
# 1 0.012779 -0.005865 -0.004955 0.000000 0.000000 0.000000
# 2 -0.005865 0.029071 -0.002282 0.000000 0.000000 0.000000
# 3 -0.004955 -0.002282 0.011458 0.000000 0.000000 0.000000
# 4 0.000000 0.000000 0.000000 0.068303 0.000000 0.000000
# 5 0.000000 0.000000 0.000000 0.000000 0.059923 0.000000
# 6 0.000000 0.000000 0.000000 0.000000 0.000000 0.040995
#
#
# Mechanical properties :
#
#
# Convention : Reuss Voigt Hill
#
# Bulk Modulus (GPa) = 36.89508 51.80492 44.35000
# Shear Modulus (GPa) = 19.39743 22.28065 20.83904
#
# Velocity S-wave (km/s) = 3.10348 3.32614 3.21674
# Velocity P-wave (km/s) = 5.58230 6.36193 5.98482
#
# Compressibility (1/GPa) = 0.02710389
#
# Stress axis : x y z
#
# Youngs Moduli (GPa) = 78.25314 34.39888 87.27700
#
# Poissons Ratio (x) = 0.20175 0.43248
# Poissons Ratio (y) = 0.45896 0.19913
# Poissons Ratio (z) = 0.38776 0.07848
#
# Static dielectric constant tensor:
#      x y z
#    x 3.978920 0.000000 0.000000 
#    y 0.000000 3.497930 0.000000 
#    z 0.000000 0.000000 3.699500 
# 
# 
# High freq. dielectric constant tensor:
#      x y z
#    x 1.789780 0.000000 0.000000 
#    y 0.000000 1.778330 0.000000 
#    z 0.000000 0.000000 1.781610 
# 
# From -- ./inp_files/35662.got.cif
#   From: 2010.03.12/outbox.cif.g09.slc.cpg/sg51_18_cif.got.tgz:35662.got - 2010.04.16 13:43:02.
