data_PCOD8211374
_publ_section_title
;
Structure prediction by ZEFSAII (Michael W. Deem and Ramdas Pophale) SiO2 
 PCOD8211374
Probable space group: P M M A
;
_chemical_formula_sum "Si O2"
_cell_formula_units_Z 44
_cell_length_a 9.134851
_cell_length_b 8.062373
_cell_length_c 30.236243
_cell_angle_alpha 90.000000
_cell_angle_beta 90.000000
_cell_angle_gamma 90.000000
_cell_volume 2226.856242
_symmetry_space_group_name_H-M "P M M A"
_symmetry_group_IT_number 51
_symmetry_cell_setting 'orthorhombic'
loop_
_space_group_symop_operation_xyz
x,y,z
1/2-x,-y,z
1/2+x,-y,-z
-x,y,-z
-x,-y,-z
1/2+x,y,-z
1/2-x,y,z
x,-y,z
loop_
_atom_site_type_symbol
_atom_site_label
_atom_site_fract_x
_atom_site_fract_y
_atom_site_fract_z
Si Si1 0.423900 0.816185 0.896985
Si Si2 0.576494 0.311878 0.194962
Si Si3 0.588027 0.805992 0.628665
Si Si4 0.424781 0.500000 0.952994
Si Si5 0.585938 0.195762 0.288230
Si Si6 0.082824 0.696096 0.543466
O O1 0.250000 0.806844 0.896221
O O2 0.484217 0.790915 0.847009
O O3 0.480909 0.666776 0.928061
O O4 0.475475 0.000000 0.913585
O O5 0.750000 0.293446 0.196829
O O6 0.527106 0.500000 0.188034
O O7 0.512336 0.244228 0.241272
O O8 0.750000 0.726446 0.623065
O O9 0.510398 0.727557 0.671967
O O10 0.491219 0.774287 0.585963
O O11 0.603454 0.000000 0.635961
O O12 0.250000 0.500000 0.957751
O O13 0.500000 0.500000 0.000000
O O14 0.750000 0.270606 0.292181
O O15 0.593239 0.000000 0.292161
O O16 0.250000 0.756586 0.540941
O O17 0.071330 0.500000 0.546883
O O18 0.000000 0.762166 0.500000
#
# Coordination Sequence:
#
# PCOD8211374 Si02
#       6
#     8   8   8   4   8   8
#     4   9  16  28  48  74 104 137 173 217 269 319
#     4   9  15  25  44  72 102 128 163 213 261 307
#     4  10  21  36  53  74 103 139 176 213 254 305
#     4  10  20  34  52  76 106 138 176 222 267 316
#     4   9  17  29  46  70  99 129 161 202 254 306
#     4  10  21  37  57  79 102 130 167 212 263 317
#
# _framework density 19.758796
#
# number of rings (size 3 to 8) (size 9 to 14) (size 15 to 20)
#    0.000    2.545    0.909    1.636    0.000    5.818 
#    0.000    1.818    0.000    1.091    0.000    0.000 
#    0.000    0.000    0.000    0.000    0.000    0.000 
#
# Total GULP energy -545396.882076 kJ/mol
# GULP energy per Si atom -12395.383684 kJ/mol
# Density = 1.971382 g / cm^3
# Si number density = 19.758796 Si / 1000 Ang^3
#
#
#
# Elastic Constant Matrix: (Units=GPa)
#
#
# Indices 1 2 3 4 5 6 
#
# 1 74.3329 20.4881 44.7133 0.0000 0.0000 0.0000
# 2 20.4881 79.7766 53.0747 0.0000 0.0000 0.0000
# 3 44.7133 53.0747 171.0956 0.0000 0.0000 0.0000
# 4 0.0000 0.0000 0.0000 32.5515 0.0000 0.0000
# 5 0.0000 0.0000 0.0000 0.0000 28.6071 0.0000
# 6 0.0000 0.0000 0.0000 0.0000 0.0000 12.5242
#
#
#
# Elastic Compliance Matrix: (Units=1/GPa)
#
#
# Indices 1 2 3 4 5 6 
#
# 1 0.016140 -0.001687 -0.003695 0.000000 0.000000 0.000000
# 2 -0.001687 0.015971 -0.004513 0.000000 0.000000 0.000000
# 3 -0.003695 -0.004513 0.008210 0.000000 0.000000 0.000000
# 4 0.000000 0.000000 0.000000 0.030721 0.000000 0.000000
# 5 0.000000 0.000000 0.000000 0.000000 0.034956 0.000000
# 6 0.000000 0.000000 0.000000 0.000000 0.000000 0.079845
#
#
# Mechanical properties :
#
#
# Convention : Reuss Voigt Hill
#
# Bulk Modulus (GPa) = 48.70593 62.41749 55.56171
# Shear Modulus (GPa) = 23.53184 28.53183 26.03183
#
# Velocity S-wave (km/s) = 3.45477 3.80413 3.63365
# Velocity P-wave (km/s) = 6.37320 7.13817 6.76650
#
# Compressibility (1/GPa) = 0.02053138
#
# Stress axis : x y z
#
# Youngs Moduli (GPa) = 61.95598 62.61348 121.79783
#
# Poissons Ratio (x) = 0.10563 0.45001
# Poissons Ratio (y) = 0.10453 0.54972
# Poissons Ratio (z) = 0.22891 0.28260
#
# Static dielectric constant tensor:
#      x y z
#    x -4.825030 0.000000 0.000000 
#    y 0.000000 3.604660 0.000000 
#    z 0.000000 0.000000 3.777660 
# 
# 
# High freq. dielectric constant tensor:
#      x y z
#    x 1.723220 0.000000 0.000000 
#    y 0.000000 1.765110 0.000000 
#    z 0.000000 0.000000 1.782560 
# 
# From -- ./inp_files/36792.got.cif
#   From: 2010.03.12/outbox.cif.g09.slc.cpg/sg51_19_cif.got.tgz:36792.got - 2010.04.16 13:43:02.
