data_PCOD8211883
_publ_section_title
;
Structure prediction by ZEFSAII (Michael W. Deem and Ramdas Pophale) SiO2 
 PCOD8211883
Probable space group: P M M A
;
_chemical_formula_sum "Si O2"
_cell_formula_units_Z 48
_cell_length_a 9.774672
_cell_length_b 7.760732
_cell_length_c 32.136187
_cell_angle_alpha 90.000000
_cell_angle_beta 90.000000
_cell_angle_gamma 90.000000
_cell_volume 2437.806469
_symmetry_space_group_name_H-M "P M M A"
_symmetry_group_IT_number 51
_symmetry_cell_setting 'orthorhombic'
loop_
_space_group_symop_operation_xyz
x,y,z
1/2-x,-y,z
1/2+x,-y,-z
-x,y,-z
-x,-y,-z
1/2+x,y,-z
1/2-x,y,z
x,-y,z
loop_
_atom_site_type_symbol
_atom_site_label
_atom_site_fract_x
_atom_site_fract_y
_atom_site_fract_z
Si Si1 0.093049 0.000000 0.323505
Si Si2 0.593029 0.308493 0.183687
Si Si3 0.408979 0.203797 0.539083
Si Si4 0.404932 0.305656 0.385937
Si Si5 0.495372 0.804785 0.098393
Si Si6 0.750000 0.205247 0.956517
Si Si7 0.088310 0.000000 0.757589
Si Si8 0.750000 0.696793 0.050026
O O1 0.060600 0.171293 0.349736
O O2 0.991335 0.000000 0.285228
O O3 0.250000 0.000000 0.308159
O O4 0.750000 0.267435 0.172132
O O5 0.576094 0.500000 0.202873
O O6 0.508705 0.301443 0.140961
O O7 0.541748 0.169693 0.217157
O O8 0.500000 0.264829 0.500000
O O9 0.250000 0.265402 0.534918
O O10 0.480928 0.288549 0.578663
O O11 0.414534 0.000000 0.543979
O O12 0.250000 0.268670 0.403054
O O13 0.413361 0.500000 0.367987
O O14 0.376257 0.727014 0.070349
O O15 0.623746 0.798617 0.068384
O O16 0.464928 0.000000 0.111690
O O17 0.750000 0.000000 0.963539
O O18 0.750000 0.299651 0.000393
O O19 0.250000 0.000000 0.748429
O O20 0.750000 0.500000 0.065672
#
# Coordination Sequence:
#
# PCOD8211883 Si02
#       8
#     4   8   8   8   8   4   4   4
#     4  10  22  42  63  89 122 155 190 243 305 373
#     4  10  20  37  61  89 115 146 191 234 284 349
#     4  10  20  34  56  87 124 167 216 264 310 359
#     4  10  21  38  62  88 119 163 208 250 302 361
#     4  11  21  38  61  82 112 152 194 237 283 338
#     4  10  24  40  54  82 116 152 192 238 284 335
#     4  10  22  40  64  89 112 148 187 237 293 350
#     4  12  24  36  56  84 114 154 198 237 277 336
#
# _framework density 19.689833
#
# number of rings (size 3 to 8) (size 9 to 14) (size 15 to 20)
#    0.000    1.667    2.500    2.250    0.000    6.000 
#    1.500    0.000    0.000    0.000    0.000    0.000 
#    0.000    0.000    0.000    0.000    0.000    0.000 
#
# Total GULP energy -595193.738458 kJ/mol
# GULP energy per Si atom -12399.869551 kJ/mol
# Density = 1.964502 g / cm^3
# Si number density = 19.689833 Si / 1000 Ang^3
#
#
#
# Elastic Constant Matrix: (Units=GPa)
#
#
# Indices 1 2 3 4 5 6 
#
# 1 120.6214 28.4866 66.8796 0.0000 0.0000 0.0000
# 2 28.4866 103.3992 53.5824 0.0000 0.0000 0.0000
# 3 66.8796 53.5824 134.7554 0.0000 0.0000 0.0000
# 4 0.0000 0.0000 0.0000 3.1509 0.0000 0.0000
# 5 0.0000 0.0000 0.0000 0.0000 57.1233 0.0000
# 6 0.0000 0.0000 0.0000 0.0000 0.0000 14.9391
#
#
#
# Elastic Compliance Matrix: (Units=1/GPa)
#
#
# Indices 1 2 3 4 5 6 
#
# 1 0.011444 -0.000264 -0.005575 0.000000 0.000000 0.000000
# 2 -0.000264 0.012187 -0.004715 0.000000 0.000000 0.000000
# 3 -0.005575 -0.004715 0.012062 0.000000 0.000000 0.000000
# 4 0.000000 0.000000 0.000000 0.317370 0.000000 0.000000
# 5 0.000000 0.000000 0.000000 0.000000 0.017506 0.000000
# 6 0.000000 0.000000 0.000000 0.000000 0.000000 0.066939
#
#
# Mechanical properties :
#
#
# Convention : Reuss Voigt Hill
#
# Bulk Modulus (GPa) = 68.55772 72.96369 70.76071
# Shear Modulus (GPa) = 10.78801 29.03115 19.90958
#
# Velocity S-wave (km/s) = 2.34326 3.84399 3.18332
# Velocity P-wave (km/s) = 6.49735 7.53914 7.03755
#
# Compressibility (1/GPa) = 0.01458625
#
# Stress axis : x y z
#
# Youngs Moduli (GPa) = 87.38514 82.05240 82.90265
#
# Poissons Ratio (x) = 0.02166 0.46214
# Poissons Ratio (y) = 0.02307 0.39089
# Poissons Ratio (z) = 0.48713 0.38688
#
# Static dielectric constant tensor:
#      x y z
#    x 3.644760 0.000000 0.000000 
#    y 0.000000 3.654370 0.000000 
#    z 0.000000 0.000000 3.355110 
# 
# 
# High freq. dielectric constant tensor:
#      x y z
#    x 1.764150 0.000000 0.000000 
#    y 0.000000 1.777090 0.000000 
#    z 0.000000 0.000000 1.752600 
# 
# From -- ./inp_files/37283.got.cif
#   From: 2010.03.12/outbox.cif.g09.slc.cpg/sg51_19_cif.got.tgz:37283.got - 2010.04.16 13:43:02.
