data_PCOD8211512
_publ_section_title
;
Structure prediction by ZEFSAII (Michael W. Deem and Ramdas Pophale) SiO2 
 PCOD8211512
Probable space group: P M M A
;
_chemical_formula_sum "Si O2"
_cell_formula_units_Z 48
_cell_length_a 23.750352
_cell_length_b 8.767705
_cell_length_c 11.454299
_cell_angle_alpha 90.000000
_cell_angle_beta 90.000000
_cell_angle_gamma 90.000000
_cell_volume 2385.198323
_symmetry_space_group_name_H-M "P M M A"
_symmetry_group_IT_number 51
_symmetry_cell_setting 'orthorhombic'
loop_
_space_group_symop_operation_xyz
x,y,z
1/2-x,-y,z
1/2+x,-y,-z
-x,y,-z
-x,-y,-z
1/2+x,y,-z
1/2-x,y,z
x,-y,z
loop_
_atom_site_type_symbol
_atom_site_label
_atom_site_fract_x
_atom_site_fract_y
_atom_site_fract_z
Si Si1 0.376688 0.318569 0.089941
Si Si2 0.186320 0.319912 0.859326
Si Si3 0.025315 0.179569 0.222719
Si Si4 0.083144 0.678379 0.443550
Si Si5 0.810576 0.678402 0.687989
Si Si6 0.084126 0.320141 0.707999
O O1 0.383306 0.500000 0.089472
O O2 0.438410 0.249180 0.115937
O O3 0.336862 0.256493 0.193218
O O4 0.347893 0.257395 0.971718
O O5 0.250000 0.250057 0.849409
O O6 0.192488 0.500000 0.871427
O O7 0.147881 0.275824 0.747311
O O8 0.045666 0.231162 0.351279
O O9 0.961004 0.236695 0.208830
O O10 0.027987 0.000000 0.213217
O O11 0.069036 0.500000 0.426892
O O12 0.148929 0.712611 0.420706
O O13 0.072379 0.732690 0.575232
O O14 0.750000 0.756044 0.664279
O O15 0.802736 0.500000 0.705384
O O16 0.075707 0.500000 0.721808
#
# Coordination Sequence:
#
# PCOD8211512 Si02
#       6
#     8   8   8   8   8   8
#     4   9  17  32  54  78 105 135 168 210 261 310
#     4   9  18  33  56  85 110 134 169 211 253 303
#     4  11  22  35  53  76 102 134 177 224 262 301
#     4   9  18  32  51  76 106 139 172 210 261 315
#     4   8  13  23  44  73  99 126 164 207 249 296
#     4  10  20  34  53  78 109 140 169 207 257 313
#
# _framework density 20.124110999999999
#
# number of rings (size 3 to 8) (size 9 to 14) (size 15 to 20)
#    0.000    2.667    0.000    3.500    0.000    6.000 
#    0.000    7.500    0.000   14.000    0.000    4.667 
#    0.000    0.000    0.000    0.000    0.000    0.000 
#
# Total GULP energy -594859.748666 kJ/mol
# GULP energy per Si atom -12392.911431 kJ/mol
# Density = 2.007831 g / cm^3
# Si number density = 20.124111 Si / 1000 Ang^3
#
#
#
# Elastic Constant Matrix: (Units=GPa)
#
#
# Indices 1 2 3 4 5 6 
#
# 1 128.8550 26.4361 26.6720 0.0000 0.0000 0.0000
# 2 26.4361 46.4547 17.6289 0.0000 0.0000 0.0000
# 3 26.6720 17.6289 57.8679 0.0000 0.0000 0.0000
# 4 0.0000 0.0000 0.0000 7.3747 0.0000 0.0000
# 5 0.0000 0.0000 0.0000 0.0000 25.1877 0.0000
# 6 0.0000 0.0000 0.0000 0.0000 0.0000 0.0693
#
#
#
# Elastic Compliance Matrix: (Units=1/GPa)
#
#
# Indices 1 2 3 4 5 6 
#
# 1 0.009225 -0.004111 -0.002999 0.000000 0.000000 0.000000
# 2 -0.004111 0.026173 -0.006078 0.000000 0.000000 0.000000
# 3 -0.002999 -0.006078 0.020515 0.000000 0.000000 0.000000
# 4 0.000000 0.000000 0.000000 0.135599 0.000000 0.000000
# 5 0.000000 0.000000 0.000000 0.000000 0.039702 0.000000
# 6 0.000000 0.000000 0.000000 0.000000 0.000000 14.434762
#
#
# Mechanical properties :
#
#
# Convention : Reuss Voigt Hill
#
# Bulk Modulus (GPa) = 33.85885 41.62796 37.74340
# Shear Modulus (GPa) = 0.34009 17.35569 8.84789
#
# Velocity S-wave (km/s) = 0.41153 2.93991 2.09910
# Velocity P-wave (km/s) = 4.13369 5.67931 4.96699
#
# Compressibility (1/GPa) = 0.02953438
#
# Stress axis : x y z
#
# Youngs Moduli (GPa) = 108.40067 38.20779 48.74511
#
# Poissons Ratio (x) = 0.15709 0.14621
# Poissons Ratio (y) = 0.44569 0.29628
# Poissons Ratio (z) = 0.32514 0.23223
#
# Static dielectric constant tensor:
#      x y z
#    x 4.177060 0.000000 0.000000 
#    y 0.000000 3.076730 0.000000 
#    z 0.000000 0.000000 3.667860 
# 
# 
# High freq. dielectric constant tensor:
#      x y z
#    x 1.804400 0.000000 0.000000 
#    y 0.000000 1.724020 0.000000 
#    z 0.000000 0.000000 1.778630 
# 
# From -- ./inp_files/18590.got.cif
#   From: 2010.03.12/outbox.cif.g09.slc.cpg/sg51_10_cif.got.tgz:18590.got - 2010.04.16 13:43:02.
