data_PCOD8211645
_publ_section_title
;
Structure prediction by ZEFSAII (Michael W. Deem and Ramdas Pophale) SiO2 
 PCOD8211645
Probable space group: P M M A
;
_chemical_formula_sum "Si O2"
_cell_formula_units_Z 64
_cell_length_a 18.302502
_cell_length_b 9.084920
_cell_length_c 20.611727
_cell_angle_alpha 90.000000
_cell_angle_beta 90.000000
_cell_angle_gamma 90.000000
_cell_volume 3427.251317
_symmetry_space_group_name_H-M "P M M A"
_symmetry_group_IT_number 51
_symmetry_cell_setting 'orthorhombic'
loop_
_space_group_symop_operation_xyz
x,y,z
1/2-x,-y,z
1/2+x,-y,-z
-x,y,-z
-x,-y,-z
1/2+x,y,-z
1/2-x,y,z
x,-y,z
loop_
_atom_site_type_symbol
_atom_site_label
_atom_site_fract_x
_atom_site_fract_y
_atom_site_fract_z
Si Si1 0.415051 0.169690 0.873863
Si Si2 0.916212 0.326614 0.257345
Si Si3 0.664555 0.828718 0.372428
Si Si4 0.084948 0.830310 0.126137
Si Si5 0.083787 0.326614 0.257345
Si Si6 0.582504 0.825088 0.500000
Si Si7 0.167556 0.824874 0.000000
Si Si8 0.835445 0.171283 0.627572
O O1 0.390855 0.262062 0.811424
O O2 0.500000 0.188904 0.889210
O O3 0.371995 0.234780 0.935539
O O4 0.394889 0.000000 0.860598
O O5 0.906362 0.500000 0.255287
O O6 0.863841 0.261152 0.311466
O O7 0.999999 0.281320 0.272114
O O8 0.750000 0.800931 0.381752
O O9 0.624022 0.767200 0.436289
O O10 0.646989 0.000000 0.361165
O O11 0.109144 0.737937 0.188576
O O12 0.105110 0.000000 0.139403
O O13 0.128004 0.765220 0.064461
O O14 0.093637 0.500000 0.255288
O O15 0.136158 0.261150 0.311466
O O16 0.500000 0.763076 0.500000
O O17 0.624022 0.767200 0.563711
O O18 0.583169 0.000000 0.500000
O O19 0.250000 0.766346 0.000001
O O20 0.163160 0.000000 0.000000
O O21 0.750000 0.199075 0.618249
O O22 0.853008 0.000000 0.638834
#
# Coordination Sequence:
#
# PCOD8211645 Si02
#       8
#     8   8   8   8   8   8   8   8
#     4   9  17  31  52  75  99 130 168 209 254 304
#     4  10  21  36  53  75 104 138 176 216 257 303
#     4  10  20  34  54  80 108 137 170 210 257 308
#     4   9  17  31  52  75  99 130 168 209 254 304
#     4  10  21  36  53  75 104 138 176 216 257 303
#     4   9  17  31  54  81 106 133 168 212 258 303
#     4   9  17  29  48  75 102 126 160 209 258 303
#     4  10  20  34  54  80 108 137 170 210 257 308
#
# _framework density 18.673857000000002
#
# number of rings (size 3 to 8) (size 9 to 14) (size 15 to 20)
#    0.000    2.500    0.000    2.250    0.000    7.000 
#    0.000    3.750    0.000    7.500    0.000    0.000 
#    0.000    0.000    0.000    0.000    0.000    0.000 
#
# Total GULP energy -793769.417649 kJ/mol
# GULP energy per Si atom -12402.647151 kJ/mol
# Density = 1.863135 g / cm^3
# Si number density = 18.673857 Si / 1000 Ang^3
#
#
#
# Elastic Constant Matrix: (Units=GPa)
#
#
# Indices 1 2 3 4 5 6 
#
# 1 106.8575 37.8686 86.5678 0.0000 0.0000 0.0000
# 2 37.8686 49.6998 49.7184 0.0000 0.0000 0.0000
# 3 86.5678 49.7184 177.2214 0.0000 0.0000 0.0000
# 4 0.0000 0.0000 0.0000 -6.2823 0.0000 0.0000
# 5 0.0000 0.0000 0.0000 0.0000 22.6424 0.0000
# 6 0.0000 0.0000 0.0000 0.0000 0.0000 19.1808
#
#
#
# Elastic Compliance Matrix: (Units=1/GPa)
#
#
# Indices 1 2 3 4 5 6 
#
# 1 0.016832 -0.006395 -0.006428 0.000000 0.000000 0.000000
# 2 -0.006395 0.030400 -0.005405 0.000000 0.000000 0.000000
# 3 -0.006428 -0.005405 0.010299 0.000000 0.000000 0.000000
# 4 0.000000 0.000000 0.000000 -0.159179 0.000000 0.000000
# 5 0.000000 0.000000 0.000000 0.000000 0.044165 0.000000
# 6 0.000000 0.000000 0.000000 0.000000 0.000000 0.052136
#
#
# Mechanical properties :
#
#
# Convention : Reuss Voigt Hill
#
# Bulk Modulus (GPa) = 47.44780 75.78759 61.61769
# Shear Modulus (GPa) = 131.11983 17.74978 74.43480
#
# Velocity S-wave (km/s) = 8.38857 3.08639 6.32036
# Velocity P-wave (km/s) = 10.92191 7.30575 9.29145
#
# Compressibility (1/GPa) = 0.02107579
#
# Stress axis : x y z
#
# Youngs Moduli (GPa) = 59.41131 32.89455 97.09823
#
# Poissons Ratio (x) = 0.21035 0.62414
# Poissons Ratio (y) = 0.37991 0.52481
# Poissons Ratio (z) = 0.38189 0.17779
#
# Static dielectric constant tensor:
#      x y z
#    x 3.480990 0.000000 0.000000 
#    y 0.000000 3.093540 0.000000 
#    z 0.000000 0.000000 3.611450 
# 
# 
# High freq. dielectric constant tensor:
#      x y z
#    x 1.727570 0.000000 0.000000 
#    y 0.000000 1.689300 0.000000 
#    z 0.000000 0.000000 1.741050 
# 
# From -- ./inp_files/30522.got.cif
#   From: 2010.03.12/outbox.cif.g09.slc.cpg/sg51_16_cif.got.tgz:30522.got - 2010.04.16 13:43:02.
