data_PCOD8211887
_publ_section_title
;
Structure prediction by ZEFSAII (Michael W. Deem and Ramdas Pophale) SiO2 
 PCOD8211887
Probable space group: P M M A
;
_chemical_formula_sum "Si O2"
_cell_formula_units_Z 64
_cell_length_a 8.885649
_cell_length_b 14.253521
_cell_length_c 25.564094
_cell_angle_alpha 90.000000
_cell_angle_beta 90.000000
_cell_angle_gamma 90.000000
_cell_volume 3237.738127
_symmetry_space_group_name_H-M "P M M A"
_symmetry_group_IT_number 51
_symmetry_cell_setting 'orthorhombic'
loop_
_space_group_symop_operation_xyz
x,y,z
1/2-x,-y,z
1/2+x,-y,-z
-x,y,-z
-x,-y,-z
1/2+x,y,-z
1/2-x,y,z
x,-y,z
loop_
_atom_site_type_symbol
_atom_site_label
_atom_site_fract_x
_atom_site_fract_y
_atom_site_fract_z
Si Si1 0.075160 0.109137 0.352530
Si Si2 0.427833 0.215908 0.552897
Si Si3 0.574126 0.598532 0.055733
Si Si4 0.074039 0.606403 0.404311
Si Si5 0.922379 0.106873 0.849828
Si Si6 0.573182 0.801740 0.056418
Si Si7 0.423698 0.605905 0.706082
Si Si8 0.927002 0.223570 0.750684
O O1 0.250000 0.125246 0.365576
O O2 0.029323 0.160350 0.299059
O O3 0.977225 0.151675 0.399015
O O4 0.036845 0.000000 0.346203
O O5 0.500000 0.174052 0.500000
O O6 0.250000 0.214586 0.547950
O O7 0.483467 0.323210 0.558752
O O8 0.750000 0.600978 0.046158
O O9 0.531041 0.500000 0.086435
O O10 0.527481 0.698539 0.080967
O O11 0.500000 0.593867 0.000000
O O12 0.250000 0.629528 0.407849
O O13 0.038515 0.500000 0.422150
O O14 0.023368 0.622764 0.345036
O O15 0.750000 0.130963 0.862230
O O16 0.982935 0.170490 0.802482
O O17 0.016290 0.122217 0.902476
O O18 0.941401 0.000000 0.831754
O O19 0.750000 0.813161 0.049178
O O20 0.500000 0.819226 0.000000
O O21 0.250000 0.625926 0.692326
O O22 0.444207 0.500000 0.727436
O O23 0.483459 0.677961 0.749623
O O24 0.750000 0.243331 0.752336
#
# Coordination Sequence:
#
# PCOD8211887 Si02
#       8
#     8   8   8   8   8   8   8   8
#     4  10  21  39  63  88 113 146 191 242 297 355
#     4  12  25  40  59  84 118 156 196 244 295 350
#     4   8  14  26  46  73 104 138 177 220 267 321
#     4  10  20  36  59  86 117 154 195 238 287 345
#     4  10  22  40  60  84 114 149 191 240 292 344
#     4  10  20  35  57  84 115 153 194 237 286 341
#     4  10  20  34  56  88 123 157 191 230 281 340
#     4  10  20  37  63  89 116 150 190 237 289 345
#
# _framework density 19.766886
#
# number of rings (size 3 to 8) (size 9 to 14) (size 15 to 20)
#    0.000    2.000    1.250    2.625    0.000    5.250 
#    0.000    0.625    0.000    4.500    0.000    0.000 
#    0.000    0.000    0.000    0.000    0.000    0.000 
#
# Total GULP energy -793364.606880 kJ/mol
# GULP energy per Si atom -12396.321982 kJ/mol
# Density = 1.972190 g / cm^3
# Si number density = 19.766886 Si / 1000 Ang^3
#
#
#
# Elastic Constant Matrix: (Units=GPa)
#
#
# Indices 1 2 3 4 5 6 
#
# 1 88.6660 42.7266 47.0148 0.0000 0.0000 0.0000
# 2 42.7266 103.4314 46.5788 0.0000 0.0000 0.0000
# 3 47.0148 46.5788 107.2802 0.0000 0.0000 0.0000
# 4 0.0000 0.0000 0.0000 25.0843 0.0000 0.0000
# 5 0.0000 0.0000 0.0000 0.0000 26.9300 0.0000
# 6 0.0000 0.0000 0.0000 0.0000 0.0000 26.7947
#
#
#
# Elastic Compliance Matrix: (Units=1/GPa)
#
#
# Indices 1 2 3 4 5 6 
#
# 1 0.016109 -0.004320 -0.005184 0.000000 0.000000 0.000000
# 2 -0.004320 0.013177 -0.003828 0.000000 0.000000 0.000000
# 3 -0.005184 -0.003828 0.013255 0.000000 0.000000 0.000000
# 4 0.000000 0.000000 0.000000 0.039866 0.000000 0.000000
# 5 0.000000 0.000000 0.000000 0.000000 0.037133 0.000000
# 6 0.000000 0.000000 0.000000 0.000000 0.000000 0.037321
#
#
# Mechanical properties :
#
#
# Convention : Reuss Voigt Hill
#
# Bulk Modulus (GPa) = 62.98350 63.55755 63.27052
# Shear Modulus (GPa) = 26.48085 26.63230 26.55657
#
# Velocity S-wave (km/s) = 3.66410 3.67457 3.66934
# Velocity P-wave (km/s) = 7.05926 7.08707 7.07318
#
# Compressibility (1/GPa) = 0.01587718
#
# Stress axis : x y z
#
# Youngs Moduli (GPa) = 62.07830 75.89241 75.44225
#
# Poissons Ratio (x) = 0.32784 0.39109
# Poissons Ratio (y) = 0.26817 0.28878
# Poissons Ratio (z) = 0.32181 0.29050
#
# Static dielectric constant tensor:
#      x y z
#    x 3.505090 0.000000 0.000000 
#    y 0.000000 4.063890 0.000000 
#    z 0.000000 0.000000 3.327570 
# 
# 
# High freq. dielectric constant tensor:
#      x y z
#    x 1.769840 0.000000 0.000000 
#    y 0.000000 1.788010 0.000000 
#    z 0.000000 0.000000 1.745350 
# 
# From -- ./inp_files/34869.got.cif
#   From: 2010.03.12/outbox.cif.g09.slc.cpg/sg51_18_cif.got.tgz:34869.got - 2010.04.16 13:43:02.
