data_PCOD8211376
_publ_section_title
;
Structure prediction by ZEFSAII (Michael W. Deem and Ramdas Pophale) SiO2 
 PCOD8211376
Probable space group: P M M A
;
_chemical_formula_sum "Si O2"
_cell_formula_units_Z 56
_cell_length_a 19.399912
_cell_length_b 9.409423
_cell_length_c 15.881276
_cell_angle_alpha 90.000000
_cell_angle_beta 90.000000
_cell_angle_gamma 90.000000
_cell_volume 2898.999537
_symmetry_space_group_name_H-M "P M M A"
_symmetry_group_IT_number 51
_symmetry_cell_setting 'orthorhombic'
loop_
_space_group_symop_operation_xyz
x,y,z
1/2-x,-y,z
1/2+x,-y,-z
-x,y,-z
-x,-y,-z
1/2+x,y,-z
1/2-x,y,z
x,-y,z
loop_
_atom_site_type_symbol
_atom_site_label
_atom_site_fract_x
_atom_site_fract_y
_atom_site_fract_z
Si Si1 0.826869 0.663228 0.512399
Si Si2 0.959083 0.335991 0.417864
Si Si3 0.171136 0.666726 0.022900
Si Si4 0.170093 0.836903 0.328203
Si Si5 0.043759 0.162826 0.746722
Si Si6 0.092253 0.164138 0.161938
Si Si7 0.327936 0.836163 0.853935
O O1 0.750000 0.715149 0.486783
O O2 0.826335 0.500000 0.540139
O O3 0.877380 0.687334 0.433671
O O4 0.856223 0.748433 0.592099
O O5 0.977589 0.500000 0.402234
O O6 0.979423 0.251878 0.334304
O O7 0.000000 0.279892 0.500000
O O8 0.250000 0.695634 0.051931
O O9 0.155705 0.500000 0.016958
O O10 0.117488 0.737068 0.086683
O O11 0.157754 0.735324 0.932518
O O12 0.250000 0.808832 0.311592
O O13 0.130510 0.784724 0.246024
O O14 0.153578 0.000000 0.347790
O O15 0.119169 0.208030 0.780186
O O16 0.989305 0.185965 0.822762
O O17 0.043162 0.000000 0.717444
O O18 0.109918 0.000000 0.140810
O O19 0.250000 0.814605 0.820078
O O20 0.340366 0.000000 0.881076
#
# Coordination Sequence:
#
# PCOD8211376 Si02
#       7
#     8   8   8   8   8   8   8
#     4   9  18  32  49  70  97 130 169 213 261 312
#     4  10  21  36  53  74 103 139 175 212 262 321
#     4  10  21  36  56  83 110 138 176 216 254 305
#     4   9  17  29  47  72 100 132 170 209 254 309
#     4  10  22  37  55  81 106 135 179 223 264 313
#     4  10  20  34  52  76 109 143 174 213 262 315
#     4   9  19  38  60  79 105 141 178 219 268 317
#
# _framework density 19.317008999999999
#
# number of rings (size 3 to 8) (size 9 to 14) (size 15 to 20)
#    0.000    2.429    0.000    1.714    0.000    5.143 
#    0.000    4.286    0.000    0.000    0.000    0.000 
#    0.000    0.000    0.000    0.000    0.000    0.000 
#
# Total GULP energy -694448.980959 kJ/mol
# GULP energy per Si atom -12400.874660 kJ/mol
# Density = 1.927304 g / cm^3
# Si number density = 19.317009 Si / 1000 Ang^3
#
#
#
# Elastic Constant Matrix: (Units=GPa)
#
#
# Indices 1 2 3 4 5 6 
#
# 1 84.0290 35.0351 46.4511 0.0000 0.0000 0.0000
# 2 35.0351 73.4515 52.4780 0.0000 0.0000 0.0000
# 3 46.4511 52.4780 89.4660 0.0000 0.0000 0.0000
# 4 0.0000 0.0000 0.0000 69.6544 0.0000 0.0000
# 5 0.0000 0.0000 0.0000 0.0000 29.2085 0.0000
# 6 0.0000 0.0000 0.0000 0.0000 0.0000 21.9222
#
#
#
# Elastic Compliance Matrix: (Units=1/GPa)
#
#
# Indices 1 2 3 4 5 6 
#
# 1 0.017097 -0.003121 -0.007046 0.000000 0.000000 0.000000
# 2 -0.003121 0.024005 -0.012461 0.000000 0.000000 0.000000
# 3 -0.007046 -0.012461 0.022145 0.000000 0.000000 0.000000
# 4 0.000000 0.000000 0.000000 0.014357 0.000000 0.000000
# 5 0.000000 0.000000 0.000000 0.000000 0.034237 0.000000
# 6 0.000000 0.000000 0.000000 0.000000 0.000000 0.045616
#
#
# Mechanical properties :
#
#
# Convention : Reuss Voigt Hill
#
# Bulk Modulus (GPa) = 55.57972 57.20833 56.39402
# Shear Modulus (GPa) = 23.95677 31.68916 27.82297
#
# Velocity S-wave (km/s) = 3.52545 4.05468 3.79929
# Velocity P-wave (km/s) = 6.73845 7.18334 6.96445
#
# Compressibility (1/GPa) = 0.01799217
#
# Stress axis : x y z
#
# Youngs Moduli (GPa) = 58.48983 41.65714 45.15704
#
# Poissons Ratio (x) = 0.13000 0.31819
# Poissons Ratio (y) = 0.18253 0.56268
# Poissons Ratio (z) = 0.41214 0.51907
#
# Static dielectric constant tensor:
#      x y z
#    x 3.768370 0.000000 0.000000 
#    y 0.000000 3.467020 0.000000 
#    z 0.000000 0.000000 3.325150 
# 
# 
# High freq. dielectric constant tensor:
#      x y z
#    x 1.765390 0.000000 0.000000 
#    y 0.000000 1.744220 0.000000 
#    z 0.000000 0.000000 1.734360 
# 
# From -- ./inp_files/25621.got.cif
#   From: 2010.03.12/outbox.cif.g09.slc.cpg/sg51_13_cif.got.tgz:25621.got - 2010.04.16 13:43:02.
