data_PCOD8211226
_publ_section_title
;
Structure prediction by ZEFSAII (Michael W. Deem and Ramdas Pophale) SiO2 
 PCOD8211226
Probable space group: P M M A
;
_chemical_formula_sum "Si O2"
_cell_formula_units_Z 64
_cell_length_a 25.476886
_cell_length_b 8.874872
_cell_length_c 14.422698
_cell_angle_alpha 90.000000
_cell_angle_beta 90.000000
_cell_angle_gamma 90.000000
_cell_volume 3261.031183
_symmetry_space_group_name_H-M "P M M A"
_symmetry_group_IT_number 51
_symmetry_cell_setting 'orthorhombic'
loop_
_space_group_symop_operation_xyz
x,y,z
1/2-x,-y,z
1/2+x,-y,-z
-x,y,-z
-x,-y,-z
1/2+x,y,-z
1/2-x,y,z
x,-y,z
loop_
_atom_site_type_symbol
_atom_site_label
_atom_site_fract_x
_atom_site_fract_y
_atom_site_fract_z
Si Si1 0.189147 0.674185 0.780642
Si Si2 0.810881 0.824290 0.410677
Si Si3 0.360409 0.677787 0.414695
Si Si4 0.309438 0.176070 0.243627
Si Si5 0.470879 0.824271 0.407395
Si Si6 0.598331 0.178850 0.887014
Si Si7 0.494202 0.824236 0.791522
Si Si8 0.894220 0.179354 0.097678
O O1 0.250000 0.698584 0.802535
O O2 0.175343 0.500000 0.765874
O O3 0.171946 0.764571 0.689372
O O4 0.158569 0.742637 0.867404
O O5 0.750000 0.789764 0.429868
O O6 0.845814 0.738696 0.484749
O O7 0.823712 0.000000 0.415796
O O8 0.357896 0.500000 0.415608
O O9 0.319357 0.739106 0.339801
O O10 0.418530 0.731215 0.389599
O O11 0.250000 0.208562 0.210559
O O12 0.349095 0.237007 0.164678
O O13 0.318478 0.000000 0.262740
O O14 0.500000 0.767624 0.500000
O O15 0.508374 0.793736 0.318880
O O16 0.456067 0.000000 0.415313
O O17 0.547146 0.246933 0.835497
O O18 0.597374 0.000000 0.883045
O O19 0.597673 0.234425 0.992613
O O20 0.442701 0.757280 0.840978
O O21 0.495399 0.000000 0.813578
O O22 0.888259 0.000000 0.104737
#
# Coordination Sequence:
#
# PCOD8211226 Si02
#       8
#     8   8   8   8   8   8   8   8
#     4  10  22  40  58  81 118 158 190 230 290 349
#     4  10  21  38  61  85 109 144 191 237 279 334
#     4  12  24  37  56  84 119 154 188 233 292 355
#     4  10  20  36  59  84 112 154 204 249 294 347
#     4  10  21  37  59  85 114 152 195 240 289 344
#     4   9  17  33  57  86 118 148 189 247 299 342
#     4   9  17  33  57  86 116 147 188 242 297 345
#     4  10  20  33  59  92 114 145 195 244 292 350
#
# _framework density 19.625693999999999
#
# number of rings (size 3 to 8) (size 9 to 14) (size 15 to 20)
#    0.000    2.000    1.250    2.625    1.750    5.500 
#    0.000    2.500    0.000    0.750    0.000    0.000 
#    0.000    0.000    0.000    0.000    0.000    0.000 
#
# Total GULP energy -793785.251765 kJ/mol
# GULP energy per Si atom -12402.894559 kJ/mol
# Density = 1.958102 g / cm^3
# Si number density = 19.625694 Si / 1000 Ang^3
#
#
#
# Elastic Constant Matrix: (Units=GPa)
#
#
# Indices 1 2 3 4 5 6 
#
# 1 98.4043 30.1650 58.6418 0.0000 0.0000 0.0000
# 2 30.1650 58.1711 25.9142 0.0000 0.0000 0.0000
# 3 58.6418 25.9142 133.6044 0.0000 0.0000 0.0000
# 4 0.0000 0.0000 0.0000 10.5058 0.0000 0.0000
# 5 0.0000 0.0000 0.0000 0.0000 38.7974 0.0000
# 6 0.0000 0.0000 0.0000 0.0000 0.0000 17.3318
#
#
#
# Elastic Compliance Matrix: (Units=1/GPa)
#
#
# Indices 1 2 3 4 5 6 
#
# 1 0.015147 -0.005355 -0.005609 0.000000 0.000000 0.000000
# 2 -0.005355 0.020710 -0.001666 0.000000 0.000000 0.000000
# 3 -0.005609 -0.001666 0.010270 0.000000 0.000000 0.000000
# 4 0.000000 0.000000 0.000000 0.095186 0.000000 0.000000
# 5 0.000000 0.000000 0.000000 0.000000 0.025775 0.000000
# 6 0.000000 0.000000 0.000000 0.000000 0.000000 0.057697
#
#
# Mechanical properties :
#
#
# Convention : Reuss Voigt Hill
#
# Bulk Modulus (GPa) = 47.92867 57.73577 52.83222
# Shear Modulus (GPa) = 19.45509 25.02425 22.23967
#
# Velocity S-wave (km/s) = 3.15192 3.57469 3.36994
# Velocity P-wave (km/s) = 6.14170 6.82057 6.49002
#
# Compressibility (1/GPa) = 0.02086434
#
# Stress axis : x y z
#
# Youngs Moduli (GPa) = 66.02126 48.28558 97.37022
#
# Poissons Ratio (x) = 0.25859 0.54619
# Poissons Ratio (y) = 0.35358 0.16225
# Poissons Ratio (z) = 0.37034 0.08046
#
# Static dielectric constant tensor:
#      x y z
#    x 3.686960 0.000000 0.000000 
#    y 0.000000 3.245280 0.000000 
#    z 0.000000 0.000000 3.691600 
# 
# 
# High freq. dielectric constant tensor:
#      x y z
#    x 1.771520 0.000000 0.000000 
#    y 0.000000 1.729280 0.000000 
#    z 0.000000 0.000000 1.774670 
# 
# From -- ./inp_files/26284.got.cif
#   From: 2010.03.12/outbox.cif.g09.slc.cpg/sg51_14_cif.got.tgz:26284.got - 2010.04.16 13:43:02.
