data_PCOD8211139
_publ_section_title
;
Structure prediction by ZEFSAII (Michael W. Deem and Ramdas Pophale) SiO2 
 PCOD8211139
Probable space group: P M M A
;
_chemical_formula_sum "Si O2"
_cell_formula_units_Z 48
_cell_length_a 9.060902
_cell_length_b 9.152344
_cell_length_c 30.744397
_cell_angle_alpha 90.000000
_cell_angle_beta 90.000000
_cell_angle_gamma 90.000000
_cell_volume 2549.586482
_symmetry_space_group_name_H-M "P M M A"
_symmetry_group_IT_number 51
_symmetry_cell_setting 'orthorhombic'
loop_
_space_group_symop_operation_xyz
x,y,z
1/2-x,-y,z
1/2+x,-y,-z
-x,y,-z
-x,-y,-z
1/2+x,y,-z
1/2-x,y,z
x,-y,z
loop_
_atom_site_type_symbol
_atom_site_label
_atom_site_fract_x
_atom_site_fract_y
_atom_site_fract_z
Si Si1 0.577551 0.830315 0.801296
Si Si2 0.422432 0.830940 0.044306
Si Si3 0.922485 0.668649 0.543967
Si Si4 0.583378 0.826440 0.379154
Si Si5 0.913013 0.173323 0.704056
Si Si6 0.419843 0.327852 0.877818
O O1 0.750000 0.802671 0.810837
O O2 0.536619 0.779094 0.752312
O O3 0.477353 0.734281 0.832438
O O4 0.539543 0.000000 0.808583
O O5 0.250000 0.800536 0.039425
O O6 0.484749 0.736198 0.083265
O O7 0.455804 0.000000 0.054343
O O8 0.500000 0.780457 0.000000
O O9 0.750000 0.695987 0.538584
O O10 0.960382 0.500000 0.552935
O O11 0.000000 0.723455 0.500000
O O12 0.980566 0.762981 0.583674
O O13 0.750000 0.770247 0.385353
O O14 0.526232 0.768699 0.332326
O O15 0.574442 0.000000 0.381539
O O16 0.750000 0.237026 0.693829
O O17 0.904397 0.000000 0.703073
O O18 0.250000 0.282608 0.884161
O O19 0.440735 0.500000 0.877310
#
# Coordination Sequence:
#
# PCOD8211139 Si02
#       6
#     8   8   8   8   8   8
#     4   9  18  34  57  82 105 134 176 221 264 312
#     4  10  21  38  61  86 109 136 174 218 263 313
#     4  10  21  37  56  76 100 134 175 216 260 311
#     4  10  20  33  52  80 110 138 171 212 259 311
#     4   8  15  30  52  77 105 136 171 214 262 310
#     4  11  24  38  52  76 111 147 181 217 260 310
#
# _framework density 18.826582999999999
#
# number of rings (size 3 to 8) (size 9 to 14) (size 15 to 20)
#    0.000    2.333    0.000    3.500    0.000    8.000 
#    0.000    2.500    0.000    1.000    0.000    0.000 
#    0.000    0.000    0.000    0.000    0.000    0.000 
#
# Total GULP energy -595267.977156 kJ/mol
# GULP energy per Si atom -12401.416191 kJ/mol
# Density = 1.878373 g / cm^3
# Si number density = 18.826583 Si / 1000 Ang^3
#
#
#
# Elastic Constant Matrix: (Units=GPa)
#
#
# Indices 1 2 3 4 5 6 
#
# 1 104.0047 38.2391 65.7538 0.0000 0.0000 0.0000
# 2 38.2391 42.7852 42.0396 0.0000 0.0000 0.0000
# 3 65.7538 42.0396 145.2234 0.0000 0.0000 0.0000
# 4 0.0000 0.0000 0.0000 -43.4151 0.0000 0.0000
# 5 0.0000 0.0000 0.0000 0.0000 40.0692 0.0000
# 6 0.0000 0.0000 0.0000 0.0000 0.0000 27.8533
#
#
#
# Elastic Compliance Matrix: (Units=1/GPa)
#
#
# Indices 1 2 3 4 5 6 
#
# 1 0.016081 -0.010087 -0.004361 0.000000 0.000000 0.000000
# 2 -0.010087 0.038991 -0.006720 0.000000 0.000000 0.000000
# 3 -0.004361 -0.006720 0.010806 0.000000 0.000000 0.000000
# 4 0.000000 0.000000 0.000000 -0.023033 0.000000 0.000000
# 5 0.000000 0.000000 0.000000 0.000000 0.024957 0.000000
# 6 0.000000 0.000000 0.000000 0.000000 0.000000 0.035902
#
#
# Mechanical properties :
#
#
# Convention : Reuss Voigt Hill
#
# Bulk Modulus (GPa) = 42.47867 64.89760 53.68813
# Shear Modulus (GPa) = 32.49160 14.63354 23.56257
#
# Velocity S-wave (km/s) = 4.15883 2.79100 3.54158
# Velocity P-wave (km/s) = 6.75820 6.70316 6.73073
#
# Compressibility (1/GPa) = 0.02354123
#
# Stress axis : x y z
#
# Youngs Moduli (GPa) = 62.18625 25.64716 92.54332
#
# Poissons Ratio (x) = 0.25871 0.40357
# Poissons Ratio (y) = 0.62728 0.62188
# Poissons Ratio (z) = 0.27119 0.17235
#
# Static dielectric constant tensor:
#      x y z
#    x 3.731490 0.000000 0.000000 
#    y 0.000000 3.189870 0.000000 
#    z 0.000000 0.000000 3.693750 
# 
# 
# High freq. dielectric constant tensor:
#      x y z
#    x 1.740690 0.000000 0.000000 
#    y 0.000000 1.703930 0.000000 
#    z 0.000000 0.000000 1.747950 
# 
# From -- ./inp_files/36930.got.cif
#   From: 2010.03.12/outbox.cif.g09.slc.cpg/sg51_19_cif.got.tgz:36930.got - 2010.04.16 13:43:02.
