data_PCOD8211478
_publ_section_title
;
Structure prediction by ZEFSAII (Michael W. Deem and Ramdas Pophale) SiO2 
 PCOD8211478
Probable space group: P M M A
;
_chemical_formula_sum "Si O2"
_cell_formula_units_Z 64
_cell_length_a 13.656914
_cell_length_b 8.974415
_cell_length_c 26.341474
_cell_angle_alpha 90.000000
_cell_angle_beta 90.000000
_cell_angle_gamma 90.000000
_cell_volume 3228.485175
_symmetry_space_group_name_H-M "P M M A"
_symmetry_group_IT_number 51
_symmetry_cell_setting 'orthorhombic'
loop_
_space_group_symop_operation_xyz
x,y,z
1/2-x,-y,z
1/2+x,-y,-z
-x,y,-z
-x,-y,-z
1/2+x,y,-z
1/2-x,y,z
x,-y,z
loop_
_atom_site_type_symbol
_atom_site_label
_atom_site_fract_x
_atom_site_fract_y
_atom_site_fract_z
Si Si1 0.047023 0.676855 0.077632
Si Si2 0.138176 0.674882 0.682512
Si Si3 0.959896 0.823982 0.722821
Si Si4 0.133881 0.832424 0.582262
Si Si5 0.865675 0.829767 0.529141
Si Si6 0.357061 0.677369 0.975486
Si Si7 0.365128 0.327585 0.181936
Si Si8 0.133449 0.331362 0.372184
O O1 0.055141 0.500000 0.079203
O O2 0.083831 0.739261 0.131387
O O3 0.935129 0.729376 0.067071
O O4 0.113549 0.737607 0.031327
O O5 0.250000 0.728181 0.690664
O O6 0.128401 0.500000 0.689279
O O7 0.098896 0.719670 0.626233
O O8 0.069867 0.756094 0.723725
O O9 0.901337 0.769584 0.771500
O O10 0.902972 0.771216 0.673126
O O11 0.966480 0.000000 0.723479
O O12 0.250000 0.825804 0.577392
O O13 0.089469 0.788584 0.526713
O O14 0.100997 0.000000 0.597129
O O15 0.750000 0.804687 0.527050
O O16 0.910507 0.729105 0.574295
O O17 0.890923 0.000000 0.542062
O O18 0.250000 0.740389 0.960908
O O19 0.356541 0.500000 0.977598
O O20 0.250000 0.308534 0.175373
O O21 0.393009 0.500000 0.191374
O O22 0.250000 0.323793 0.373178
O O23 0.096508 0.500000 0.363678
#
# Coordination Sequence:
#
# PCOD8211478 Si02
#       8
#     8   8   8   8   8   8   8   8
#     4   8  14  24  41  69 105 144 183 223 271 325
#     4  10  21  38  60  82 103 129 165 213 266 319
#     4  12  25  39  56  76 101 135 176 222 268 320
#     4   8  14  27  49  76 105 136 168 203 249 310
#     4   8  14  26  46  73 105 139 171 203 247 310
#     4   8  12  20  38  68 107 146 182 221 267 320
#     4  10  20  35  55  78 107 142 180 225 274 320
#     4  10  20  34  53  77 106 138 172 216 269 320
#
# _framework density 19.823537999999999
#
# number of rings (size 3 to 8) (size 9 to 14) (size 15 to 20)
#    0.000    2.750    0.000    4.125    0.000    5.250 
#    0.000    3.750    0.000    6.000    0.000    1.750 
#    0.000    1.000    0.000    0.000    0.000    0.000 
#
# Total GULP energy -793357.933526 kJ/mol
# GULP energy per Si atom -12396.217711 kJ/mol
# Density = 1.977842 g / cm^3
# Si number density = 19.823538 Si / 1000 Ang^3
#
#
#
# Elastic Constant Matrix: (Units=GPa)
#
#
# Indices 1 2 3 4 5 6 
#
# 1 80.0436 26.9552 45.9781 0.0000 0.0000 0.0000
# 2 26.9552 77.4996 37.2466 0.0000 0.0000 0.0000
# 3 45.9781 37.2466 105.5887 0.0000 0.0000 0.0000
# 4 0.0000 0.0000 0.0000 1.9740 0.0000 0.0000
# 5 0.0000 0.0000 0.0000 0.0000 32.4920 0.0000
# 6 0.0000 0.0000 0.0000 0.0000 0.0000 17.2816
#
#
#
# Elastic Compliance Matrix: (Units=1/GPa)
#
#
# Indices 1 2 3 4 5 6 
#
# 1 0.017173 -0.002865 -0.006467 0.000000 0.000000 0.000000
# 2 -0.002865 0.016015 -0.004402 0.000000 0.000000 0.000000
# 3 -0.006467 -0.004402 0.013840 0.000000 0.000000 0.000000
# 4 0.000000 0.000000 0.000000 0.506584 0.000000 0.000000
# 5 0.000000 0.000000 0.000000 0.000000 0.030777 0.000000
# 6 0.000000 0.000000 0.000000 0.000000 0.000000 0.057865
#
#
# Mechanical properties :
#
#
# Convention : Reuss Voigt Hill
#
# Bulk Modulus (GPa) = 51.12528 53.72129 52.42329
# Shear Modulus (GPa) = 7.39381 20.54631 13.97006
#
# Velocity S-wave (km/s) = 1.93337 3.22290 2.65754
# Velocity P-wave (km/s) = 5.55248 6.40375 5.99325
#
# Compressibility (1/GPa) = 0.01955980
#
# Stress axis : x y z
#
# Youngs Moduli (GPa) = 58.23163 62.44034 72.25600
#
# Poissons Ratio (x) = 0.17887 0.46730
# Poissons Ratio (y) = 0.16682 0.31807
# Poissons Ratio (z) = 0.37660 0.27486
#
# Static dielectric constant tensor:
#      x y z
#    x 3.860100 0.000000 0.000000 
#    y 0.000000 3.294670 0.000000 
#    z 0.000000 0.000000 3.794810 
# 
# 
# High freq. dielectric constant tensor:
#      x y z
#    x 1.787610 0.000000 0.000000 
#    y 0.000000 1.733860 0.000000 
#    z 0.000000 0.000000 1.762130 
# 
# From -- ./inp_files/35614.got.cif
#   From: 2010.03.12/outbox.cif.g09.slc.cpg/sg51_18_cif.got.tgz:35614.got - 2010.04.16 13:43:02.
