data_PCOD8211200
_publ_section_title
;
Structure prediction by ZEFSAII (Michael W. Deem and Ramdas Pophale) SiO2 
 PCOD8211200
Probable space group: P M M A
;
_chemical_formula_sum "Si O2"
_cell_formula_units_Z 56
_cell_length_a 14.844673
_cell_length_b 9.122905
_cell_length_c 21.143344
_cell_angle_alpha 90.000000
_cell_angle_beta 90.000000
_cell_angle_gamma 90.000000
_cell_volume 2863.369954
_symmetry_space_group_name_H-M "P M M A"
_symmetry_group_IT_number 51
_symmetry_cell_setting 'orthorhombic'
loop_
_space_group_symop_operation_xyz
x,y,z
1/2-x,-y,z
1/2+x,-y,-z
-x,y,-z
-x,-y,-z
1/2+x,y,-z
1/2-x,y,z
x,-y,z
loop_
_atom_site_type_symbol
_atom_site_label
_atom_site_fract_x
_atom_site_fract_y
_atom_site_fract_z
Si Si1 0.356755 0.661655 0.488109
Si Si2 0.011966 0.825907 0.718798
Si Si3 0.900912 0.659979 0.027205
Si Si4 0.646065 0.672944 0.652287
Si Si5 0.011025 0.673330 0.847394
Si Si6 0.649071 0.166679 0.912675
Si Si7 0.147519 0.172148 0.609765
O O1 0.250000 0.654142 0.489824
O O2 0.397327 0.500000 0.499095
O O3 0.384329 0.720430 0.418693
O O4 0.393092 0.763800 0.544393
O O5 0.913769 0.764512 0.701041
O O6 0.043092 0.754401 0.784342
O O7 0.085776 0.775177 0.667532
O O8 0.006744 0.000000 0.725729
O O9 0.853170 0.500000 0.023244
O O10 0.911791 0.708999 0.100426
O O11 0.847322 0.778072 0.985694
O O12 0.000000 0.644112 0.000000
O O13 0.750000 0.713954 0.664849
O O14 0.630851 0.500000 0.661897
O O15 0.001058 0.500000 0.836320
O O16 0.913795 0.733578 0.869079
O O17 0.750000 0.175365 0.885096
O O18 0.613147 0.000000 0.912118
O O19 0.250000 0.226739 0.621922
O O20 0.144679 0.000000 0.602267
#
# Coordination Sequence:
#
# PCOD8211200 Si02
#       7
#     8   8   8   8   8   8   8
#     4   8  15  30  53  78 101 130 172 221 271 319
#     4  11  23  36  53  78 107 142 182 222 265 316
#     4   8  16  32  53  75  98 127 164 204 245 290
#     4   9  19  36  55  76 106 142 178 218 266 321
#     4  10  21  37  55  74 101 139 177 212 255 306
#     4  10  20  33  53  83 112 136 167 207 251 302
#     4   9  19  36  55  75 102 136 174 219 273 328
#
# _framework density 19.557375
#
# number of rings (size 3 to 8) (size 9 to 14) (size 15 to 20)
#    0.000    2.714    0.000    3.000    0.000    7.429 
#    0.000    5.000    0.000    2.571    0.000    0.000 
#    0.000    0.000    0.000    0.000    0.000    0.000 
#
# Total GULP energy -694189.582328 kJ/mol
# GULP energy per Si atom -12396.242542 kJ/mol
# Density = 1.951286 g / cm^3
# Si number density = 19.557375 Si / 1000 Ang^3
#
#
#
# Elastic Constant Matrix: (Units=GPa)
#
#
# Indices 1 2 3 4 5 6 
#
# 1 32.7085 9.5297 1.0797 0.0000 0.0000 0.0000
# 2 9.5297 61.4345 24.2924 0.0000 0.0000 0.0000
# 3 1.0797 24.2924 97.5867 0.0000 0.0000 0.0000
# 4 0.0000 0.0000 0.0000 168.9113 0.0000 0.0000
# 5 0.0000 0.0000 0.0000 0.0000 22.5955 0.0000
# 6 0.0000 0.0000 0.0000 0.0000 0.0000 17.6193
#
#
#
# Elastic Compliance Matrix: (Units=1/GPa)
#
#
# Indices 1 2 3 4 5 6 
#
# 1 0.032105 -0.005368 0.000981 0.000000 0.000000 0.000000
# 2 -0.005368 0.018952 -0.004658 0.000000 0.000000 0.000000
# 3 0.000981 -0.004658 0.011396 0.000000 0.000000 0.000000
# 4 0.000000 0.000000 0.000000 0.005920 0.000000 0.000000
# 5 0.000000 0.000000 0.000000 0.000000 0.044257 0.000000
# 6 0.000000 0.000000 0.000000 0.000000 0.000000 0.056756
#
#
# Mechanical properties :
#
#
# Convention : Reuss Voigt Hill
#
# Bulk Modulus (GPa) = 22.54166 29.05924 25.80045
# Shear Modulus (GPa) = 24.72014 52.28039 38.50027
#
# Velocity S-wave (km/s) = 3.55911 5.17589 4.44168
# Velocity P-wave (km/s) = 5.33297 7.11411 6.28693
#
# Compressibility (1/GPa) = 0.04436230
#
# Stress axis : x y z
#
# Youngs Moduli (GPa) = 31.14805 52.76428 87.74962
#
# Poissons Ratio (x) = 0.28324 -0.08609
# Poissons Ratio (y) = 0.16720 0.40877
# Poissons Ratio (z) = -0.03056 0.24580
#
# Static dielectric constant tensor:
#      x y z
#    x 3.380320 0.000000 0.000000 
#    y 0.000000 3.583590 0.000000 
#    z 0.000000 0.000000 3.854560 
# 
# 
# High freq. dielectric constant tensor:
#      x y z
#    x 1.741540 0.000000 0.000000 
#    y 0.000000 1.759250 0.000000 
#    z 0.000000 0.000000 1.763250 
# 
# From -- ./inp_files/33437.got.cif
#   From: 2010.03.12/outbox.cif.g09.slc.cpg/sg51_17_cif.got.tgz:33437.got - 2010.04.16 13:43:02.
