data_PCOD8211131
_publ_section_title
;
Structure prediction by ZEFSAII (Michael W. Deem and Ramdas Pophale) SiO2 
 PCOD8211131
Probable space group: P M M A
;
_chemical_formula_sum "Si O2"
_cell_formula_units_Z 64
_cell_length_a 28.108065
_cell_length_b 9.210160
_cell_length_c 12.895344
_cell_angle_alpha 90.000000
_cell_angle_beta 90.000000
_cell_angle_gamma 90.000000
_cell_volume 3338.343765
_symmetry_space_group_name_H-M "P M M A"
_symmetry_group_IT_number 51
_symmetry_cell_setting 'orthorhombic'
loop_
_space_group_symop_operation_xyz
x,y,z
1/2-x,-y,z
1/2+x,-y,-z
-x,y,-z
-x,-y,-z
1/2+x,y,-z
1/2-x,y,z
x,-y,z
loop_
_atom_site_type_symbol
_atom_site_label
_atom_site_fract_x
_atom_site_fract_y
_atom_site_fract_z
Si Si1 0.142561 0.171629 0.523448
Si Si2 0.643919 0.328427 0.868724
Si Si3 0.803301 0.827566 0.273787
Si Si4 0.864122 0.171888 0.077414
Si Si5 0.051874 0.669036 0.466593
Si Si6 0.194302 0.166631 0.313345
Si Si7 0.954948 0.667342 0.770333
Si Si8 0.027232 0.829324 0.897900
O O1 0.172810 0.230520 0.620776
O O2 0.090715 0.242951 0.531559
O O3 0.168632 0.219932 0.418056
O O4 0.136410 0.000000 0.529380
O O5 0.651747 0.500000 0.876213
O O6 0.678931 0.267160 0.781558
O O7 0.589479 0.288476 0.842007
O O8 0.656674 0.253360 0.977321
O O9 0.750000 0.763954 0.265769
O O10 0.833240 0.774829 0.174746
O O11 0.801824 0.000000 0.276336
O O12 0.918245 0.220388 0.098328
O O13 0.860439 0.000000 0.058410
O O14 0.058175 0.500000 0.491983
O O15 0.059878 0.704026 0.346259
O O16 0.000000 0.723949 0.500000
O O17 0.250000 0.184165 0.332196
O O18 0.180818 0.000000 0.288175
O O19 0.968410 0.500000 0.782872
O O20 0.001741 0.757542 0.799438
O O21 0.022666 0.000000 0.884869
O O22 0.000000 0.773706 0.000000
#
# Coordination Sequence:
#
# PCOD8211131 Si02
#       8
#     8   8   8   8   8   8   8   8
#     4  10  20  36  61  89 114 143 187 237 281 334
#     4  11  22  37  57  83 115 150 189 235 284 338
#     4   9  19  37  60  84 112 147 188 238 290 339
#     4  10  21  37  57  83 115 152 195 237 287 345
#     4  10  22  39  56  80 117 156 187 222 278 344
#     4  10  21  37  59  86 113 144 184 232 288 346
#     4  10  21  36  54  77 109 149 188 225 275 338
#     4  10  20  33  52  79 110 144 183 231 278 326
#
# _framework density 19.171184
#
# number of rings (size 3 to 8) (size 9 to 14) (size 15 to 20)
#    0.000    2.000    2.500    0.750    1.750    4.250 
#    0.000    1.875    0.000    1.875    0.000    0.000 
#    0.000    0.000    0.000    0.000    0.000    0.000 
#
# Total GULP energy -793856.505368 kJ/mol
# GULP energy per Si atom -12404.007896 kJ/mol
# Density = 1.912755 g / cm^3
# Si number density = 19.171184 Si / 1000 Ang^3
#
#
#
# Elastic Constant Matrix: (Units=GPa)
#
#
# Indices 1 2 3 4 5 6 
#
# 1 141.7993 37.3283 71.9626 0.0000 0.0000 0.0000
# 2 37.3283 38.7573 35.6302 0.0000 0.0000 0.0000
# 3 71.9626 35.6302 120.7371 0.0000 0.0000 0.0000
# 4 0.0000 0.0000 0.0000 19.8068 0.0000 0.0000
# 5 0.0000 0.0000 0.0000 0.0000 36.0545 0.0000
# 6 0.0000 0.0000 0.0000 0.0000 0.0000 17.1324
#
#
#
# Elastic Compliance Matrix: (Units=1/GPa)
#
#
# Indices 1 2 3 4 5 6 
#
# 1 0.011143 -0.006349 -0.004768 0.000000 0.000000 0.000000
# 2 -0.006349 0.039025 -0.007732 0.000000 0.000000 0.000000
# 3 -0.004768 -0.007732 0.013406 0.000000 0.000000 0.000000
# 4 0.000000 0.000000 0.000000 0.050488 0.000000 0.000000
# 5 0.000000 0.000000 0.000000 0.000000 0.027736 0.000000
# 6 0.000000 0.000000 0.000000 0.000000 0.000000 0.058369
#
#
# Mechanical properties :
#
#
# Convention : Reuss Voigt Hill
#
# Bulk Modulus (GPa) = 38.64635 65.68175 52.16405
# Shear Modulus (GPa) = 20.28467 25.02357 22.65412
#
# Velocity S-wave (km/s) = 3.25634 3.61677 3.44128
# Velocity P-wave (km/s) = 5.86009 7.19558 6.56190
#
# Compressibility (1/GPa) = 0.02587567
#
# Stress axis : x y z
#
# Youngs Moduli (GPa) = 89.73914 25.62455 74.59231
#
# Poissons Ratio (x) = 0.16269 0.35566
# Poissons Ratio (y) = 0.56977 0.57677
# Poissons Ratio (z) = 0.42789 0.19814
#
# Static dielectric constant tensor:
#      x y z
#    x 3.565140 0.000000 0.000000 
#    y 0.000000 3.244420 0.000000 
#    z 0.000000 0.000000 3.571670 
# 
# 
# High freq. dielectric constant tensor:
#      x y z
#    x 1.752370 0.000000 0.000000 
#    y 0.000000 1.721230 0.000000 
#    z 0.000000 0.000000 1.753600 
# 
# From -- ./inp_files/19540.got.cif
#   From: 2010.03.12/outbox.cif.g09.slc.cpg/sg51_10_cif.got.tgz:19540.got - 2010.04.16 13:43:02.
