data_PCOD8211081
_publ_section_title
;
Structure prediction by ZEFSAII (Michael W. Deem and Ramdas Pophale) SiO2 
 PCOD8211081
Probable space group: P M M A
;
_chemical_formula_sum "Si O2"
_cell_formula_units_Z 64
_cell_length_a 8.984474
_cell_length_b 14.120739
_cell_length_c 31.198186
_cell_angle_alpha 90.000000
_cell_angle_beta 90.000000
_cell_angle_gamma 90.000000
_cell_volume 3958.033130
_symmetry_space_group_name_H-M "P M M A"
_symmetry_group_IT_number 51
_symmetry_cell_setting 'orthorhombic'
loop_
_space_group_symop_operation_xyz
x,y,z
1/2-x,-y,z
1/2+x,-y,-z
-x,y,-z
-x,-y,-z
1/2+x,y,-z
1/2-x,y,z
x,-y,z
loop_
_atom_site_type_symbol
_atom_site_label
_atom_site_fract_x
_atom_site_fract_y
_atom_site_fract_z
Si Si1 0.576389 0.204079 0.544129
Si Si2 0.576869 0.607397 0.324078
Si Si3 0.582312 0.887047 0.957864
Si Si4 0.582225 0.112812 0.126079
Si Si5 0.425792 0.784885 0.296516
Si Si6 0.580607 0.394623 0.587836
Si Si7 0.923732 0.891370 0.789030
Si Si8 0.423034 0.889184 0.624403
O O1 0.500000 0.174283 0.500000
O O2 0.750000 0.180095 0.541491
O O3 0.548354 0.316198 0.551831
O O4 0.505322 0.141829 0.581408
O O5 0.750000 0.631694 0.319572
O O6 0.542333 0.500000 0.309862
O O7 0.480393 0.676260 0.293939
O O8 0.530891 0.623976 0.373221
O O9 0.750000 0.848795 0.958456
O O10 0.502806 0.846601 0.915410
O O11 0.578668 0.000000 0.957693
O O12 0.500000 0.847659 0.000000
O O13 0.750000 0.150459 0.124374
O O14 0.506858 0.150842 0.169521
O O15 0.575299 0.000000 0.125533
O O16 0.250000 0.790991 0.303804
O O17 0.474839 0.833308 0.252355
O O18 0.506744 0.835954 0.335481
O O19 0.750000 0.384189 0.605025
O O20 0.554835 0.500000 0.568400
O O21 0.750000 0.881059 0.798011
O O22 0.968545 0.000000 0.780819
O O23 0.250000 0.862408 0.620899
O O24 0.447336 0.000000 0.631391
#
# Coordination Sequence:
#
# PCOD8211081 Si02
#       8
#     8   8   8   8   8   8   8   8
#     4  11  23  38  57  78 101 129 156 188 226 269
#     4  10  20  33  52  77 102 127 153 184 223 268
#     4   9  15  22  33  49  71 102 143 191 239 283
#     4   9  16  25  37  54  78 109 147 191 237 280
#     4  11  21  34  54  77  99 125 155 191 232 277
#     4   9  18  34  55  78 102 127 153 180 217 266
#     4   9  18  31  45  63  89 121 156 192 232 277
#     4  11  24  40  57  76  98 124 156 195 233 271
#
# _framework density 16.169647999999999
#
# number of rings (size 3 to 8) (size 9 to 14) (size 15 to 20)
#    0.000    2.125    1.250    2.625    0.000    7.250 
#    0.000    1.250    0.000    0.000    0.000    0.000 
#    0.000    0.000    0.000    0.000    0.000    0.625 
#
# Total GULP energy -793655.279565 kJ/mol
# GULP energy per Si atom -12400.863743 kJ/mol
# Density = 1.613284 g / cm^3
# Si number density = 16.169648 Si / 1000 Ang^3
#
#
#
# Elastic Constant Matrix: (Units=GPa)
#
#
# Indices 1 2 3 4 5 6 
#
# 1 104.3229 35.2430 64.7720 0.0000 0.0000 0.0000
# 2 35.2430 56.7834 37.4325 0.0000 0.0000 0.0000
# 3 64.7720 37.4325 134.1978 0.0000 0.0000 0.0000
# 4 0.0000 0.0000 0.0000 2.8777 0.0000 0.0000
# 5 0.0000 0.0000 0.0000 0.0000 31.6103 0.0000
# 6 0.0000 0.0000 0.0000 0.0000 0.0000 20.5062
#
#
#
# Elastic Compliance Matrix: (Units=1/GPa)
#
#
# Indices 1 2 3 4 5 6 
#
# 1 0.014994 -0.005557 -0.005687 0.000000 0.000000 0.000000
# 2 -0.005557 0.023638 -0.003911 0.000000 0.000000 0.000000
# 3 -0.005687 -0.003911 0.011288 0.000000 0.000000 0.000000
# 4 0.000000 0.000000 0.000000 0.347499 0.000000 0.000000
# 5 0.000000 0.000000 0.000000 0.000000 0.031635 0.000000
# 6 0.000000 0.000000 0.000000 0.000000 0.000000 0.048766
#
#
# Mechanical properties :
#
#
# Convention : Reuss Voigt Hill
#
# Bulk Modulus (GPa) = 50.99714 63.35545 57.17629
# Shear Modulus (GPa) = 9.71504 21.52262 15.61883
#
# Velocity S-wave (km/s) = 2.45382 3.65231 3.11132
# Velocity P-wave (km/s) = 6.29568 7.55332 6.95299
#
# Compressibility (1/GPa) = 0.01960894
#
# Stress axis : x y z
#
# Youngs Moduli (GPa) = 66.69413 42.30428 88.59353
#
# Poissons Ratio (x) = 0.23509 0.50382
# Poissons Ratio (y) = 0.37063 0.34652
# Poissons Ratio (z) = 0.37928 0.16547
#
# Static dielectric constant tensor:
#      x y z
#    x 3.236750 0.000000 0.000000 
#    y 0.000000 2.954250 0.000000 
#    z 0.000000 0.000000 3.076580 
# 
# 
# High freq. dielectric constant tensor:
#      x y z
#    x 1.639400 0.000000 0.000000 
#    y 0.000000 1.583580 0.000000 
#    z 0.000000 0.000000 1.612080 
# 
# From -- ./inp_files/37587.got.cif
#   From: 2010.03.12/outbox.cif.g09.slc.cpg/sg51_19_cif.got.tgz:37587.got - 2010.04.16 13:43:02.
