data_PCOD8211425
_publ_section_title
;
Structure prediction by ZEFSAII (Michael W. Deem and Ramdas Pophale) SiO2 
 PCOD8211425
Probable space group: P M M A
;
_chemical_formula_sum "Si O2"
_cell_formula_units_Z 64
_cell_length_a 13.913560
_cell_length_b 8.938434
_cell_length_c 25.780454
_cell_angle_alpha 90.000000
_cell_angle_beta 90.000000
_cell_angle_gamma 90.000000
_cell_volume 3206.197447
_symmetry_space_group_name_H-M "P M M A"
_symmetry_group_IT_number 51
_symmetry_cell_setting 'orthorhombic'
loop_
_space_group_symop_operation_xyz
x,y,z
1/2-x,-y,z
1/2+x,-y,-z
-x,y,-z
-x,-y,-z
1/2+x,y,-z
1/2-x,y,z
x,-y,z
loop_
_atom_site_type_symbol
_atom_site_label
_atom_site_fract_x
_atom_site_fract_y
_atom_site_fract_z
Si Si1 0.359572 0.824248 0.875637
Si Si2 0.362023 0.325575 0.178835
Si Si3 0.361362 0.822479 0.475410
Si Si4 0.138526 0.326505 0.679635
Si Si5 0.643655 0.161639 0.921760
Si Si6 0.604172 0.337937 0.020429
Si Si7 0.962074 0.676560 0.428406
Si Si8 0.469336 0.823615 0.773071
O O1 0.250000 0.771975 0.871510
O O2 0.405981 0.747063 0.925525
O O3 0.411551 0.770068 0.823730
O O4 0.368520 0.000000 0.883219
O O5 0.250000 0.291492 0.189309
O O6 0.382220 0.500000 0.177959
O O7 0.402677 0.262673 0.123556
O O8 0.424561 0.250510 0.224732
O O9 0.250000 0.783947 0.462941
O O10 0.390561 0.751852 0.530376
O O11 0.431135 0.749313 0.431888
O O12 0.377743 0.000000 0.477093
O O13 0.250000 0.280909 0.673378
O O14 0.128713 0.500000 0.694296
O O15 0.082060 0.288898 0.627295
O O16 0.090024 0.228100 0.723673
O O17 0.750000 0.130372 0.901572
O O18 0.589161 0.000000 0.925947
O O19 0.656454 0.238181 0.977590
O O20 0.656047 0.500000 0.027005
O O21 0.500000 0.368201 0.000000
O O22 0.968805 0.500000 0.439533
O O23 0.482051 0.000000 0.770728
#
# Coordination Sequence:
#
# PCOD8211425 Si02
#       8
#     8   8   8   8   8   8   8   8
#     4  10  22  39  56  77 107 141 178 222 274 332
#     4  10  21  38  60  84 111 143 180 226 280 339
#     4  10  20  34  55  86 125 165 202 243 293 346
#     4  10  22  40  61  86 117 153 195 242 289 338
#     4  10  20  34  53  76 101 130 166 210 262 323
#     4  11  23  35  49  73 103 135 173 217 267 326
#     4  10  20  35  58  87 119 158 204 249 291 340
#     4  11  23  39  61  86 112 145 187 235 286 341
#
# _framework density 19.96134
#
# number of rings (size 3 to 8) (size 9 to 14) (size 15 to 20)
#    0.000    1.750    0.000    4.875    0.000   10.500 
#    0.000    0.625    0.000    0.750    0.000    0.000 
#    0.000    0.000    0.000    0.000    0.000    0.000 
#
# Total GULP energy -793403.396201 kJ/mol
# GULP energy per Si atom -12396.928066 kJ/mol
# Density = 1.991591 g / cm^3
# Si number density = 19.961340 Si / 1000 Ang^3
#
#
#
# Elastic Constant Matrix: (Units=GPa)
#
#
# Indices 1 2 3 4 5 6 
#
# 1 120.6104 56.4013 66.0601 0.0000 0.0000 0.0000
# 2 56.4013 107.9159 55.7005 0.0000 0.0000 0.0000
# 3 66.0601 55.7005 120.2332 0.0000 0.0000 0.0000
# 4 0.0000 0.0000 0.0000 34.7370 0.0000 0.0000
# 5 0.0000 0.0000 0.0000 0.0000 31.2758 0.0000
# 6 0.0000 0.0000 0.0000 0.0000 0.0000 32.9310
#
#
#
# Elastic Compliance Matrix: (Units=1/GPa)
#
#
# Indices 1 2 3 4 5 6 
#
# 1 0.013122 -0.004123 -0.005300 0.000000 0.000000 0.000000
# 2 -0.004123 0.013474 -0.003977 0.000000 0.000000 0.000000
# 3 -0.005300 -0.003977 0.013071 0.000000 0.000000 0.000000
# 4 0.000000 0.000000 0.000000 0.028788 0.000000 0.000000
# 5 0.000000 0.000000 0.000000 0.000000 0.031974 0.000000
# 6 0.000000 0.000000 0.000000 0.000000 0.000000 0.030367
#
#
# Mechanical properties :
#
#
# Convention : Reuss Voigt Hill
#
# Bulk Modulus (GPa) = 77.70863 78.34260 78.02562
# Shear Modulus (GPa) = 30.88660 31.16193 31.02427
#
# Velocity S-wave (km/s) = 3.93787 3.95538 3.94663
# Velocity P-wave (km/s) = 7.72592 7.75838 7.74216
#
# Compressibility (1/GPa) = 0.01286858
#
# Stress axis : x y z
#
# Youngs Moduli (GPa) = 76.20969 74.21828 76.50306
#
# Poissons Ratio (x) = 0.30597 0.40544
# Poissons Ratio (y) = 0.31418 0.30425
# Poissons Ratio (z) = 0.40388 0.29516
#
# Static dielectric constant tensor:
#      x y z
#    x 3.784680 0.000000 0.000000 
#    y 0.000000 3.816030 0.000000 
#    z 0.000000 0.000000 3.546160 
# 
# 
# High freq. dielectric constant tensor:
#      x y z
#    x 1.792060 0.000000 0.000000 
#    y 0.000000 1.791340 0.000000 
#    z 0.000000 0.000000 1.758960 
# 
# From -- ./inp_files/35772.got.cif
#   From: 2010.03.12/outbox.cif.g09.slc.cpg/sg51_18_cif.got.tgz:35772.got - 2010.04.16 13:43:02.
