data_PCOD8211678
_publ_section_title
;
Structure prediction by ZEFSAII (Michael W. Deem and Ramdas Pophale) SiO2 
 PCOD8211678
Probable space group: P M M A
;
_chemical_formula_sum "Si O2"
_cell_formula_units_Z 52
_cell_length_a 8.653197
_cell_length_b 13.366323
_cell_length_c 22.893518
_cell_angle_alpha 90.000000
_cell_angle_beta 90.000000
_cell_angle_gamma 90.000000
_cell_volume 2647.896940
_symmetry_space_group_name_H-M "P M M A"
_symmetry_group_IT_number 51
_symmetry_cell_setting 'orthorhombic'
loop_
_space_group_symop_operation_xyz
x,y,z
1/2-x,-y,z
1/2+x,-y,-z
-x,y,-z
-x,-y,-z
1/2+x,y,-z
1/2-x,y,z
x,-y,z
loop_
_atom_site_type_symbol
_atom_site_label
_atom_site_fract_x
_atom_site_fract_y
_atom_site_fract_z
Si Si1 0.431728 0.190310 0.129335
Si Si2 0.567485 0.387975 0.936885
Si Si3 0.567082 0.608510 0.325571
Si Si4 0.567228 0.277028 0.438389
Si Si5 0.931925 0.205275 0.254100
Si Si6 0.067351 0.000000 0.935905
Si Si7 0.924932 0.114419 0.635736
O O1 0.250000 0.178357 0.120210
O O2 0.489335 0.299877 0.106735
O O3 0.472874 0.178430 0.196899
O O4 0.514085 0.100831 0.095708
O O5 0.750000 0.385825 0.942101
O O6 0.513313 0.500000 0.915916
O O7 0.500000 0.363192 0.000000
O O8 0.750000 0.603393 0.326207
O O9 0.493923 0.500000 0.312179
O O10 0.511754 0.643922 0.389430
O O11 0.514597 0.684366 0.275030
O O12 0.500000 0.312537 0.500000
O O13 0.750000 0.268818 0.442465
O O14 0.499054 0.170240 0.419584
O O15 0.750000 0.198604 0.241080
O O16 0.974739 0.128892 0.305589
O O17 0.250000 0.000000 0.938624
O O18 0.000000 0.000000 0.000000
O O19 0.750000 0.151945 0.646931
O O20 0.928094 0.000000 0.617771
#
# Coordination Sequence:
#
# PCOD8211678 Si02
#       7
#     8   8   8   8   8   4   8
#     4  11  23  39  60  86 119 156 196 240 286 343
#     4   9  19  36  58  84 114 149 188 233 284 338
#     4   8  16  33  55  79 110 148 188 231 281 334
#     4  10  20  34  54  80 111 145 184 231 280 336
#     4  10  21  36  56  83 113 146 185 231 280 332
#     4  12  26  44  64  88 120 156 197 244 295 352
#     4  10  21  37  57  78 104 141 182 229 283 338
#
# _framework density 19.638226
#
# number of rings (size 3 to 8) (size 9 to 14) (size 15 to 20)
#    0.000    2.154    0.000    3.923    1.077    4.923 
#    0.000    0.000    0.000   15.692    0.000    0.000 
#    0.000    0.000    0.000    0.000    0.000    0.000 
#
# Total GULP energy -644717.314953 kJ/mol
# GULP energy per Si atom -12398.409903 kJ/mol
# Density = 1.959353 g / cm^3
# Si number density = 19.638226 Si / 1000 Ang^3
#
#
#
# Elastic Constant Matrix: (Units=GPa)
#
#
# Indices 1 2 3 4 5 6 
#
# 1 72.4316 36.7751 22.6169 0.0000 0.0000 0.0000
# 2 36.7751 110.3508 33.4172 0.0000 0.0000 0.0000
# 3 22.6169 33.4172 102.4707 0.0000 0.0000 0.0000
# 4 0.0000 0.0000 0.0000 13.3190 0.0000 0.0000
# 5 0.0000 0.0000 0.0000 0.0000 35.9203 0.0000
# 6 0.0000 0.0000 0.0000 0.0000 0.0000 17.3638
#
#
#
# Elastic Compliance Matrix: (Units=1/GPa)
#
#
# Indices 1 2 3 4 5 6 
#
# 1 0.017022 -0.005032 -0.002116 0.000000 0.000000 0.000000
# 2 -0.005032 0.011542 -0.002654 0.000000 0.000000 0.000000
# 3 -0.002116 -0.002654 0.011091 0.000000 0.000000 0.000000
# 4 0.000000 0.000000 0.000000 0.075081 0.000000 0.000000
# 5 0.000000 0.000000 0.000000 0.000000 0.027839 0.000000
# 6 0.000000 0.000000 0.000000 0.000000 0.000000 0.057591
#
#
# Mechanical properties :
#
#
# Convention : Reuss Voigt Hill
#
# Bulk Modulus (GPa) = 49.86872 52.31906 51.09389
# Shear Modulus (GPa) = 22.07959 26.15021 24.11490
#
# Velocity S-wave (km/s) = 3.35672 3.65306 3.50802
# Velocity P-wave (km/s) = 6.36178 6.67027 6.51785
#
# Compressibility (1/GPa) = 0.02005265
#
# Stress axis : x y z
#
# Youngs Moduli (GPa) = 58.74888 86.63674 90.16080
#
# Poissons Ratio (x) = 0.43594 0.19078
# Poissons Ratio (y) = 0.29561 0.23925
# Poissons Ratio (z) = 0.12431 0.22990
#
# Static dielectric constant tensor:
#      x y z
#    x 3.595200 0.000000 0.000000 
#    y 0.000000 3.856730 0.000000 
#    z 0.000000 0.000000 3.505790 
# 
# 
# High freq. dielectric constant tensor:
#      x y z
#    x 1.761170 0.000000 0.000000 
#    y 0.000000 1.773810 0.000000 
#    z 0.000000 0.000000 1.762570 
# 
# From -- ./inp_files/31731.got.cif
#   From: 2010.03.12/outbox.cif.g09.slc.cpg/sg51_16_cif.got.tgz:31731.got - 2010.04.16 13:43:02.
