data_PCOD8211352
_publ_section_title
;
Structure prediction by ZEFSAII (Michael W. Deem and Ramdas Pophale) SiO2 
 PCOD8211352
Probable space group: P M M A
;
_chemical_formula_sum "Si O2"
_cell_formula_units_Z 52
_cell_length_a 9.153446
_cell_length_b 20.044311
_cell_length_c 14.534287
_cell_angle_alpha 90.000000
_cell_angle_beta 90.000000
_cell_angle_gamma 90.000000
_cell_volume 2666.671307
_symmetry_space_group_name_H-M "P M M A"
_symmetry_group_IT_number 51
_symmetry_cell_setting 'orthorhombic'
loop_
_space_group_symop_operation_xyz
x,y,z
1/2-x,-y,z
1/2+x,-y,-z
-x,y,-z
-x,-y,-z
1/2+x,y,-z
1/2-x,y,z
x,-y,z
loop_
_atom_site_type_symbol
_atom_site_label
_atom_site_fract_x
_atom_site_fract_y
_atom_site_fract_z
Si Si1 0.916869 0.426301 0.735537
Si Si2 0.918812 0.766599 0.089325
Si Si3 0.078261 0.000000 0.901410
Si Si4 0.077734 0.164128 0.404671
Si Si5 0.078446 0.386100 0.908725
Si Si6 0.420170 0.682732 0.407821
Si Si7 0.579145 0.121880 0.228583
O O1 0.750000 0.410072 0.763707
O O2 0.927047 0.500000 0.689331
O O3 0.977470 0.368682 0.668811
O O4 0.017910 0.428656 0.824835
O O5 0.750000 0.773760 0.065885
O O6 0.964499 0.690840 0.109113
O O7 0.960318 0.808655 0.179169
O O8 0.000000 0.795459 0.000000
O O9 0.031121 0.936335 0.841001
O O10 0.250000 0.000000 0.921324
O O11 0.000000 0.000000 0.000000
O O12 0.250000 0.151042 0.414188
O O13 0.042557 0.241237 0.380351
O O14 0.000000 0.143835 0.500000
O O15 0.012427 0.118442 0.323138
O O16 0.250000 0.397124 0.918962
O O17 0.000000 0.412682 0.000000
O O18 0.500000 0.661696 0.500000
O O19 0.250000 0.673195 0.425259
O O20 0.750000 0.116314 0.253428
#
# Coordination Sequence:
#
# PCOD8211352 Si02
#       7
#     8   8   4   8   8   8   8
#     4  10  21  36  52  72 101 136 172 211 256 309
#     4   9  18  31  50  76 104 133 168 214 263 310
#     4  10  22  38  57  82 115 152 185 218 256 304
#     4  10  20  35  57  83 108 137 174 218 266 313
#     4  10  20  34  52  74  99 130 170 216 265 313
#     4   9  19  35  55  80 108 136 169 212 262 313
#     4  10  20  35  54  79 111 144 178 217 260 305
#
# _framework density 19.499965
#
# number of rings (size 3 to 8) (size 9 to 14) (size 15 to 20)
#    0.000    2.308    0.000    2.308    0.000    4.000 
#    0.000    0.385    0.000    0.000    0.000    0.000 
#    0.000    0.000    0.000    0.000    0.000    0.000 
#
# Total GULP energy -644877.270268 kJ/mol
# GULP energy per Si atom -12401.485967 kJ/mol
# Density = 1.945558 g / cm^3
# Si number density = 19.499965 Si / 1000 Ang^3
#
#
#
# Elastic Constant Matrix: (Units=GPa)
#
#
# Indices 1 2 3 4 5 6 
#
# 1 71.2604 28.8917 61.6551 0.0000 0.0000 0.0000
# 2 28.8917 67.1309 50.8553 0.0000 0.0000 0.0000
# 3 61.6551 50.8553 147.4780 0.0000 0.0000 0.0000
# 4 0.0000 0.0000 0.0000 22.0062 0.0000 0.0000
# 5 0.0000 0.0000 0.0000 0.0000 42.3266 0.0000
# 6 0.0000 0.0000 0.0000 0.0000 0.0000 19.6628
#
#
#
# Elastic Compliance Matrix: (Units=1/GPa)
#
#
# Indices 1 2 3 4 5 6 
#
# 1 0.022568 -0.003473 -0.008237 0.000000 0.000000 0.000000
# 2 -0.003473 0.020698 -0.005686 0.000000 0.000000 0.000000
# 3 -0.008237 -0.005686 0.012185 0.000000 0.000000 0.000000
# 4 0.000000 0.000000 0.000000 0.045442 0.000000 0.000000
# 5 0.000000 0.000000 0.000000 0.000000 0.023626 0.000000
# 6 0.000000 0.000000 0.000000 0.000000 0.000000 0.050857
#
#
# Mechanical properties :
#
#
# Convention : Reuss Voigt Hill
#
# Bulk Modulus (GPa) = 48.40296 63.18596 55.79446
# Shear Modulus (GPa) = 23.03579 26.43027 24.73303
#
# Velocity S-wave (km/s) = 3.44077 3.68557 3.56527
# Velocity P-wave (km/s) = 6.37661 7.11229 6.75447
#
# Compressibility (1/GPa) = 0.02065989
#
# Stress axis : x y z
#
# Youngs Moduli (GPa) = 44.31052 48.31402 82.06799
#
# Poissons Ratio (x) = 0.16777 0.67603
# Poissons Ratio (y) = 0.15387 0.46661
# Poissons Ratio (z) = 0.36500 0.27469
#
# Static dielectric constant tensor:
#      x y z
#    x 3.440750 0.000000 0.000000 
#    y 0.000000 3.573350 0.000000 
#    z 0.000000 0.000000 3.509590 
# 
# 
# High freq. dielectric constant tensor:
#      x y z
#    x 1.755520 0.000000 0.000000 
#    y 0.000000 1.753130 0.000000 
#    z 0.000000 0.000000 1.759090 
# 
# From -- ./inp_files/21605.got.cif
#   From: 2010.03.12/outbox.cif.g09.slc.cpg/sg51_11_cif.got.tgz:21605.got - 2010.04.16 13:43:02.
