data_PCOD8211568
_publ_section_title
;
Structure prediction by ZEFSAII (Michael W. Deem and Ramdas Pophale) SiO2 
 PCOD8211568
Probable space group: P M M A
;
_chemical_formula_sum "Si O2"
_cell_formula_units_Z 64
_cell_length_a 20.081922
_cell_length_b 9.163155
_cell_length_c 18.664756
_cell_angle_alpha 90.000000
_cell_angle_beta 90.000000
_cell_angle_gamma 90.000000
_cell_volume 3434.572005
_symmetry_space_group_name_H-M "P M M A"
_symmetry_group_IT_number 51
_symmetry_cell_setting 'orthorhombic'
loop_
_space_group_symop_operation_xyz
x,y,z
1/2-x,-y,z
1/2+x,-y,-z
-x,y,-z
-x,-y,-z
1/2+x,y,-z
1/2-x,y,z
x,-y,z
loop_
_atom_site_type_symbol
_atom_site_label
_atom_site_fract_x
_atom_site_fract_y
_atom_site_fract_z
Si Si1 0.826027 0.169568 0.062517
Si Si2 0.433635 0.830796 0.708695
Si Si3 0.064782 0.831250 0.542891
Si Si4 0.326686 0.670677 0.457743
Si Si5 0.173055 0.670479 0.793783
Si Si6 0.673891 0.170192 0.688114
Si Si7 0.437913 0.172927 0.044835
Si Si8 0.438217 0.173287 0.204987
O O1 0.750000 0.204815 0.042427
O O2 0.849983 0.258870 0.131471
O O3 0.836815 0.000000 0.080752
O O4 0.869857 0.218144 0.994741
O O5 0.449989 0.804441 0.625984
O O6 0.368380 0.739810 0.729181
O O7 0.496016 0.771214 0.754314
O O8 0.419719 0.000000 0.724948
O O9 0.128788 0.737744 0.520598
O O10 0.000000 0.777145 0.500000
O O11 0.079933 0.000000 0.526123
O O12 0.250000 0.704109 0.476742
O O13 0.340532 0.500000 0.451787
O O14 0.346723 0.743227 0.382720
O O15 0.250000 0.705749 0.778530
O O16 0.159031 0.500000 0.797966
O O17 0.750000 0.201696 0.710357
O O18 0.627512 0.226445 0.752799
O O19 0.661883 0.000000 0.671976
O O20 0.437110 0.240062 0.124832
O O21 0.444691 0.000000 0.050287
O O22 0.500000 0.237082 0.000000
O O23 0.438259 0.000000 0.201836
#
# Coordination Sequence:
#
# PCOD8211568 Si02
#       8
#     8   8   8   8   8   8   8   8
#     4   9  17  30  50  75 101 130 166 206 246 293
#     4  10  20  34  54  77 101 132 169 209 251 298
#     4  10  21  37  57  80 105 134 171 214 258 306
#     4  10  21  36  54  77 106 139 173 210 254 306
#     4  10  21  36  53  73 100 134 169 208 255 304
#     4   9  17  31  53  78 104 136 172 210 252 299
#     4   9  16  26  45  73 101 129 162 203 250 295
#     4   9  17  30  50  77 106 134 168 210 254 299
#
# _framework density 18.634053999999999
#
# number of rings (size 3 to 8) (size 9 to 14) (size 15 to 20)
#    0.000    2.500    0.000    2.250    0.000    7.250 
#    0.000    6.875    0.000    4.125    0.000    3.500 
#    0.000    0.000    0.000    0.000    0.000    0.000 
#
# Total GULP energy -793764.880967 kJ/mol
# GULP energy per Si atom -12402.576265 kJ/mol
# Density = 1.859164 g / cm^3
# Si number density = 18.634054 Si / 1000 Ang^3
#
#
#
# Elastic Constant Matrix: (Units=GPa)
#
#
# Indices 1 2 3 4 5 6 
#
# 1 108.3271 38.5585 70.8491 0.0000 0.0000 0.0000
# 2 38.5585 50.1917 39.8856 0.0000 0.0000 0.0000
# 3 70.8491 39.8856 129.7985 0.0000 0.0000 0.0000
# 4 0.0000 0.0000 0.0000 7.8982 0.0000 0.0000
# 5 0.0000 0.0000 0.0000 0.0000 40.9259 0.0000
# 6 0.0000 0.0000 0.0000 0.0000 0.0000 18.7399
#
#
#
# Elastic Compliance Matrix: (Units=1/GPa)
#
#
# Indices 1 2 3 4 5 6 
#
# 1 0.016070 -0.007112 -0.006587 0.000000 0.000000 0.000000
# 2 -0.007112 0.029508 -0.005186 0.000000 0.000000 0.000000
# 3 -0.006587 -0.005186 0.012893 0.000000 0.000000 0.000000
# 4 0.000000 0.000000 0.000000 0.126612 0.000000 0.000000
# 5 0.000000 0.000000 0.000000 0.000000 0.024434 0.000000
# 6 0.000000 0.000000 0.000000 0.000000 0.000000 0.053362
#
#
# Mechanical properties :
#
#
# Convention : Reuss Voigt Hill
#
# Bulk Modulus (GPa) = 48.30080 65.21150 56.75615
# Shear Modulus (GPa) = 16.25763 22.78107 19.51935
#
# Velocity S-wave (km/s) = 2.95696 3.50029 3.24004
# Velocity P-wave (km/s) = 6.13475 7.16993 6.67245
#
# Compressibility (1/GPa) = 0.02070359
#
# Stress axis : x y z
#
# Youngs Moduli (GPa) = 62.22602 33.88940 77.56194
#
# Poissons Ratio (x) = 0.24101 0.51087
# Poissons Ratio (y) = 0.44253 0.40220
# Poissons Ratio (z) = 0.40986 0.17574
#
# Static dielectric constant tensor:
#      x y z
#    x 3.536550 0.000000 0.000000 
#    y 0.000000 3.127850 0.000000 
#    z 0.000000 0.000000 3.518720 
# 
# 
# High freq. dielectric constant tensor:
#      x y z
#    x 1.734080 0.000000 0.000000 
#    y 0.000000 1.687270 0.000000 
#    z 0.000000 0.000000 1.726970 
# 
# From -- ./inp_files/30569.got.cif
#   From: 2010.03.12/outbox.cif.g09.slc.cpg/sg51_16_cif.got.tgz:30569.got - 2010.04.16 13:43:02.
