data_PCOD8211035
_publ_section_title
;
Structure prediction by ZEFSAII (Michael W. Deem and Ramdas Pophale) SiO2 
 PCOD8211035
Probable space group: P M M A
;
_chemical_formula_sum "Si O2"
_cell_formula_units_Z 56
_cell_length_a 8.852039
_cell_length_b 14.454000
_cell_length_c 23.452198
_cell_angle_alpha 90.000000
_cell_angle_beta 90.000000
_cell_angle_gamma 90.000000
_cell_volume 3000.647095
_symmetry_space_group_name_H-M "P M M A"
_symmetry_group_IT_number 51
_symmetry_cell_setting 'orthorhombic'
loop_
_space_group_symop_operation_xyz
x,y,z
1/2-x,-y,z
1/2+x,-y,-z
-x,y,-z
-x,-y,-z
1/2+x,y,-z
1/2-x,y,z
x,-y,z
loop_
_atom_site_type_symbol
_atom_site_label
_atom_site_fract_x
_atom_site_fract_y
_atom_site_fract_z
Si Si1 0.071882 0.779601 0.332499
Si Si2 0.573563 0.893741 0.886004
Si Si3 0.424744 0.893192 0.767728
Si Si4 0.072479 0.895279 0.441319
Si Si5 0.929018 0.397768 0.159424
Si Si6 0.571058 0.269828 0.058019
Si Si7 0.427182 0.606699 0.712029
O O1 0.250000 0.789572 0.323065
O O2 0.020832 0.824865 0.392094
O O3 0.983225 0.832847 0.283795
O O4 0.021508 0.672078 0.330861
O O5 0.750000 0.873030 0.890387
O O6 0.516924 0.864907 0.823593
O O7 0.485033 0.835025 0.933359
O O8 0.534735 0.000000 0.898538
O O9 0.250000 0.870636 0.779545
O O10 0.450680 0.000000 0.751982
O O11 0.250000 0.893047 0.449230
O O12 0.000000 0.860302 0.500000
O O13 0.018309 0.000000 0.426490
O O14 0.750000 0.401400 0.155724
O O15 0.995183 0.500000 0.147470
O O16 0.992996 0.329134 0.111340
O O17 0.974689 0.366030 0.223185
O O18 0.750000 0.273562 0.053475
O O19 0.500000 0.310193 0.000000
O O20 0.250000 0.623089 0.702467
O O21 0.469117 0.500000 0.699445
#
# Coordination Sequence:
#
# PCOD8211035 Si02
#       7
#     8   8   8   8   8   8   8
#     4  11  21  32  51  79 111 143 175 217 265 312
#     4  10  21  37  55  74  99 131 167 212 264 312
#     4  10  20  33  51  77 107 138 172 209 254 313
#     4   9  19  35  53  75 106 144 183 221 262 307
#     4   8  16  33  55  76  99 129 164 204 253 305
#     4  11  22  35  53  75 100 131 168 210 254 307
#     4   9  18  34  56  80 105 135 174 219 265 315
#
# _framework density 18.66264
#
# number of rings (size 3 to 8) (size 9 to 14) (size 15 to 20)
#    0.000    2.286    0.000    3.857    0.000    5.429 
#    0.000    2.143    0.000    3.429    0.000    0.000 
#    0.000    0.000    0.000    0.000    0.000    0.000 
#
# Total GULP energy -694451.762812 kJ/mol
# GULP energy per Si atom -12400.924336 kJ/mol
# Density = 1.862016 g / cm^3
# Si number density = 18.662640 Si / 1000 Ang^3
#
#
#
# Elastic Constant Matrix: (Units=GPa)
#
#
# Indices 1 2 3 4 5 6 
#
# 1 43.9670 30.0711 22.5599 0.0000 0.0000 0.0000
# 2 30.0711 94.6754 63.1280 0.0000 0.0000 0.0000
# 3 22.5599 63.1280 96.4447 0.0000 0.0000 0.0000
# 4 0.0000 0.0000 0.0000 24.4353 0.0000 0.0000
# 5 0.0000 0.0000 0.0000 0.0000 31.9078 0.0000
# 6 0.0000 0.0000 0.0000 0.0000 0.0000 25.6512
#
#
#
# Elastic Compliance Matrix: (Units=1/GPa)
#
#
# Indices 1 2 3 4 5 6 
#
# 1 0.029155 -0.008363 -0.001346 0.000000 0.000000 0.000000
# 2 -0.008363 0.021141 -0.011882 0.000000 0.000000 0.000000
# 3 -0.001346 -0.011882 0.018461 0.000000 0.000000 0.000000
# 4 0.000000 0.000000 0.000000 0.040924 0.000000 0.000000
# 5 0.000000 0.000000 0.000000 0.000000 0.031340 0.000000
# 6 0.000000 0.000000 0.000000 0.000000 0.000000 0.038985
#
#
# Mechanical properties :
#
#
# Convention : Reuss Voigt Hill
#
# Bulk Modulus (GPa) = 39.09974 51.84502 45.47238
# Shear Modulus (GPa) = 21.57850 24.35405 22.96628
#
# Velocity S-wave (km/s) = 3.40404 3.61635 3.51180
# Velocity P-wave (km/s) = 6.03708 6.72887 6.39234
#
# Compressibility (1/GPa) = 0.02557562
#
# Stress axis : x y z
#
# Youngs Moduli (GPa) = 34.29989 47.30089 54.16903
#
# Poissons Ratio (x) = 0.39557 0.07290
# Poissons Ratio (y) = 0.28684 0.64363
# Poissons Ratio (z) = 0.04616 0.56202
#
# Static dielectric constant tensor:
#      x y z
#    x 3.278950 0.000000 0.000000 
#    y 0.000000 3.680130 0.000000 
#    z 0.000000 0.000000 3.429170 
# 
# 
# High freq. dielectric constant tensor:
#      x y z
#    x 1.714620 0.000000 0.000000 
#    y 0.000000 1.728330 0.000000 
#    z 0.000000 0.000000 1.711480 
# 
# From -- ./inp_files/31954.got.cif
#   From: 2010.03.12/outbox.cif.g09.slc.cpg/sg51_16_cif.got.tgz:31954.got - 2010.04.16 13:43:02.
