data_PCOD8211476
_publ_section_title
;
Structure prediction by ZEFSAII (Michael W. Deem and Ramdas Pophale) SiO2 
 PCOD8211476
Probable space group: P M M A
;
_chemical_formula_sum "Si O2"
_cell_formula_units_Z 48
_cell_length_a 17.673223
_cell_length_b 9.048456
_cell_length_c 15.390922
_cell_angle_alpha 90.000000
_cell_angle_beta 90.000000
_cell_angle_gamma 90.000000
_cell_volume 2461.245151
_symmetry_space_group_name_H-M "P M M A"
_symmetry_group_IT_number 51
_symmetry_cell_setting 'orthorhombic'
loop_
_space_group_symop_operation_xyz
x,y,z
1/2-x,-y,z
1/2+x,-y,-z
-x,y,-z
-x,-y,-z
1/2+x,y,-z
1/2-x,y,z
x,-y,z
loop_
_atom_site_type_symbol
_atom_site_label
_atom_site_fract_x
_atom_site_fract_y
_atom_site_fract_z
Si Si1 0.426486 0.172408 0.642059
Si Si2 0.660972 0.670815 0.834705
Si Si3 0.601194 0.827536 0.669110
Si Si4 0.663949 0.671098 0.507440
Si Si5 0.160118 0.164398 0.995632
Si Si6 0.834369 0.175870 0.193893
O O1 0.515037 0.203473 0.643312
O O2 0.392499 0.257085 0.560758
O O3 0.389717 0.234844 0.730912
O O4 0.408189 0.000000 0.630240
O O5 0.750000 0.699053 0.823134
O O6 0.640235 0.500000 0.824584
O O7 0.615926 0.764340 0.764213
O O8 0.632500 0.725351 0.929150
O O9 0.655251 0.746946 0.600878
O O10 0.620251 0.000000 0.669108
O O11 0.750000 0.693757 0.475744
O O12 0.643522 0.500000 0.517567
O O13 0.250000 0.154677 0.993354
O O14 0.126907 0.000000 0.013327
O O15 0.133990 0.226067 0.900902
O O16 0.750000 0.239516 0.211072
O O17 0.831380 0.000000 0.193990
#
# Coordination Sequence:
#
# PCOD8211476 Si02
#       6
#     8   8   8   8   8   8
#     4  10  21  37  57  82 110 140 176 217 263 315
#     4  10  20  34  53  77 105 139 179 222 268 315
#     4  11  23  37  55  80 108 140 178 218 263 316
#     4  11  24  40  58  81 107 137 175 217 263 316
#     4   8  14  27  50  78 104 133 173 218 261 306
#     4   8  14  28  53  81 106 135 173 217 262 306
#
# _framework density 19.502323000000001
#
# number of rings (size 3 to 8) (size 9 to 14) (size 15 to 20)
#    0.000    2.333    0.000    4.000    0.000    8.333 
#    0.000    1.667    0.000    8.000    0.000    0.000 
#    0.000    0.000    0.000    0.000    0.000    0.000 
#
# Total GULP energy -595218.218145 kJ/mol
# GULP energy per Si atom -12400.379545 kJ/mol
# Density = 1.945793 g / cm^3
# Si number density = 19.502323 Si / 1000 Ang^3
#
#
#
# Elastic Constant Matrix: (Units=GPa)
#
#
# Indices 1 2 3 4 5 6 
#
# 1 44.8218 38.1664 21.6679 0.0000 0.0000 0.0000
# 2 38.1664 76.9616 37.1857 0.0000 0.0000 0.0000
# 3 21.6679 37.1857 119.1658 0.0000 0.0000 0.0000
# 4 0.0000 0.0000 0.0000 -1.2683 0.0000 0.0000
# 5 0.0000 0.0000 0.0000 0.0000 15.0481 0.0000
# 6 0.0000 0.0000 0.0000 0.0000 0.0000 19.0881
#
#
#
# Elastic Compliance Matrix: (Units=1/GPa)
#
#
# Indices 1 2 3 4 5 6 
#
# 1 0.038772 -0.018630 -0.001236 0.000000 0.000000 0.000000
# 2 -0.018630 0.024252 -0.004180 0.000000 0.000000 0.000000
# 3 -0.001236 -0.004180 0.009921 0.000000 0.000000 0.000000
# 4 0.000000 0.000000 0.000000 -0.788475 0.000000 0.000000
# 5 0.000000 0.000000 0.000000 0.000000 0.066454 0.000000
# 6 0.000000 0.000000 0.000000 0.000000 0.000000 0.052389
#
#
# Mechanical properties :
#
#
# Convention : Reuss Voigt Hill
#
# Bulk Modulus (GPa) = 40.23917 48.33213 44.28565
# Shear Modulus (GPa) = -9.25397 16.16887 3.45745
#
# Velocity S-wave (km/s) = -2.18068 2.88249 1.33292
# Velocity P-wave (km/s) = 3.78647 5.99290 5.01259
#
# Compressibility (1/GPa) = 0.02485141
#
# Stress axis : x y z
#
# Youngs Moduli (GPa) = 25.79156 41.23288 100.79658
#
# Poissons Ratio (x) = 0.76819 0.12462
# Poissons Ratio (y) = 0.48051 0.42137
# Poissons Ratio (z) = 0.03189 0.17237
#
# Static dielectric constant tensor:
#      x y z
#    x 3.403850 0.000000 0.000000 
#    y 0.000000 3.410590 0.000000 
#    z 0.000000 0.000000 3.896430 
# 
# 
# High freq. dielectric constant tensor:
#      x y z
#    x 1.738900 0.000000 0.000000 
#    y 0.000000 1.741720 0.000000 
#    z 0.000000 0.000000 1.778900 
# 
# From -- ./inp_files/24786.got.cif
#   From: 2010.03.12/outbox.cif.g09.slc.cpg/sg51_13_cif.got.tgz:24786.got - 2010.04.16 13:43:02.
