data_PCOD8211155
_publ_section_title
;
Structure prediction by ZEFSAII (Michael W. Deem and Ramdas Pophale) SiO2 
 PCOD8211155
Probable space group: P M M A
;
_chemical_formula_sum "Si O2"
_cell_formula_units_Z 56
_cell_length_a 19.427353
_cell_length_b 9.086339
_cell_length_c 15.882593
_cell_angle_alpha 90.000000
_cell_angle_beta 90.000000
_cell_angle_gamma 90.000000
_cell_volume 2803.651147
_symmetry_space_group_name_H-M "P M M A"
_symmetry_group_IT_number 51
_symmetry_cell_setting 'orthorhombic'
loop_
_space_group_symop_operation_xyz
x,y,z
1/2-x,-y,z
1/2+x,-y,-z
-x,y,-z
-x,-y,-z
1/2+x,y,-z
1/2-x,y,z
x,-y,z
loop_
_atom_site_type_symbol
_atom_site_label
_atom_site_fract_x
_atom_site_fract_y
_atom_site_fract_z
Si Si1 0.952672 0.173809 0.421648
Si Si2 0.825811 0.674887 0.685399
Si Si3 0.085389 0.328863 0.161684
Si Si4 0.549274 0.671509 0.252801
Si Si5 0.828776 0.169997 0.167506
Si Si6 0.172879 0.826909 0.025586
Si Si7 0.670126 0.671062 0.497760
O O1 0.979923 0.248017 0.335938
O O2 0.874941 0.230824 0.435140
O O3 0.000000 0.223749 0.500000
O O4 0.952625 0.000000 0.410079
O O5 0.750000 0.735024 0.707676
O O6 0.825400 0.500000 0.684289
O O7 0.877060 0.736865 0.755721
O O8 0.847136 0.727667 0.592245
O O9 0.102336 0.500000 0.150640
O O10 0.112908 0.248381 0.079168
O O11 0.004188 0.301207 0.175778
O O12 0.555204 0.500000 0.273871
O O13 0.623526 0.731740 0.226691
O O14 0.750000 0.197635 0.194416
O O15 0.848788 0.000000 0.179981
O O16 0.839631 0.217406 0.070938
O O17 0.250000 0.775186 0.052970
O O18 0.166725 0.000000 0.037287
O O19 0.750000 0.697195 0.476640
O O20 0.650879 0.500000 0.486524
#
# Coordination Sequence:
#
# PCOD8211155 Si02
#       7
#     8   8   8   8   8   8   8
#     4  11  24  40  58  81 111 148 188 229 277 334
#     4   8  14  27  49  76 106 141 179 218 264 319
#     4  10  20  33  52  81 115 148 183 225 273 326
#     4  11  24  39  58  85 113 144 184 230 280 332
#     4   9  20  41  64  83 109 147 189 232 278 329
#     4   9  19  36  58  84 113 148 188 226 269 323
#     4   9  18  34  57  82 107 140 184 232 281 333
#
# _framework density 19.973953999999999
#
# number of rings (size 3 to 8) (size 9 to 14) (size 15 to 20)
#    0.000    2.429    0.000    3.857    0.000    6.571 
#    0.000    5.000    0.000    0.857    0.000    0.000 
#    0.000    0.000    0.000    0.000    0.000    0.000 
#
# Total GULP energy -694373.900843 kJ/mol
# GULP energy per Si atom -12399.533944 kJ/mol
# Density = 1.992849 g / cm^3
# Si number density = 19.973954 Si / 1000 Ang^3
#
#
#
# Elastic Constant Matrix: (Units=GPa)
#
#
# Indices 1 2 3 4 5 6 
#
# 1 89.3634 42.3510 42.5425 0.0000 0.0000 0.0000
# 2 42.3510 72.4862 43.8244 0.0000 0.0000 0.0000
# 3 42.5425 43.8244 84.4255 0.0000 0.0000 0.0000
# 4 0.0000 0.0000 0.0000 32.7663 0.0000 0.0000
# 5 0.0000 0.0000 0.0000 0.0000 35.5217 0.0000
# 6 0.0000 0.0000 0.0000 0.0000 0.0000 28.9237
#
#
#
# Elastic Compliance Matrix: (Units=1/GPa)
#
#
# Indices 1 2 3 4 5 6 
#
# 1 0.016760 -0.006829 -0.004900 0.000000 0.000000 0.000000
# 2 -0.006829 0.022888 -0.008440 0.000000 0.000000 0.000000
# 3 -0.004900 -0.008440 0.018695 0.000000 0.000000 0.000000
# 4 0.000000 0.000000 0.000000 0.030519 0.000000 0.000000
# 5 0.000000 0.000000 0.000000 0.000000 0.028152 0.000000
# 6 0.000000 0.000000 0.000000 0.000000 0.000000 0.034574
#
#
# Mechanical properties :
#
#
# Convention : Reuss Voigt Hill
#
# Bulk Modulus (GPa) = 55.54222 55.96788 55.75505
# Shear Modulus (GPa) = 25.26170 27.27950 26.27060
#
# Velocity S-wave (km/s) = 3.56017 3.69962 3.63056
# Velocity P-wave (km/s) = 6.69084 6.80668 6.74901
#
# Compressibility (1/GPa) = 0.01800432
#
# Stress axis : x y z
#
# Youngs Moduli (GPa) = 59.66711 43.69008 53.49020
#
# Poissons Ratio (x) = 0.29838 0.26211
# Poissons Ratio (y) = 0.40749 0.45145
# Poissons Ratio (z) = 0.29238 0.36873
#
# Static dielectric constant tensor:
#      x y z
#    x 3.654100 0.000000 0.000000 
#    y 0.000000 3.300830 0.000000 
#    z 0.000000 0.000000 3.634200 
# 
# 
# High freq. dielectric constant tensor:
#      x y z
#    x 1.784690 0.000000 0.000000 
#    y 0.000000 1.755270 0.000000 
#    z 0.000000 0.000000 1.779170 
# 
# From -- ./inp_files/25767.got.cif
#   From: 2010.03.12/outbox.cif.g09.slc.cpg/sg51_13_cif.got.tgz:25767.got - 2010.04.16 13:43:02.
