data_PCOD8211732
_publ_section_title
;
Structure prediction by ZEFSAII (Michael W. Deem and Ramdas Pophale) SiO2 
 PCOD8211732
Probable space group: P M M A
;
_chemical_formula_sum "Si O2"
_cell_formula_units_Z 56
_cell_length_a 19.306489
_cell_length_b 8.884051
_cell_length_c 16.633272
_cell_angle_alpha 90.000000
_cell_angle_beta 90.000000
_cell_angle_gamma 90.000000
_cell_volume 2852.936034
_symmetry_space_group_name_H-M "P M M A"
_symmetry_group_IT_number 51
_symmetry_cell_setting 'orthorhombic'
loop_
_space_group_symop_operation_xyz
x,y,z
1/2-x,-y,z
1/2+x,-y,-z
-x,y,-z
-x,-y,-z
1/2+x,y,-z
1/2-x,y,z
x,-y,z
loop_
_atom_site_type_symbol
_atom_site_label
_atom_site_fract_x
_atom_site_fract_y
_atom_site_fract_z
Si Si1 0.829568 0.178195 0.867182
Si Si2 0.446071 0.822899 0.434982
Si Si3 0.057544 0.822069 0.255585
Si Si4 0.329665 0.328030 0.522879
Si Si5 0.168656 0.330821 0.705271
Si Si6 0.579491 0.677575 0.006451
Si Si7 0.579339 0.175515 0.169516
O O1 0.750000 0.236229 0.863263
O O2 0.869071 0.225652 0.784574
O O3 0.870081 0.249660 0.941437
O O4 0.831619 0.000000 0.878712
O O5 0.500000 0.751994 0.500000
O O6 0.453325 0.752803 0.345017
O O7 0.369441 0.784209 0.464325
O O8 0.456771 0.000000 0.431083
O O9 0.996345 0.765609 0.197035
O O10 0.053341 0.000000 0.263531
O O11 0.250000 0.286475 0.513465
O O12 0.343764 0.500000 0.497697
O O13 0.354380 0.300979 0.613966
O O14 0.250000 0.311258 0.714273
O O15 0.146716 0.500000 0.731173
O O16 0.132475 0.204818 0.758654
O O17 0.584826 0.500000 0.997350
O O18 0.500000 0.734357 0.000000
O O19 0.605849 0.730059 0.093475
O O20 0.578532 0.000000 0.147817
#
# Coordination Sequence:
#
# PCOD8211732 Si02
#       7
#     8   8   8   8   8   8   8
#     4  10  21  39  62  85 112 150 195 238 283 338
#     4  10  20  34  54  83 117 148 188 237 285 337
#     4   9  19  35  55  82 114 149 184 231 286 331
#     4   9  19  36  55  76 107 149 192 232 280 336
#     4   9  19  36  55  77 111 150 186 231 284 335
#     4  11  23  39  60  85 114 148 185 228 281 341
#     4  11  21  35  60  86 112 145 185 231 278 332
#
# _framework density 19.628900999999999
#
# number of rings (size 3 to 8) (size 9 to 14) (size 15 to 20)
#    0.000    2.143    1.429    2.571    0.000    4.571 
#    0.000    5.000    0.000    0.000    0.000    0.000 
#    0.000    0.000    0.000    0.000    0.000    0.000 
#
# Total GULP energy -694329.369638 kJ/mol
# GULP energy per Si atom -12398.738744 kJ/mol
# Density = 1.958422 g / cm^3
# Si number density = 19.628901 Si / 1000 Ang^3
#
#
#
# Elastic Constant Matrix: (Units=GPa)
#
#
# Indices 1 2 3 4 5 6 
#
# 1 91.3327 23.4837 67.1370 0.0000 0.0000 0.0000
# 2 23.4837 22.2784 23.2634 0.0000 0.0000 0.0000
# 3 67.1370 23.2634 138.8691 0.0000 0.0000 0.0000
# 4 0.0000 0.0000 0.0000 23.7929 0.0000 0.0000
# 5 0.0000 0.0000 0.0000 0.0000 35.4808 0.0000
# 6 0.0000 0.0000 0.0000 0.0000 0.0000 28.2892
#
#
#
# Elastic Compliance Matrix: (Units=1/GPa)
#
#
# Indices 1 2 3 4 5 6 
#
# 1 0.019713 -0.013123 -0.007332 0.000000 0.000000 0.000000
# 2 -0.013123 0.063140 -0.004233 0.000000 0.000000 0.000000
# 3 -0.007332 -0.004233 0.011455 0.000000 0.000000 0.000000
# 4 0.000000 0.000000 0.000000 0.042029 0.000000 0.000000
# 5 0.000000 0.000000 0.000000 0.000000 0.028184 0.000000
# 6 0.000000 0.000000 0.000000 0.000000 0.000000 0.035349
#
#
# Mechanical properties :
#
#
# Convention : Reuss Voigt Hill
#
# Bulk Modulus (GPa) = 22.25608 53.36093 37.80851
# Shear Modulus (GPa) = 18.92343 26.75230 22.83786
#
# Velocity S-wave (km/s) = 3.10830 3.69576 3.41469
# Velocity P-wave (km/s) = 4.92393 6.74206 5.90341
#
# Compressibility (1/GPa) = 0.04493155
#
# Stress axis : x y z
#
# Youngs Moduli (GPa) = 50.72842 15.83791 87.30048
#
# Poissons Ratio (x) = 0.20785 0.64007
# Poissons Ratio (y) = 0.66573 0.36951
# Poissons Ratio (z) = 0.37193 0.06704
#
# Static dielectric constant tensor:
#      x y z
#    x 3.615770 0.000000 0.000000 
#    y 0.000000 3.295630 0.000000 
#    z 0.000000 0.000000 3.749290 
# 
# 
# High freq. dielectric constant tensor:
#      x y z
#    x 1.765490 0.000000 0.000000 
#    y 0.000000 1.740950 0.000000 
#    z 0.000000 0.000000 1.774280 
# 
# From -- ./inp_files/25772.got.cif
#   From: 2010.03.12/outbox.cif.g09.slc.cpg/sg51_13_cif.got.tgz:25772.got - 2010.04.16 13:43:02.
