data_PCOD8211340
_publ_section_title
;
Structure prediction by ZEFSAII (Michael W. Deem and Ramdas Pophale) SiO2 
 PCOD8211340
Probable space group: P M M A
;
_chemical_formula_sum "Si O2"
_cell_formula_units_Z 48
_cell_length_a 8.901555
_cell_length_b 18.571146
_cell_length_c 14.707098
_cell_angle_alpha 90.000000
_cell_angle_beta 90.000000
_cell_angle_gamma 90.000000
_cell_volume 2431.260925
_symmetry_space_group_name_H-M "P M M A"
_symmetry_group_IT_number 51
_symmetry_cell_setting 'orthorhombic'
loop_
_space_group_symop_operation_xyz
x,y,z
1/2-x,-y,z
1/2+x,-y,-z
-x,y,-z
-x,-y,-z
1/2+x,y,-z
1/2-x,y,z
x,-y,z
loop_
_atom_site_type_symbol
_atom_site_label
_atom_site_fract_x
_atom_site_fract_y
_atom_site_fract_z
Si Si1 0.419178 0.195126 0.242423
Si Si2 0.574232 0.083021 0.904609
Si Si3 0.574158 0.581113 0.647027
Si Si4 0.082746 0.420133 0.834560
Si Si5 0.928309 0.272352 0.408094
Si Si6 0.916821 0.699561 0.920219
O O1 0.250000 0.177691 0.277034
O O2 0.485809 0.128086 0.183069
O O3 0.521591 0.218621 0.326978
O O4 0.415828 0.262421 0.175948
O O5 0.750000 0.099822 0.915697
O O6 0.539952 0.000000 0.883254
O O7 0.500000 0.106211 0.000000
O O8 0.750000 0.597301 0.634736
O O9 0.534297 0.500000 0.609601
O O10 0.533788 0.584521 0.752244
O O11 0.482128 0.644446 0.598041
O O12 0.250000 0.395036 0.802883
O O13 0.090475 0.500000 0.874202
O O14 0.019304 0.371319 0.914554
O O15 0.750000 0.271228 0.413516
O O16 0.000000 0.239959 0.500000
O O17 0.750000 0.680230 0.951654
O O18 0.000000 0.746023 0.000000
#
# Coordination Sequence:
#
# PCOD8211340 Si02
#       6
#     8   8   8   8   8   8
#     4  10  21  38  58  83 117 153 189 233 285 339
#     4   9  18  34  59  92 128 163 196 232 275 328
#     4  10  20  36  58  82 110 144 185 237 296 352
#     4  10  20  34  52  74 102 139 185 234 283 337
#     4  12  25  40  61  85 113 149 192 242 293 349
#     4  11  22  34  52  76 107 145 187 233 279 335
#
# _framework density 19.742842
#
# number of rings (size 3 to 8) (size 9 to 14) (size 15 to 20)
#    0.000    1.667    1.667    3.500    0.000    4.000 
#    0.000    0.000    0.000    0.500    0.000    0.000 
#    0.000    0.000    0.000    0.000    0.000    0.000 
#
# Total GULP energy -594855.892058 kJ/mol
# GULP energy per Si atom -12392.831085 kJ/mol
# Density = 1.969791 g / cm^3
# Si number density = 19.742842 Si / 1000 Ang^3
#
#
#
# Elastic Constant Matrix: (Units=GPa)
#
#
# Indices 1 2 3 4 5 6 
#
# 1 128.1079 46.9559 59.5850 0.0000 0.0000 0.0000
# 2 46.9559 98.5955 49.3528 0.0000 0.0000 0.0000
# 3 59.5850 49.3528 115.1180 0.0000 0.0000 0.0000
# 4 0.0000 0.0000 0.0000 2.7215 0.0000 0.0000
# 5 0.0000 0.0000 0.0000 0.0000 34.4139 0.0000
# 6 0.0000 0.0000 0.0000 0.0000 0.0000 19.0873
#
#
#
# Elastic Compliance Matrix: (Units=1/GPa)
#
#
# Indices 1 2 3 4 5 6 
#
# 1 0.010947 -0.003027 -0.004369 0.000000 0.000000 0.000000
# 2 -0.003027 0.013751 -0.004328 0.000000 0.000000 0.000000
# 3 -0.004369 -0.004328 0.012804 0.000000 0.000000 0.000000
# 4 0.000000 0.000000 0.000000 0.367446 0.000000 0.000000
# 5 0.000000 0.000000 0.000000 0.000000 0.029058 0.000000
# 6 0.000000 0.000000 0.000000 0.000000 0.000000 0.052391
#
#
# Mechanical properties :
#
#
# Convention : Reuss Voigt Hill
#
# Bulk Modulus (GPa) = 71.15571 72.62321 71.88946
# Shear Modulus (GPa) = 9.71764 23.63973 16.67868
#
# Velocity S-wave (km/s) = 2.22099 3.46408 2.90969
# Velocity P-wave (km/s) = 6.53426 7.27078 6.91234
#
# Compressibility (1/GPa) = 0.01405369
#
# Stress axis : x y z
#
# Youngs Moduli (GPa) = 91.34682 72.72415 78.10316
#
# Poissons Ratio (x) = 0.22013 0.34120
# Poissons Ratio (y) = 0.27649 0.33806
# Poissons Ratio (z) = 0.39906 0.31478
#
# Static dielectric constant tensor:
#      x y z
#    x 3.691090 0.000000 0.000000 
#    y 0.000000 3.630440 0.000000 
#    z 0.000000 0.000000 3.531380 
# 
# 
# High freq. dielectric constant tensor:
#      x y z
#    x 1.775740 0.000000 0.000000 
#    y 0.000000 1.752090 0.000000 
#    z 0.000000 0.000000 1.763130 
# 
# From -- ./inp_files/21115.got.cif
#   From: 2010.03.12/outbox.cif.g09.slc.cpg/sg51_11_cif.got.tgz:21115.got - 2010.04.16 13:43:02.
