data_PCOD8211719
_publ_section_title
;
Structure prediction by ZEFSAII (Michael W. Deem and Ramdas Pophale) SiO2 
 PCOD8211719
Probable space group: P M M A
;
_chemical_formula_sum "Si O2"
_cell_formula_units_Z 64
_cell_length_a 27.252300
_cell_length_b 13.377033
_cell_length_c 9.684988
_cell_angle_alpha 90.000000
_cell_angle_beta 90.000000
_cell_angle_gamma 90.000000
_cell_volume 3530.709991
_symmetry_space_group_name_H-M "P M M A"
_symmetry_group_IT_number 51
_symmetry_cell_setting 'orthorhombic'
loop_
_space_group_symop_operation_xyz
x,y,z
1/2-x,-y,z
1/2+x,-y,-z
-x,y,-z
-x,-y,-z
1/2+x,y,-z
1/2-x,y,z
x,-y,z
loop_
_atom_site_type_symbol
_atom_site_label
_atom_site_fract_x
_atom_site_fract_y
_atom_site_fract_z
Si Si1 0.614186 0.114225 0.903375
Si Si2 0.805004 0.885558 0.689907
Si Si3 0.621133 0.881851 0.226942
Si Si4 0.950578 0.280406 0.283548
Si Si5 0.942607 0.607133 0.016902
Si Si6 0.113874 0.618240 0.504841
Si Si7 0.808141 0.767024 0.416714
Si Si8 0.434996 0.283516 0.249033
O O1 0.665098 0.139736 0.827709
O O2 0.573013 0.175231 0.819947
O O3 0.598212 0.000000 0.886185
O O4 0.620013 0.140772 0.063804
O O5 0.750000 0.858709 0.731494
O O6 0.821544 0.822980 0.557944
O O7 0.811388 0.000000 0.645507
O O8 0.573984 0.829566 0.302587
O O9 0.670525 0.832525 0.289762
O O10 0.619683 0.000000 0.258098
O O11 0.930860 0.362303 0.390782
O O12 0.008939 0.281071 0.300514
O O13 0.931129 0.312037 0.132979
O O14 0.919596 0.500000 0.058560
O O15 0.921390 0.637594 0.869439
O O16 0.000000 0.596944 0.000000
O O17 0.118374 0.500000 0.473146
O O18 0.164684 0.659290 0.571845
O O19 0.101417 0.684349 0.370229
O O20 0.750000 0.751822 0.394328
#
# Coordination Sequence:
#
# PCOD8211719 Si02
#       8
#     8   8   8   8   8   8   8   8
#     4  10  20  34  54  82 115 148 184 227 276 331
#     4   9  17  32  55  80 106 138 177 222 273 329
#     4  10  21  36  55  82 114 149 187 226 271 328
#     4  10  21  35  53  78 113 148 188 232 271 324
#     4   9  17  30  50  73 100 140 188 232 270 312
#     4  11  23  38  58  83 110 143 184 233 283 332
#     4  10  21  38  60  84 109 140 177 226 281 336
#     4  11  20  35  53  80 113 148 189 228 274 323
#
# _framework density 18.126666
#
# number of rings (size 3 to 8) (size 9 to 14) (size 15 to 20)
#    0.000    2.000    2.500    1.500    0.000    4.000 
#    0.000    2.500    0.000    2.250    0.000    0.000 
#    0.000    0.000    0.000    0.000    0.000    0.000 
#
# Total GULP energy -793179.329291 kJ/mol
# GULP energy per Si atom -12393.427020 kJ/mol
# Density = 1.808541 g / cm^3
# Si number density = 18.126666 Si / 1000 Ang^3
#
#
#
# Elastic Constant Matrix: (Units=GPa)
#
#
# Indices 1 2 3 4 5 6 
#
# 1 74.8516 50.5387 27.1956 0.0000 0.0000 0.0000
# 2 50.5387 106.5842 34.5948 0.0000 0.0000 0.0000
# 3 27.1956 34.5948 69.9460 0.0000 0.0000 0.0000
# 4 0.0000 0.0000 0.0000 30.3521 0.0000 0.0000
# 5 0.0000 0.0000 0.0000 0.0000 25.9709 0.0000
# 6 0.0000 0.0000 0.0000 0.0000 0.0000 21.7906
#
#
#
# Elastic Compliance Matrix: (Units=1/GPa)
#
#
# Indices 1 2 3 4 5 6 
#
# 1 0.020448 -0.008476 -0.003758 0.000000 0.000000 0.000000
# 2 -0.008476 0.014690 -0.003970 0.000000 0.000000 0.000000
# 3 -0.003758 -0.003970 0.017722 0.000000 0.000000 0.000000
# 4 0.000000 0.000000 0.000000 0.032947 0.000000 0.000000
# 5 0.000000 0.000000 0.000000 0.000000 0.038505 0.000000
# 6 0.000000 0.000000 0.000000 0.000000 0.000000 0.045891
#
#
# Mechanical properties :
#
#
# Convention : Reuss Voigt Hill
#
# Bulk Modulus (GPa) = 48.89718 52.89336 50.89527
# Shear Modulus (GPa) = 23.87462 24.89289 24.38376
#
# Velocity S-wave (km/s) = 3.63312 3.70979 3.67166
# Velocity P-wave (km/s) = 6.68081 6.89879 6.79068
#
# Compressibility (1/GPa) = 0.02045108
#
# Stress axis : x y z
#
# Youngs Moduli (GPa) = 48.90435 68.07425 56.42861
#
# Poissons Ratio (x) = 0.57700 0.21207
# Poissons Ratio (y) = 0.41451 0.22402
# Poissons Ratio (z) = 0.18379 0.27025
#
# Static dielectric constant tensor:
#      x y z
#    x 3.197930 0.000000 0.000000 
#    y 0.000000 3.519690 0.000000 
#    z 0.000000 0.000000 3.708650 
# 
# 
# High freq. dielectric constant tensor:
#      x y z
#    x 1.684160 0.000000 0.000000 
#    y 0.000000 1.704120 0.000000 
#    z 0.000000 0.000000 1.711760 
# 
# From -- ./inp_files/13175.got.cif
#   From: 2010.03.12/outbox.cif.g09.slc.cpg/sg51_7_cif.got.tgz:13175.got - 2010.04.16 13:43:02.
