data_PCOD8211474
_publ_section_title
;
Structure prediction by ZEFSAII (Michael W. Deem and Ramdas Pophale) SiO2 
 PCOD8211474
Probable space group: P M M A
;
_chemical_formula_sum "Si O2"
_cell_formula_units_Z 48
_cell_length_a 28.073045
_cell_length_b 9.172866
_cell_length_c 10.209759
_cell_angle_alpha 90.000000
_cell_angle_beta 90.000000
_cell_angle_gamma 90.000000
_cell_volume 2629.117899
_symmetry_space_group_name_H-M "P M M A"
_symmetry_group_IT_number 51
_symmetry_cell_setting 'orthorhombic'
loop_
_space_group_symop_operation_xyz
x,y,z
1/2-x,-y,z
1/2+x,-y,-z
-x,y,-z
-x,-y,-z
1/2+x,y,-z
1/2-x,y,z
x,-y,z
loop_
_atom_site_type_symbol
_atom_site_label
_atom_site_fract_x
_atom_site_fract_y
_atom_site_fract_z
Si Si1 0.305160 0.329444 0.498985
Si Si2 0.150939 0.826777 0.743060
Si Si3 0.446615 0.827966 0.861157
Si Si4 0.639985 0.670633 0.761525
Si Si5 0.551500 0.172368 0.843418
Si Si6 0.804948 0.333375 0.019176
O O1 0.250000 0.284504 0.501185
O O2 0.311426 0.500000 0.528772
O O3 0.333599 0.238409 0.605755
O O4 0.326437 0.285644 0.358884
O O5 0.096587 0.774062 0.769913
O O6 0.155227 0.000000 0.738555
O O7 0.184898 0.768325 0.857218
O O8 0.497771 0.779432 0.801943
O O9 0.446708 0.000000 0.873149
O O10 0.439557 0.769124 0.008809
O O11 0.630406 0.500000 0.763081
O O12 0.589216 0.750911 0.747581
O O13 0.665586 0.722827 0.894336
O O14 0.558336 0.000000 0.831503
O O15 0.750000 0.320509 0.980875
O O16 0.818141 0.500000 0.054957
#
# Coordination Sequence:
#
# PCOD8211474 Si02
#       6
#     8   8   8   8   8   8
#     4  10  22  40  57  73 104 150 186 214 261 322
#     4  11  21  35  55  81 108 136 176 224 266 308
#     4   8  16  31  53  79 108 141 173 209 263 323
#     4  10  20  35  55  80 106 136 179 225 264 307
#     4   9  16  32  56  79 106 141 175 212 263 322
#     4  10  20  34  53  77 105 137 174 217 267 321
#
# _framework density 18.257072999999998
#
# number of rings (size 3 to 8) (size 9 to 14) (size 15 to 20)
#    0.000    2.333    1.667    2.500    0.000    5.333 
#    0.000    4.167    0.000    8.000    0.000    0.000 
#    0.000    0.000    0.000    0.000    0.000    0.000 
#
# Total GULP energy -595162.989428 kJ/mol
# GULP energy per Si atom -12399.228946 kJ/mol
# Density = 1.821552 g / cm^3
# Si number density = 18.257073 Si / 1000 Ang^3
#
#
#
# Elastic Constant Matrix: (Units=GPa)
#
#
# Indices 1 2 3 4 5 6 
#
# 1 132.0969 36.4786 35.4746 0.0000 0.0000 0.0000
# 2 36.4786 41.7405 32.7465 0.0000 0.0000 0.0000
# 3 35.4746 32.7465 72.2830 0.0000 0.0000 0.0000
# 4 0.0000 0.0000 0.0000 22.2126 0.0000 0.0000
# 5 0.0000 0.0000 0.0000 0.0000 34.9100 0.0000
# 6 0.0000 0.0000 0.0000 0.0000 0.0000 30.1452
#
#
#
# Elastic Compliance Matrix: (Units=1/GPa)
#
#
# Indices 1 2 3 4 5 6 
#
# 1 0.010080 -0.007646 -0.001483 0.000000 0.000000 0.000000
# 2 -0.007646 0.042967 -0.015713 0.000000 0.000000 0.000000
# 3 -0.001483 -0.015713 0.021681 0.000000 0.000000 0.000000
# 4 0.000000 0.000000 0.000000 0.045019 0.000000 0.000000
# 5 0.000000 0.000000 0.000000 0.000000 0.028645 0.000000
# 6 0.000000 0.000000 0.000000 0.000000 0.000000 0.033173
#
#
# Mechanical properties :
#
#
# Convention : Reuss Voigt Hill
#
# Bulk Modulus (GPa) = 39.93007 50.61333 45.27170
# Shear Modulus (GPa) = 20.86844 26.88161 23.87503
#
# Velocity S-wave (km/s) = 3.38455 3.84134 3.62016
# Velocity P-wave (km/s) = 6.09853 6.88893 6.50574
#
# Compressibility (1/GPa) = 0.02504378
#
# Stress axis : x y z
#
# Youngs Moduli (GPa) = 99.20788 23.27389 46.12337
#
# Poissons Ratio (x) = 0.17794 0.06841
# Poissons Ratio (y) = 0.75850 0.72474
# Poissons Ratio (z) = 0.14715 0.36570
#
# Static dielectric constant tensor:
#      x y z
#    x 3.710160 0.000000 0.000000 
#    y 0.000000 3.162790 0.000000 
#    z 0.000000 0.000000 3.249670 
# 
# 
# High freq. dielectric constant tensor:
#      x y z
#    x 1.725700 0.000000 0.000000 
#    y 0.000000 1.687430 0.000000 
#    z 0.000000 0.000000 1.690980 
# 
# From -- ./inp_files/12722.got.cif
#   From: 2010.03.12/outbox.cif.g09.slc.cpg/sg51_7_cif.got.tgz:12722.got - 2010.04.16 13:43:02.
