data_PCOD8211791
_publ_section_title
;
Structure prediction by ZEFSAII (Michael W. Deem and Ramdas Pophale) SiO2 
 PCOD8211791
Probable space group: P M M A
;
_chemical_formula_sum "Si O2"
_cell_formula_units_Z 64
_cell_length_a 14.046938
_cell_length_b 8.921048
_cell_length_c 26.760389
_cell_angle_alpha 90.000000
_cell_angle_beta 90.000000
_cell_angle_gamma 90.000000
_cell_volume 3353.435549
_symmetry_space_group_name_H-M "P M M A"
_symmetry_group_IT_number 51
_symmetry_cell_setting 'orthorhombic'
loop_
_space_group_symop_operation_xyz
x,y,z
1/2-x,-y,z
1/2+x,-y,-z
-x,y,-z
-x,-y,-z
1/2+x,y,-z
1/2-x,y,z
x,-y,z
loop_
_atom_site_type_symbol
_atom_site_label
_atom_site_fract_x
_atom_site_fract_y
_atom_site_fract_z
Si Si1 0.639894 0.823375 0.862150
Si Si2 0.145632 0.333170 0.873507
Si Si3 0.961899 0.822678 0.577066
Si Si4 0.144550 0.178082 0.520893
Si Si5 0.356687 0.675765 0.334383
Si Si6 0.454750 0.324428 0.233680
Si Si7 0.523224 0.325476 0.945041
Si Si8 0.356000 0.174615 0.772475
O O1 0.750000 0.779844 0.854153
O O2 0.576945 0.751366 0.818043
O O3 0.607370 0.761885 0.916317
O O4 0.624364 0.000000 0.860588
O O5 0.250000 0.328851 0.897891
O O6 0.124933 0.500000 0.850897
O O7 0.137100 0.208441 0.831112
O O8 0.074139 0.293719 0.916809
O O9 0.890940 0.766187 0.533401
O O10 0.932030 0.753009 0.629358
O O11 0.069657 0.769812 0.563411
O O12 0.957540 0.000000 0.581997
O O13 0.250000 0.244504 0.531874
O O14 0.147796 0.000000 0.520141
O O15 0.250000 0.734333 0.345365
O O16 0.364297 0.500000 0.343175
O O17 0.380676 0.716885 0.277233
O O18 0.459342 0.500000 0.223842
O O19 0.558359 0.266964 0.253049
O O20 0.551726 0.500000 0.947311
O O21 0.500000 0.261538 0.000000
O O22 0.250000 0.221944 0.752596
O O23 0.372838 0.000000 0.762835
#
# Coordination Sequence:
#
# PCOD8211791 Si02
#       8
#     8   8   8   8   8   8   8   8
#     4  11  24  40  58  82 112 145 181 225 277 328
#     4   9  17  31  52  77 104 136 173 210 252 307
#     4   9  17  30  52  80 107 141 186 230 270 318
#     4   8  14  27  49  78 111 145 182 225 273 323
#     4  10  22  38  54  76 108 143 179 224 279 330
#     4  11  22  38  60  82 107 144 186 226 271 327
#     4  10  21  36  56  83 112 144 180 218 262 317
#     4  10  20  34  55  83 110 135 167 212 265 317
#
# _framework density 19.084906
#
# number of rings (size 3 to 8) (size 9 to 14) (size 15 to 20)
#    0.000    2.250    1.250    2.625    0.000    4.750 
#    0.000    3.125    0.000    4.875    0.000    0.000 
#    0.000    0.000    0.000    0.000    0.000    0.000 
#
# Total GULP energy -793325.158551 kJ/mol
# GULP energy per Si atom -12395.705602 kJ/mol
# Density = 1.904147 g / cm^3
# Si number density = 19.084906 Si / 1000 Ang^3
#
#
#
# Elastic Constant Matrix: (Units=GPa)
#
#
# Indices 1 2 3 4 5 6 
#
# 1 139.6184 36.2947 42.0712 0.0000 0.0000 0.0000
# 2 36.2947 52.6468 29.0248 0.0000 0.0000 0.0000
# 3 42.0712 29.0248 86.9968 0.0000 0.0000 0.0000
# 4 0.0000 0.0000 0.0000 32.8103 0.0000 0.0000
# 5 0.0000 0.0000 0.0000 0.0000 27.4651 0.0000
# 6 0.0000 0.0000 0.0000 0.0000 0.0000 26.5646
#
#
#
# Elastic Compliance Matrix: (Units=1/GPa)
#
#
# Indices 1 2 3 4 5 6 
#
# 1 0.009282 -0.004809 -0.002884 0.000000 0.000000 0.000000
# 2 -0.004809 0.025767 -0.006271 0.000000 0.000000 0.000000
# 3 -0.002884 -0.006271 0.014982 0.000000 0.000000 0.000000
# 4 0.000000 0.000000 0.000000 0.030478 0.000000 0.000000
# 5 0.000000 0.000000 0.000000 0.000000 0.036410 0.000000
# 6 0.000000 0.000000 0.000000 0.000000 0.000000 0.037644
#
#
# Mechanical properties :
#
#
# Convention : Reuss Voigt Hill
#
# Bulk Modulus (GPa) = 45.24446 54.89372 50.06909
# Shear Modulus (GPa) = 26.33550 28.82608 27.58079
#
# Velocity S-wave (km/s) = 3.71875 3.89062 3.80565
# Velocity P-wave (km/s) = 6.49594 7.00056 6.75296
#
# Compressibility (1/GPa) = 0.02210215
#
# Stress axis : x y z
#
# Youngs Moduli (GPa) = 107.74120 38.80941 66.74793
#
# Poissons Ratio (x) = 0.18662 0.19251
# Poissons Ratio (y) = 0.51808 0.41859
# Poissons Ratio (z) = 0.31075 0.24338
#
# Static dielectric constant tensor:
#      x y z
#    x 4.004600 0.000000 0.000000 
#    y 0.000000 3.319450 0.000000 
#    z 0.000000 0.000000 3.327350 
# 
# 
# High freq. dielectric constant tensor:
#      x y z
#    x 1.761710 0.000000 0.000000 
#    y 0.000000 1.722830 0.000000 
#    z 0.000000 0.000000 1.721200 
# 
# From -- ./inp_files/35738.got.cif
#   From: 2010.03.12/outbox.cif.g09.slc.cpg/sg51_18_cif.got.tgz:35738.got - 2010.04.16 13:43:02.
