data_PCOD8211977
_publ_section_title
;
Structure prediction by ZEFSAII (Michael W. Deem and Ramdas Pophale) SiO2 
 PCOD8211977
Probable space group: P M M A
;
_chemical_formula_sum "Si O2"
_cell_formula_units_Z 48
_cell_length_a 14.148178
_cell_length_b 8.681186
_cell_length_c 21.155994
_cell_angle_alpha 90.000000
_cell_angle_beta 90.000000
_cell_angle_gamma 90.000000
_cell_volume 2598.441906
_symmetry_space_group_name_H-M "P M M A"
_symmetry_group_IT_number 51
_symmetry_cell_setting 'orthorhombic'
loop_
_space_group_symop_operation_xyz
x,y,z
1/2-x,-y,z
1/2+x,-y,-z
-x,y,-z
-x,-y,-z
1/2+x,y,-z
1/2-x,y,z
x,-y,z
loop_
_atom_site_type_symbol
_atom_site_label
_atom_site_fract_x
_atom_site_fract_y
_atom_site_fract_z
Si Si1 0.141245 0.318430 0.503083
Si Si2 0.858310 0.820124 0.827187
Si Si3 0.009260 0.180972 0.929638
Si Si4 0.504380 0.819115 0.594468
Si Si5 0.508167 0.319649 0.730680
Si Si6 0.143836 0.318657 0.832930
O O1 0.250000 0.268877 0.500847
O O2 0.128803 0.500000 0.511544
O O3 0.093255 0.234778 0.562580
O O4 0.092650 0.266428 0.437969
O O5 0.750000 0.775642 0.839173
O O6 0.915845 0.773673 0.890076
O O7 0.896020 0.722838 0.767722
O O8 0.870854 0.000000 0.811637
O O9 0.102614 0.248429 0.897165
O O10 0.022878 0.000000 0.933247
O O11 0.000000 0.250999 0.000000
O O12 0.502273 0.778543 0.667589
O O13 0.516937 0.000000 0.584918
O O14 0.507155 0.500000 0.714649
O O15 0.418566 0.268308 0.772844
O O16 0.250000 0.256811 0.822544
O O17 0.141825 0.500000 0.840614
#
# Coordination Sequence:
#
# PCOD8211977 Si02
#       6
#     8   8   8   8   8   8
#     4  10  21  38  59  81 107 140 177 215 255 303
#     4   9  18  33  51  72 101 135 171 213 260 308
#     4   9  18  32  51  76 104 134 169 209 255 308
#     4  11  22  36  56  81 110 140 172 214 261 309
#     4  10  20  35  54  75 102 135 173 215 258 307
#     4   9  19  35  53  74 101 134 172 213 256 302
#
# _framework density 18.472608999999999
#
# number of rings (size 3 to 8) (size 9 to 14) (size 15 to 20)
#    0.000    2.333    0.000    3.500    0.000    5.000 
#    0.000    3.333    0.000    0.000    0.000    0.000 
#    0.000    0.000    0.000    0.000    0.000    0.000 
#
# Total GULP energy -595325.681188 kJ/mol
# GULP energy per Si atom -12402.618358 kJ/mol
# Density = 1.843056 g / cm^3
# Si number density = 18.472609 Si / 1000 Ang^3
#
#
#
# Elastic Constant Matrix: (Units=GPa)
#
#
# Indices 1 2 3 4 5 6 
#
# 1 142.8959 21.1379 52.1610 0.0000 0.0000 0.0000
# 2 21.1379 35.3649 20.2268 0.0000 0.0000 0.0000
# 3 52.1610 20.2268 134.8361 0.0000 0.0000 0.0000
# 4 0.0000 0.0000 0.0000 29.2677 0.0000 0.0000
# 5 0.0000 0.0000 0.0000 0.0000 13.7714 0.0000
# 6 0.0000 0.0000 0.0000 0.0000 0.0000 23.6107
#
#
#
# Elastic Compliance Matrix: (Units=1/GPa)
#
#
# Indices 1 2 3 4 5 6 
#
# 1 0.008530 -0.003512 -0.002773 0.000000 0.000000 0.000000
# 2 -0.003512 0.032377 -0.003498 0.000000 0.000000 0.000000
# 3 -0.002773 -0.003498 0.009014 0.000000 0.000000 0.000000
# 4 0.000000 0.000000 0.000000 0.034167 0.000000 0.000000
# 5 0.000000 0.000000 0.000000 0.000000 0.072614 0.000000
# 6 0.000000 0.000000 0.000000 0.000000 0.000000 0.042354
#
#
# Mechanical properties :
#
#
# Convention : Reuss Voigt Hill
#
# Bulk Modulus (GPa) = 32.94490 55.57203 44.25846
# Shear Modulus (GPa) = 21.85885 27.96803 24.91344
#
# Velocity S-wave (km/s) = 3.44366 3.89527 3.67641
# Velocity P-wave (km/s) = 5.80387 7.09786 6.48323
#
# Compressibility (1/GPa) = 0.03035371
#
# Stress axis : x y z
#
# Youngs Moduli (GPa) = 117.23546 30.88635 110.94066
#
# Poissons Ratio (x) = 0.10849 0.30762
# Poissons Ratio (y) = 0.41178 0.38808
# Poissons Ratio (z) = 0.32508 0.10804
#
# Static dielectric constant tensor:
#      x y z
#    x 3.581160 0.000000 0.000000 
#    y 0.000000 3.367510 0.000000 
#    z 0.000000 0.000000 3.449830 
# 
# 
# High freq. dielectric constant tensor:
#      x y z
#    x 1.718470 0.000000 0.000000 
#    y 0.000000 1.717510 0.000000 
#    z 0.000000 0.000000 1.718640 
# 
# From -- ./inp_files/33221.got.cif
#   From: 2010.03.12/outbox.cif.g09.slc.cpg/sg51_17_cif.got.tgz:33221.got - 2010.04.16 13:43:02.
