data_PCOD8211588
_publ_section_title
;
Structure prediction by ZEFSAII (Michael W. Deem and Ramdas Pophale) SiO2 
 PCOD8211588
Probable space group: P M M A
;
_chemical_formula_sum "Si O2"
_cell_formula_units_Z 56
_cell_length_a 19.505056
_cell_length_b 9.154429
_cell_length_c 16.032870
_cell_angle_alpha 90.000000
_cell_angle_beta 90.000000
_cell_angle_gamma 90.000000
_cell_volume 2862.791595
_symmetry_space_group_name_H-M "P M M A"
_symmetry_group_IT_number 51
_symmetry_cell_setting 'orthorhombic'
loop_
_space_group_symop_operation_xyz
x,y,z
1/2-x,-y,z
1/2+x,-y,-z
-x,y,-z
-x,-y,-z
1/2+x,y,-z
1/2-x,y,z
x,-y,z
loop_
_atom_site_type_symbol
_atom_site_label
_atom_site_fract_x
_atom_site_fract_y
_atom_site_fract_z
Si Si1 0.094419 0.668860 0.335278
Si Si2 0.542641 0.667880 0.246891
Si Si3 0.171881 0.828719 0.478483
Si Si4 0.324307 0.826991 0.007569
Si Si5 0.457023 0.172391 0.920784
Si Si6 0.169266 0.835092 0.193204
Si Si7 0.672552 0.330404 0.349371
O O1 0.111540 0.500000 0.351153
O O2 0.117726 0.759430 0.415341
O O3 0.134877 0.720991 0.254374
O O4 0.013311 0.693303 0.319779
O O5 0.544793 0.500000 0.219801
O O6 0.519394 0.757653 0.165710
O O7 0.617354 0.718920 0.279860
O O8 0.250000 0.795189 0.449465
O O9 0.158180 0.763476 0.569003
O O10 0.158251 0.000000 0.482269
O O11 0.250000 0.757993 0.985277
O O12 0.378574 0.778325 0.937966
O O13 0.317840 0.000000 0.010245
O O14 0.348657 0.779698 0.099966
O O15 0.465834 0.000000 0.911801
O O16 0.500000 0.229577 0.000000
O O17 0.250000 0.833773 0.208029
O O18 0.141287 0.000000 0.208904
O O19 0.750000 0.301930 0.315807
O O20 0.661931 0.500000 0.372422
#
# Coordination Sequence:
#
# PCOD8211588 Si02
#       7
#     8   8   8   8   8   8   8
#     4  11  22  34  50  75 110 146 177 212 257 314
#     4  10  23  39  54  78 109 141 177 218 267 316
#     4  10  21  37  58  84 111 138 172 215 260 307
#     4   8  15  29  49  73 100 130 167 215 269 317
#     4  10  20  34  54  78 103 136 179 221 262 315
#     4   9  17  31  52  76 104 139 178 221 265 309
#     4   9  19  39  63  81 103 139 180 220 264 316
#
# _framework density 19.561325
#
# number of rings (size 3 to 8) (size 9 to 14) (size 15 to 20)
#    0.000    2.429    0.000    3.000    0.000    7.143 
#    0.000    3.571    0.000    0.857    0.000    0.000 
#    0.000    0.000    0.000    0.000    0.000    0.000 
#
# Total GULP energy -694319.854623 kJ/mol
# GULP energy per Si atom -12398.568833 kJ/mol
# Density = 1.951680 g / cm^3
# Si number density = 19.561325 Si / 1000 Ang^3
#
#
#
# Elastic Constant Matrix: (Units=GPa)
#
#
# Indices 1 2 3 4 5 6 
#
# 1 85.8316 40.8292 52.0917 0.0000 0.0000 0.0000
# 2 40.8292 68.7433 45.2841 0.0000 0.0000 0.0000
# 3 52.0917 45.2841 93.0613 0.0000 0.0000 0.0000
# 4 0.0000 0.0000 0.0000 -87.6329 0.0000 0.0000
# 5 0.0000 0.0000 0.0000 0.0000 30.3857 0.0000
# 6 0.0000 0.0000 0.0000 0.0000 0.0000 22.9966
#
#
#
# Elastic Compliance Matrix: (Units=1/GPa)
#
#
# Indices 1 2 3 4 5 6 
#
# 1 0.019402 -0.006431 -0.007731 0.000000 0.000000 0.000000
# 2 -0.006431 0.023541 -0.007856 0.000000 0.000000 0.000000
# 3 -0.007731 -0.007856 0.018896 0.000000 0.000000 0.000000
# 4 0.000000 0.000000 0.000000 -0.011411 0.000000 0.000000
# 5 0.000000 0.000000 0.000000 0.000000 0.032910 0.000000
# 6 0.000000 0.000000 0.000000 0.000000 0.000000 0.043485
#
#
# Mechanical properties :
#
#
# Convention : Reuss Voigt Hill
#
# Bulk Modulus (GPa) = 56.16752 58.22735 57.19744
# Shear Modulus (GPa) = 28.28191 0.44531 14.36361
#
# Velocity S-wave (km/s) = 3.80650 0.47764 2.71271
# Velocity P-wave (km/s) = 6.93507 5.48957 6.25422
#
# Compressibility (1/GPa) = 0.01780388
#
# Stress axis : x y z
#
# Youngs Moduli (GPa) = 51.54176 42.47890 52.92201
#
# Poissons Ratio (x) = 0.27317 0.40914
# Poissons Ratio (y) = 0.33145 0.41574
# Poissons Ratio (z) = 0.39847 0.33370
#
# Static dielectric constant tensor:
#      x y z
#    x 4.004250 0.000000 0.000000 
#    y 0.000000 3.412570 0.000000 
#    z 0.000000 0.000000 3.445260 
# 
# 
# High freq. dielectric constant tensor:
#      x y z
#    x 1.773750 0.000000 0.000000 
#    y 0.000000 1.741020 0.000000 
#    z 0.000000 0.000000 1.754310 
# 
# From -- ./inp_files/25620.got.cif
#   From: 2010.03.12/outbox.cif.g09.slc.cpg/sg51_13_cif.got.tgz:25620.got - 2010.04.16 13:43:02.
