data_PCOD8211877
_publ_section_title
;
Structure prediction by ZEFSAII (Michael W. Deem and Ramdas Pophale) SiO2 
 PCOD8211877
Probable space group: P M M A
;
_chemical_formula_sum "Si O2"
_cell_formula_units_Z 64
_cell_length_a 9.113090
_cell_length_b 23.772774
_cell_length_c 14.737123
_cell_angle_alpha 90.000000
_cell_angle_beta 90.000000
_cell_angle_gamma 90.000000
_cell_volume 3192.700860
_symmetry_space_group_name_H-M "P M M A"
_symmetry_group_IT_number 51
_symmetry_cell_setting 'orthorhombic'
loop_
_space_group_symop_operation_xyz
x,y,z
1/2-x,-y,z
1/2+x,-y,-z
-x,y,-z
-x,-y,-z
1/2+x,y,-z
1/2-x,y,z
x,-y,z
loop_
_atom_site_type_symbol
_atom_site_label
_atom_site_fract_x
_atom_site_fract_y
_atom_site_fract_z
Si Si1 0.918555 0.885111 0.756600
Si Si2 0.917036 0.757159 0.765747
Si Si3 0.582483 0.276647 0.411417
Si Si4 0.920353 0.935726 0.405523
Si Si5 0.081565 0.590624 0.589575
Si Si6 0.422666 0.338681 0.096681
Si Si7 0.917690 0.562924 0.770478
Si Si8 0.087885 0.065473 0.916595
O O1 0.750000 0.903157 0.743966
O O2 0.931074 0.821893 0.795311
O O3 0.002593 0.892125 0.662014
O O4 0.995777 0.926680 0.826119
O O5 0.750000 0.741411 0.739586
O O6 0.969631 0.717450 0.848318
O O7 0.016403 0.749846 0.678307
O O8 0.500000 0.252967 0.500000
O O9 0.750000 0.257825 0.419535
O O10 0.563983 0.342978 0.404540
O O11 0.750000 0.919828 0.415323
O O12 0.000000 0.927332 0.500000
O O13 0.938557 0.000000 0.371001
O O14 0.250000 0.571696 0.583852
O O15 0.000000 0.567297 0.500000
O O16 0.011746 0.564480 0.679226
O O17 0.250000 0.340691 0.079125
O O18 0.475803 0.392971 0.154503
O O19 0.500000 0.338699 0.000000
O O20 0.750000 0.578090 0.745105
O O21 0.929884 0.500000 0.811628
O O22 0.250000 0.093290 0.908520
O O23 0.107290 0.000000 0.935122
O O24 0.000000 0.093824 0.000000
#
# Coordination Sequence:
#
# PCOD8211877 Si02
#       8
#     8   8   8   8   8   8   8   8
#     4  11  23  37  57  86 118 152 194 239 289 347
#     4  10  22  40  59  82 114 153 192 235 287 340
#     4  10  20  34  57  85 112 147 189 230 276 332
#     4  10  21  38  60  86 118 158 202 245 293 345
#     4  10  20  34  56  86 118 153 190 229 278 334
#     4  10  22  41  63  84 112 147 188 238 290 347
#     4  10  21  38  61  87 116 152 192 237 289 343
#     4  10  21  38  60  85 114 149 188 233 287 343
#
# _framework density 20.045724
#
# number of rings (size 3 to 8) (size 9 to 14) (size 15 to 20)
#    0.000    1.875    1.250    2.250    0.000    7.750 
#    0.000    1.250    0.000    0.000    0.000    0.000 
#    0.000    0.000    0.000    0.000    0.000    0.000 
#
# Total GULP energy -793748.908820 kJ/mol
# GULP energy per Si atom -12402.326700 kJ/mol
# Density = 2.000010 g / cm^3
# Si number density = 20.045724 Si / 1000 Ang^3
#
#
#
# Elastic Constant Matrix: (Units=GPa)
#
#
# Indices 1 2 3 4 5 6 
#
# 1 124.5884 35.3724 56.5517 0.0000 0.0000 0.0000
# 2 35.3724 64.6192 37.4787 0.0000 0.0000 0.0000
# 3 56.5517 37.4787 127.8699 0.0000 0.0000 0.0000
# 4 0.0000 0.0000 0.0000 11.9264 0.0000 0.0000
# 5 0.0000 0.0000 0.0000 0.0000 43.7407 0.0000
# 6 0.0000 0.0000 0.0000 0.0000 0.0000 17.1410
#
#
#
# Elastic Compliance Matrix: (Units=1/GPa)
#
#
# Indices 1 2 3 4 5 6 
#
# 1 0.010754 -0.003769 -0.003651 0.000000 0.000000 0.000000
# 2 -0.003769 0.019966 -0.004185 0.000000 0.000000 0.000000
# 3 -0.003651 -0.004185 0.010662 0.000000 0.000000 0.000000
# 4 0.000000 0.000000 0.000000 0.083848 0.000000 0.000000
# 5 0.000000 0.000000 0.000000 0.000000 0.022862 0.000000
# 6 0.000000 0.000000 0.000000 0.000000 0.000000 0.058340
#
#
# Mechanical properties :
#
#
# Convention : Reuss Voigt Hill
#
# Bulk Modulus (GPa) = 55.03332 63.98703 59.51018
# Shear Modulus (GPa) = 21.21353 27.07326 24.14339
#
# Velocity S-wave (km/s) = 3.25662 3.67900 3.47423
# Velocity P-wave (km/s) = 6.45401 7.07366 6.77092
#
# Compressibility (1/GPa) = 0.01817081
#
# Stress axis : x y z
#
# Youngs Moduli (GPa) = 92.99009 50.08584 93.79153
#
# Poissons Ratio (x) = 0.18877 0.34246
# Poissons Ratio (y) = 0.35047 0.39253
# Poissons Ratio (z) = 0.33954 0.20962
#
# Static dielectric constant tensor:
#      x y z
#    x 3.827650 0.000000 0.000000 
#    y 0.000000 3.609110 0.000000 
#    z 0.000000 0.000000 4.348080 
# 
# 
# High freq. dielectric constant tensor:
#      x y z
#    x 1.790490 0.000000 0.000000 
#    y 0.000000 1.775210 0.000000 
#    z 0.000000 0.000000 1.780980 
# 
# From -- ./inp_files/22264.got.cif
#   From: 2010.03.12/outbox.cif.g09.slc.cpg/sg51_12_cif.got.tgz:22264.got - 2010.04.16 13:43:02.
