data_PCOD8211004
_publ_section_title
;
Structure prediction by ZEFSAII (Michael W. Deem and Ramdas Pophale) SiO2 
 PCOD8211004
Probable space group: P M M A
;
_chemical_formula_sum "Si O2"
_cell_formula_units_Z 64
_cell_length_a 22.813824
_cell_length_b 9.034192
_cell_length_c 16.225526
_cell_angle_alpha 90.000000
_cell_angle_beta 90.000000
_cell_angle_gamma 90.000000
_cell_volume 3344.153376
_symmetry_space_group_name_H-M "P M M A"
_symmetry_group_IT_number 51
_symmetry_cell_setting 'orthorhombic'
loop_
_space_group_symop_operation_xyz
x,y,z
1/2-x,-y,z
1/2+x,-y,-z
-x,y,-z
-x,-y,-z
1/2+x,y,-z
1/2-x,y,z
x,-y,z
loop_
_atom_site_type_symbol
_atom_site_label
_atom_site_fract_x
_atom_site_fract_y
_atom_site_fract_z
Si Si1 0.182399 0.324872 0.163568
Si Si2 0.427224 0.331430 0.719024
Si Si3 0.318138 0.837505 0.474458
Si Si4 0.992393 0.175055 0.595332
Si Si5 0.090692 0.171296 0.053379
Si Si6 0.376660 0.324994 0.334569
Si Si7 0.815194 0.667648 0.368764
Si Si8 0.535855 0.171788 0.118965
O O1 0.250000 0.266011 0.164597
O O2 0.183195 0.500000 0.156842
O O3 0.146867 0.262056 0.085213
O O4 0.147199 0.273998 0.245284
O O5 0.449423 0.500000 0.709608
O O6 0.452338 0.232729 0.645533
O O7 0.356791 0.319722 0.710848
O O8 0.443917 0.274520 0.807883
O O9 0.250000 0.858152 0.485172
O O10 0.328124 0.727167 0.399138
O O11 0.342736 0.767314 0.558455
O O12 0.347961 0.000000 0.460981
O O13 0.936495 0.245685 0.640337
O O14 0.000000 0.224663 0.500000
O O15 0.987448 0.000000 0.602490
O O16 0.031466 0.214150 0.101624
O O17 0.105194 0.000000 0.066199
O O18 0.078524 0.206495 0.957648
O O19 0.385397 0.500000 0.338254
O O20 0.750000 0.719294 0.342563
O O21 0.813916 0.500000 0.402351
O O22 0.540445 0.000000 0.143293
#
# Coordination Sequence:
#
# PCOD8211004 Si02
#       8
#     8   8   8   8   8   8   8   8
#     4  10  22  38  55  80 115 151 185 226 279 335
#     4  11  22  35  55  83 110 139 179 221 265 323
#     4  10  20  33  51  76 104 137 181 227 268 314
#     4  11  24  39  55  78 112 151 187 230 285 335
#     4   9  19  37  60  84 108 139 180 222 269 326
#     4  11  22  36  55  78 107 145 189 232 275 329
#     4   9  19  36  55  74 101 138 176 216 262 310
#     4   9  19  37  60  84 111 141 175 222 276 326
#
# _framework density 19.137878000000001
#
# number of rings (size 3 to 8) (size 9 to 14) (size 15 to 20)
#    0.000    2.000    0.000    4.125    0.000    9.500 
#    0.000    1.875    0.000    2.250    0.000    0.000 
#    0.000    0.000    0.000    0.000    0.000    0.000 
#
# Total GULP energy -793441.872630 kJ/mol
# GULP energy per Si atom -12397.529260 kJ/mol
# Density = 1.909432 g / cm^3
# Si number density = 19.137878 Si / 1000 Ang^3
#
#
#
# Elastic Constant Matrix: (Units=GPa)
#
#
# Indices 1 2 3 4 5 6 
#
# 1 104.3948 41.1091 56.8158 0.0000 0.0000 0.0000
# 2 41.1091 63.4847 37.8510 0.0000 0.0000 0.0000
# 3 56.8158 37.8510 101.9765 0.0000 0.0000 0.0000
# 4 0.0000 0.0000 0.0000 33.8230 0.0000 0.0000
# 5 0.0000 0.0000 0.0000 0.0000 31.8792 0.0000
# 6 0.0000 0.0000 0.0000 0.0000 0.0000 28.0322
#
#
#
# Elastic Compliance Matrix: (Units=1/GPa)
#
#
# Indices 1 2 3 4 5 6 
#
# 1 0.015472 -0.006266 -0.006295 0.000000 0.000000 0.000000
# 2 -0.006266 0.022766 -0.004959 0.000000 0.000000 0.000000
# 3 -0.006295 -0.004959 0.015154 0.000000 0.000000 0.000000
# 4 0.000000 0.000000 0.000000 0.029566 0.000000 0.000000
# 5 0.000000 0.000000 0.000000 0.000000 0.031368 0.000000
# 6 0.000000 0.000000 0.000000 0.000000 0.000000 0.035673
#
#
# Mechanical properties :
#
#
# Convention : Reuss Voigt Hill
#
# Bulk Modulus (GPa) = 54.48729 60.15643 57.32186
# Shear Modulus (GPa) = 26.15660 27.68553 26.92107
#
# Velocity S-wave (km/s) = 3.70096 3.80759 3.75466
# Velocity P-wave (km/s) = 6.84073 7.12964 6.98668
#
# Compressibility (1/GPa) = 0.01835290
#
# Stress axis : x y z
#
# Youngs Moduli (GPa) = 64.63204 43.92502 65.98992
#
# Poissons Ratio (x) = 0.27523 0.41537
# Poissons Ratio (y) = 0.40498 0.32725
# Poissons Ratio (z) = 0.40683 0.21783
#
# Static dielectric constant tensor:
#      x y z
#    x 3.645050 0.000000 0.000000 
#    y 0.000000 3.669680 0.000000 
#    z 0.000000 0.000000 3.464230 
# 
# 
# High freq. dielectric constant tensor:
#      x y z
#    x 1.749690 0.000000 0.000000 
#    y 0.000000 1.747820 0.000000 
#    z 0.000000 0.000000 1.736130 
# 
# From -- ./inp_files/26198.got.cif
#   From: 2010.03.12/outbox.cif.g09.slc.cpg/sg51_14_cif.got.tgz:26198.got - 2010.04.16 13:43:02.
