data_PCOD8211065
_publ_section_title
;
Structure prediction by ZEFSAII (Michael W. Deem and Ramdas Pophale) SiO2 
 PCOD8211065
Probable space group: P M M A
;
_chemical_formula_sum "Si O2"
_cell_formula_units_Z 56
_cell_length_a 8.747831
_cell_length_b 22.457626
_cell_length_c 14.806365
_cell_angle_alpha 90.000000
_cell_angle_beta 90.000000
_cell_angle_gamma 90.000000
_cell_volume 2908.792090
_symmetry_space_group_name_H-M "P M M A"
_symmetry_group_IT_number 51
_symmetry_cell_setting 'orthorhombic'
loop_
_space_group_symop_operation_xyz
x,y,z
1/2-x,-y,z
1/2+x,-y,-z
-x,y,-z
-x,-y,-z
1/2+x,y,-z
1/2-x,y,z
x,-y,z
loop_
_atom_site_type_symbol
_atom_site_label
_atom_site_fract_x
_atom_site_fract_y
_atom_site_fract_z
Si Si1 0.070654 0.737303 0.092766
Si Si2 0.568542 0.389468 0.095100
Si Si3 0.928309 0.841939 0.770466
Si Si4 0.073037 0.069746 0.906179
Si Si5 0.570008 0.657018 0.406146
Si Si6 0.925919 0.566657 0.732160
Si Si7 0.930441 0.207086 0.405123
O O1 0.250000 0.725109 0.079258
O O2 0.036030 0.783536 0.171432
O O3 0.986020 0.676864 0.120035
O O4 0.000000 0.762880 0.000000
O O5 0.750000 0.391916 0.091436
O O6 0.504762 0.434017 0.170122
O O7 0.500000 0.410323 0.000000
O O8 0.750000 0.851784 0.755971
O O9 0.995165 0.899162 0.820884
O O10 0.006644 0.835381 0.673283
O O11 0.250000 0.086723 0.909100
O O12 0.045022 0.000000 0.893577
O O13 0.000000 0.092304 0.000000
O O14 0.500000 0.634832 0.500000
O O15 0.750000 0.651643 0.412620
O O16 0.510899 0.614156 0.328940
O O17 0.518807 0.724760 0.385508
O O18 0.750000 0.585716 0.741085
O O19 0.941359 0.500000 0.691726
O O20 0.750000 0.200874 0.410235
O O21 0.000000 0.185390 0.500000
#
# Coordination Sequence:
#
# PCOD8211065 Si02
#       7
#     8   8   8   8   8   8   8
#     4  10  20  33  51  78 111 143 177 219 268 324
#     4  11  22  37  57  78 104 139 177 220 271 326
#     4  11  22  34  54  83 114 149 186 227 274 324
#     4  10  21  37  57  82 115 155 196 236 276 320
#     4  10  21  38  61  86 112 143 177 218 271 328
#     4  11  24  40  57  78 105 138 178 224 271 322
#     4  10  21  37  58  84 113 144 180 224 273 327
#
# _framework density 19.251978000000001
#
# number of rings (size 3 to 8) (size 9 to 14) (size 15 to 20)
#    0.000    1.571    0.000    6.000    0.000   10.000 
#    0.000    0.000    0.000    0.429    0.000    0.000 
#    0.000    0.000    0.000    0.000    0.000    0.000 
#
# Total GULP energy -694684.583770 kJ/mol
# GULP energy per Si atom -12405.081853 kJ/mol
# Density = 1.920816 g / cm^3
# Si number density = 19.251978 Si / 1000 Ang^3
#
#
#
# Elastic Constant Matrix: (Units=GPa)
#
#
# Indices 1 2 3 4 5 6 
#
# 1 105.4464 30.9383 45.3235 0.0000 0.0000 0.0000
# 2 30.9383 52.2303 46.1863 0.0000 0.0000 0.0000
# 3 45.3235 46.1863 134.7850 0.0000 0.0000 0.0000
# 4 0.0000 0.0000 0.0000 27.8831 0.0000 0.0000
# 5 0.0000 0.0000 0.0000 0.0000 39.9841 0.0000
# 6 0.0000 0.0000 0.0000 0.0000 0.0000 26.0847
#
#
#
# Elastic Compliance Matrix: (Units=1/GPa)
#
#
# Indices 1 2 3 4 5 6 
#
# 1 0.011950 -0.005058 -0.002285 0.000000 0.000000 0.000000
# 2 -0.005058 0.029610 -0.008446 0.000000 0.000000 0.000000
# 3 -0.002285 -0.008446 0.011082 0.000000 0.000000 0.000000
# 4 0.000000 0.000000 0.000000 0.035864 0.000000 0.000000
# 5 0.000000 0.000000 0.000000 0.000000 0.025010 0.000000
# 6 0.000000 0.000000 0.000000 0.000000 0.000000 0.038337
#
#
# Mechanical properties :
#
#
# Convention : Reuss Voigt Hill
#
# Bulk Modulus (GPa) = 47.47301 59.70645 53.58973
# Shear Modulus (GPa) = 26.25351 30.12462 28.18907
#
# Velocity S-wave (km/s) = 3.69681 3.95999 3.83066
# Velocity P-wave (km/s) = 6.55242 7.21035 6.88924
#
# Compressibility (1/GPa) = 0.02106460
#
# Stress axis : x y z
#
# Youngs Moduli (GPa) = 83.68462 33.77210 90.23850
#
# Poissons Ratio (x) = 0.17080 0.20621
# Poissons Ratio (y) = 0.42324 0.76213
# Poissons Ratio (z) = 0.19124 0.28523
#
# Static dielectric constant tensor:
#      x y z
#    x 3.652040 0.000000 0.000000 
#    y 0.000000 3.360260 0.000000 
#    z 0.000000 0.000000 3.615140 
# 
# 
# High freq. dielectric constant tensor:
#      x y z
#    x 1.768670 0.000000 0.000000 
#    y 0.000000 1.732320 0.000000 
#    z 0.000000 0.000000 1.752750 
# 
# From -- ./inp_files/21758.got.cif
#   From: 2010.03.12/outbox.cif.g09.slc.cpg/sg51_11_cif.got.tgz:21758.got - 2010.04.16 13:43:02.
