data_PCOD8211156
_publ_section_title
;
Structure prediction by ZEFSAII (Michael W. Deem and Ramdas Pophale) SiO2 
 PCOD8211156
Probable space group: P M M A
;
_chemical_formula_sum "Si O2"
_cell_formula_units_Z 64
_cell_length_a 13.659578
_cell_length_b 9.334347
_cell_length_c 25.862534
_cell_angle_alpha 90.000000
_cell_angle_beta 90.000000
_cell_angle_gamma 90.000000
_cell_volume 3297.556904
_symmetry_space_group_name_H-M "P M M A"
_symmetry_group_IT_number 51
_symmetry_cell_setting 'orthorhombic'
loop_
_space_group_symop_operation_xyz
x,y,z
1/2-x,-y,z
1/2+x,-y,-z
-x,y,-z
-x,-y,-z
1/2+x,y,-z
1/2-x,y,z
x,-y,z
loop_
_atom_site_type_symbol
_atom_site_label
_atom_site_fract_x
_atom_site_fract_y
_atom_site_fract_z
Si Si1 0.453184 0.833889 0.373825
Si Si2 0.639127 0.836533 0.434740
Si Si3 0.866094 0.158921 0.024585
Si Si4 0.634751 0.664092 0.928979
Si Si5 0.363365 0.666757 0.281963
Si Si6 0.634298 0.338927 0.532873
Si Si7 0.138837 0.169641 0.860562
Si Si8 0.465185 0.332890 0.175651
O O1 0.569380 0.816993 0.384997
O O2 0.430097 0.761287 0.319389
O O3 0.392374 0.755155 0.417973
O O4 0.422041 0.000000 0.372321
O O5 0.750000 0.794704 0.418704
O O6 0.596210 0.735687 0.480179
O O7 0.635091 0.000000 0.455042
O O8 0.750000 0.155216 0.019201
O O9 0.890670 0.222218 0.081412
O O10 0.909368 0.000000 0.019180
O O11 0.911885 0.251512 0.977770
O O12 0.750000 0.687741 0.925872
O O13 0.607369 0.500000 0.937677
O O14 0.591016 0.721590 0.875316
O O15 0.250000 0.709229 0.288285
O O16 0.379136 0.500000 0.295193
O O17 0.396482 0.702907 0.224029
O O18 0.750000 0.345162 0.529985
O O19 0.590817 0.500000 0.537071
O O20 0.250000 0.214368 0.847449
O O21 0.067655 0.247865 0.819959
O O22 0.126755 0.000000 0.856261
O O23 0.489277 0.500000 0.173113
#
# Coordination Sequence:
#
# PCOD8211156 Si02
#       8
#     8   8   8   8   8   8   8   8
#     4  11  22  35  55  82 109 141 183 226 266 310
#     4   9  19  36  55  77 110 148 181 216 261 311
#     4   8  15  29  48  71 101 136 171 207 251 306
#     4   9  17  30  49  74 104 136 170 210 259 315
#     4  10  22  41  61  79 104 138 173 213 264 317
#     4  10  20  33  52  81 115 149 183 219 263 315
#     4   9  19  36  55  75 103 138 173 210 255 309
#     4  10  21  36  55  78 102 132 173 219 265 312
#
# _framework density 19.408308000000002
#
# number of rings (size 3 to 8) (size 9 to 14) (size 15 to 20)
#    0.000    2.500    0.000    2.625    0.000    8.750 
#    0.000    4.375    0.000    4.500    0.000    0.000 
#    0.000    0.000    0.000    0.000    0.000    0.000 
#
# Total GULP energy -793582.312115 kJ/mol
# GULP energy per Si atom -12399.723627 kJ/mol
# Density = 1.936413 g / cm^3
# Si number density = 19.408308 Si / 1000 Ang^3
#
#
#
# Elastic Constant Matrix: (Units=GPa)
#
#
# Indices 1 2 3 4 5 6 
#
# 1 55.7401 38.5224 42.6635 0.0000 0.0000 0.0000
# 2 38.5224 85.4014 51.1235 0.0000 0.0000 0.0000
# 3 42.6635 51.1235 85.2832 0.0000 0.0000 0.0000
# 4 0.0000 0.0000 0.0000 192.1527 0.0000 0.0000
# 5 0.0000 0.0000 0.0000 0.0000 32.0815 0.0000
# 6 0.0000 0.0000 0.0000 0.0000 0.0000 25.2971
#
#
#
# Elastic Compliance Matrix: (Units=1/GPa)
#
#
# Indices 1 2 3 4 5 6 
#
# 1 0.031912 -0.007546 -0.011441 0.000000 0.000000 0.000000
# 2 -0.007546 0.020047 -0.008243 0.000000 0.000000 0.000000
# 3 -0.011441 -0.008243 0.022390 0.000000 0.000000 0.000000
# 4 0.000000 0.000000 0.000000 0.005204 0.000000 0.000000
# 5 0.000000 0.000000 0.000000 0.000000 0.031171 0.000000
# 6 0.000000 0.000000 0.000000 0.000000 0.000000 0.039530
#
#
# Mechanical properties :
#
#
# Convention : Reuss Voigt Hill
#
# Bulk Modulus (GPa) = 50.27427 54.56038 52.41732
# Shear Modulus (GPa) = 23.65809 56.18063 39.91936
#
# Velocity S-wave (km/s) = 3.49516 5.38605 4.54014
# Velocity P-wave (km/s) = 6.49984 8.17632 7.38580
#
# Compressibility (1/GPa) = 0.01989089
#
# Stress axis : x y z
#
# Youngs Moduli (GPa) = 31.33580 49.88165 44.66266
#
# Poissons Ratio (x) = 0.37641 0.51098
# Poissons Ratio (y) = 0.23646 0.36814
# Poissons Ratio (z) = 0.35851 0.41115
#
# Static dielectric constant tensor:
#      x y z
#    x 3.566280 0.000000 0.000000 
#    y 0.000000 3.646330 0.000000 
#    z 0.000000 0.000000 3.488880 
# 
# 
# High freq. dielectric constant tensor:
#      x y z
#    x 1.764810 0.000000 0.000000 
#    y 0.000000 1.751690 0.000000 
#    z 0.000000 0.000000 1.738390 
# 
# From -- ./inp_files/35842.got.cif
#   From: 2010.03.12/outbox.cif.g09.slc.cpg/sg51_18_cif.got.tgz:35842.got - 2010.04.16 13:43:02.
