data_PCOD8211631
_publ_section_title
;
Structure prediction by ZEFSAII (Michael W. Deem and Ramdas Pophale) SiO2 
 PCOD8211631
Probable space group: P M M A
;
_chemical_formula_sum "Si O2"
_cell_formula_units_Z 64
_cell_length_a 9.377700
_cell_length_b 23.341199
_cell_length_c 15.143868
_cell_angle_alpha 90.000000
_cell_angle_beta 90.000000
_cell_angle_gamma 90.000000
_cell_volume 3314.792229
_symmetry_space_group_name_H-M "P M M A"
_symmetry_group_IT_number 51
_symmetry_cell_setting 'orthorhombic'
loop_
_space_group_symop_operation_xyz
x,y,z
1/2-x,-y,z
1/2+x,-y,-z
-x,y,-z
-x,-y,-z
1/2+x,y,-z
1/2-x,y,z
x,-y,z
loop_
_atom_site_type_symbol
_atom_site_label
_atom_site_fract_x
_atom_site_fract_y
_atom_site_fract_z
Si Si1 0.095328 0.065571 0.074783
Si Si2 0.584063 0.609812 0.587273
Si Si3 0.912649 0.434240 0.250331
Si Si4 0.415091 0.743768 0.413433
Si Si5 0.089897 0.937749 0.754965
Si Si6 0.913971 0.227257 0.084784
Si Si7 0.587443 0.185300 0.276182
Si Si8 0.916152 0.358836 0.085673
O O1 0.250000 0.095978 0.079342
O O2 0.023268 0.069112 0.168856
O O3 0.116762 0.000000 0.046263
O O4 0.000000 0.096923 0.000000
O O5 0.500000 0.590535 0.500000
O O6 0.750000 0.593684 0.576646
O O7 0.517175 0.575490 0.667987
O O8 0.563255 0.676981 0.604608
O O9 0.750000 0.417599 0.276655
O O10 0.921660 0.500000 0.220775
O O11 0.966739 0.395749 0.169283
O O12 0.500000 0.763758 0.500000
O O13 0.250000 0.759835 0.426140
O O14 0.477457 0.776793 0.329921
O O15 0.250000 0.936179 0.795162
O O16 0.071118 0.881607 0.693087
O O17 0.066403 0.000000 0.706377
O O18 0.750000 0.221711 0.059259
O O19 0.950757 0.190081 0.171915
O O20 0.954512 0.292987 0.106154
O O21 0.000000 0.204314 0.000000
O O22 0.750000 0.206962 0.292288
O O23 0.750000 0.367933 0.067100
O O24 0.000000 0.381028 0.000000
#
# Coordination Sequence:
#
# PCOD8211631 Si02
#       8
#     8   8   8   8   8   8   8   8
#     4   9  16  26  41  60  84 119 164 211 254 296
#     4  10  21  37  58  83 110 141 175 213 262 318
#     4  10  21  36  54  78 109 145 184 225 268 314
#     4  10  21  37  59  86 111 135 168 214 266 319
#     4   9  18  32  48  68  97 133 172 212 256 310
#     4   9  18  32  50  73 102 137 176 219 267 316
#     4  10  20  34  54  79 107 140 175 215 266 318
#     4   9  18  33  52  73 100 136 178 224 271 315
#
# _framework density 19.307395
#
# number of rings (size 3 to 8) (size 9 to 14) (size 15 to 20)
#    0.000    2.500    0.000    1.875    0.000    6.750 
#    0.000    3.750    0.000    0.375    0.000    0.000 
#    0.000    0.000    0.000    0.000    0.000    0.000 
#
# Total GULP energy -793426.083943 kJ/mol
# GULP energy per Si atom -12397.282562 kJ/mol
# Density = 1.926345 g / cm^3
# Si number density = 19.307395 Si / 1000 Ang^3
#
#
#
# Elastic Constant Matrix: (Units=GPa)
#
#
# Indices 1 2 3 4 5 6 
#
# 1 98.5581 28.1297 36.9101 0.0000 0.0000 0.0000
# 2 28.1297 73.6132 31.4739 0.0000 0.0000 0.0000
# 3 36.9101 31.4739 79.2503 0.0000 0.0000 0.0000
# 4 0.0000 0.0000 0.0000 8.2850 0.0000 0.0000
# 5 0.0000 0.0000 0.0000 0.0000 36.9414 0.0000
# 6 0.0000 0.0000 0.0000 0.0000 0.0000 18.4480
#
#
#
# Elastic Compliance Matrix: (Units=1/GPa)
#
#
# Indices 1 2 3 4 5 6 
#
# 1 0.012755 -0.002812 -0.004824 0.000000 0.000000 0.000000
# 2 -0.002812 0.016983 -0.005435 0.000000 0.000000 0.000000
# 3 -0.004824 -0.005435 0.017024 0.000000 0.000000 0.000000
# 4 0.000000 0.000000 0.000000 0.120700 0.000000 0.000000
# 5 0.000000 0.000000 0.000000 0.000000 0.027070 0.000000
# 6 0.000000 0.000000 0.000000 0.000000 0.000000 0.054207
#
#
# Mechanical properties :
#
#
# Convention : Reuss Voigt Hill
#
# Bulk Modulus (GPa) = 48.49656 49.38323 48.93989
# Shear Modulus (GPa) = 17.74604 23.06207 20.40406
#
# Velocity S-wave (km/s) = 3.03501 3.45986 3.25437
# Velocity P-wave (km/s) = 6.12000 6.44932 6.28681
#
# Compressibility (1/GPa) = 0.02062002
#
# Stress axis : x y z
#
# Youngs Moduli (GPa) = 78.39819 58.88325 58.74212
#
# Poissons Ratio (x) = 0.16556 0.28338
# Poissons Ratio (y) = 0.22043 0.31927
# Poissons Ratio (z) = 0.37820 0.32004
#
# Static dielectric constant tensor:
#      x y z
#    x 3.640790 0.000000 0.000000 
#    y 0.000000 3.634160 0.000000 
#    z 0.000000 0.000000 3.245350 
# 
# 
# High freq. dielectric constant tensor:
#      x y z
#    x 1.756670 0.000000 0.000000 
#    y 0.000000 1.754550 0.000000 
#    z 0.000000 0.000000 1.721420 
# 
# From -- ./inp_files/22383.got.cif
#   From: 2010.03.12/outbox.cif.g09.slc.cpg/sg51_12_cif.got.tgz:22383.got - 2010.04.16 13:43:02.
