data_PCOD8211904
_publ_section_title
;
Structure prediction by ZEFSAII (Michael W. Deem and Ramdas Pophale) SiO2 
 PCOD8211904
Probable space group: P M M A
;
_chemical_formula_sum "Si O2"
_cell_formula_units_Z 40
_cell_length_a 8.860021
_cell_length_b 15.352895
_cell_length_c 14.455321
_cell_angle_alpha 90.000000
_cell_angle_beta 90.000000
_cell_angle_gamma 90.000000
_cell_volume 1966.313547
_symmetry_space_group_name_H-M "P M M A"
_symmetry_group_IT_number 51
_symmetry_cell_setting 'orthorhombic'
loop_
_space_group_symop_operation_xyz
x,y,z
1/2-x,-y,z
1/2+x,-y,-z
-x,y,-z
-x,-y,-z
1/2+x,y,-z
1/2-x,y,z
x,-y,z
loop_
_atom_site_type_symbol
_atom_site_label
_atom_site_fract_x
_atom_site_fract_y
_atom_site_fract_z
Si Si1 0.922657 0.896926 0.405071
Si Si2 0.423426 0.147769 0.218725
Si Si3 0.928532 0.000000 0.100253
Si Si4 0.926950 0.599528 0.406581
Si Si5 0.428017 0.500000 0.099685
Si Si6 0.077175 0.342796 0.226571
O O1 0.750000 0.863935 0.403436
O O2 0.000000 0.866832 0.500000
O O3 0.016258 0.853877 0.322919
O O4 0.929833 0.000000 0.392910
O O5 0.250000 0.116170 0.217024
O O6 0.438168 0.246799 0.181846
O O7 0.522044 0.086439 0.153737
O O8 0.750000 0.000000 0.091495
O O9 0.000000 0.000000 0.000000
O O10 0.750000 0.608002 0.416701
O O11 0.979427 0.500000 0.391257
O O12 0.000000 0.637625 0.500000
O O13 0.980847 0.655667 0.319976
O O14 0.250000 0.500000 0.087452
O O15 0.484296 0.586010 0.153986
O O16 0.500000 0.500000 0.000000
O O17 0.250000 0.363916 0.252249
#
# Coordination Sequence:
#
# PCOD8211904 Si02
#       6
#     8   8   4   8   4   8
#     4  10  20  35  58  88 123 164 206 247 298 356
#     4  11  23  40  64  94 125 160 203 251 305 366
#     4  12  26  46  69  92 121 160 200 252 310 364
#     4  10  20  34  57  88 122 163 208 251 299 355
#     4  10  22  42  65  88 119 154 195 246 302 360
#     4  10  22  40  63  90 123 161 201 248 303 360
#
# _framework density 20.342635000000001
#
# number of rings (size 3 to 8) (size 9 to 14) (size 15 to 20)
#    0.000    1.600    2.000    2.700    0.000    5.600 
#    0.000    2.000    0.000    0.000    0.000    0.000 
#    0.000    0.000    0.000    0.000    0.000    0.000 
#
# Total GULP energy -496193.282440 kJ/mol
# GULP energy per Si atom -12404.832061 kJ/mol
# Density = 2.029633 g / cm^3
# Si number density = 20.342635 Si / 1000 Ang^3
#
#
#
# Elastic Constant Matrix: (Units=GPa)
#
#
# Indices 1 2 3 4 5 6 
#
# 1 122.4845 44.0140 56.2769 0.0000 0.0000 0.0000
# 2 44.0140 107.5942 58.5199 0.0000 0.0000 0.0000
# 3 56.2769 58.5199 148.7495 0.0000 0.0000 0.0000
# 4 0.0000 0.0000 0.0000 6.0757 0.0000 0.0000
# 5 0.0000 0.0000 0.0000 0.0000 42.5262 0.0000
# 6 0.0000 0.0000 0.0000 0.0000 0.0000 19.7447
#
#
#
# Elastic Compliance Matrix: (Units=1/GPa)
#
#
# Indices 1 2 3 4 5 6 
#
# 1 0.010467 -0.002707 -0.002895 0.000000 0.000000 0.000000
# 2 -0.002707 0.012525 -0.003903 0.000000 0.000000 0.000000
# 3 -0.002895 -0.003903 0.009354 0.000000 0.000000 0.000000
# 4 0.000000 0.000000 0.000000 0.164590 0.000000 0.000000
# 5 0.000000 0.000000 0.000000 0.000000 0.023515 0.000000
# 6 0.000000 0.000000 0.000000 0.000000 0.000000 0.050647
#
#
# Mechanical properties :
#
#
# Convention : Reuss Voigt Hill
#
# Bulk Modulus (GPa) = 74.99310 77.38329 76.18819
# Shear Modulus (GPa) = 16.97490 28.33714 22.65602
#
# Velocity S-wave (km/s) = 2.89182 3.73633 3.34087
# Velocity P-wave (km/s) = 6.93507 7.53234 7.23986
#
# Compressibility (1/GPa) = 0.01333456
#
# Stress axis : x y z
#
# Youngs Moduli (GPa) = 95.53549 79.84347 106.91179
#
# Poissons Ratio (x) = 0.21616 0.30951
# Poissons Ratio (y) = 0.25864 0.41728
# Poissons Ratio (z) = 0.27658 0.31163
#
# Static dielectric constant tensor:
#      x y z
#    x 3.719020 0.000000 0.000000 
#    y 0.000000 3.778350 0.000000 
#    z 0.000000 0.000000 0.052230 
# 
# 
# High freq. dielectric constant tensor:
#      x y z
#    x 1.801340 0.000000 0.000000 
#    y 0.000000 1.799120 0.000000 
#    z 0.000000 0.000000 1.789390 
# 
# From -- ./inp_files/20583.got.cif
#   From: 2010.03.12/outbox.cif.g09.slc.cpg/sg51_11_cif.got.tgz:20583.got - 2010.04.16 13:43:02.
