data_PCOD8211198
_publ_section_title
;
Structure prediction by ZEFSAII (Michael W. Deem and Ramdas Pophale) SiO2 
 PCOD8211198
Probable space group: P M M A
;
_chemical_formula_sum "Si O2"
_cell_formula_units_Z 64
_cell_length_a 9.037871
_cell_length_b 14.092315
_cell_length_c 25.909403
_cell_angle_alpha 90.000000
_cell_angle_beta 90.000000
_cell_angle_gamma 90.000000
_cell_volume 3299.938808
_symmetry_space_group_name_H-M "P M M A"
_symmetry_group_IT_number 51
_symmetry_cell_setting 'orthorhombic'
loop_
_space_group_symop_operation_xyz
x,y,z
1/2-x,-y,z
1/2+x,-y,-z
-x,y,-z
-x,-y,-z
1/2+x,y,-z
1/2-x,y,z
x,-y,z
loop_
_atom_site_type_symbol
_atom_site_label
_atom_site_fract_x
_atom_site_fract_y
_atom_site_fract_z
Si Si1 0.924406 0.108966 0.091223
Si Si2 0.073982 0.714906 0.051432
Si Si3 0.921502 0.895747 0.695125
Si Si4 0.423375 0.391032 0.552105
Si Si5 0.919911 0.612587 0.145340
Si Si6 0.577930 0.707559 0.645632
Si Si7 0.587892 0.112752 0.205900
Si Si8 0.920087 0.611325 0.751914
O O1 0.750000 0.120964 0.080318
O O2 0.962912 0.146034 0.149158
O O3 0.020836 0.175427 0.054227
O O4 0.972897 0.000000 0.082538
O O5 0.250000 0.709025 0.047656
O O6 0.017830 0.655415 0.099951
O O7 0.000000 0.670529 0.000000
O O8 0.750000 0.907323 0.704180
O O9 0.953022 0.820843 0.649589
O O10 0.980319 0.852211 0.748949
O O11 0.990773 0.000000 0.681757
O O12 0.500000 0.354042 0.500000
O O13 0.250000 0.377268 0.545543
O O14 0.466834 0.500000 0.562609
O O15 0.478788 0.329236 0.599491
O O16 0.750000 0.645482 0.139425
O O17 0.935793 0.500000 0.142593
O O18 0.980883 0.649692 0.200584
O O19 0.750000 0.685442 0.634450
O O20 0.526924 0.659413 0.698895
O O21 0.750000 0.153564 0.218446
O O22 0.593151 0.000000 0.204115
O O23 0.750000 0.636838 0.763773
O O24 0.943029 0.500000 0.744471
#
# Coordination Sequence:
#
# PCOD8211198 Si02
#       8
#     8   8   8   8   8   8   8   8
#     4   9  19  37  59  83 113 146 181 225 277 332
#     4  12  26  42  61  83 109 141 183 231 280 338
#     4   9  18  31  47  73 112 153 192 232 272 318
#     4  10  21  37  58  84 114 148 187 232 283 337
#     4  10  22  41  63  85 111 144 182 227 281 339
#     4  10  20  33  53  82 116 154 193 232 278 326
#     4   8  15  29  49  73 102 138 178 220 267 318
#     4   9  18  33  53  80 114 148 182 223 275 334
#
# _framework density 19.394299
#
# number of rings (size 3 to 8) (size 9 to 14) (size 15 to 20)
#    0.000    2.375    0.000    3.000    1.750    4.250 
#    0.000    2.500    0.000    0.375    0.000    0.000 
#    0.000    0.000    0.000    0.000    0.000    0.000 
#
# Total GULP energy -793531.176253 kJ/mol
# GULP energy per Si atom -12398.924629 kJ/mol
# Density = 1.935016 g / cm^3
# Si number density = 19.394299 Si / 1000 Ang^3
#
#
#
# Elastic Constant Matrix: (Units=GPa)
#
#
# Indices 1 2 3 4 5 6 
#
# 1 94.5884 36.8843 62.2415 0.0000 0.0000 0.0000
# 2 36.8843 44.6185 48.1603 0.0000 0.0000 0.0000
# 3 62.2415 48.1603 130.7137 0.0000 0.0000 0.0000
# 4 0.0000 0.0000 0.0000 24.0673 0.0000 0.0000
# 5 0.0000 0.0000 0.0000 0.0000 37.9072 0.0000
# 6 0.0000 0.0000 0.0000 0.0000 0.0000 25.4919
#
#
#
# Elastic Compliance Matrix: (Units=1/GPa)
#
#
# Indices 1 2 3 4 5 6 
#
# 1 0.017329 -0.008996 -0.004937 0.000000 0.000000 0.000000
# 2 -0.008996 0.041881 -0.011147 0.000000 0.000000 0.000000
# 3 -0.004937 -0.011147 0.014108 0.000000 0.000000 0.000000
# 4 0.000000 0.000000 0.000000 0.041550 0.000000 0.000000
# 5 0.000000 0.000000 0.000000 0.000000 0.026380 0.000000
# 6 0.000000 0.000000 0.000000 0.000000 0.000000 0.039228
#
#
# Mechanical properties :
#
#
# Convention : Reuss Voigt Hill
#
# Bulk Modulus (GPa) = 43.18229 62.72144 52.95186
# Shear Modulus (GPa) = 20.97712 25.66891 23.32302
#
# Velocity S-wave (km/s) = 3.29236 3.64198 3.47157
# Velocity P-wave (km/s) = 6.06355 7.07783 6.59023
#
# Compressibility (1/GPa) = 0.02315764
#
# Stress axis : x y z
#
# Youngs Moduli (GPa) = 57.70786 23.87732 70.88187
#
# Poissons Ratio (x) = 0.21481 0.34993
# Poissons Ratio (y) = 0.51916 0.79011
# Poissons Ratio (z) = 0.28489 0.26616
#
# Static dielectric constant tensor:
#      x y z
#    x 3.624170 0.000000 0.000000 
#    y 0.000000 3.727410 0.000000 
#    z 0.000000 0.000000 3.504080 
# 
# 
# High freq. dielectric constant tensor:
#      x y z
#    x 1.749560 0.000000 0.000000 
#    y 0.000000 1.757980 0.000000 
#    z 0.000000 0.000000 1.743250 
# 
# From -- ./inp_files/34844.got.cif
#   From: 2010.03.12/outbox.cif.g09.slc.cpg/sg51_18_cif.got.tgz:34844.got - 2010.04.16 13:43:02.
