data_PCOD8211948
_publ_section_title
;
Structure prediction by ZEFSAII (Michael W. Deem and Ramdas Pophale) SiO2 
 PCOD8211948
Probable space group: P M M A
;
_chemical_formula_sum "Si O2"
_cell_formula_units_Z 44
_cell_length_a 8.605978
_cell_length_b 28.226054
_cell_length_c 9.653758
_cell_angle_alpha 90.000000
_cell_angle_beta 90.000000
_cell_angle_gamma 90.000000
_cell_volume 2345.021384
_symmetry_space_group_name_H-M "P M M A"
_symmetry_group_IT_number 51
_symmetry_cell_setting 'orthorhombic'
loop_
_space_group_symop_operation_xyz
x,y,z
1/2-x,-y,z
1/2+x,-y,-z
-x,y,-z
-x,-y,-z
1/2+x,y,-z
1/2-x,y,z
x,-y,z
loop_
_atom_site_type_symbol
_atom_site_label
_atom_site_fract_x
_atom_site_fract_y
_atom_site_fract_z
Si Si1 0.935096 0.815967 0.148065
Si Si2 0.933764 0.101972 0.347791
Si Si3 0.432481 0.000000 0.650792
Si Si4 0.434328 0.635254 0.653414
Si Si5 0.565700 0.714497 0.850000
Si Si6 0.566968 0.446894 0.144828
O O1 0.750000 0.812075 0.143412
O O2 0.997573 0.856129 0.251953
O O3 0.005253 0.765967 0.195272
O O4 0.000000 0.830884 0.000000
O O5 0.750000 0.105286 0.357641
O O6 0.984580 0.050383 0.280943
O O7 0.000000 0.109154 0.500000
O O8 0.500000 0.000000 0.500000
O O9 0.250000 0.000000 0.637624
O O10 0.500000 0.632820 0.500000
O O11 0.250000 0.641206 0.650372
O O12 0.508659 0.679171 0.732495
O O13 0.486631 0.587160 0.731071
O O14 0.750000 0.714578 0.858884
O O15 0.500000 0.699499 0.000000
O O16 0.750000 0.446813 0.130369
O O17 0.504246 0.500000 0.175858
O O18 0.500000 0.427568 0.000000
#
# Coordination Sequence:
#
# PCOD8211948 Si02
#       6
#     8   8   4   8   8   8
#     4  10  20  35  53  76 104 136 173 214 260 311
#     4   9  18  31  51  75 101 132 169 211 255 306
#     4   8  14  28  47  70  98 130 166 206 251 300
#     4  11  23  38  56  81 113 145 179 221 268 316
#     4  11  22  38  59  80 104 138 178 220 265 317
#     4   9  19  36  58  83 110 142 181 221 261 310
#
# _framework density 18.763154
#
# number of rings (size 3 to 8) (size 9 to 14) (size 15 to 20)
#    0.000    2.182    0.000    4.364    0.000    5.455 
#    0.000    2.273    0.000    0.000    0.000    0.000 
#    0.000    0.000    0.000    0.000    0.000    0.000 
#
# Total GULP energy -545388.785264 kJ/mol
# GULP energy per Si atom -12395.199665 kJ/mol
# Density = 1.872045 g / cm^3
# Si number density = 18.763154 Si / 1000 Ang^3
#
#
#
# Elastic Constant Matrix: (Units=GPa)
#
#
# Indices 1 2 3 4 5 6 
#
# 1 74.5198 49.7043 43.2839 0.0000 0.0000 0.0000
# 2 49.7043 162.9044 107.7612 0.0000 0.0000 0.0000
# 3 43.2839 107.7612 135.9505 0.0000 0.0000 0.0000
# 4 0.0000 0.0000 0.0000 54.7923 0.0000 0.0000
# 5 0.0000 0.0000 0.0000 0.0000 30.7547 0.0000
# 6 0.0000 0.0000 0.0000 0.0000 0.0000 72.7893
#
#
#
# Elastic Compliance Matrix: (Units=1/GPa)
#
#
# Indices 1 2 3 4 5 6 
#
# 1 0.017337 -0.003445 -0.002789 0.000000 0.000000 0.000000
# 2 -0.003445 0.013590 -0.009675 0.000000 0.000000 0.000000
# 3 -0.002789 -0.009675 0.015913 0.000000 0.000000 0.000000
# 4 0.000000 0.000000 0.000000 0.018251 0.000000 0.000000
# 5 0.000000 0.000000 0.000000 0.000000 0.032515 0.000000
# 6 0.000000 0.000000 0.000000 0.000000 0.000000 0.013738
#
#
# Mechanical properties :
#
#
# Convention : Reuss Voigt Hill
#
# Bulk Modulus (GPa) = 66.57311 86.09705 76.33508
# Shear Modulus (GPa) = 33.74524 43.17562 38.46043
#
# Velocity S-wave (km/s) = 4.24546 4.80217 4.53237
# Velocity P-wave (km/s) = 7.71943 8.75977 8.25600
#
# Compressibility (1/GPa) = 0.01502108
#
# Stress axis : x y z
#
# Youngs Moduli (GPa) = 57.68036 73.58525 62.84260
#
# Poissons Ratio (x) = 0.25347 0.17529
# Poissons Ratio (y) = 0.19868 0.60801
# Poissons Ratio (z) = 0.16090 0.71195
#
# Static dielectric constant tensor:
#      x y z
#    x 3.455390 0.000000 0.000000 
#    y 0.000000 4.097530 0.000000 
#    z 0.000000 0.000000 3.349690 
# 
# 
# High freq. dielectric constant tensor:
#      x y z
#    x 1.732960 0.000000 0.000000 
#    y 0.000000 1.750840 0.000000 
#    z 0.000000 0.000000 1.711180 
# 
# From -- ./inp_files/5705.got.cif
#   From: 2010.03.12/outbox.cif.g09.slc.cpg/sg51_3_cif.got.tgz:5705.got - 2010.04.16 13:43:02.
