data_PCOD8211057
_publ_section_title
;
Structure prediction by ZEFSAII (Michael W. Deem and Ramdas Pophale) SiO2 
 PCOD8211057
Probable space group: P M M A
;
_chemical_formula_sum "Si O2"
_cell_formula_units_Z 64
_cell_length_a 19.549605
_cell_length_b 17.449571
_cell_length_c 9.577094
_cell_angle_alpha 90.000000
_cell_angle_beta 90.000000
_cell_angle_gamma 90.000000
_cell_volume 3267.055342
_symmetry_space_group_name_H-M "P M M A"
_symmetry_group_IT_number 51
_symmetry_cell_setting 'orthorhombic'
loop_
_space_group_symop_operation_xyz
x,y,z
1/2-x,-y,z
1/2+x,-y,-z
-x,y,-z
-x,-y,-z
1/2+x,y,-z
1/2-x,y,z
x,-y,z
loop_
_atom_site_type_symbol
_atom_site_label
_atom_site_fract_x
_atom_site_fract_y
_atom_site_fract_z
Si Si1 0.669450 0.697062 0.517288
Si Si2 0.174550 0.330671 0.185930
Si Si3 0.671444 0.586462 0.272715
Si Si4 0.424715 0.352407 0.953090
Si Si5 0.934484 0.173656 0.091708
Si Si6 0.830859 0.867255 0.561101
Si Si7 0.446593 0.085640 0.616913
Si Si8 0.674774 0.151380 0.872176
O O1 0.750000 0.704642 0.526969
O O2 0.645351 0.655428 0.658830
O O3 0.645962 0.645754 0.389118
O O4 0.641622 0.783536 0.511583
O O5 0.250000 0.367249 0.164681
O O6 0.178840 0.241077 0.154722
O O7 0.120225 0.369602 0.087884
O O8 0.750000 0.606656 0.222890
O O9 0.670837 0.500000 0.331124
O O10 0.612574 0.593238 0.157646
O O11 0.423310 0.265052 0.897460
O O12 0.500000 0.379079 0.000000
O O13 0.943074 0.139835 0.246690
O O14 0.872849 0.133193 0.005570
O O15 0.000000 0.154998 0.000000
O O16 0.750000 0.878515 0.537983
O O17 0.872666 0.922351 0.458340
O O18 0.850117 0.884762 0.723907
O O19 0.500000 0.117781 0.500000
O O20 0.468111 0.000000 0.664830
O O21 0.750000 0.119237 0.909846
#
# Coordination Sequence:
#
# PCOD8211057 Si02
#       8
#     8   8   8   8   8   8   8   8
#     4   8  15  30  54  80 100 127 171 218 259 297
#     4   8  14  28  51  76 101 127 163 212 258 304
#     4  10  20  34  52  75 106 142 175 207 249 305
#     4  10  20  33  51  78 105 133 171 216 262 304
#     4  10  20  35  55  77 101 133 177 222 263 310
#     4   9  17  33  57  80 103 132 169 215 264 313
#     4  11  24  38  52  74 106 142 176 213 260 313
#     4   8  15  29  52  80 104 128 162 211 267 312
#
# _framework density 19.589504999999999
#
# number of rings (size 3 to 8) (size 9 to 14) (size 15 to 20)
#    0.000    2.750    0.000    3.375    0.000    2.750 
#    0.000    1.875    0.000    3.750    0.000    0.000 
#    0.000    0.000    0.000    0.000    0.000    0.000 
#
# Total GULP energy -792901.472974 kJ/mol
# GULP energy per Si atom -12389.085515 kJ/mol
# Density = 1.954492 g / cm^3
# Si number density = 19.589505 Si / 1000 Ang^3
#
#
#
# Elastic Constant Matrix: (Units=GPa)
#
#
# Indices 1 2 3 4 5 6 
#
# 1 95.3900 20.0997 56.7092 0.0000 0.0000 0.0000
# 2 20.0997 41.8659 25.4422 0.0000 0.0000 0.0000
# 3 56.7092 25.4422 120.1069 0.0000 0.0000 0.0000
# 4 0.0000 0.0000 0.0000 9.0007 0.0000 0.0000
# 5 0.0000 0.0000 0.0000 0.0000 29.4022 0.0000
# 6 0.0000 0.0000 0.0000 0.0000 0.0000 17.1546
#
#
#
# Elastic Compliance Matrix: (Units=1/GPa)
#
#
# Indices 1 2 3 4 5 6 
#
# 1 0.014965 -0.003318 -0.006363 0.000000 0.000000 0.000000
# 2 -0.003318 0.028151 -0.004397 0.000000 0.000000 0.000000
# 3 -0.006363 -0.004397 0.012262 0.000000 0.000000 0.000000
# 4 0.000000 0.000000 0.000000 0.111102 0.000000 0.000000
# 5 0.000000 0.000000 0.000000 0.000000 0.034011 0.000000
# 6 0.000000 0.000000 0.000000 0.000000 0.000000 0.058293
#
#
# Mechanical properties :
#
#
# Convention : Reuss Voigt Hill
#
# Bulk Modulus (GPa) = 36.73457 51.31832 44.02644
# Shear Modulus (GPa) = 16.89114 21.45229 19.17172
#
# Velocity S-wave (km/s) = 2.93960 3.31281 3.13177
# Velocity P-wave (km/s) = 5.50587 6.39427 5.96662
#
# Compressibility (1/GPa) = 0.02722232
#
# Stress axis : x y z
#
# Youngs Moduli (GPa) = 66.82150 35.52334 81.55530
#
# Poissons Ratio (x) = 0.11786 0.51895
# Poissons Ratio (y) = 0.22170 0.35856
# Poissons Ratio (z) = 0.42519 0.15618
#
# Static dielectric constant tensor:
#      x y z
#    x 3.667510 0.000000 0.000000 
#    y 0.000000 3.275800 0.000000 
#    z 0.000000 0.000000 4.397110 
# 
# 
# High freq. dielectric constant tensor:
#      x y z
#    x 1.759200 0.000000 0.000000 
#    y 0.000000 1.726610 0.000000 
#    z 0.000000 0.000000 1.766910 
# 
# From -- ./inp_files/10052.got.cif
#   From: 2010.03.12/outbox.cif.g09.slc.cpg/sg51_6_cif.got.tgz:10052.got - 2010.04.16 13:43:02.
