data_PCOD8211849
_publ_section_title
;
Structure prediction by ZEFSAII (Michael W. Deem and Ramdas Pophale) SiO2 
 PCOD8211849
Probable space group: P M M A
;
_chemical_formula_sum "Si O2"
_cell_formula_units_Z 40
_cell_length_a 14.440869
_cell_length_b 8.892787
_cell_length_c 16.181481
_cell_angle_alpha 90.000000
_cell_angle_beta 90.000000
_cell_angle_gamma 90.000000
_cell_volume 2078.018866
_symmetry_space_group_name_H-M "P M M A"
_symmetry_group_IT_number 51
_symmetry_cell_setting 'orthorhombic'
loop_
_space_group_symop_operation_xyz
x,y,z
1/2-x,-y,z
1/2+x,-y,-z
-x,y,-z
-x,-y,-z
1/2+x,y,-z
1/2-x,y,z
x,-y,z
loop_
_atom_site_type_symbol
_atom_site_label
_atom_site_fract_x
_atom_site_fract_y
_atom_site_fract_z
Si Si1 0.651049 0.329898 0.890196
Si Si2 0.400707 0.168532 0.957093
Si Si3 0.978626 0.679777 0.382370
Si Si4 0.641409 0.178968 0.522004
Si Si5 0.030002 0.322977 0.804654
O O1 0.750000 0.319373 0.843300
O O2 0.623774 0.500000 0.911900
O O3 0.572475 0.263215 0.830228
O O4 0.666165 0.246806 0.977466
O O5 0.396975 0.248455 0.867498
O O6 0.367189 0.000000 0.942332
O O7 0.500000 0.179425 0.000000
O O8 0.983713 0.500000 0.394121
O O9 0.896485 0.749086 0.437202
O O10 0.952750 0.726930 0.289190
O O11 0.079200 0.749768 0.404754
O O12 0.750000 0.220421 0.533928
O O13 0.627373 0.000000 0.519879
O O14 0.039394 0.500000 0.812828
#
# Coordination Sequence:
#
# PCOD8211849 Si02
#       5
#     8   8   8   8   8
#     4   9  17  30  48  69  96 130 165 203 248 297
#     4   9  17  29  46  67  92 125 161 196 236 282
#     4  10  20  34  56  83 107 134 171 218 265 309
#     4  10  21  37  56  77 105 141 175 209 256 316
#     4   9  18  32  50  73  99 128 164 204 249 300
#
# _framework density 19.249102000000001
#
# number of rings (size 3 to 8) (size 9 to 14) (size 15 to 20)
#    0.000    2.600    0.000    3.000    0.000    6.800 
#    0.000    3.000    0.000    1.200    0.000    0.000 
#    0.000    0.000    0.000    0.000    0.000    0.000 
#
# Total GULP energy -495675.893917 kJ/mol
# GULP energy per Si atom -12391.897348 kJ/mol
# Density = 1.920529 g / cm^3
# Si number density = 19.249102 Si / 1000 Ang^3
#
#
#
# Elastic Constant Matrix: (Units=GPa)
#
#
# Indices 1 2 3 4 5 6 
#
# 1 59.1327 15.0307 -8.3774 0.0000 0.0000 0.0000
# 2 15.0307 74.2521 30.3027 0.0000 0.0000 0.0000
# 3 -8.3774 30.3027 94.9702 0.0000 0.0000 0.0000
# 4 0.0000 0.0000 0.0000 14.4783 0.0000 0.0000
# 5 0.0000 0.0000 0.0000 0.0000 13.8196 0.0000
# 6 0.0000 0.0000 0.0000 0.0000 0.0000 19.8610
#
#
#
# Elastic Compliance Matrix: (Units=1/GPa)
#
#
# Indices 1 2 3 4 5 6 
#
# 1 0.018677 -0.005120 0.003281 0.000000 0.000000 0.000000
# 2 -0.005120 0.016887 -0.005840 0.000000 0.000000 0.000000
# 3 0.003281 -0.005840 0.012682 0.000000 0.000000 0.000000
# 4 0.000000 0.000000 0.000000 0.069069 0.000000 0.000000
# 5 0.000000 0.000000 0.000000 0.000000 0.072361 0.000000
# 6 0.000000 0.000000 0.000000 0.000000 0.000000 0.050350
#
#
# Mechanical properties :
#
#
# Convention : Reuss Voigt Hill
#
# Bulk Modulus (GPa) = 30.40455 33.58523 31.99489
# Shear Modulus (GPa) = 18.77247 22.39171 20.58209
#
# Velocity S-wave (km/s) = 3.12627 3.41436 3.27349
# Velocity P-wave (km/s) = 5.37224 5.74712 5.56284
#
# Compressibility (1/GPa) = 0.03288982
#
# Stress axis : x y z
#
# Youngs Moduli (GPa) = 53.54065 59.21578 78.84902
#
# Poissons Ratio (x) = 0.30318 -0.25872
# Poissons Ratio (y) = 0.27412 0.46048
# Poissons Ratio (z) = -0.17568 0.34582
#
# Static dielectric constant tensor:
#      x y z
#    x 3.422090 0.000000 0.000000 
#    y 0.000000 3.544930 0.000000 
#    z 0.000000 0.000000 3.568630 
# 
# 
# High freq. dielectric constant tensor:
#      x y z
#    x 1.738160 0.000000 0.000000 
#    y 0.000000 1.750670 0.000000 
#    z 0.000000 0.000000 1.740820 
# 
# From -- ./inp_files/29267.got.cif
#   From: 2010.03.12/outbox.cif.g09.slc.cpg/sg51_15_cif.got.tgz:29267.got - 2010.04.16 13:43:02.
