data_PCOD8211050
_publ_section_title
;
Structure prediction by ZEFSAII (Michael W. Deem and Ramdas Pophale) SiO2 
 PCOD8211050
Probable space group: P M M A
;
_chemical_formula_sum "Si O2"
_cell_formula_units_Z 48
_cell_length_a 9.083232
_cell_length_b 8.828993
_cell_length_c 30.751649
_cell_angle_alpha 90.000000
_cell_angle_beta 90.000000
_cell_angle_gamma 90.000000
_cell_volume 2466.152839
_symmetry_space_group_name_H-M "P M M A"
_symmetry_group_IT_number 51
_symmetry_cell_setting 'orthorhombic'
loop_
_space_group_symop_operation_xyz
x,y,z
1/2-x,-y,z
1/2+x,-y,-z
-x,y,-z
-x,-y,-z
1/2+x,y,-z
1/2-x,y,z
x,-y,z
loop_
_atom_site_type_symbol
_atom_site_label
_atom_site_fract_x
_atom_site_fract_y
_atom_site_fract_z
Si Si1 0.080837 0.322096 0.123368
Si Si2 0.422608 0.825340 0.371431
Si Si3 0.081582 0.675731 0.707115
Si Si4 0.917380 0.179471 0.042694
Si Si5 0.915966 0.819720 0.457938
Si Si6 0.579679 0.176505 0.202408
O O1 0.250000 0.272870 0.119297
O O2 0.060612 0.500000 0.119327
O O3 0.990729 0.243738 0.085471
O O4 0.020691 0.269181 0.169576
O O5 0.250000 0.804597 0.378163
O O6 0.475191 0.724541 0.331474
O O7 0.501731 0.763738 0.414683
O O8 0.464285 0.000000 0.362474
O O9 0.250000 0.709607 0.693635
O O10 0.057691 0.500000 0.717769
O O11 0.037295 0.771653 0.749311
O O12 0.750000 0.236266 0.040277
O O13 0.926799 0.000000 0.045134
O O14 0.000000 0.241540 0.000000
O O15 0.750000 0.756185 0.457638
O O16 0.000000 0.753573 0.500000
O O17 0.916282 0.000000 0.459838
O O18 0.750000 0.212543 0.192394
O O19 0.545201 0.000000 0.197451
#
# Coordination Sequence:
#
# PCOD8211050 Si02
#       6
#     8   8   8   8   8   8
#     4  11  24  39  56  82 116 152 188 226 272 326
#     4  10  20  33  51  77 108 142 181 223 268 320
#     4  10  21  37  57  80 107 141 180 222 271 326
#     4  10  21  38  61  87 114 147 188 232 278 327
#     4   9  16  27  46  73 105 139 176 221 270 318
#     4  10  21  38  61  86 110 140 181 227 275 327
#
# _framework density 19.463514
#
# number of rings (size 3 to 8) (size 9 to 14) (size 15 to 20)
#    0.000    2.000    0.000    3.500    0.000   10.333 
#    0.000    0.000    0.000    0.500    0.000    0.000 
#    0.000    0.000    0.000    0.000    0.000    0.000 
#
# Total GULP energy -595427.983630 kJ/mol
# GULP energy per Si atom -12404.749659 kJ/mol
# Density = 1.941921 g / cm^3
# Si number density = 19.463514 Si / 1000 Ang^3
#
#
#
# Elastic Constant Matrix: (Units=GPa)
#
#
# Indices 1 2 3 4 5 6 
#
# 1 168.3326 87.4118 112.2487 0.0000 0.0000 0.0000
# 2 87.4118 128.0988 87.8927 0.0000 0.0000 0.0000
# 3 112.2487 87.8927 175.6622 0.0000 0.0000 0.0000
# 4 0.0000 0.0000 0.0000 -60.9479 0.0000 0.0000
# 5 0.0000 0.0000 0.0000 0.0000 43.8973 0.0000
# 6 0.0000 0.0000 0.0000 0.0000 0.0000 14.5070
#
#
#
# Elastic Compliance Matrix: (Units=1/GPa)
#
#
# Indices 1 2 3 4 5 6 
#
# 1 0.011765 -0.004370 -0.005331 0.000000 0.000000 0.000000
# 2 -0.004370 0.013511 -0.003968 0.000000 0.000000 0.000000
# 3 -0.005331 -0.003968 0.011085 0.000000 0.000000 0.000000
# 4 0.000000 0.000000 0.000000 -0.016407 0.000000 0.000000
# 5 0.000000 0.000000 0.000000 0.000000 0.022780 0.000000
# 6 0.000000 0.000000 0.000000 0.000000 0.000000 0.068932
#
#
# Mechanical properties :
#
#
# Convention : Reuss Voigt Hill
#
# Bulk Modulus (GPa) = 110.83530 116.35558 113.59544
# Shear Modulus (GPa) = 35.20850 11.79398 23.50124
#
# Velocity S-wave (km/s) = 4.25779 2.46428 3.47861
# Velocity P-wave (km/s) = 9.01335 8.24670 8.63853
#
# Compressibility (1/GPa) = 0.00902240
#
# Stress axis : x y z
#
# Youngs Moduli (GPa) = 84.99776 74.01411 90.21532
#
# Poissons Ratio (x) = 0.32346 0.48096
# Poissons Ratio (y) = 0.37146 0.35794
# Poissons Ratio (z) = 0.45314 0.29366
#
# Static dielectric constant tensor:
#      x y z
#    x 4.552280 0.000000 0.000000 
#    y 0.000000 3.361620 0.000000 
#    z 0.000000 0.000000 3.885460 
# 
# 
# High freq. dielectric constant tensor:
#      x y z
#    x 1.766910 0.000000 0.000000 
#    y 0.000000 1.737990 0.000000 
#    z 0.000000 0.000000 1.773350 
# 
# From -- ./inp_files/36969.got.cif
#   From: 2010.03.12/outbox.cif.g09.slc.cpg/sg51_19_cif.got.tgz:36969.got - 2010.04.16 13:43:02.
