data_PCOD8211392
_publ_section_title
;
Structure prediction by ZEFSAII (Michael W. Deem and Ramdas Pophale) SiO2 
 PCOD8211392
Probable space group: P M M A
;
_chemical_formula_sum "Si O2"
_cell_formula_units_Z 56
_cell_length_a 20.098301
_cell_length_b 9.356649
_cell_length_c 17.710326
_cell_angle_alpha 90.000000
_cell_angle_beta 90.000000
_cell_angle_gamma 90.000000
_cell_volume 3330.475471
_symmetry_space_group_name_H-M "P M M A"
_symmetry_group_IT_number 51
_symmetry_cell_setting 'orthorhombic'
loop_
_space_group_symop_operation_xyz
x,y,z
1/2-x,-y,z
1/2+x,-y,-z
-x,y,-z
-x,-y,-z
1/2+x,y,-z
1/2-x,y,z
x,-y,z
loop_
_atom_site_type_symbol
_atom_site_label
_atom_site_fract_x
_atom_site_fract_y
_atom_site_fract_z
Si Si1 0.960603 0.331744 0.181954
Si Si2 0.326424 0.664853 0.062379
Si Si3 0.106925 0.332975 0.212921
Si Si4 0.421399 0.160260 0.513378
Si Si5 0.060448 0.341922 0.650584
Si Si6 0.903449 0.659924 0.625208
Si Si7 0.429594 0.831170 0.962849
O O1 0.957478 0.500000 0.162354
O O2 0.925553 0.299171 0.262434
O O3 0.922141 0.242343 0.118592
O O4 0.036371 0.272396 0.183436
O O5 0.250000 0.691734 0.041889
O O6 0.347025 0.500000 0.047035
O O7 0.336713 0.700810 0.151261
O O8 0.370439 0.770872 0.013657
O O9 0.095224 0.500000 0.226308
O O10 0.127210 0.274364 0.296417
O O11 0.500000 0.164019 0.500000
O O12 0.403540 0.233427 0.593365
O O13 0.383641 0.240933 0.445271
O O14 0.393950 0.000000 0.516006
O O15 0.089011 0.500000 0.634487
O O16 0.982185 0.342956 0.636352
O O17 0.876853 0.500000 0.608269
O O18 0.420925 0.000000 0.954492
O O19 0.500000 0.789914 0.000000
#
# Coordination Sequence:
#
# PCOD8211392 Si02
#       7
#     8   8   8   8   8   8   8
#     4   9  16  28  47  66  86 117 156 198 236 277
#     4  10  20  34  53  73  93 122 160 201 244 287
#     4   8  14  26  44  65  87 113 150 193 234 273
#     4   9  15  21  30  49  79 113 144 177 218 262
#     4   8  14  23  36  55  78 109 147 182 223 271
#     4   8  13  22  36  52  75 110 147 180 215 263
#     4  11  22  33  47  70  97 126 159 195 241 294
#
# _framework density 16.814415
#
# number of rings (size 3 to 8) (size 9 to 14) (size 15 to 20)
#    0.000    3.000    1.429    2.571    0.000    3.143 
#    0.000    2.857    0.000    0.000    0.000    0.000 
#    0.000    1.143    0.000    8.857    0.000    4.000 
#
# Total GULP energy -694046.627824 kJ/mol
# GULP energy per Si atom -12393.689783 kJ/mol
# Density = 1.677615 g / cm^3
# Si number density = 16.814415 Si / 1000 Ang^3
#
#
#
# Elastic Constant Matrix: (Units=GPa)
#
#
# Indices 1 2 3 4 5 6 
#
# 1 37.6852 24.3109 29.0663 0.0000 0.0000 0.0000
# 2 24.3109 96.3096 75.0382 0.0000 0.0000 0.0000
# 3 29.0663 75.0382 144.2225 0.0000 0.0000 0.0000
# 4 0.0000 0.0000 0.0000 14.1255 0.0000 0.0000
# 5 0.0000 0.0000 0.0000 0.0000 12.4796 0.0000
# 6 0.0000 0.0000 0.0000 0.0000 0.0000 10.7975
#
#
#
# Elastic Compliance Matrix: (Units=1/GPa)
#
#
# Indices 1 2 3 4 5 6 
#
# 1 0.032946 -0.005286 -0.003890 0.000000 0.000000 0.000000
# 2 -0.005286 0.018310 -0.008461 0.000000 0.000000 0.000000
# 3 -0.003890 -0.008461 0.012120 0.000000 0.000000 0.000000
# 4 0.000000 0.000000 0.000000 0.070794 0.000000 0.000000
# 5 0.000000 0.000000 0.000000 0.000000 0.080131 0.000000
# 6 0.000000 0.000000 0.000000 0.000000 0.000000 0.092614
#
#
# Mechanical properties :
#
#
# Convention : Reuss Voigt Hill
#
# Bulk Modulus (GPa) = 35.58445 59.44981 47.51713
# Shear Modulus (GPa) = 14.22253 17.46731 15.84492
#
# Velocity S-wave (km/s) = 2.91151 3.22658 3.07309
# Velocity P-wave (km/s) = 5.70189 7.02242 6.39632
#
# Compressibility (1/GPa) = 0.02810217
#
# Stress axis : x y z
#
# Youngs Moduli (GPa) = 30.35313 54.61530 82.50834
#
# Poissons Ratio (x) = 0.28868 0.32093
# Poissons Ratio (y) = 0.16044 0.69812
# Poissons Ratio (z) = 0.11806 0.46211
#
# Static dielectric constant tensor:
#      x y z
#    x 2.544660 0.000000 0.000000 
#    y 0.000000 3.089640 0.000000 
#    z 0.000000 0.000000 3.472690 
# 
# 
# High freq. dielectric constant tensor:
#      x y z
#    x 1.573590 0.000000 0.000000 
#    y 0.000000 1.633470 0.000000 
#    z 0.000000 0.000000 1.667250 
# 
# From -- ./inp_files/30466.got.cif
#   From: 2010.03.12/outbox.cif.g09.slc.cpg/sg51_16_cif.got.tgz:30466.got - 2010.04.16 13:43:02.
