data_PCOD8211103
_publ_section_title
;
Structure prediction by ZEFSAII (Michael W. Deem and Ramdas Pophale) SiO2 
 PCOD8211103
Probable space group: P M M A
;
_chemical_formula_sum "Si O2"
_cell_formula_units_Z 48
_cell_length_a 8.848732
_cell_length_b 30.296392
_cell_length_c 9.582153
_cell_angle_alpha 90.000000
_cell_angle_beta 90.000000
_cell_angle_gamma 90.000000
_cell_volume 2568.828166
_symmetry_space_group_name_H-M "P M M A"
_symmetry_group_IT_number 51
_symmetry_cell_setting 'orthorhombic'
loop_
_space_group_symop_operation_xyz
x,y,z
1/2-x,-y,z
1/2+x,-y,-z
-x,y,-z
-x,-y,-z
1/2+x,y,-z
1/2-x,y,z
x,-y,z
loop_
_atom_site_type_symbol
_atom_site_label
_atom_site_fract_x
_atom_site_fract_y
_atom_site_fract_z
Si Si1 0.428477 0.284440 0.651328
Si Si2 0.074568 0.885382 0.142391
Si Si3 0.923871 0.049008 0.351515
Si Si4 0.072925 0.547806 0.151109
Si Si5 0.427802 0.634342 0.848099
Si Si6 0.573012 0.783019 0.854216
O O1 0.500000 0.290871 0.500000
O O2 0.250000 0.278543 0.636224
O O3 0.472339 0.326266 0.745564
O O4 0.497248 0.241417 0.724325
O O5 0.250000 0.894790 0.130603
O O6 0.039448 0.834310 0.171955
O O7 0.006708 0.914148 0.264013
O O8 0.000000 0.901305 0.000000
O O9 0.750000 0.062371 0.366765
O O10 0.000000 0.049037 0.500000
O O11 0.940608 0.000000 0.284288
O O12 0.250000 0.557333 0.137832
O O13 0.044760 0.500000 0.226491
O O14 0.993032 0.589537 0.225600
O O15 0.000000 0.545332 0.000000
O O16 0.250000 0.629880 0.867212
O O17 0.500000 0.642853 0.000000
O O18 0.750000 0.772346 0.860666
O O19 0.500000 0.767064 0.000000
#
# Coordination Sequence:
#
# PCOD8211103 Si02
#       6
#     8   8   8   8   8   8
#     4  11  24  39  56  79 107 141 180 222 269 319
#     4  10  21  37  58  84 112 143 179 221 269 319
#     4  10  21  37  57  81 110 146 186 226 269 318
#     4   9  16  26  44  72 103 134 169 211 258 306
#     4  10  20  33  52  78 105 137 175 214 261 314
#     4  10  21  38  60  84 110 141 178 220 267 320
#
# _framework density 18.685563999999999
#
# number of rings (size 3 to 8) (size 9 to 14) (size 15 to 20)
#    0.000    2.000    0.000    4.500    0.000    9.000 
#    0.000    0.000    0.000    0.500    0.000    0.000 
#    0.000    0.000    0.000    0.000    0.000    0.000 
#
# Total GULP energy -595108.184186 kJ/mol
# GULP energy per Si atom -12398.087171 kJ/mol
# Density = 1.864304 g / cm^3
# Si number density = 18.685564 Si / 1000 Ang^3
#
#
#
# Elastic Constant Matrix: (Units=GPa)
#
#
# Indices 1 2 3 4 5 6 
#
# 1 110.7599 65.3273 51.2269 0.0000 0.0000 0.0000
# 2 65.3273 105.0828 60.2786 0.0000 0.0000 0.0000
# 3 51.2269 60.2786 95.8085 0.0000 0.0000 0.0000
# 4 0.0000 0.0000 0.0000 182.3607 0.0000 0.0000
# 5 0.0000 0.0000 0.0000 0.0000 34.0417 0.0000
# 6 0.0000 0.0000 0.0000 0.0000 0.0000 30.7427
#
#
#
# Elastic Compliance Matrix: (Units=1/GPa)
#
#
# Indices 1 2 3 4 5 6 
#
# 1 0.014912 -0.007349 -0.003350 0.000000 0.000000 0.000000
# 2 -0.007349 0.018512 -0.007718 0.000000 0.000000 0.000000
# 3 -0.003350 -0.007718 0.017084 0.000000 0.000000 0.000000
# 4 0.000000 0.000000 0.000000 0.005484 0.000000 0.000000
# 5 0.000000 0.000000 0.000000 0.000000 0.029376 0.000000
# 6 0.000000 0.000000 0.000000 0.000000 0.000000 0.032528
#
#
# Mechanical properties :
#
#
# Convention : Reuss Voigt Hill
#
# Bulk Modulus (GPa) = 73.12163 73.92408 73.52286
# Shear Modulus (GPa) = 31.38985 58.41693 44.90339
#
# Velocity S-wave (km/s) = 4.10310 5.59741 4.90747
# Velocity P-wave (km/s) = 7.85270 9.02345 8.45836
#
# Compressibility (1/GPa) = 0.01367584
#
# Stress axis : x y z
#
# Youngs Moduli (GPa) = 67.05851 54.01855 58.53442
#
# Poissons Ratio (x) = 0.39700 0.19606
# Poissons Ratio (y) = 0.49283 0.45174
# Poissons Ratio (z) = 0.22461 0.41689
#
# Static dielectric constant tensor:
#      x y z
#    x 3.630790 0.000000 0.000000 
#    y 0.000000 3.958500 0.000000 
#    z 0.000000 0.000000 3.182680 
# 
# 
# High freq. dielectric constant tensor:
#      x y z
#    x 1.746840 0.000000 0.000000 
#    y 0.000000 1.744260 0.000000 
#    z 0.000000 0.000000 1.694790 
# 
# From -- ./inp_files/6084.got.cif
#   From: 2010.03.12/outbox.cif.g09.slc.cpg/sg51_4_cif.got.tgz:6084.got - 2010.04.16 13:43:02.
