data_PCOD8211325
_publ_section_title
;
Structure prediction by ZEFSAII (Michael W. Deem and Ramdas Pophale) SiO2 
 PCOD8211325
Probable space group: P M M A
;
_chemical_formula_sum "Si O2"
_cell_formula_units_Z 64
_cell_length_a 19.699064
_cell_length_b 8.904002
_cell_length_c 20.323741
_cell_angle_alpha 90.000000
_cell_angle_beta 90.000000
_cell_angle_gamma 90.000000
_cell_volume 3564.794440
_symmetry_space_group_name_H-M "P M M A"
_symmetry_group_IT_number 51
_symmetry_cell_setting 'orthorhombic'
loop_
_space_group_symop_operation_xyz
x,y,z
1/2-x,-y,z
1/2+x,-y,-z
-x,y,-z
-x,-y,-z
1/2+x,y,-z
1/2-x,y,z
x,-y,z
loop_
_atom_site_type_symbol
_atom_site_label
_atom_site_fract_x
_atom_site_fract_y
_atom_site_fract_z
Si Si1 0.925889 0.676169 0.324219
Si Si2 0.673197 0.322753 0.066933
Si Si3 0.579285 0.322960 0.680790
Si Si4 0.569809 0.321478 0.177537
Si Si5 0.427885 0.822101 0.181280
Si Si6 0.328070 0.675793 0.563688
Si Si7 0.827232 0.823947 0.933074
Si Si8 0.170680 0.826768 0.427300
O O1 0.915513 0.500000 0.326402
O O2 0.908265 0.733047 0.250615
O O3 0.874022 0.744785 0.377574
O O4 0.003108 0.720496 0.342049
O O5 0.750000 0.267843 0.080616
O O6 0.669524 0.500000 0.060797
O O7 0.627064 0.265863 0.127109
O O8 0.645254 0.254102 0.999206
O O9 0.586121 0.500000 0.691076
O O10 0.596659 0.243689 0.749380
O O11 0.631488 0.268436 0.626601
O O12 0.559130 0.500000 0.176105
O O13 0.499336 0.244818 0.157739
O O14 0.372462 0.771187 0.127944
O O15 0.433503 0.000000 0.187251
O O16 0.250000 0.705078 0.582668
O O17 0.341789 0.500000 0.551149
O O18 0.349252 0.764819 0.498619
O O19 0.750000 0.774033 0.918515
O O20 0.832857 0.000000 0.944380
O O21 0.250000 0.804251 0.413823
O O22 0.149253 0.000000 0.422744
#
# Coordination Sequence:
#
# PCOD8211325 Si02
#       8
#     8   8   8   8   8   8   8   8
#     4   8  16  31  50  73 100 129 161 201 246 289
#     4   9  18  32  51  75 101 130 167 210 251 293
#     4  10  20  35  54  75 101 131 165 206 250 297
#     4   9  18  33  51  73 103 135 166 204 251 298
#     4  10  20  34  52  74 100 131 168 207 249 299
#     4   9  17  31  52  75  98 128 167 205 241 288
#     4   9  19  35  52  70  96 130 165 203 249 300
#     4  10  21  36  52  72 101 133 164 203 249 295
#
# _framework density 17.953348999999999
#
# number of rings (size 3 to 8) (size 9 to 14) (size 15 to 20)
#    0.000    2.750    0.000    1.875    0.000    4.250 
#    0.000   11.875    0.000    0.000    0.000    3.500 
#    0.000    0.000    0.000    0.000    0.000    0.000 
#
# Total GULP energy -793604.947770 kJ/mol
# GULP energy per Si atom -12400.077309 kJ/mol
# Density = 1.791249 g / cm^3
# Si number density = 17.953349 Si / 1000 Ang^3
#
#
#
# Elastic Constant Matrix: (Units=GPa)
#
#
# Indices 1 2 3 4 5 6 
#
# 1 95.7373 31.8168 90.0011 0.0000 0.0000 0.0000
# 2 31.8168 41.0770 38.0612 0.0000 0.0000 0.0000
# 3 90.0011 38.0612 139.3051 0.0000 0.0000 0.0000
# 4 0.0000 0.0000 0.0000 16.4184 0.0000 0.0000
# 5 0.0000 0.0000 0.0000 0.0000 39.9863 0.0000
# 6 0.0000 0.0000 0.0000 0.0000 0.0000 23.8975
#
#
#
# Elastic Compliance Matrix: (Units=1/GPa)
#
#
# Indices 1 2 3 4 5 6 
#
# 1 0.027865 -0.006564 -0.016209 0.000000 0.000000 0.000000
# 2 -0.006564 0.034143 -0.005088 0.000000 0.000000 0.000000
# 3 -0.016209 -0.005088 0.019041 0.000000 0.000000 0.000000
# 4 0.000000 0.000000 0.000000 0.060907 0.000000 0.000000
# 5 0.000000 0.000000 0.000000 0.000000 0.025009 0.000000
# 6 0.000000 0.000000 0.000000 0.000000 0.000000 0.041845
#
#
# Mechanical properties :
#
#
# Convention : Reuss Voigt Hill
#
# Bulk Modulus (GPa) = 39.48401 66.20862 52.84631
# Shear Modulus (GPa) = 18.31678 23.80979 21.06329
#
# Velocity S-wave (km/s) = 3.19759 3.64566 3.42895
# Velocity P-wave (km/s) = 5.97269 7.39455 6.72132
#
# Compressibility (1/GPa) = 0.02532671
#
# Stress axis : x y z
#
# Youngs Moduli (GPa) = 35.88777 29.28862 52.51845
#
# Poissons Ratio (x) = 0.19224 0.85128
# Poissons Ratio (y) = 0.23556 0.26721
# Poissons Ratio (z) = 0.58171 0.14902
#
# Static dielectric constant tensor:
#      x y z
#    x 3.433070 0.000000 0.000000 
#    y 0.000000 3.190000 0.000000 
#    z 0.000000 0.000000 3.503540 
# 
# 
# High freq. dielectric constant tensor:
#      x y z
#    x 1.693980 0.000000 0.000000 
#    y 0.000000 1.683410 0.000000 
#    z 0.000000 0.000000 1.702830 
# 
# From -- ./inp_files/33965.got.cif
#   From: 2010.03.12/outbox.cif.g09.slc.cpg/sg51_17_cif.got.tgz:33965.got - 2010.04.16 13:43:02.
