data_PCOD8211206
_publ_section_title
;
Structure prediction by ZEFSAII (Michael W. Deem and Ramdas Pophale) SiO2 
 PCOD8211206
Probable space group: P M M A
;
_chemical_formula_sum "Si O2"
_cell_formula_units_Z 40
_cell_length_a 15.348491
_cell_length_b 9.203281
_cell_length_c 14.308063
_cell_angle_alpha 90.000000
_cell_angle_beta 90.000000
_cell_angle_gamma 90.000000
_cell_volume 2021.106552
_symmetry_space_group_name_H-M "P M M A"
_symmetry_group_IT_number 51
_symmetry_cell_setting 'orthorhombic'
loop_
_space_group_symop_operation_xyz
x,y,z
1/2-x,-y,z
1/2+x,-y,-z
-x,y,-z
-x,-y,-z
1/2+x,y,-z
1/2-x,y,z
x,-y,z
loop_
_atom_site_type_symbol
_atom_site_label
_atom_site_fract_x
_atom_site_fract_y
_atom_site_fract_z
Si Si1 0.350871 0.334063 0.581329
Si Si2 0.648696 0.830413 0.599244
Si Si3 0.406642 0.333933 0.222558
Si Si4 0.899029 0.665927 0.213642
Si Si5 0.250000 0.670160 0.088668
Si Si6 0.250000 0.827212 0.893455
O O1 0.250000 0.300698 0.600470
O O2 0.366210 0.500000 0.551820
O O3 0.387866 0.235926 0.497373
O O4 0.400886 0.294920 0.676480
O O5 0.750000 0.790231 0.610258
O O6 0.597725 0.764653 0.686171
O O7 0.631604 0.000000 0.596727
O O8 0.389826 0.500000 0.253234
O O9 0.502240 0.315724 0.176443
O O10 0.335575 0.285761 0.146736
O O11 0.865923 0.500000 0.199673
O O12 0.836672 0.773539 0.158277
O O13 0.250000 0.500000 0.062028
O O14 0.250000 0.767173 0.997445
O O15 0.250000 0.000000 0.894932
#
# Coordination Sequence:
#
# PCOD8211206 Si02
#       6
#     8   8   8   8   4   4
#     4   9  17  32  56  82 112 154 199 242 286 338
#     4  10  20  33  53  83 122 163 197 238 290 346
#     4  10  21  38  64  91 116 152 200 249 292 342
#     4  10  21  40  64  90 118 152 198 248 294 343
#     4  10  22  42  65  88 115 150 193 244 298 352
#     4  12  26  42  63  88 117 154 189 238 302 362
#
# _framework density 19.791138
#
# number of rings (size 3 to 8) (size 9 to 14) (size 15 to 20)
#    0.000    2.000    2.000    1.500    0.000    4.800 
#    0.000    8.000    0.000    0.000    0.000    0.000 
#    0.000    0.000    0.000    0.000    0.000    0.000 
#
# Total GULP energy -496140.136000 kJ/mol
# GULP energy per Si atom -12403.503400 kJ/mol
# Density = 1.974609 g / cm^3
# Si number density = 19.791138 Si / 1000 Ang^3
#
#
#
# Elastic Constant Matrix: (Units=GPa)
#
#
# Indices 1 2 3 4 5 6 
#
# 1 106.4988 52.7696 58.4437 0.0000 0.0000 0.0000
# 2 52.7696 104.4152 72.1098 0.0000 0.0000 0.0000
# 3 58.4437 72.1098 122.7684 0.0000 0.0000 0.0000
# 4 0.0000 0.0000 0.0000 -2.9254 0.0000 0.0000
# 5 0.0000 0.0000 0.0000 0.0000 4.3438 0.0000
# 6 0.0000 0.0000 0.0000 0.0000 0.0000 20.1645
#
#
#
# Elastic Compliance Matrix: (Units=1/GPa)
#
#
# Indices 1 2 3 4 5 6 
#
# 1 0.013662 -0.004060 -0.004119 0.000000 0.000000 0.000000
# 2 -0.004060 0.017320 -0.008240 0.000000 0.000000 0.000000
# 3 -0.004119 -0.008240 0.014946 0.000000 0.000000 0.000000
# 4 0.000000 0.000000 0.000000 -0.341828 0.000000 0.000000
# 5 0.000000 0.000000 0.000000 0.000000 0.230213 0.000000
# 6 0.000000 0.000000 0.000000 0.000000 0.000000 0.049592
#
#
# Mechanical properties :
#
#
# Convention : Reuss Voigt Hill
#
# Bulk Modulus (GPa) = 76.39718 77.81430 77.10574
# Shear Modulus (GPa) = 236.88781 14.34053 125.61417
#
# Velocity S-wave (km/s) = 10.95234 2.69475 7.97544
# Velocity P-wave (km/s) = 14.09340 7.00609 11.12900
#
# Compressibility (1/GPa) = 0.01308949
#
# Stress axis : x y z
#
# Youngs Moduli (GPa) = 73.19663 57.73772 66.90556
#
# Poissons Ratio (x) = 0.23440 0.27559
# Poissons Ratio (y) = 0.29716 0.55133
# Poissons Ratio (z) = 0.30151 0.47578
#
# Static dielectric constant tensor:
#      x y z
#    x 3.646150 0.000000 0.000000 
#    y 0.000000 3.458510 0.000000 
#    z 0.000000 0.000000 3.519330 
# 
# 
# High freq. dielectric constant tensor:
#      x y z
#    x 1.774860 0.000000 0.000000 
#    y 0.000000 1.759280 0.000000 
#    z 0.000000 0.000000 1.767030 
# 
# From -- ./inp_files/23745.got.cif
#   From: 2010.03.12/outbox.cif.g09.slc.cpg/sg51_12_cif.got.tgz:23745.got - 2010.04.16 13:43:02.
