data_PCOD8211559
_publ_section_title
;
Structure prediction by ZEFSAII (Michael W. Deem and Ramdas Pophale) SiO2 
 PCOD8211559
Probable space group: P M M A
;
_chemical_formula_sum "Si O2"
_cell_formula_units_Z 40
_cell_length_a 9.286863
_cell_length_b 9.946910
_cell_length_c 24.110191
_cell_angle_alpha 90.000000
_cell_angle_beta 90.000000
_cell_angle_gamma 90.000000
_cell_volume 2227.193129
_symmetry_space_group_name_H-M "P M M A"
_symmetry_group_IT_number 51
_symmetry_cell_setting 'orthorhombic'
loop_
_space_group_symop_operation_xyz
x,y,z
1/2-x,-y,z
1/2+x,-y,-z
-x,y,-z
-x,-y,-z
1/2+x,y,-z
1/2-x,y,z
x,-y,z
loop_
_atom_site_type_symbol
_atom_site_label
_atom_site_fract_x
_atom_site_fract_y
_atom_site_fract_z
Si Si1 0.411838 0.340641 0.947984
Si Si2 0.582799 0.345611 0.839003
Si Si3 0.580536 0.500000 0.441483
Si Si4 0.083229 0.000000 0.556273
Si Si5 0.418457 0.247000 0.630625
Si Si6 0.918767 0.155546 0.736886
O O1 0.250000 0.281246 0.948071
O O2 0.406357 0.500000 0.953191
O O3 0.490898 0.298582 0.891624
O O4 0.500000 0.279956 0.000000
O O5 0.750000 0.334553 0.854973
O O6 0.546167 0.500000 0.821370
O O7 0.541235 0.240735 0.791186
O O8 0.750000 0.500000 0.454373
O O9 0.500000 0.500000 0.500000
O O10 0.532666 0.375841 0.403860
O O11 0.035817 0.873913 0.591710
O O12 0.000000 0.000000 0.500000
O O13 0.250000 0.000000 0.541624
O O14 0.250000 0.248678 0.644826
O O15 0.502835 0.233906 0.687713
O O16 0.750000 0.159793 0.724973
O O17 0.971131 0.000000 0.742849
#
# Coordination Sequence:
#
# PCOD8211559 Si02
#       6
#     8   8   4   4   8   8
#     4   9  16  27  46  74 106 138 172 211 257 306
#     4   9  18  32  50  74 104 136 171 213 258 304
#     4  10  22  38  56  80 108 136 167 208 259 312
#     4  10  20  34  54  76 100 130 167 208 251 300
#     4  10  21  37  54  76 105 136 169 209 258 309
#     4  10  21  36  54  77 104 137 177 217 259 307
#
# _framework density 17.959824000000001
#
# number of rings (size 3 to 8) (size 9 to 14) (size 15 to 20)
#    0.000    2.400    1.000    1.200    1.400    4.800 
#    0.000    0.000    0.000    0.600    0.000    0.000 
#    0.000    0.000    0.000    0.000    0.000    0.000 
#
# Total GULP energy -495967.904711 kJ/mol
# GULP energy per Si atom -12399.197618 kJ/mol
# Density = 1.791895 g / cm^3
# Si number density = 17.959824 Si / 1000 Ang^3
#
#
#
# Elastic Constant Matrix: (Units=GPa)
#
#
# Indices 1 2 3 4 5 6 
#
# 1 78.2368 38.9117 84.1916 0.0000 0.0000 0.0000
# 2 38.9117 116.9212 75.1045 0.0000 0.0000 0.0000
# 3 84.1916 75.1045 175.8719 0.0000 0.0000 0.0000
# 4 0.0000 0.0000 0.0000 32.5794 0.0000 0.0000
# 5 0.0000 0.0000 0.0000 0.0000 42.1739 0.0000
# 6 0.0000 0.0000 0.0000 0.0000 0.0000 23.8779
#
#
#
# Elastic Compliance Matrix: (Units=1/GPa)
#
#
# Indices 1 2 3 4 5 6 
#
# 1 0.026434 -0.000922 -0.012261 0.000000 0.000000 0.000000
# 2 -0.000922 0.011818 -0.004605 0.000000 0.000000 0.000000
# 3 -0.012261 -0.004605 0.013522 0.000000 0.000000 0.000000
# 4 0.000000 0.000000 0.000000 0.030694 0.000000 0.000000
# 5 0.000000 0.000000 0.000000 0.000000 0.023711 0.000000
# 6 0.000000 0.000000 0.000000 0.000000 0.000000 0.041880
#
#
# Mechanical properties :
#
#
# Convention : Reuss Voigt Hill
#
# Bulk Modulus (GPa) = 61.73524 85.27170 73.50347
# Shear Modulus (GPa) = 26.45030 31.24771 28.84900
#
# Velocity S-wave (km/s) = 3.84180 4.17570 4.01222
# Velocity P-wave (km/s) = 7.35717 8.41610 7.90439
#
# Compressibility (1/GPa) = 0.01619820
#
# Stress axis : x y z
#
# Youngs Moduli (GPa) = 37.83029 84.61778 73.95396
#
# Poissons Ratio (x) = 0.07799 0.90672
# Poissons Ratio (y) = 0.03487 0.34059
# Poissons Ratio (z) = 0.46382 0.38971
#
# Static dielectric constant tensor:
#      x y z
#    x 3.324520 0.000000 0.000000 
#    y 0.000000 3.310750 0.000000 
#    z 0.000000 0.000000 3.337960 
# 
# 
# High freq. dielectric constant tensor:
#      x y z
#    x 1.693740 0.000000 0.000000 
#    y 0.000000 1.680920 0.000000 
#    z 0.000000 0.000000 1.704830 
# 
# From -- ./inp_files/36088.got.cif
#   From: 2010.03.12/outbox.cif.g09.slc.cpg/sg51_19_cif.got.tgz:36088.got - 2010.04.16 13:43:02.
