data_PCOD8211208
_publ_section_title
;
Structure prediction by ZEFSAII (Michael W. Deem and Ramdas Pophale) SiO2 
 PCOD8211208
Probable space group: P M M A
;
_chemical_formula_sum "Si O2"
_cell_formula_units_Z 64
_cell_length_a 31.476377
_cell_length_b 8.643109
_cell_length_c 12.238553
_cell_angle_alpha 90.000000
_cell_angle_beta 90.000000
_cell_angle_gamma 90.000000
_cell_volume 3329.544328
_symmetry_space_group_name_H-M "P M M A"
_symmetry_group_IT_number 51
_symmetry_cell_setting 'orthorhombic'
loop_
_space_group_symop_operation_xyz
x,y,z
1/2-x,-y,z
1/2+x,-y,-z
-x,y,-z
-x,-y,-z
1/2+x,y,-z
1/2-x,y,z
x,-y,z
loop_
_atom_site_type_symbol
_atom_site_label
_atom_site_fract_x
_atom_site_fract_y
_atom_site_fract_z
Si Si1 0.430040 0.182325 0.139372
Si Si2 0.895772 0.817419 0.239633
Si Si3 0.298463 0.321738 0.145497
Si Si4 0.965111 0.667025 0.587369
Si Si5 0.633499 0.679404 0.029406
Si Si6 0.011571 0.684250 0.792421
Si Si7 0.639749 0.819194 0.686515
Si Si8 0.616079 0.316398 0.474623
O O1 0.476318 0.263449 0.118718
O O2 0.404047 0.235521 0.250358
O O3 0.436175 0.000000 0.139516
O O4 0.403102 0.230505 0.034732
O O5 0.862895 0.751169 0.150481
O O6 0.942362 0.759951 0.202282
O O7 0.878386 0.759497 0.356455
O O8 0.895424 0.000000 0.240170
O O9 0.250000 0.268644 0.131808
O O10 0.302245 0.500000 0.181644
O O11 0.320126 0.217914 0.237815
O O12 0.321247 0.295935 0.028978
O O13 0.947816 0.500000 0.630690
O O14 0.926998 0.756139 0.527272
O O15 0.000000 0.631294 0.500000
O O16 0.987806 0.756736 0.685885
O O17 0.620825 0.500000 0.035807
O O18 0.017832 0.500000 0.789243
O O19 0.649052 0.733818 0.569704
O O20 0.638015 0.000000 0.664547
O O21 0.615115 0.500000 0.457111
#
# Coordination Sequence:
#
# PCOD8211208 Si02
#       8
#     8   8   8   8   8   8   8   8
#     4  10  20  34  52  78 111 144 182 235 289 327
#     4  12  25  38  51  75 111 150 192 239 284 328
#     4   9  19  38  66  95 116 137 172 218 267 326
#     4   9  16  28  47  72  99 134 185 238 274 311
#     4  10  21  39  60  81 107 144 186 226 274 335
#     4  11  20  33  52  75 103 144 197 242 282 328
#     4  10  20  33  53  86 121 147 174 216 275 334
#     4  11  20  34  55  78 107 148 191 229 272 322
#
# _framework density 19.221848999999999
#
# number of rings (size 3 to 8) (size 9 to 14) (size 15 to 20)
#    0.000    1.750    2.500    3.000    0.000    2.250 
#    0.000    3.125    0.000    0.750    0.000    1.750 
#    0.000    0.000    0.000    0.000    0.000    0.000 
#
# Total GULP energy -793048.592639 kJ/mol
# GULP energy per Si atom -12391.384260 kJ/mol
# Density = 1.917810 g / cm^3
# Si number density = 19.221849 Si / 1000 Ang^3
#
#
#
# Elastic Constant Matrix: (Units=GPa)
#
#
# Indices 1 2 3 4 5 6 
#
# 1 82.8722 31.6601 36.6489 0.0000 0.0000 0.0000
# 2 31.6601 79.4148 31.2662 0.0000 0.0000 0.0000
# 3 36.6489 31.2662 110.7454 0.0000 0.0000 0.0000
# 4 0.0000 0.0000 0.0000 31.4932 0.0000 0.0000
# 5 0.0000 0.0000 0.0000 0.0000 16.7460 0.0000
# 6 0.0000 0.0000 0.0000 0.0000 0.0000 20.9533
#
#
#
# Elastic Compliance Matrix: (Units=1/GPa)
#
#
# Indices 1 2 3 4 5 6 
#
# 1 0.015550 -0.004695 -0.003820 0.000000 0.000000 0.000000
# 2 -0.004695 0.015584 -0.002846 0.000000 0.000000 0.000000
# 3 -0.003820 -0.002846 0.011098 0.000000 0.000000 0.000000
# 4 0.000000 0.000000 0.000000 0.031753 0.000000 0.000000
# 5 0.000000 0.000000 0.000000 0.000000 0.059716 0.000000
# 6 0.000000 0.000000 0.000000 0.000000 0.000000 0.047725
#
#
# Mechanical properties :
#
#
# Convention : Reuss Voigt Hill
#
# Bulk Modulus (GPa) = 51.25933 52.46476 51.86205
# Shear Modulus (GPa) = 23.73582 25.40231 24.56907
#
# Velocity S-wave (km/s) = 3.51783 3.63923 3.57905
# Velocity P-wave (km/s) = 6.57460 6.70912 6.64220
#
# Compressibility (1/GPa) = 0.01950864
#
# Stress axis : x y z
#
# Youngs Moduli (GPa) = 64.30868 64.16647 90.11011
#
# Poissons Ratio (x) = 0.30127 0.34426
# Poissons Ratio (y) = 0.30194 0.25646
# Poissons Ratio (z) = 0.24568 0.18263
#
# Static dielectric constant tensor:
#      x y z
#    x 3.305010 0.000000 0.000000 
#    y 0.000000 3.499430 0.000000 
#    z 0.000000 0.000000 3.666610 
# 
# 
# High freq. dielectric constant tensor:
#      x y z
#    x 1.711630 0.000000 0.000000 
#    y 0.000000 1.746400 0.000000 
#    z 0.000000 0.000000 1.753770 
# 
# From -- ./inp_files/19503.got.cif
#   From: 2010.03.12/outbox.cif.g09.slc.cpg/sg51_10_cif.got.tgz:19503.got - 2010.04.16 13:43:02.
