data_PCOD8211211
_publ_section_title
;
Structure prediction by ZEFSAII (Michael W. Deem and Ramdas Pophale) SiO2 
 PCOD8211211
Probable space group: P M M A
;
_chemical_formula_sum "Si O2"
_cell_formula_units_Z 56
_cell_length_a 15.756308
_cell_length_b 15.015734
_cell_length_c 12.565624
_cell_angle_alpha 90.000000
_cell_angle_beta 90.000000
_cell_angle_gamma 90.000000
_cell_volume 2972.932770
_symmetry_space_group_name_H-M "P M M A"
_symmetry_group_IT_number 51
_symmetry_cell_setting 'orthorhombic'
loop_
_space_group_symop_operation_xyz
x,y,z
1/2-x,-y,z
1/2+x,-y,-z
-x,y,-z
-x,-y,-z
1/2+x,y,-z
1/2-x,y,z
x,-y,z
loop_
_atom_site_type_symbol
_atom_site_label
_atom_site_fract_x
_atom_site_fract_y
_atom_site_fract_z
Si Si1 0.849472 0.900012 0.271401
Si Si2 0.652116 0.255994 0.118998
Si Si3 0.488849 0.399268 0.830471
Si Si4 0.053388 0.599943 0.399334
Si Si5 0.903120 0.095503 0.501338
Si Si6 0.344816 0.237146 0.341872
Si Si7 0.846277 0.295471 0.885663
O O1 0.750000 0.906163 0.256901
O O2 0.883865 0.829634 0.183492
O O3 0.871709 0.862951 0.389142
O O4 0.888619 0.000000 0.254535
O O5 0.750000 0.277961 0.152199
O O6 0.592086 0.340552 0.138338
O O7 0.647252 0.236321 0.992504
O O8 0.472534 0.500000 0.869701
O O9 0.493228 0.395153 0.703169
O O10 0.578463 0.368790 0.883693
O O11 0.088340 0.500000 0.417307
O O12 0.132688 0.664630 0.383939
O O13 0.000000 0.633308 0.500000
O O14 0.896632 0.161059 0.600445
O O15 0.000000 0.072765 0.500000
O O16 0.855169 0.000000 0.519403
O O17 0.250000 0.218698 0.375848
O O18 0.359915 0.230094 0.215032
O O19 0.750000 0.338240 0.877981
#
# Coordination Sequence:
#
# PCOD8211211 Si02
#       7
#     8   8   8   8   8   8   8
#     4   9  19  36  57  80 106 140 182 223 269 326
#     4  10  21  36  56  81 112 145 181 228 275 321
#     4  10  21  36  56  81 110 147 186 224 272 324
#     4   9  19  35  53  75 106 141 176 218 265 320
#     4  10  21  35  54  81 110 139 176 221 267 322
#     4  10  20  33  54  78 104 140 177 218 269 317
#     4   9  20  37  54  79 110 143 186 228 268 321
#
# _framework density 18.836618999999999
#
# number of rings (size 3 to 8) (size 9 to 14) (size 15 to 20)
#    0.000    2.429    0.000    1.286    6.000    2.857 
#    0.000    5.000    0.000    6.857    0.000    0.000 
#    0.000    0.000    0.000    0.000    0.000    0.000 
#
# Total GULP energy -693939.105687 kJ/mol
# GULP energy per Si atom -12391.769744 kJ/mol
# Density = 1.879375 g / cm^3
# Si number density = 18.836619 Si / 1000 Ang^3
#
#
#
# Elastic Constant Matrix: (Units=GPa)
#
#
# Indices 1 2 3 4 5 6 
#
# 1 68.3854 43.2471 21.9985 0.0000 0.0000 0.0000
# 2 43.2471 112.1002 61.4700 0.0000 0.0000 0.0000
# 3 21.9985 61.4700 113.8525 0.0000 0.0000 0.0000
# 4 0.0000 0.0000 0.0000 18.7791 0.0000 0.0000
# 5 0.0000 0.0000 0.0000 0.0000 22.2594 0.0000
# 6 0.0000 0.0000 0.0000 0.0000 0.0000 6.4478
#
#
#
# Elastic Compliance Matrix: (Units=1/GPa)
#
#
# Indices 1 2 3 4 5 6 
#
# 1 0.019356 -0.007694 0.000414 0.000000 0.000000 0.000000
# 2 -0.007694 0.015731 -0.007007 0.000000 0.000000 0.000000
# 3 0.000414 -0.007007 0.012486 0.000000 0.000000 0.000000
# 4 0.000000 0.000000 0.000000 0.053251 0.000000 0.000000
# 5 0.000000 0.000000 0.000000 0.000000 0.044925 0.000000
# 6 0.000000 0.000000 0.000000 0.000000 0.000000 0.155092
#
#
# Mechanical properties :
#
#
# Convention : Reuss Voigt Hill
#
# Bulk Modulus (GPa) = 52.63272 60.86326 56.74799
# Shear Modulus (GPa) = 14.89215 20.67209 17.78212
#
# Velocity S-wave (km/s) = 2.81480 3.31636 3.07582
# Velocity P-wave (km/s) = 6.21020 6.85898 6.54263
#
# Compressibility (1/GPa) = 0.01899959
#
# Stress axis : x y z
#
# Youngs Moduli (GPa) = 51.66435 63.56817 80.08851
#
# Poissons Ratio (x) = 0.48912 -0.03319
# Poissons Ratio (y) = 0.39753 0.56115
# Poissons Ratio (z) = -0.02141 0.44540
#
# Static dielectric constant tensor:
#      x y z
#    x 3.486760 0.000000 0.000000 
#    y 0.000000 3.527360 0.000000 
#    z 0.000000 0.000000 3.832540 
# 
# 
# High freq. dielectric constant tensor:
#      x y z
#    x 1.725550 0.000000 0.000000 
#    y 0.000000 1.717450 0.000000 
#    z 0.000000 0.000000 1.742730 
# 
# From -- ./inp_files/16612.got.cif
#   From: 2010.03.12/outbox.cif.g09.slc.cpg/sg51_9_cif.got.tgz:16612.got - 2010.04.16 13:43:02.
