data_PCOD8211630
_publ_section_title
;
Structure prediction by ZEFSAII (Michael W. Deem and Ramdas Pophale) SiO2 
 PCOD8211630
Probable space group: P M M A
;
_chemical_formula_sum "Si O2"
_cell_formula_units_Z 52
_cell_length_a 8.904879
_cell_length_b 22.524550
_cell_length_c 14.817579
_cell_angle_alpha 90.000000
_cell_angle_beta 90.000000
_cell_angle_gamma 90.000000
_cell_volume 2972.086173
_symmetry_space_group_name_H-M "P M M A"
_symmetry_group_IT_number 51
_symmetry_cell_setting 'orthorhombic'
loop_
_space_group_symop_operation_xyz
x,y,z
1/2-x,-y,z
1/2+x,-y,-z
-x,y,-z
-x,-y,-z
1/2+x,y,-z
1/2-x,y,z
x,-y,z
loop_
_atom_site_type_symbol
_atom_site_label
_atom_site_fract_x
_atom_site_fract_y
_atom_site_fract_z
Si Si1 0.571185 0.889948 0.277909
Si Si2 0.426319 0.000000 0.598305
Si Si3 0.927639 0.566615 0.733661
Si Si4 0.572458 0.796448 0.595502
Si Si5 0.074605 0.660455 0.408320
Si Si6 0.584058 0.429676 0.085420
Si Si7 0.926197 0.069528 0.905781
O O1 0.750000 0.885555 0.269213
O O2 0.521869 0.943380 0.343748
O O3 0.503265 0.831000 0.322106
O O4 0.502679 0.897006 0.178131
O O5 0.500000 0.000000 0.500000
O O6 0.250000 0.000000 0.582437
O O7 0.750000 0.567570 0.738951
O O8 0.984631 0.500000 0.709263
O O9 0.991571 0.614443 0.663837
O O10 0.989555 0.588737 0.828346
O O11 0.500000 0.815929 0.500000
O O12 0.750000 0.809040 0.590902
O O13 0.534810 0.727993 0.616818
O O14 0.250000 0.652078 0.419116
O O15 0.000000 0.640639 0.500000
O O16 0.750000 0.402086 0.092127
O O17 0.593775 0.500000 0.075066
O O18 0.500000 0.401319 0.000000
O O19 0.750000 0.084272 0.908131
O O20 0.956958 0.000000 0.892685
O O21 0.000000 0.091293 0.000000
#
# Coordination Sequence:
#
# PCOD8211630 Si02
#       7
#     8   4   8   8   8   8   8
#     4  11  21  35  53  76 104 136 171 210 255 301
#     4  10  22  34  47  70 103 134 161 200 248 296
#     4   9  17  30  48  71  99 130 163 202 251 302
#     4  10  20  35  53  74  99 132 173 212 253 303
#     4   9  19  34  51  71  98 131 168 210 251 297
#     4   9  16  26  42  66  95 126 158 193 235 287
#     4  10  20  34  54  79 107 140 174 211 252 300
#
# _framework density 17.496127999999999
#
# number of rings (size 3 to 8) (size 9 to 14) (size 15 to 20)
#    0.000    2.308    0.769    2.308    0.000    6.462 
#    0.000    0.000    0.000    0.923    0.000    4.308 
#    0.000    0.000    0.000    0.000    0.000    0.000 
#
# Total GULP energy -644763.187182 kJ/mol
# GULP energy per Si atom -12399.292061 kJ/mol
# Density = 1.745631 g / cm^3
# Si number density = 17.496128 Si / 1000 Ang^3
#
#
#
# Elastic Constant Matrix: (Units=GPa)
#
#
# Indices 1 2 3 4 5 6 
#
# 1 56.5297 34.9138 56.0116 0.0000 0.0000 0.0000
# 2 34.9138 73.1158 75.3589 0.0000 0.0000 0.0000
# 3 56.0116 75.3589 174.5606 0.0000 0.0000 0.0000
# 4 0.0000 0.0000 0.0000 21.2283 0.0000 0.0000
# 5 0.0000 0.0000 0.0000 0.0000 37.5355 0.0000
# 6 0.0000 0.0000 0.0000 0.0000 0.0000 17.7297
#
#
#
# Elastic Compliance Matrix: (Units=1/GPa)
#
#
# Indices 1 2 3 4 5 6 
#
# 1 0.027997 -0.007404 -0.005787 0.000000 0.000000 0.000000
# 2 -0.007404 0.026599 -0.009107 0.000000 0.000000 0.000000
# 3 -0.005787 -0.009107 0.011517 0.000000 0.000000 0.000000
# 4 0.000000 0.000000 0.000000 0.047107 0.000000 0.000000
# 5 0.000000 0.000000 0.000000 0.000000 0.026641 0.000000
# 6 0.000000 0.000000 0.000000 0.000000 0.000000 0.056403
#
#
# Mechanical properties :
#
#
# Convention : Reuss Voigt Hill
#
# Bulk Modulus (GPa) = 46.47665 70.75274 58.61470
# Shear Modulus (GPa) = 20.15860 24.49348 22.32604
#
# Velocity S-wave (km/s) = 3.39805 3.74563 3.57607
# Velocity P-wave (km/s) = 6.48208 7.69631 7.11514
#
# Compressibility (1/GPa) = 0.02151618
#
# Stress axis : x y z
#
# Youngs Moduli (GPa) = 35.71848 37.59502 86.82722
#
# Poissons Ratio (x) = 0.27837 0.50245
# Poissons Ratio (y) = 0.26448 0.79075
# Poissons Ratio (z) = 0.20670 0.34239
#
# Static dielectric constant tensor:
#      x y z
#    x 3.315460 0.000000 0.000000 
#    y 0.000000 3.164820 0.000000 
#    z 0.000000 0.000000 3.369050 
# 
# 
# High freq. dielectric constant tensor:
#      x y z
#    x 1.685650 0.000000 0.000000 
#    y 0.000000 1.646920 0.000000 
#    z 0.000000 0.000000 1.684260 
# 
# From -- ./inp_files/21598.got.cif
#   From: 2010.03.12/outbox.cif.g09.slc.cpg/sg51_11_cif.got.tgz:21598.got - 2010.04.16 13:43:02.
