data_PCOD8211426
_publ_section_title
;
Structure prediction by ZEFSAII (Michael W. Deem and Ramdas Pophale) SiO2 
 PCOD8211426
Probable space group: P M M A
;
_chemical_formula_sum "Si O2"
_cell_formula_units_Z 48
_cell_length_a 9.046891
_cell_length_b 8.972307
_cell_length_c 31.009163
_cell_angle_alpha 90.000000
_cell_angle_beta 90.000000
_cell_angle_gamma 90.000000
_cell_volume 2517.059761
_symmetry_space_group_name_H-M "P M M A"
_symmetry_group_IT_number 51
_symmetry_cell_setting 'orthorhombic'
loop_
_space_group_symop_operation_xyz
x,y,z
1/2-x,-y,z
1/2+x,-y,-z
-x,y,-z
-x,-y,-z
1/2+x,y,-z
1/2-x,y,z
x,-y,z
loop_
_atom_site_type_symbol
_atom_site_label
_atom_site_fract_x
_atom_site_fract_y
_atom_site_fract_z
Si Si1 0.579904 0.175492 0.369947
Si Si2 0.583049 0.177804 0.042319
Si Si3 0.583415 0.177313 0.873562
Si Si4 0.422805 0.670168 0.542861
Si Si5 0.423368 0.172881 0.787406
Si Si6 0.920387 0.325046 0.708491
O O1 0.750000 0.222624 0.361394
O O2 0.526732 0.230985 0.416689
O O3 0.475078 0.249766 0.335078
O O4 0.560481 0.000000 0.367300
O O5 0.750000 0.238812 0.042125
O O6 0.500307 0.240949 0.084514
O O7 0.582361 0.000000 0.042651
O O8 0.500000 0.238588 0.000000
O O9 0.750000 0.240036 0.873123
O O10 0.499975 0.232678 0.830848
O O11 0.583489 0.000000 0.875258
O O12 0.500000 0.733587 0.500000
O O13 0.250000 0.683264 0.535110
O O14 0.471611 0.500000 0.551657
O O15 0.250000 0.198609 0.792275
O O16 0.483069 0.267587 0.747971
O O17 0.460818 0.000000 0.779083
O O18 0.750000 0.282399 0.716341
O O19 0.943217 0.500000 0.703957
#
# Coordination Sequence:
#
# PCOD8211426 Si02
#       6
#     8   8   8   8   8   8
#     4  10  21  37  57  81 108 139 176 216 259 309
#     4   9  15  22  33  52  82 121 164 207 251 302
#     4   9  16  26  41  62  90 125 163 204 252 304
#     4   9  18  33  53  77 107 143 180 217 257 302
#     4  10  20  34  53  76 101 131 168 209 255 309
#     4  11  24  39  55  77 104 134 170 212 258 309
#
# _framework density 19.069868
#
# number of rings (size 3 to 8) (size 9 to 14) (size 15 to 20)
#    0.000    2.333    0.000    3.000    0.000   10.333 
#    0.000    1.667    0.000    0.000    0.000    0.000 
#    0.000    0.667    0.000    2.500    0.000    5.500 
#
# Total GULP energy -595318.768658 kJ/mol
# GULP energy per Si atom -12402.474347 kJ/mol
# Density = 1.902646 g / cm^3
# Si number density = 19.069868 Si / 1000 Ang^3
#
#
#
# Elastic Constant Matrix: (Units=GPa)
#
#
# Indices 1 2 3 4 5 6 
#
# 1 113.0148 31.1839 71.5632 0.0000 0.0000 0.0000
# 2 31.1839 41.9672 35.0099 0.0000 0.0000 0.0000
# 3 71.5632 35.0099 161.6935 0.0000 0.0000 0.0000
# 4 0.0000 0.0000 0.0000 -31.3265 0.0000 0.0000
# 5 0.0000 0.0000 0.0000 0.0000 45.0736 0.0000
# 6 0.0000 0.0000 0.0000 0.0000 0.0000 18.0955
#
#
#
# Elastic Compliance Matrix: (Units=1/GPa)
#
#
# Indices 1 2 3 4 5 6 
#
# 1 0.013480 -0.006150 -0.004634 0.000000 0.000000 0.000000
# 2 -0.006150 0.031887 -0.004182 0.000000 0.000000 0.000000
# 3 -0.004634 -0.004182 0.009141 0.000000 0.000000 0.000000
# 4 0.000000 0.000000 0.000000 -0.031922 0.000000 0.000000
# 5 0.000000 0.000000 0.000000 0.000000 0.022186 0.000000
# 6 0.000000 0.000000 0.000000 0.000000 0.000000 0.055262
#
#
# Mechanical properties :
#
#
# Convention : Reuss Voigt Hill
#
# Bulk Modulus (GPa) = 40.69256 65.79883 53.24570
# Shear Modulus (GPa) = 36.18993 18.29640 27.24316
#
# Velocity S-wave (km/s) = 4.36105 3.10084 3.78378
# Velocity P-wave (km/s) = 6.83691 6.88471 6.86085
#
# Compressibility (1/GPa) = 0.02457451
#
# Stress axis : x y z
#
# Youngs Moduli (GPa) = 74.18381 31.36076 109.39504
#
# Poissons Ratio (x) = 0.19288 0.50698
# Poissons Ratio (y) = 0.45625 0.45751
# Poissons Ratio (z) = 0.34380 0.13116
#
# Static dielectric constant tensor:
#      x y z
#    x 3.648700 0.000000 0.000000 
#    y 0.000000 3.105610 0.000000 
#    z 0.000000 0.000000 3.718670 
# 
# 
# High freq. dielectric constant tensor:
#      x y z
#    x 1.750920 0.000000 0.000000 
#    y 0.000000 1.697730 0.000000 
#    z 0.000000 0.000000 1.759870 
# 
# From -- ./inp_files/37042.got.cif
#   From: 2010.03.12/outbox.cif.g09.slc.cpg/sg51_19_cif.got.tgz:37042.got - 2010.04.16 13:43:02.
