data_PCOD8211053
_publ_section_title
;
Structure prediction by ZEFSAII (Michael W. Deem and Ramdas Pophale) SiO2 
 PCOD8211053
Probable space group: P M M A
;
_chemical_formula_sum "Si O2"
_cell_formula_units_Z 56
_cell_length_a 16.567835
_cell_length_b 14.384079
_cell_length_c 12.647557
_cell_angle_alpha 90.000000
_cell_angle_beta 90.000000
_cell_angle_gamma 90.000000
_cell_volume 3014.077852
_symmetry_space_group_name_H-M "P M M A"
_symmetry_group_IT_number 51
_symmetry_cell_setting 'orthorhombic'
loop_
_space_group_symop_operation_xyz
x,y,z
1/2-x,-y,z
1/2+x,-y,-z
-x,y,-z
-x,-y,-z
1/2+x,y,-z
1/2-x,y,z
x,-y,z
loop_
_atom_site_type_symbol
_atom_site_label
_atom_site_fract_x
_atom_site_fract_y
_atom_site_fract_z
Si Si1 0.343031 0.898205 0.324632
Si Si2 0.657331 0.772802 0.857738
Si Si3 0.087770 0.603808 0.041954
Si Si4 0.090652 0.108734 0.961539
Si Si5 0.152420 0.799193 0.751343
Si Si6 0.588393 0.108112 0.458697
Si Si7 0.342473 0.600566 0.820196
O O1 0.250000 0.906751 0.294946
O O2 0.382962 0.826754 0.241861
O O3 0.351990 0.865705 0.445256
O O4 0.384949 0.000000 0.310902
O O5 0.750000 0.749143 0.836031
O O6 0.610267 0.675538 0.866196
O O7 0.650821 0.835503 0.962363
O O8 0.090300 0.500000 0.089766
O O9 0.150012 0.616062 0.945782
O O10 0.000000 0.629497 0.000000
O O11 0.108193 0.141935 0.842531
O O12 0.109780 0.000000 0.970179
O O13 0.000000 0.131239 0.000000
O O14 0.250000 0.810698 0.758169
O O15 0.117374 0.832927 0.640519
O O16 0.123832 0.691143 0.759951
O O17 0.500000 0.135915 0.500000
O O18 0.593331 0.000000 0.427401
O O19 0.250000 0.591841 0.790644
O O20 0.384557 0.500000 0.789829
#
# Coordination Sequence:
#
# PCOD8211053 Si02
#       7
#     8   8   8   8   8   8   8
#     4   9  19  35  53  73 102 142 185 227 273 330
#     4  11  21  34  54  78 107 146 184 222 271 336
#     4  10  20  33  51  77 109 145 184 228 278 335
#     4  11  24  36  51  80 118 151 179 223 283 340
#     4  11  22  37  60  86 112 148 193 240 286 336
#     4  10  22  37  56  80 107 143 191 240 283 328
#     4   9  18  33  53  79 110 142 180 227 282 343
#
# _framework density 18.579481000000001
#
# number of rings (size 3 to 8) (size 9 to 14) (size 15 to 20)
#    0.000    1.857    1.429    2.571    2.000    4.000 
#    0.000    0.000    0.000    1.286    0.000    2.000 
#    0.000    0.000    0.000    0.000    0.000    0.000 
#
# Total GULP energy -694155.859842 kJ/mol
# GULP energy per Si atom -12395.640354 kJ/mol
# Density = 1.853719 g / cm^3
# Si number density = 18.579481 Si / 1000 Ang^3
#
#
#
# Elastic Constant Matrix: (Units=GPa)
#
#
# Indices 1 2 3 4 5 6 
#
# 1 54.8054 38.1424 24.8561 0.0000 0.0000 0.0000
# 2 38.1424 140.5397 67.2862 0.0000 0.0000 0.0000
# 3 24.8561 67.2862 118.1291 0.0000 0.0000 0.0000
# 4 0.0000 0.0000 0.0000 25.0227 0.0000 0.0000
# 5 0.0000 0.0000 0.0000 0.0000 28.8353 0.0000
# 6 0.0000 0.0000 0.0000 0.0000 0.0000 21.8341
#
#
#
# Elastic Compliance Matrix: (Units=1/GPa)
#
#
# Indices 1 2 3 4 5 6 
#
# 1 0.022754 -0.005339 -0.001747 0.000000 0.000000 0.000000
# 2 -0.005339 0.011036 -0.005163 0.000000 0.000000 0.000000
# 3 -0.001747 -0.005163 0.011774 0.000000 0.000000 0.000000
# 4 0.000000 0.000000 0.000000 0.039964 0.000000 0.000000
# 5 0.000000 0.000000 0.000000 0.000000 0.034680 0.000000
# 6 0.000000 0.000000 0.000000 0.000000 0.000000 0.045800
#
#
# Mechanical properties :
#
#
# Convention : Reuss Voigt Hill
#
# Bulk Modulus (GPa) = 47.46788 63.78262 55.62525
# Shear Modulus (GPa) = 25.31294 27.35106 26.33200
#
# Velocity S-wave (km/s) = 3.69509 3.84097 3.76874
# Velocity P-wave (km/s) = 6.61883 7.35356 6.99585
#
# Compressibility (1/GPa) = 0.02106688
#
# Stress axis : x y z
#
# Youngs Moduli (GPa) = 43.94743 90.61001 84.93611
#
# Poissons Ratio (x) = 0.48380 0.14835
# Poissons Ratio (y) = 0.23465 0.43851
# Poissons Ratio (z) = 0.07676 0.46780
#
# Static dielectric constant tensor:
#      x y z
#    x 3.381280 0.000000 0.000000 
#    y 0.000000 3.797130 0.000000 
#    z 0.000000 0.000000 3.307120 
# 
# 
# High freq. dielectric constant tensor:
#      x y z
#    x 1.719140 0.000000 0.000000 
#    y 0.000000 1.728050 0.000000 
#    z 0.000000 0.000000 1.698150 
# 
# From -- ./inp_files/16609.got.cif
#   From: 2010.03.12/outbox.cif.g09.slc.cpg/sg51_9_cif.got.tgz:16609.got - 2010.04.16 13:43:02.
