data_PCOD8211863
_publ_section_title
;
Structure prediction by ZEFSAII (Michael W. Deem and Ramdas Pophale) SiO2 
 PCOD8211863
Probable space group: P M M A
;
_chemical_formula_sum "Si O2"
_cell_formula_units_Z 64
_cell_length_a 14.467053
_cell_length_b 8.932642
_cell_length_c 24.464431
_cell_angle_alpha 90.000000
_cell_angle_beta 90.000000
_cell_angle_gamma 90.000000
_cell_volume 3161.514082
_symmetry_space_group_name_H-M "P M M A"
_symmetry_group_IT_number 51
_symmetry_cell_setting 'orthorhombic'
loop_
_space_group_symop_operation_xyz
x,y,z
1/2-x,-y,z
1/2+x,-y,-z
-x,y,-z
-x,-y,-z
1/2+x,y,-z
1/2-x,y,z
x,-y,z
loop_
_atom_site_type_symbol
_atom_site_label
_atom_site_fract_x
_atom_site_fract_y
_atom_site_fract_z
Si Si1 0.849415 0.165944 0.868830
Si Si2 0.358721 0.668498 0.539210
Si Si3 0.974691 0.172399 0.371167
Si Si4 0.353069 0.323452 0.415836
Si Si5 0.977075 0.173643 0.059807
Si Si6 0.037902 0.827791 0.748165
Si Si7 0.147316 0.327460 0.239672
Si Si8 0.642705 0.676789 0.150856
O O1 0.750000 0.167566 0.898920
O O2 0.851076 0.297069 0.824787
O O3 0.926191 0.201699 0.912037
O O4 0.866271 0.000000 0.842317
O O5 0.250000 0.676052 0.548195
O O6 0.394998 0.500000 0.549895
O O7 0.406285 0.778732 0.581322
O O8 0.383644 0.718499 0.477612
O O9 0.921585 0.198884 0.312922
O O10 0.072846 0.258020 0.373664
O O11 0.998581 0.000000 0.378826
O O12 0.250000 0.259881 0.403531
O O13 0.350671 0.500000 0.408651
O O14 0.897595 0.257961 0.094150
O O15 0.947873 0.000000 0.056222
O O16 0.000000 0.240394 0.000000
O O17 0.089087 0.734907 0.795259
O O18 0.931618 0.780515 0.737462
O O19 0.044022 0.000000 0.766380
O O20 0.250000 0.292078 0.264394
O O21 0.121406 0.500000 0.250382
O O22 0.750000 0.724088 0.155498
O O23 0.630910 0.500000 0.149403
#
# Coordination Sequence:
#
# PCOD8211863 Si02
#       8
#     8   8   8   8   8   8   8   8
#     4   9  17  31  53  81 114 150 185 223 272 333
#     4   9  19  37  60  84 112 150 196 243 292 348
#     4  11  24  37  54  85 120 152 192 243 298 353
#     4   9  19  37  60  85 115 154 197 239 288 350
#     4  10  21  37  61  93 125 158 195 235 283 343
#     4  11  24  41  59  82 116 158 199 242 294 352
#     4  10  20  34  56  85 112 142 183 231 285 343
#     4  11  25  44  65  89 118 156 202 250 299 347
#
# _framework density 20.243465
#
# number of rings (size 3 to 8) (size 9 to 14) (size 15 to 20)
#    0.000    2.000    1.250    2.625    0.000    8.000 
#    0.000    7.500    0.000    1.500    0.000    0.000 
#    0.000    0.000    0.000    0.000    0.000    0.000 
#
# Total GULP energy -793143.045244 kJ/mol
# GULP energy per Si atom -12392.860082 kJ/mol
# Density = 2.019739 g / cm^3
# Si number density = 20.243465 Si / 1000 Ang^3
#
#
#
# Elastic Constant Matrix: (Units=GPa)
#
#
# Indices 1 2 3 4 5 6 
#
# 1 84.7127 30.4081 42.4272 0.0000 0.0000 0.0000
# 2 30.4081 59.6401 36.2416 0.0000 0.0000 0.0000
# 3 42.4272 36.2416 109.5435 0.0000 0.0000 0.0000
# 4 0.0000 0.0000 0.0000 7.4683 0.0000 0.0000
# 5 0.0000 0.0000 0.0000 0.0000 10.6051 0.0000
# 6 0.0000 0.0000 0.0000 0.0000 0.0000 20.8091
#
#
#
# Elastic Compliance Matrix: (Units=1/GPa)
#
#
# Indices 1 2 3 4 5 6 
#
# 1 0.015960 -0.005484 -0.004367 0.000000 0.000000 0.000000
# 2 -0.005484 0.022870 -0.005443 0.000000 0.000000 0.000000
# 3 -0.004367 -0.005443 0.012621 0.000000 0.000000 0.000000
# 4 0.000000 0.000000 0.000000 0.133900 0.000000 0.000000
# 5 0.000000 0.000000 0.000000 0.000000 0.094295 0.000000
# 6 0.000000 0.000000 0.000000 0.000000 0.000000 0.048056
#
#
# Mechanical properties :
#
#
# Convention : Reuss Voigt Hill
#
# Bulk Modulus (GPa) = 47.92834 52.45001 50.18918
# Shear Modulus (GPa) = 13.68948 17.43111 15.56030
#
# Velocity S-wave (km/s) = 2.60329 2.93759 2.77548
# Velocity P-wave (km/s) = 5.72394 6.12142 5.92601
#
# Compressibility (1/GPa) = 0.02086448
#
# Stress axis : x y z
#
# Youngs Moduli (GPa) = 62.65542 43.72456 79.23321
#
# Poissons Ratio (x) = 0.23977 0.34604
# Poissons Ratio (y) = 0.34358 0.43124
# Poissons Ratio (z) = 0.27364 0.23798
#
# Static dielectric constant tensor:
#      x y z
#    x 3.873820 0.000000 0.000000 
#    y 0.000000 3.618590 0.000000 
#    z 0.000000 0.000000 3.748310 
# 
# 
# High freq. dielectric constant tensor:
#      x y z
#    x 1.796520 0.000000 0.000000 
#    y 0.000000 1.782080 0.000000 
#    z 0.000000 0.000000 1.789850 
# 
# From -- ./inp_files/35658.got.cif
#   From: 2010.03.12/outbox.cif.g09.slc.cpg/sg51_18_cif.got.tgz:35658.got - 2010.04.16 13:43:02.
