data_PCOD8211946
_publ_section_title
;
Structure prediction by ZEFSAII (Michael W. Deem and Ramdas Pophale) SiO2 
 PCOD8211946
Probable space group: P M M A
;
_chemical_formula_sum "Si O2"
_cell_formula_units_Z 26
_cell_length_a 15.403099
_cell_length_b 7.606969
_cell_length_c 11.233094
_cell_angle_alpha 90.000000
_cell_angle_beta 90.000000
_cell_angle_gamma 90.000000
_cell_volume 1316.191696
_symmetry_space_group_name_H-M "P M M A"
_symmetry_group_IT_number 51
_symmetry_cell_setting 'orthorhombic'
loop_
_space_group_symop_operation_xyz
x,y,z
1/2-x,-y,z
1/2+x,-y,-z
-x,y,-z
-x,-y,-z
1/2+x,y,-z
1/2-x,y,z
x,-y,z
loop_
_atom_site_type_symbol
_atom_site_label
_atom_site_fract_x
_atom_site_fract_y
_atom_site_fract_z
Si Si1 0.346077 0.500000 0.458557
Si Si2 0.353296 0.195773 0.300961
Si Si3 0.250000 0.500000 0.686312
Si Si4 0.908256 0.208340 0.955687
Si Si5 0.250000 0.208657 0.879933
O O1 0.250000 0.500000 0.400029
O O2 0.389844 0.321827 0.406993
O O3 0.336993 0.500000 0.602283
O O4 0.250000 0.183724 0.295199
O O5 0.388109 0.276606 0.176794
O O6 0.391028 0.000000 0.324127
O O7 0.250000 0.319309 0.758726
O O8 0.909915 0.000000 0.952308
O O9 0.834024 0.269291 0.046530
O O10 0.000000 0.286372 0.000000
O O11 0.250000 0.000000 0.850572
#
# Coordination Sequence:
#
# PCOD8211946 Si02
#       5
#     4   8   2   8   4
#     4   8  18  31  46  74  97 126 178 218 237 284
#     4   9  15  28  51  75  98 126 163 210 257 294
#     4  10  22  34  50  76 104 138 184 214 246 308
#     4   9  17  31  54  83 109 133 166 209 262 322
#     4  10  20  35  53  75 109 142 165 204 262 316
#
# _framework density 19.753961
#
# number of rings (size 3 to 8) (size 9 to 14) (size 15 to 20)
#    0.462    2.462    1.538    0.000    0.000    2.462 
#    0.000    3.077    0.000    3.692    0.000    8.615 
#    0.000    0.000    0.000    0.000    0.000    0.000 
#
# Total GULP energy -322139.710422 kJ/mol
# GULP energy per Si atom -12389.988862 kJ/mol
# Density = 1.970900 g / cm^3
# Si number density = 19.753961 Si / 1000 Ang^3
#
#
#
# Elastic Constant Matrix: (Units=GPa)
#
#
# Indices 1 2 3 4 5 6 
#
# 1 82.3691 19.9847 40.7975 0.0000 0.0000 0.0000
# 2 19.9847 99.1495 62.4165 0.0000 0.0000 0.0000
# 3 40.7975 62.4165 145.5698 0.0000 0.0000 0.0000
# 4 0.0000 0.0000 0.0000 40.4589 0.0000 0.0000
# 5 0.0000 0.0000 0.0000 0.0000 4.7067 0.0000
# 6 0.0000 0.0000 0.0000 0.0000 0.0000 1.9267
#
#
#
# Elastic Compliance Matrix: (Units=1/GPa)
#
#
# Indices 1 2 3 4 5 6 
#
# 1 0.014114 -0.000486 -0.003747 0.000000 0.000000 0.000000
# 2 -0.000486 0.013831 -0.005794 0.000000 0.000000 0.000000
# 3 -0.003747 -0.005794 0.010404 0.000000 0.000000 0.000000
# 4 0.000000 0.000000 0.000000 0.024716 0.000000 0.000000
# 5 0.000000 0.000000 0.000000 0.000000 0.212465 0.000000
# 6 0.000000 0.000000 0.000000 0.000000 0.000000 0.519016
#
#
# Mechanical properties :
#
#
# Convention : Reuss Voigt Hill
#
# Bulk Modulus (GPa) = 54.66020 63.72065 59.19043
# Shear Modulus (GPa) = 6.09236 23.01109 14.55172
#
# Velocity S-wave (km/s) = 1.75807 3.41674 2.71707
# Velocity P-wave (km/s) = 5.64373 6.92045 6.31444
#
# Compressibility (1/GPa) = 0.01829485
#
# Stress axis : x y z
#
# Youngs Moduli (GPa) = 70.84932 72.29942 96.11437
#
# Poissons Ratio (x) = 0.03513 0.36018
# Poissons Ratio (y) = 0.03442 0.55692
# Poissons Ratio (z) = 0.26550 0.41893
#
# Static dielectric constant tensor:
#      x y z
#    x 3.451630 0.000000 0.000000 
#    y 0.000000 3.621470 0.000000 
#    z 0.000000 0.000000 3.457830 
# 
# 
# High freq. dielectric constant tensor:
#      x y z
#    x 1.730090 0.000000 0.000000 
#    y 0.000000 1.769330 0.000000 
#    z 0.000000 0.000000 1.761090 
# 
# From -- ./inp_files/9042.got.cif
#   From: 2010.03.12/outbox.cif.g09.slc.cpg/sg51_5_cif.got.tgz:9042.got - 2010.04.16 13:43:02.
