data_PCOD8211995
_publ_section_title
;
Structure prediction by ZEFSAII (Michael W. Deem and Ramdas Pophale) SiO2 
 PCOD8211995
Probable space group: P M M A
;
_chemical_formula_sum "Si O2"
_cell_formula_units_Z 40
_cell_length_a 8.768883
_cell_length_b 25.822078
_cell_length_c 9.413739
_cell_angle_alpha 90.000000
_cell_angle_beta 90.000000
_cell_angle_gamma 90.000000
_cell_volume 2131.560272
_symmetry_space_group_name_H-M "P M M A"
_symmetry_group_IT_number 51
_symmetry_cell_setting 'orthorhombic'
loop_
_space_group_symop_operation_xyz
x,y,z
1/2-x,-y,z
1/2+x,-y,-z
-x,y,-z
-x,-y,-z
1/2+x,y,-z
1/2-x,y,z
x,-y,z
loop_
_atom_site_type_symbol
_atom_site_label
_atom_site_fract_x
_atom_site_fract_y
_atom_site_fract_z
Si Si1 0.925583 0.154772 0.653074
Si Si2 0.569227 0.357036 0.154628
Si Si3 0.572251 0.439646 0.648508
Si Si4 0.571546 0.056007 0.344296
Si Si5 0.428383 0.269161 0.344631
O O1 0.750000 0.141570 0.636228
O O2 0.950039 0.211396 0.722980
O O3 0.000000 0.158152 0.500000
O O4 0.002004 0.106189 0.739307
O O5 0.750000 0.358615 0.145473
O O6 0.509548 0.409782 0.224740
O O7 0.516504 0.307659 0.242966
O O8 0.500000 0.352342 0.000000
O O9 0.500000 0.421415 0.500000
O O10 0.750000 0.425838 0.645542
O O11 0.542713 0.500000 0.675030
O O12 0.500000 0.055655 0.500000
O O13 0.750000 0.063974 0.357095
O O14 0.534454 0.000000 0.270606
O O15 0.500000 0.273457 0.500000
O O16 0.250000 0.283703 0.353848
#
# Coordination Sequence:
#
# PCOD8211995 Si02
#       5
#     8   8   8   8   8
#     4   9  16  25  40  61  87 121 161 206 251 300
#     4  12  25  40  58  80 109 143 178 219 266 314
#     4  10  21  39  63  89 116 146 180 217 257 304
#     4   9  15  21  31  50  80 118 157 198 246 301
#     4  10  20  35  54  77 104 136 177 220 264 314
#
# _framework density 18.765598000000001
#
# number of rings (size 3 to 8) (size 9 to 14) (size 15 to 20)
#    0.000    2.000    0.000    6.000    0.000    5.200 
#    0.000    0.000    0.000    0.000    0.000    0.000 
#    0.000    0.800    0.000    2.600    0.000   11.200 
#
# Total GULP energy -495687.468559 kJ/mol
# GULP energy per Si atom -12392.186714 kJ/mol
# Density = 1.872289 g / cm^3
# Si number density = 18.765598 Si / 1000 Ang^3
#
#
#
# Elastic Constant Matrix: (Units=GPa)
#
#
# Indices 1 2 3 4 5 6 
#
# 1 156.6591 70.3689 43.4200 0.0000 0.0000 0.0000
# 2 70.3689 138.2693 50.4369 0.0000 0.0000 0.0000
# 3 43.4200 50.4369 76.7900 0.0000 0.0000 0.0000
# 4 0.0000 0.0000 0.0000 1.0091 0.0000 0.0000
# 5 0.0000 0.0000 0.0000 0.0000 24.5364 0.0000
# 6 0.0000 0.0000 0.0000 0.0000 0.0000 35.1112
#
#
#
# Elastic Compliance Matrix: (Units=1/GPa)
#
#
# Indices 1 2 3 4 5 6 
#
# 1 0.008662 -0.003448 -0.002633 0.000000 0.000000 0.000000
# 2 -0.003448 0.010883 -0.005199 0.000000 0.000000 0.000000
# 3 -0.002633 -0.005199 0.017926 0.000000 0.000000 0.000000
# 4 0.000000 0.000000 0.000000 0.991015 0.000000 0.000000
# 5 0.000000 0.000000 0.000000 0.000000 0.040756 0.000000
# 6 0.000000 0.000000 0.000000 0.000000 0.000000 0.028481
#
#
# Mechanical properties :
#
#
# Convention : Reuss Voigt Hill
#
# Bulk Modulus (GPa) = 67.06144 77.79666 72.42905
# Shear Modulus (GPa) = 4.44345 25.96417 15.20381
#
# Velocity S-wave (km/s) = 1.54046 3.72372 2.84948
# Velocity P-wave (km/s) = 6.24323 7.74824 7.03609
#
# Compressibility (1/GPa) = 0.01491170
#
# Stress axis : x y z
#
# Youngs Moduli (GPa) = 115.45011 91.88403 55.78441
#
# Poissons Ratio (x) = 0.31679 0.14689
# Poissons Ratio (y) = 0.39803 0.29002
# Poissons Ratio (z) = 0.30400 0.47769
#
# Static dielectric constant tensor:
#      x y z
#    x 3.691940 0.000000 0.000000 
#    y 0.000000 4.592340 0.000000 
#    z 0.000000 0.000000 2.911600 
# 
# 
# High freq. dielectric constant tensor:
#      x y z
#    x 1.751950 0.000000 0.000000 
#    y 0.000000 1.764700 0.000000 
#    z 0.000000 0.000000 1.659380 
# 
# From -- ./inp_files/5505.got.cif
#   From: 2010.03.12/outbox.cif.g09.slc.cpg/sg51_3_cif.got.tgz:5505.got - 2010.04.16 13:43:02.
