data_PCOD8211975
_publ_section_title
;
Structure prediction by ZEFSAII (Michael W. Deem and Ramdas Pophale) SiO2 
 PCOD8211975
Probable space group: P M M A
;
_chemical_formula_sum "Si O2"
_cell_formula_units_Z 48
_cell_length_a 23.593942
_cell_length_b 9.331375
_cell_length_c 11.353950
_cell_angle_alpha 90.000000
_cell_angle_beta 90.000000
_cell_angle_gamma 90.000000
_cell_volume 2499.730146
_symmetry_space_group_name_H-M "P M M A"
_symmetry_group_IT_number 51
_symmetry_cell_setting 'orthorhombic'
loop_
_space_group_symop_operation_xyz
x,y,z
1/2-x,-y,z
1/2+x,-y,-z
-x,y,-z
-x,-y,-z
1/2+x,y,-z
1/2-x,y,z
x,-y,z
loop_
_atom_site_type_symbol
_atom_site_label
_atom_site_fract_x
_atom_site_fract_y
_atom_site_fract_z
Si Si1 0.088114 0.832387 0.699654
Si Si2 0.901145 0.167607 0.559806
Si Si3 0.813295 0.661409 0.686732
Si Si4 0.971537 0.168211 0.789497
Si Si5 0.881689 0.664211 0.924434
Si Si6 0.184138 0.167689 0.874733
O O1 0.081568 0.768113 0.567913
O O2 0.149756 0.797541 0.754513
O O3 0.036960 0.777839 0.784475
O O4 0.078029 0.000000 0.688293
O O5 0.841293 0.237144 0.590730
O O6 0.947035 0.205195 0.659668
O O7 0.890905 0.000000 0.550635
O O8 0.750000 0.716333 0.704777
O O9 0.815883 0.500000 0.638615
O O10 0.842911 0.673713 0.811265
O O11 0.940562 0.254718 0.894167
O O12 0.964827 0.000000 0.818319
O O13 0.894586 0.500000 0.960490
O O14 0.846268 0.741547 0.025231
O O15 0.250000 0.213377 0.859089
O O16 0.179611 0.000000 0.906787
#
# Coordination Sequence:
#
# PCOD8211975 Si02
#       6
#     8   8   8   8   8   8
#     4   9  18  33  53  76 104 137 168 203 250 300
#     4   9  17  30  51  78 103 130 167 208 249 297
#     4   9  18  32  49  70  98 132 167 206 256 306
#     4   9  17  32  55  80 104 131 166 207 252 303
#     4  10  20  35  54  75 101 132 168 213 262 304
#     4  10  21  36  53  73  99 134 174 210 246 296
#
# _framework density 19.202072999999999
#
# number of rings (size 3 to 8) (size 9 to 14) (size 15 to 20)
#    0.000    2.667    0.000    1.500    0.000    5.333 
#    0.000    7.500    0.000    4.000    0.000    0.000 
#    0.000    0.000    0.000    0.000    0.000    0.000 
#
# Total GULP energy -594962.483853 kJ/mol
# GULP energy per Si atom -12395.051747 kJ/mol
# Density = 1.915837 g / cm^3
# Si number density = 19.202073 Si / 1000 Ang^3
#
#
#
# Elastic Constant Matrix: (Units=GPa)
#
#
# Indices 1 2 3 4 5 6 
#
# 1 91.8893 30.4227 24.5826 0.0000 0.0000 0.0000
# 2 30.4227 49.4201 30.2336 0.0000 0.0000 0.0000
# 3 24.5826 30.2336 56.0553 0.0000 0.0000 0.0000
# 4 0.0000 0.0000 0.0000 17.1194 0.0000 0.0000
# 5 0.0000 0.0000 0.0000 0.0000 21.3459 0.0000
# 6 0.0000 0.0000 0.0000 0.0000 0.0000 10.1745
#
#
#
# Elastic Compliance Matrix: (Units=1/GPa)
#
#
# Indices 1 2 3 4 5 6 
#
# 1 0.013848 -0.007178 -0.002201 0.000000 0.000000 0.000000
# 2 -0.007178 0.033920 -0.015147 0.000000 0.000000 0.000000
# 3 -0.002201 -0.015147 0.026974 0.000000 0.000000 0.000000
# 4 0.000000 0.000000 0.000000 0.058413 0.000000 0.000000
# 5 0.000000 0.000000 0.000000 0.000000 0.046847 0.000000
# 6 0.000000 0.000000 0.000000 0.000000 0.000000 0.098285
#
#
# Mechanical properties :
#
#
# Convention : Reuss Voigt Hill
#
# Bulk Modulus (GPa) = 38.92623 40.87138 39.89881
# Shear Modulus (GPa) = 14.88521 17.20303 16.04412
#
# Velocity S-wave (km/s) = 2.78724 2.99640 2.89371
# Velocity P-wave (km/s) = 5.53843 5.77081 5.65581
#
# Compressibility (1/GPa) = 0.02568962
#
# Stress axis : x y z
#
# Youngs Moduli (GPa) = 72.21205 29.48129 37.07205
#
# Poissons Ratio (x) = 0.21162 0.08161
# Poissons Ratio (y) = 0.51834 0.56153
# Poissons Ratio (z) = 0.15897 0.44655
#
# Static dielectric constant tensor:
#      x y z
#    x 3.833270 0.000000 0.000000 
#    y 0.000000 3.396560 0.000000 
#    z 0.000000 0.000000 3.545330 
# 
# 
# High freq. dielectric constant tensor:
#      x y z
#    x 1.756880 0.000000 0.000000 
#    y 0.000000 1.720080 0.000000 
#    z 0.000000 0.000000 1.742600 
# 
# From -- ./inp_files/11655.got.cif
#   From: 2010.03.12/outbox.cif.g09.slc.cpg/sg51_6_cif.got.tgz:11655.got - 2010.04.16 13:43:02.
