data_PCOD8211399
_publ_section_title
;
Structure prediction by ZEFSAII (Michael W. Deem and Ramdas Pophale) SiO2 
 PCOD8211399
Probable space group: P M M A
;
_chemical_formula_sum "Si O2"
_cell_formula_units_Z 64
_cell_length_a 8.863931
_cell_length_b 14.527931
_cell_length_c 29.557841
_cell_angle_alpha 90.000000
_cell_angle_beta 90.000000
_cell_angle_gamma 90.000000
_cell_volume 3806.298500
_symmetry_space_group_name_H-M "P M M A"
_symmetry_group_IT_number 51
_symmetry_cell_setting 'orthorhombic'
loop_
_space_group_symop_operation_xyz
x,y,z
1/2-x,-y,z
1/2+x,-y,-z
-x,y,-z
-x,-y,-z
1/2+x,y,-z
1/2-x,y,z
x,-y,z
loop_
_atom_site_type_symbol
_atom_site_label
_atom_site_fract_x
_atom_site_fract_y
_atom_site_fract_z
Si Si1 0.419779 0.390177 0.954961
Si Si2 0.418515 0.390955 0.134160
Si Si3 0.079751 0.600458 0.367126
Si Si4 0.076940 0.104434 0.359186
Si Si5 0.921973 0.634239 0.455038
Si Si6 0.921253 0.147962 0.453709
Si Si7 0.425726 0.737421 0.693851
Si Si8 0.070961 0.605167 0.773324
O O1 0.250000 0.352734 0.954558
O O2 0.422534 0.500000 0.954546
O O3 0.503454 0.350075 0.910749
O O4 0.500000 0.352215 0.000000
O O5 0.250000 0.350608 0.137793
O O6 0.414258 0.500000 0.130160
O O7 0.511833 0.361295 0.178177
O O8 0.250000 0.641000 0.363448
O O9 0.074192 0.500000 0.343535
O O10 0.029403 0.588367 0.418283
O O11 0.955199 0.667916 0.346910
O O12 0.250000 0.133620 0.365505
O O13 0.999574 0.111650 0.408193
O O14 0.007087 0.167014 0.318820
O O15 0.060882 0.000000 0.341870
O O16 0.750000 0.598712 0.451367
O O17 0.927914 0.743338 0.451770
O O18 0.000000 0.598269 0.500000
O O19 0.750000 0.111549 0.454157
O O20 0.000000 0.111459 0.500000
O O21 0.250000 0.758564 0.698724
O O22 0.489259 0.682321 0.737915
O O23 0.250000 0.605195 0.773780
O O24 0.014326 0.500000 0.762231
#
# Coordination Sequence:
#
# PCOD8211399 Si02
#       8
#     8   8   8   8   8   8   8   8
#     4   9  15  22  33  50  76 112 154 200 247 289
#     4   9  16  25  38  58  84 115 155 200 242 283
#     4  11  23  36  52  74  99 127 156 187 224 268
#     4  11  24  40  58  79 102 127 153 185 227 277
#     4  10  20  34  53  74  96 124 153 183 220 262
#     4  10  20  35  57  81 102 126 151 180 220 267
#     4  11  22  37  56  76  97 124 155 194 238 278
#     4   9  18  32  49  69  94 124 158 196 239 284
#
# _framework density 16.814236999999999
#
# number of rings (size 3 to 8) (size 9 to 14) (size 15 to 20)
#    0.000    2.000    1.250    3.000    0.000    8.000 
#    0.000    1.250    0.000    0.000    0.000    0.000 
#    0.000    0.000    0.000    0.000    0.000    0.625 
#
# Total GULP energy -793248.334797 kJ/mol
# GULP energy per Si atom -12394.505231 kJ/mol
# Density = 1.677597 g / cm^3
# Si number density = 16.814237 Si / 1000 Ang^3
#
#
#
# Elastic Constant Matrix: (Units=GPa)
#
#
# Indices 1 2 3 4 5 6 
#
# 1 86.4222 24.7143 38.4154 0.0000 0.0000 0.0000
# 2 24.7143 63.3666 33.8718 0.0000 0.0000 0.0000
# 3 38.4154 33.8718 121.4327 0.0000 0.0000 0.0000
# 4 0.0000 0.0000 0.0000 6.4444 0.0000 0.0000
# 5 0.0000 0.0000 0.0000 0.0000 30.5625 0.0000
# 6 0.0000 0.0000 0.0000 0.0000 0.0000 4.5501
#
#
#
# Elastic Compliance Matrix: (Units=1/GPa)
#
#
# Indices 1 2 3 4 5 6 
#
# 1 0.014157 -0.003676 -0.003453 0.000000 0.000000 0.000000
# 2 -0.003676 0.019501 -0.004277 0.000000 0.000000 0.000000
# 3 -0.003453 -0.004277 0.010520 0.000000 0.000000 0.000000
# 4 0.000000 0.000000 0.000000 0.155174 0.000000 0.000000
# 5 0.000000 0.000000 0.000000 0.000000 0.032720 0.000000
# 6 0.000000 0.000000 0.000000 0.000000 0.000000 0.219773
#
#
# Mechanical properties :
#
#
# Convention : Reuss Voigt Hill
#
# Bulk Modulus (GPa) = 46.80102 51.69162 49.24632
# Shear Modulus (GPa) = 10.37819 19.92607 15.15213
#
# Velocity S-wave (km/s) = 2.48710 3.44622 3.00517
# Velocity P-wave (km/s) = 6.01183 6.82970 6.43377
#
# Compressibility (1/GPa) = 0.02136706
#
# Stress axis : x y z
#
# Youngs Moduli (GPa) = 70.63490 51.27997 95.05335
#
# Poissons Ratio (x) = 0.18849 0.32826
# Poissons Ratio (y) = 0.25963 0.40651
# Poissons Ratio (z) = 0.24393 0.21931
#
# Static dielectric constant tensor:
#      x y z
#    x 3.326660 0.000000 0.000000 
#    y 0.000000 2.871340 0.000000 
#    z 0.000000 0.000000 3.221710 
# 
# 
# High freq. dielectric constant tensor:
#      x y z
#    x 1.664150 0.000000 0.000000 
#    y 0.000000 1.601620 0.000000 
#    z 0.000000 0.000000 1.636950 
# 
# From -- ./inp_files/37517.got.cif
#   From: 2010.03.12/outbox.cif.g09.slc.cpg/sg51_19_cif.got.tgz:37517.got - 2010.04.16 13:43:02.
