data_PCOD8211060
_publ_section_title
;
Structure prediction by ZEFSAII (Michael W. Deem and Ramdas Pophale) SiO2 
 PCOD8211060
Probable space group: P M M A
;
_chemical_formula_sum "Si O2"
_cell_formula_units_Z 56
_cell_length_a 8.812090
_cell_length_b 14.483846
_cell_length_c 23.243469
_cell_angle_alpha 90.000000
_cell_angle_beta 90.000000
_cell_angle_gamma 90.000000
_cell_volume 2966.632621
_symmetry_space_group_name_H-M "P M M A"
_symmetry_group_IT_number 51
_symmetry_cell_setting 'orthorhombic'
loop_
_space_group_symop_operation_xyz
x,y,z
1/2-x,-y,z
1/2+x,-y,-z
-x,y,-z
-x,-y,-z
1/2+x,y,-z
1/2-x,y,z
x,-y,z
loop_
_atom_site_type_symbol
_atom_site_label
_atom_site_fract_x
_atom_site_fract_y
_atom_site_fract_z
Si Si1 0.575619 0.893037 0.168182
Si Si2 0.425535 0.218295 0.940839
Si Si3 0.571262 0.605407 0.560794
Si Si4 0.575341 0.606907 0.758933
Si Si5 0.428433 0.722863 0.661347
Si Si6 0.428506 0.105734 0.287851
Si Si7 0.575952 0.397008 0.122104
O O1 0.750000 0.865127 0.180764
O O2 0.509037 0.838702 0.113280
O O3 0.477391 0.865487 0.223551
O O4 0.559985 0.000000 0.153641
O O5 0.250000 0.195899 0.947027
O O6 0.458691 0.326649 0.929711
O O7 0.500000 0.186031 0.000000
O O8 0.500000 0.632489 0.500000
O O9 0.750000 0.618197 0.556967
O O10 0.528612 0.500000 0.577517
O O11 0.506526 0.674830 0.607480
O O12 0.750000 0.634841 0.748927
O O13 0.548380 0.500000 0.743694
O O14 0.468896 0.667557 0.718820
O O15 0.531459 0.627163 0.824540
O O16 0.250000 0.723575 0.651756
O O17 0.488057 0.828067 0.666520
O O18 0.250000 0.119274 0.293739
O O19 0.477081 0.000000 0.300712
O O20 0.750000 0.386925 0.142889
O O21 0.542640 0.500000 0.098984
#
# Coordination Sequence:
#
# PCOD8211060 Si02
#       7
#     8   8   8   8   8   8   8
#     4   9  18  34  54  75 101 131 163 204 259 321
#     4  10  21  34  48  68  93 124 164 209 256 308
#     4  10  21  38  59  84 117 155 194 234 272 313
#     4  10  20  33  51  78 109 138 172 218 270 321
#     4  12  23  34  54  82 113 150 187 223 266 318
#     4  10  21  37  58  84 111 139 175 222 274 325
#     4   9  18  33  50  68  94 128 165 207 258 316
#
# _framework density 18.876621
#
# number of rings (size 3 to 8) (size 9 to 14) (size 15 to 20)
#    0.000    2.000    0.000    3.857    0.000    7.143 
#    0.000    0.000    0.000    0.429    0.000    0.000 
#    0.000    0.000    0.000    0.000    0.000    0.000 
#
# Total GULP energy -694544.897203 kJ/mol
# GULP energy per Si atom -12402.587450 kJ/mol
# Density = 1.883366 g / cm^3
# Si number density = 18.876621 Si / 1000 Ang^3
#
#
#
# Elastic Constant Matrix: (Units=GPa)
#
#
# Indices 1 2 3 4 5 6 
#
# 1 68.3397 33.6938 33.0326 0.0000 0.0000 0.0000
# 2 33.6938 92.2396 56.3623 0.0000 0.0000 0.0000
# 3 33.0326 56.3623 88.5344 0.0000 0.0000 0.0000
# 4 0.0000 0.0000 0.0000 35.4321 0.0000 0.0000
# 5 0.0000 0.0000 0.0000 0.0000 34.9985 0.0000
# 6 0.0000 0.0000 0.0000 0.0000 0.0000 25.4588
#
#
#
# Elastic Compliance Matrix: (Units=1/GPa)
#
#
# Indices 1 2 3 4 5 6 
#
# 1 0.018808 -0.004226 -0.004327 0.000000 0.000000 0.000000
# 2 -0.004226 0.018693 -0.010324 0.000000 0.000000 0.000000
# 3 -0.004327 -0.010324 0.019481 0.000000 0.000000 0.000000
# 4 0.000000 0.000000 0.000000 0.028223 0.000000 0.000000
# 5 0.000000 0.000000 0.000000 0.000000 0.028573 0.000000
# 6 0.000000 0.000000 0.000000 0.000000 0.000000 0.039279
#
#
# Mechanical properties :
#
#
# Convention : Reuss Voigt Hill
#
# Bulk Modulus (GPa) = 52.00390 55.03234 53.51812
# Shear Modulus (GPa) = 25.35231 27.57955 26.46593
#
# Velocity S-wave (km/s) = 3.66875 3.82651 3.74846
# Velocity P-wave (km/s) = 6.74948 6.98139 6.86641
#
# Compressibility (1/GPa) = 0.01922933
#
# Stress axis : x y z
#
# Youngs Moduli (GPa) = 53.16910 53.49500 51.33083
#
# Poissons Ratio (x) = 0.22610 0.22209
# Poissons Ratio (y) = 0.22472 0.52992
# Poissons Ratio (z) = 0.23005 0.55226
#
# Static dielectric constant tensor:
#      x y z
#    x 3.298680 0.000000 0.000000 
#    y 0.000000 3.680800 0.000000 
#    z 0.000000 0.000000 3.232150 
# 
# 
# High freq. dielectric constant tensor:
#      x y z
#    x 1.735620 0.000000 0.000000 
#    y 0.000000 1.741030 0.000000 
#    z 0.000000 0.000000 1.714780 
# 
# From -- ./inp_files/31993.got.cif
#   From: 2010.03.12/outbox.cif.g09.slc.cpg/sg51_16_cif.got.tgz:31993.got - 2010.04.16 13:43:02.
