data_PCOD8211875
_publ_section_title
;
Structure prediction by ZEFSAII (Michael W. Deem and Ramdas Pophale) SiO2 
 PCOD8211875
Probable space group: P M M A
;
_chemical_formula_sum "Si O2"
_cell_formula_units_Z 40
_cell_length_a 14.388559
_cell_length_b 9.072312
_cell_length_c 14.696290
_cell_angle_alpha 90.000000
_cell_angle_beta 90.000000
_cell_angle_gamma 90.000000
_cell_volume 1918.416904
_symmetry_space_group_name_H-M "P M M A"
_symmetry_group_IT_number 51
_symmetry_cell_setting 'orthorhombic'
loop_
_space_group_symop_operation_xyz
x,y,z
1/2-x,-y,z
1/2+x,-y,-z
-x,y,-z
-x,-y,-z
1/2+x,y,-z
1/2-x,y,z
x,-y,z
loop_
_atom_site_type_symbol
_atom_site_label
_atom_site_fract_x
_atom_site_fract_y
_atom_site_fract_z
Si Si1 0.392515 0.326297 0.515073
Si Si2 0.250000 0.826473 0.858611
Si Si3 0.393350 0.327030 0.985589
Si Si4 0.750000 0.825220 0.355670
Si Si5 0.646332 0.841659 0.659529
Si Si6 0.646037 0.340507 0.817660
O O1 0.500000 0.284611 0.500000
O O2 0.377130 0.500000 0.527191
O O3 0.343798 0.244630 0.600356
O O4 0.344930 0.269193 0.424105
O O5 0.250000 0.788673 0.751431
O O6 0.250000 0.000000 0.874815
O O7 0.156562 0.759669 0.903806
O O8 0.379524 0.500000 0.965982
O O9 0.347628 0.276969 0.080672
O O10 0.500000 0.282855 0.000000
O O11 0.750000 0.000000 0.374675
O O12 0.750000 0.877021 0.692060
O O13 0.592993 0.765649 0.745568
O O14 0.597806 0.000000 0.636024
O O15 0.750000 0.363840 0.780841
O O16 0.593848 0.500000 0.819316
#
# Coordination Sequence:
#
# PCOD8211875 Si02
#       6
#     8   4   8   4   8   8
#     4  11  24  41  64  93 123 161 210 262 314 372
#     4  11  25  43  64  91 130 173 213 262 318 383
#     4  10  21  39  64  92 123 162 211 263 313 370
#     4  11  25  45  66  93 130 173 215 260 320 383
#     4  10  20  34  56  86 117 152 190 237 301 366
#     4   9  17  32  55  83 115 150 190 242 298 356
#
# _framework density 20.850525999999999
#
# number of rings (size 3 to 8) (size 9 to 14) (size 15 to 20)
#    0.000    1.800    2.000    1.800    0.000    6.800 
#    0.000    6.000    0.000    0.000    0.000    0.000 
#    0.000    0.000    0.000    0.000    0.000    0.000 
#
# Total GULP energy -495551.370847 kJ/mol
# GULP energy per Si atom -12388.784271 kJ/mol
# Density = 2.080307 g / cm^3
# Si number density = 20.850526 Si / 1000 Ang^3
#
#
#
# Elastic Constant Matrix: (Units=GPa)
#
#
# Indices 1 2 3 4 5 6 
#
# 1 105.2237 49.6051 48.7488 0.0000 0.0000 0.0000
# 2 49.6051 127.8374 85.0693 0.0000 0.0000 0.0000
# 3 48.7488 85.0693 172.6422 0.0000 0.0000 0.0000
# 4 0.0000 0.0000 0.0000 36.2962 0.0000 0.0000
# 5 0.0000 0.0000 0.0000 0.0000 2.6427 0.0000
# 6 0.0000 0.0000 0.0000 0.0000 0.0000 20.1000
#
#
#
# Elastic Compliance Matrix: (Units=1/GPa)
#
#
# Indices 1 2 3 4 5 6 
#
# 1 0.011927 -0.003552 -0.001618 0.000000 0.000000 0.000000
# 2 -0.003552 0.012696 -0.005253 0.000000 0.000000 0.000000
# 3 -0.001618 -0.005253 0.008838 0.000000 0.000000 0.000000
# 4 0.000000 0.000000 0.000000 0.027551 0.000000 0.000000
# 5 0.000000 0.000000 0.000000 0.000000 0.378400 0.000000
# 6 0.000000 0.000000 0.000000 0.000000 0.000000 0.049751
#
#
# Mechanical properties :
#
#
# Convention : Reuss Voigt Hill
#
# Bulk Modulus (GPa) = 79.26452 85.83886 82.55169
# Shear Modulus (GPa) = 9.72356 26.62645 18.17501
#
# Velocity S-wave (km/s) = 2.16185 3.57741 2.95563
# Velocity P-wave (km/s) = 6.65805 7.63688 7.16420
#
# Compressibility (1/GPa) = 0.01261598
#
# Stress axis : x y z
#
# Youngs Moduli (GPa) = 83.84038 78.76272 113.15156
#
# Poissons Ratio (x) = 0.27974 0.18306
# Poissons Ratio (y) = 0.29777 0.59441
# Poissons Ratio (z) = 0.13564 0.41376
#
# Static dielectric constant tensor:
#      x y z
#    x 3.739940 0.000000 0.000000 
#    y 0.000000 4.199750 0.000000 
#    z 0.000000 0.000000 3.774320 
# 
# 
# High freq. dielectric constant tensor:
#      x y z
#    x 1.791940 0.000000 0.000000 
#    y 0.000000 1.822050 0.000000 
#    z 0.000000 0.000000 1.822760 
# 
# From -- ./inp_files/23749.got.cif
#   From: 2010.03.12/outbox.cif.g09.slc.cpg/sg51_12_cif.got.tgz:23749.got - 2010.04.16 13:43:02.
