data_PCOD8211248
_publ_section_title
;
Structure prediction by ZEFSAII (Michael W. Deem and Ramdas Pophale) SiO2 
 PCOD8211248
Probable space group: P M M A
;
_chemical_formula_sum "Si O2"
_cell_formula_units_Z 36
_cell_length_a 9.482838
_cell_length_b 8.175724
_cell_length_c 25.062767
_cell_angle_alpha 90.000000
_cell_angle_beta 90.000000
_cell_angle_gamma 90.000000
_cell_volume 1943.092923
_symmetry_space_group_name_H-M "P M M A"
_symmetry_group_IT_number 51
_symmetry_cell_setting 'orthorhombic'
loop_
_space_group_symop_operation_xyz
x,y,z
1/2-x,-y,z
1/2+x,-y,-z
-x,y,-z
-x,-y,-z
1/2+x,y,-z
1/2-x,y,z
x,-y,z
loop_
_atom_site_type_symbol
_atom_site_label
_atom_site_fract_x
_atom_site_fract_y
_atom_site_fract_z
Si Si1 0.918686 0.500000 0.444952
Si Si2 0.417048 0.814358 0.841405
Si Si3 0.582586 0.316359 0.269132
Si Si4 0.406644 0.308414 0.952648
Si Si5 0.582662 0.181514 0.378884
O O1 0.750000 0.500000 0.453070
O O2 0.969790 0.666188 0.414894
O O3 0.000000 0.500000 0.500000
O O4 0.250000 0.791636 0.839393
O O5 0.483802 0.738542 0.787496
O O6 0.475806 0.727145 0.894733
O O7 0.464695 0.000000 0.844057
O O8 0.750000 0.302337 0.265575
O O9 0.534680 0.500000 0.281379
O O10 0.527303 0.205671 0.318164
O O11 0.250000 0.229876 0.955779
O O12 0.396332 0.500000 0.961266
O O13 0.500000 0.229635 0.000000
O O14 0.750000 0.185864 0.379039
O O15 0.530403 0.000000 0.398702
#
# Coordination Sequence:
#
# PCOD8211248 Si02
#       5
#     4   8   8   8   8
#     4  10  20  34  50  72 100 130 163 196 230 272
#     4   9  16  24  36  58  86 113 142 178 223 272
#     4   9  14  22  38  61  90 120 147 181 230 280
#     4   9  17  29  43  59  81 111 145 180 218 263
#     4   9  16  27  44  67  96 127 158 194 236 279
#
# _framework density 18.527165
#
# number of rings (size 3 to 8) (size 9 to 14) (size 15 to 20)
#    0.000    2.889    1.111    1.333    0.000    6.222 
#    0.000    0.000    0.000    0.000    0.000    1.556 
#    0.000    3.556    0.000    0.000    0.000    0.000 
#
# Total GULP energy -446021.815260 kJ/mol
# GULP energy per Si atom -12389.494868 kJ/mol
# Density = 1.848500 g / cm^3
# Si number density = 18.527165 Si / 1000 Ang^3
#
#
#
# Elastic Constant Matrix: (Units=GPa)
#
#
# Indices 1 2 3 4 5 6 
#
# 1 15.7813 12.7510 28.2506 0.0000 0.0000 0.0000
# 2 12.7510 109.3226 67.6235 0.0000 0.0000 0.0000
# 3 28.2506 67.6235 161.2036 0.0000 0.0000 0.0000
# 4 0.0000 0.0000 0.0000 23.3769 0.0000 0.0000
# 5 0.0000 0.0000 0.0000 0.0000 20.7939 0.0000
# 6 0.0000 0.0000 0.0000 0.0000 0.0000 5.5335
#
#
#
# Elastic Compliance Matrix: (Units=1/GPa)
#
#
# Indices 1 2 3 4 5 6 
#
# 1 0.092417 -0.001028 -0.015765 0.000000 0.000000 0.000000
# 2 -0.001028 0.012364 -0.005006 0.000000 0.000000 0.000000
# 3 -0.015765 -0.005006 0.011066 0.000000 0.000000 0.000000
# 4 0.000000 0.000000 0.000000 0.042777 0.000000 0.000000
# 5 0.000000 0.000000 0.000000 0.000000 0.048091 0.000000
# 6 0.000000 0.000000 0.000000 0.000000 0.000000 0.180716
#
#
# Mechanical properties :
#
#
# Convention : Reuss Voigt Hill
#
# Bulk Modulus (GPa) = 13.84088 55.95087 34.89587
# Shear Modulus (GPa) = 10.98626 21.78635 16.38631
#
# Velocity S-wave (km/s) = 2.43776 3.43288 2.97719
# Velocity P-wave (km/s) = 3.92561 6.78069 5.54023
#
# Compressibility (1/GPa) = 0.07224973
#
# Stress axis : x y z
#
# Youngs Moduli (GPa) = 10.82046 80.88036 90.36468
#
# Poissons Ratio (x) = 0.08312 1.42459
# Poissons Ratio (y) = 0.01112 0.45241
# Poissons Ratio (z) = 0.17058 0.40493
#
# Static dielectric constant tensor:
#      x y z
#    x 2.846760 0.000000 0.000000 
#    y 0.000000 3.588470 0.000000 
#    z 0.000000 0.000000 3.688000 
# 
# 
# High freq. dielectric constant tensor:
#      x y z
#    x 1.622090 0.000000 0.000000 
#    y 0.000000 1.728000 0.000000 
#    z 0.000000 0.000000 1.735060 
# 
# From -- ./inp_files/32752.got.cif
#   From: 2010.03.12/outbox.cif.g09.slc.cpg/sg51_17_cif.got.tgz:32752.got - 2010.04.16 13:43:02.
