data_PCOD8211856
_publ_section_title
;
Structure prediction by ZEFSAII (Michael W. Deem and Ramdas Pophale) SiO2 
 PCOD8211856
Probable space group: P M M A
;
_chemical_formula_sum "Si O2"
_cell_formula_units_Z 44
_cell_length_a 8.810645
_cell_length_b 17.117945
_cell_length_c 15.074671
_cell_angle_alpha 90.000000
_cell_angle_beta 90.000000
_cell_angle_gamma 90.000000
_cell_volume 2273.563938
_symmetry_space_group_name_H-M "P M M A"
_symmetry_group_IT_number 51
_symmetry_cell_setting 'orthorhombic'
loop_
_space_group_symop_operation_xyz
x,y,z
1/2-x,-y,z
1/2+x,-y,-z
-x,y,-z
-x,-y,-z
1/2+x,y,-z
1/2-x,y,z
x,-y,z
loop_
_atom_site_type_symbol
_atom_site_label
_atom_site_fract_x
_atom_site_fract_y
_atom_site_fract_z
Si Si1 0.071954 0.412119 0.591150
Si Si2 0.572613 0.879196 0.729071
Si Si3 0.069087 0.000000 0.598182
Si Si4 0.920166 0.881122 0.088221
Si Si5 0.079518 0.695830 0.912711
Si Si6 0.925621 0.696737 0.733093
O O1 0.250000 0.409526 0.579943
O O2 0.016079 0.500000 0.614182
O O3 0.000000 0.382654 0.500000
O O4 0.023945 0.352605 0.666003
O O5 0.750000 0.899032 0.724296
O O6 0.486085 0.923081 0.650205
O O7 0.511609 0.908064 0.824526
O O8 0.540755 0.787667 0.716344
O O9 0.000000 0.000000 0.500000
O O10 0.250000 0.000000 0.591519
O O11 0.750000 0.915084 0.094309
O O12 0.915114 0.788538 0.081266
O O13 0.000000 0.915570 0.000000
O O14 0.250000 0.662106 0.903796
O O15 0.977575 0.669890 0.830231
O O16 0.000000 0.660599 0.000000
O O17 0.750000 0.676888 0.721171
#
# Coordination Sequence:
#
# PCOD8211856 Si02
#       6
#     8   8   4   8   8   8
#     4  10  21  37  57  81 110 143 178 220 272 326
#     4  10  21  38  58  82 111 143 182 226 270 320
#     4  12  26  44  63  80 103 140 182 226 278 328
#     4   9  16  28  49  78 110 144 179 218 266 318
#     4   9  16  27  46  74 109 145 182 222 263 312
#     4  10  20  34  56  84 112 144 182 223 267 318
#
# _framework density 19.352875999999998
#
# number of rings (size 3 to 8) (size 9 to 14) (size 15 to 20)
#    0.000    2.182    0.000    3.545    0.000    8.364 
#    0.000    0.455    0.000    0.545    0.000    0.000 
#    0.000    0.000    0.000    0.000    0.000    0.000 
#
# Total GULP energy -545647.303882 kJ/mol
# GULP energy per Si atom -12401.075088 kJ/mol
# Density = 1.930883 g / cm^3
# Si number density = 19.352876 Si / 1000 Ang^3
#
#
#
# Elastic Constant Matrix: (Units=GPa)
#
#
# Indices 1 2 3 4 5 6 
#
# 1 121.8628 27.2281 58.6719 0.0000 0.0000 0.0000
# 2 27.2281 49.9684 46.2221 0.0000 0.0000 0.0000
# 3 58.6719 46.2221 163.8009 0.0000 0.0000 0.0000
# 4 0.0000 0.0000 0.0000 0.0644 0.0000 0.0000
# 5 0.0000 0.0000 0.0000 0.0000 44.0130 0.0000
# 6 0.0000 0.0000 0.0000 0.0000 0.0000 23.8067
#
#
#
# Elastic Compliance Matrix: (Units=1/GPa)
#
#
# Indices 1 2 3 4 5 6 
#
# 1 0.010229 -0.002956 -0.002830 0.000000 0.000000 0.000000
# 2 -0.002956 0.027936 -0.006824 0.000000 0.000000 0.000000
# 3 -0.002830 -0.006824 0.009044 0.000000 0.000000 0.000000
# 4 0.000000 0.000000 0.000000 15.517315 0.000000 0.000000
# 5 0.000000 0.000000 0.000000 0.000000 0.022721 0.000000
# 6 0.000000 0.000000 0.000000 0.000000 0.000000 0.042005
#
#
# Mechanical properties :
#
#
# Convention : Reuss Voigt Hill
#
# Bulk Modulus (GPa) = 45.47751 66.65292 56.06522
# Shear Modulus (GPa) = 0.31925 27.14416 13.73170
#
# Velocity S-wave (km/s) = 0.40660 3.74918 2.66662
# Velocity P-wave (km/s) = 4.87550 7.29777 6.20596
#
# Compressibility (1/GPa) = 0.02198889
#
# Stress axis : x y z
#
# Youngs Moduli (GPa) = 97.76281 35.79596 110.56766
#
# Poissons Ratio (x) = 0.10582 0.31287
# Poissons Ratio (y) = 0.28901 0.75454
# Poissons Ratio (z) = 0.27664 0.24428
#
# Static dielectric constant tensor:
#      x y z
#    x 3.688810 0.000000 0.000000 
#    y 0.000000 3.246270 0.000000 
#    z 0.000000 0.000000 3.522350 
# 
# 
# High freq. dielectric constant tensor:
#      x y z
#    x 1.772340 0.000000 0.000000 
#    y 0.000000 1.722160 0.000000 
#    z 0.000000 0.000000 1.762150 
# 
# From -- ./inp_files/20947.got.cif
#   From: 2010.03.12/outbox.cif.g09.slc.cpg/sg51_11_cif.got.tgz:20947.got - 2010.04.16 13:43:02.
