data_PCOD8211276
_publ_section_title
;
Structure prediction by ZEFSAII (Michael W. Deem and Ramdas Pophale) SiO2 
 PCOD8211276
Probable space group: P M M A
;
_chemical_formula_sum "Si O2"
_cell_formula_units_Z 40
_cell_length_a 8.757842
_cell_length_b 26.150243
_cell_length_c 9.335623
_cell_angle_alpha 90.000000
_cell_angle_beta 90.000000
_cell_angle_gamma 90.000000
_cell_volume 2138.041546
_symmetry_space_group_name_H-M "P M M A"
_symmetry_group_IT_number 51
_symmetry_cell_setting 'orthorhombic'
loop_
_space_group_symop_operation_xyz
x,y,z
1/2-x,-y,z
1/2+x,-y,-z
-x,y,-z
-x,-y,-z
1/2+x,y,-z
1/2-x,y,z
x,-y,z
loop_
_atom_site_type_symbol
_atom_site_label
_atom_site_fract_x
_atom_site_fract_y
_atom_site_fract_z
Si Si1 0.068855 0.308422 0.344863
Si Si2 0.929718 0.404373 0.843522
Si Si3 0.571543 0.000000 0.153942
Si Si4 0.569042 0.500000 0.657504
Si Si5 0.568071 0.797034 0.345382
Si Si6 0.569879 0.109914 0.155603
O O1 0.250000 0.303391 0.360887
O O2 0.020612 0.351947 0.232981
O O3 0.000000 0.321663 0.500000
O O4 0.998615 0.255868 0.282771
O O5 0.750000 0.407885 0.861382
O O6 0.989586 0.450624 0.744667
O O7 0.000000 0.407890 0.000000
O O8 0.524421 0.054286 0.227954
O O9 0.750000 0.000000 0.130797
O O10 0.500000 0.000000 0.000000
O O11 0.750000 0.500000 0.641496
O O12 0.500000 0.500000 0.500000
O O13 0.500000 0.806660 0.500000
O O14 0.750000 0.793934 0.351638
O O15 0.506351 0.844172 0.251577
O O16 0.750000 0.114858 0.141049
O O17 0.500000 0.115587 0.000000
#
# Coordination Sequence:
#
# PCOD8211276 Si02
#       6
#     8   8   4   4   8   8
#     4  10  20  35  54  76 100 132 171 209 248 298
#     4  10  22  37  55  80 109 137 170 210 254 299
#     4   8  14  28  47  68  94 124 158 200 245 294
#     4  10  21  38  58  82 108 138 175 212 250 300
#     4  10  20  34  51  73 100 133 168 205 249 298
#     4   9  18  31  50  73  97 126 163 204 249 297
#
# _framework density 18.708711999999998
#
# number of rings (size 3 to 8) (size 9 to 14) (size 15 to 20)
#    0.000    2.400    0.000    3.300    0.000    4.800 
#    0.000    4.500    0.000    0.000    0.000    0.000 
#    0.000    0.000    0.000    0.000    0.000    0.000 
#
# Total GULP energy -495740.261446 kJ/mol
# GULP energy per Si atom -12393.506536 kJ/mol
# Density = 1.866613 g / cm^3
# Si number density = 18.708712 Si / 1000 Ang^3
#
#
#
# Elastic Constant Matrix: (Units=GPa)
#
#
# Indices 1 2 3 4 5 6 
#
# 1 45.7550 46.4663 31.3576 0.0000 0.0000 0.0000
# 2 46.4663 215.5780 104.8750 0.0000 0.0000 0.0000
# 3 31.3576 104.8750 114.5744 0.0000 0.0000 0.0000
# 4 0.0000 0.0000 0.0000 26.5079 0.0000 0.0000
# 5 0.0000 0.0000 0.0000 0.0000 30.3593 0.0000
# 6 0.0000 0.0000 0.0000 0.0000 0.0000 26.1842
#
#
#
# Elastic Compliance Matrix: (Units=1/GPa)
#
#
# Indices 1 2 3 4 5 6 
#
# 1 0.028957 -0.004301 -0.003988 0.000000 0.000000 0.000000
# 2 -0.004301 0.009001 -0.007062 0.000000 0.000000 0.000000
# 3 -0.003988 -0.007062 0.016284 0.000000 0.000000 0.000000
# 4 0.000000 0.000000 0.000000 0.037725 0.000000 0.000000
# 5 0.000000 0.000000 0.000000 0.000000 0.032939 0.000000
# 6 0.000000 0.000000 0.000000 0.000000 0.000000 0.038191
#
#
# Mechanical properties :
#
#
# Convention : Reuss Voigt Hill
#
# Bulk Modulus (GPa) = 42.48257 82.36725 62.42491
# Shear Modulus (GPa) = 24.79596 29.49084 27.14340
#
# Velocity S-wave (km/s) = 3.64451 3.97459 3.81313
# Velocity P-wave (km/s) = 6.36134 8.07372 7.26813
#
# Compressibility (1/GPa) = 0.02353907
#
# Stress axis : x y z
#
# Youngs Moduli (GPa) = 34.53419 111.09301 61.41103
#
# Poissons Ratio (x) = 0.47786 0.24490
# Poissons Ratio (y) = 0.14855 0.43370
# Poissons Ratio (z) = 0.13772 0.78456
#
# Static dielectric constant tensor:
#      x y z
#    x 3.386630 0.000000 0.000000 
#    y 0.000000 4.216550 0.000000 
#    z 0.000000 0.000000 3.268680 
# 
# 
# High freq. dielectric constant tensor:
#      x y z
#    x 1.724720 0.000000 0.000000 
#    y 0.000000 1.755190 0.000000 
#    z 0.000000 0.000000 1.705880 
# 
# From -- ./inp_files/5564.got.cif
#   From: 2010.03.12/outbox.cif.g09.slc.cpg/sg51_3_cif.got.tgz:5564.got - 2010.04.16 13:43:02.
