data_PCOD8211561
_publ_section_title
;
Structure prediction by ZEFSAII (Michael W. Deem and Ramdas Pophale) SiO2 
 PCOD8211561
Probable space group: P M M A
;
_chemical_formula_sum "Si O2"
_cell_formula_units_Z 48
_cell_length_a 9.014172
_cell_length_b 9.551009
_cell_length_c 29.346025
_cell_angle_alpha 90.000000
_cell_angle_beta 90.000000
_cell_angle_gamma 90.000000
_cell_volume 2526.529527
_symmetry_space_group_name_H-M "P M M A"
_symmetry_group_IT_number 51
_symmetry_cell_setting 'orthorhombic'
loop_
_space_group_symop_operation_xyz
x,y,z
1/2-x,-y,z
1/2+x,-y,-z
-x,y,-z
-x,-y,-z
1/2+x,y,-z
1/2-x,y,z
x,-y,z
loop_
_atom_site_type_symbol
_atom_site_label
_atom_site_fract_x
_atom_site_fract_y
_atom_site_fract_z
Si Si1 0.575206 0.663765 0.875006
Si Si2 0.075848 0.252728 0.610945
Si Si3 0.074022 0.159912 0.212336
Si Si4 0.073796 0.339194 0.297971
Si Si5 0.922563 0.500000 0.452301
Si Si6 0.075769 0.159117 0.951902
Si Si7 0.076049 0.000000 0.548956
O O1 0.750000 0.681803 0.882792
O O2 0.534471 0.500000 0.868272
O O3 0.520524 0.753332 0.831623
O O4 0.489688 0.726522 0.917839
O O5 0.250000 0.253697 0.622377
O O6 0.024248 0.373488 0.577905
O O7 0.023975 0.124133 0.580955
O O8 0.987952 0.261611 0.657827
O O9 0.250000 0.153413 0.213622
O O10 0.014573 0.247023 0.255695
O O11 0.010339 0.000000 0.211915
O O12 0.250000 0.339010 0.299703
O O13 0.015559 0.500000 0.294248
O O14 0.750000 0.500000 0.462405
O O15 0.000000 0.500000 0.500000
O O16 0.250000 0.184004 0.957083
O O17 0.041879 0.000000 0.935134
O O18 0.000000 0.186709 0.000000
O O19 0.000000 0.000000 0.500000
O O20 0.250000 0.000000 0.539178
#
# Coordination Sequence:
#
# PCOD8211561 Si02
#       7
#     8   8   8   8   4   8   4
#     4  10  20  35  57  84 115 152 191 233 284 338
#     4  10  21  37  54  76 107 141 172 212 267 321
#     4   9  18  33  55  82 111 144 183 228 276 325
#     4  10  20  34  54  81 109 139 179 224 267 318
#     4  10  20  34  54  76 102 134 172 212 257 314
#     4  10  21  37  58  84 115 152 195 241 287 337
#     4  10  22  38  56  78 106 138 174 216 263 316
#
# _framework density 18.998394000000001
#
# number of rings (size 3 to 8) (size 9 to 14) (size 15 to 20)
#    0.000    2.167    0.833    2.000    1.167    5.667 
#    0.000    0.833    0.000    3.000    0.000    0.000 
#    0.000    0.000    0.000    0.000    0.000    0.000 
#
# Total GULP energy -595024.863829 kJ/mol
# GULP energy per Si atom -12396.351330 kJ/mol
# Density = 1.895515 g / cm^3
# Si number density = 18.998394 Si / 1000 Ang^3
#
#
#
# Elastic Constant Matrix: (Units=GPa)
#
#
# Indices 1 2 3 4 5 6 
#
# 1 40.1776 38.4323 46.0770 0.0000 0.0000 0.0000
# 2 38.4323 177.5016 96.1607 0.0000 0.0000 0.0000
# 3 46.0770 96.1607 166.6668 0.0000 0.0000 0.0000
# 4 0.0000 0.0000 0.0000 47.6633 0.0000 0.0000
# 5 0.0000 0.0000 0.0000 0.0000 31.1267 0.0000
# 6 0.0000 0.0000 0.0000 0.0000 0.0000 24.9286
#
#
#
# Elastic Compliance Matrix: (Units=1/GPa)
#
#
# Indices 1 2 3 4 5 6 
#
# 1 0.038039 -0.003693 -0.008385 0.000000 0.000000 0.000000
# 2 -0.003693 0.008554 -0.003914 0.000000 0.000000 0.000000
# 3 -0.008385 -0.003914 0.010577 0.000000 0.000000 0.000000
# 4 0.000000 0.000000 0.000000 0.020981 0.000000 0.000000
# 5 0.000000 0.000000 0.000000 0.000000 0.032127 0.000000
# 6 0.000000 0.000000 0.000000 0.000000 0.000000 0.040115
#
#
# Mechanical properties :
#
#
# Convention : Reuss Voigt Hill
#
# Bulk Modulus (GPa) = 39.70835 82.85400 61.28118
# Shear Modulus (GPa) = 26.20926 34.32211 30.26568
#
# Velocity S-wave (km/s) = 3.71826 4.25500 3.99565
# Velocity P-wave (km/s) = 6.27537 8.23685 7.32209
#
# Compressibility (1/GPa) = 0.02518362
#
# Stress axis : x y z
#
# Youngs Moduli (GPa) = 26.28869 116.90480 94.54819
#
# Poissons Ratio (x) = 0.43178 0.79282
# Poissons Ratio (y) = 0.09710 0.37008
# Poissons Ratio (z) = 0.22044 0.45759
#
# Static dielectric constant tensor:
#      x y z
#    x 3.180080 0.000000 0.000000 
#    y 0.000000 3.799830 0.000000 
#    z 0.000000 0.000000 3.592040 
# 
# 
# High freq. dielectric constant tensor:
#      x y z
#    x 1.710220 0.000000 0.000000 
#    y 0.000000 1.756550 0.000000 
#    z 0.000000 0.000000 1.751880 
# 
# From -- ./inp_files/37184.got.cif
#   From: 2010.03.12/outbox.cif.g09.slc.cpg/sg51_19_cif.got.tgz:37184.got - 2010.04.16 13:43:02.
