data_PCOD8211020
_publ_section_title
;
Structure prediction by ZEFSAII (Michael W. Deem and Ramdas Pophale) SiO2 
 PCOD8211020
Probable space group: P M M A
;
_chemical_formula_sum "Si O2"
_cell_formula_units_Z 64
_cell_length_a 9.200725
_cell_length_b 19.185036
_cell_length_c 19.383919
_cell_angle_alpha 90.000000
_cell_angle_beta 90.000000
_cell_angle_gamma 90.000000
_cell_volume 3421.576505
_symmetry_space_group_name_H-M "P M M A"
_symmetry_group_IT_number 51
_symmetry_cell_setting 'orthorhombic'
loop_
_space_group_symop_operation_xyz
x,y,z
1/2-x,-y,z
1/2+x,-y,-z
-x,y,-z
-x,-y,-z
1/2+x,y,-z
1/2-x,y,z
x,-y,z
loop_
_atom_site_type_symbol
_atom_site_label
_atom_site_fract_x
_atom_site_fract_y
_atom_site_fract_z
Si Si1 0.575541 0.772991 0.569493
Si Si2 0.412938 0.922325 0.228898
Si Si3 0.084643 0.701553 0.692850
Si Si4 0.910046 0.402794 0.936988
Si Si5 0.917716 0.420650 0.205298
Si Si6 0.922099 0.075673 0.614724
Si Si7 0.412700 0.198799 0.817702
Si Si8 0.407899 0.756020 0.060559
O O1 0.500000 0.745474 0.500000
O O2 0.750000 0.768366 0.565512
O O3 0.521249 0.720969 0.629689
O O4 0.520741 0.853840 0.578134
O O5 0.250000 0.890725 0.226357
O O6 0.473276 0.920920 0.306473
O O7 0.520542 0.878195 0.181786
O O8 0.413300 0.000000 0.198879
O O9 0.250000 0.690165 0.666141
O O10 0.029586 0.632316 0.733980
O O11 0.078938 0.768056 0.742513
O O12 0.750000 0.437801 0.930770
O O13 0.885377 0.323649 0.958761
O O14 0.991245 0.411856 0.864306
O O15 0.000000 0.438537 0.000000
O O16 0.750000 0.402530 0.187865
O O17 0.933903 0.500000 0.232717
O O18 0.750000 0.074888 0.611405
O O19 0.978831 0.000000 0.583831
O O20 0.250000 0.194826 0.846136
O O21 0.506317 0.245743 0.868212
O O22 0.250000 0.792915 0.067434
O O23 0.500000 0.794041 0.000000
#
# Coordination Sequence:
#
# PCOD8211020 Si02
#       8
#     8   8   8   8   8   8   8   8
#     4  11  22  36  57  81 110 145 181 221 269 319
#     4   9  17  31  51  75 105 141 182 224 266 317
#     4  10  21  37  56  81 110 138 177 223 267 319
#     4  10  20  33  52  78 112 150 186 224 263 316
#     4  10  21  38  59  81 109 145 181 223 275 326
#     4   8  15  29  49  74 106 143 180 215 253 305
#     4  11  20  31  53  80 108 140 177 228 275 317
#     4  10  20  33  51  76 107 142 182 224 271 321
#
# _framework density 18.704829
#
# number of rings (size 3 to 8) (size 9 to 14) (size 15 to 20)
#    0.000    2.125    2.500    2.250    0.000    3.000 
#    0.000    0.000    0.000    1.875    0.000    0.000 
#    0.000    0.000    0.000    0.000    0.000    0.000 
#
# Total GULP energy -793044.972638 kJ/mol
# GULP energy per Si atom -12391.327697 kJ/mol
# Density = 1.866226 g / cm^3
# Si number density = 18.704829 Si / 1000 Ang^3
#
#
#
# Elastic Constant Matrix: (Units=GPa)
#
#
# Indices 1 2 3 4 5 6 
#
# 1 121.0562 37.7855 56.8099 0.0000 0.0000 0.0000
# 2 37.7855 85.6929 39.8563 0.0000 0.0000 0.0000
# 3 56.8099 39.8563 94.3661 0.0000 0.0000 0.0000
# 4 0.0000 0.0000 0.0000 -231.8268 0.0000 0.0000
# 5 0.0000 0.0000 0.0000 0.0000 32.0081 0.0000
# 6 0.0000 0.0000 0.0000 0.0000 0.0000 -36.3474
#
#
#
# Elastic Compliance Matrix: (Units=1/GPa)
#
#
# Indices 1 2 3 4 5 6 
#
# 1 0.011892 -0.002382 -0.006153 0.000000 0.000000 0.000000
# 2 -0.002382 0.014999 -0.004901 0.000000 0.000000 0.000000
# 3 -0.006153 -0.004901 0.016371 0.000000 0.000000 0.000000
# 4 0.000000 0.000000 0.000000 -0.004314 0.000000 0.000000
# 5 0.000000 0.000000 0.000000 0.000000 0.031242 0.000000
# 6 0.000000 0.000000 0.000000 0.000000 0.000000 -0.027512
#
#
# Mechanical properties :
#
#
# Convention : Reuss Voigt Hill
#
# Bulk Modulus (GPa) = 61.01162 63.33542 62.17352
# Shear Modulus (GPa) = 66.65443 -36.12233 15.26605
#
# Velocity S-wave (km/s) = 5.97597 -4.39928 2.85994
# Velocity P-wave (km/s) = 8.96132 2.85115 6.64960
#
# Compressibility (1/GPa) = 0.01639032
#
# Stress axis : x y z
#
# Youngs Moduli (GPa) = 84.09353 66.66943 61.08247
#
# Poissons Ratio (x) = 0.15879 0.37584
# Poissons Ratio (y) = 0.20028 0.29938
# Poissons Ratio (z) = 0.51742 0.32677
#
# Static dielectric constant tensor:
#      x y z
#    x 3.587710 0.000000 0.000000 
#    y 0.000000 3.494140 0.000000 
#    z 0.000000 0.000000 3.212090 
# 
# 
# High freq. dielectric constant tensor:
#      x y z
#    x 1.724750 0.000000 0.000000 
#    y 0.000000 1.714980 0.000000 
#    z 0.000000 0.000000 1.703700 
# 
# From -- ./inp_files/28384.got.cif
#   From: 2010.03.12/outbox.cif.g09.slc.cpg/sg51_15_cif.got.tgz:28384.got - 2010.04.16 13:43:02.
