data_PCOD8211336
_publ_section_title
;
Structure prediction by ZEFSAII (Michael W. Deem and Ramdas Pophale) SiO2 
 PCOD8211336
Probable space group: P M M A
;
_chemical_formula_sum "Si O2"
_cell_formula_units_Z 44
_cell_length_a 9.486874
_cell_length_b 7.912623
_cell_length_c 30.025445
_cell_angle_alpha 90.000000
_cell_angle_beta 90.000000
_cell_angle_gamma 90.000000
_cell_volume 2253.891778
_symmetry_space_group_name_H-M "P M M A"
_symmetry_group_IT_number 51
_symmetry_cell_setting 'orthorhombic'
loop_
_space_group_symop_operation_xyz
x,y,z
1/2-x,-y,z
1/2+x,-y,-z
-x,y,-z
-x,-y,-z
1/2+x,y,-z
1/2-x,y,z
x,-y,z
loop_
_atom_site_type_symbol
_atom_site_label
_atom_site_fract_x
_atom_site_fract_y
_atom_site_fract_z
Si Si1 0.582036 0.500000 0.454207
Si Si2 0.590989 0.200457 0.784463
Si Si3 0.905729 0.800300 0.295635
Si Si4 0.406557 0.194893 0.960655
Si Si5 0.417547 0.811383 0.606173
Si Si6 0.089882 0.304767 0.119191
O O1 0.750000 0.500000 0.461856
O O2 0.500000 0.500000 0.500000
O O3 0.531714 0.668756 0.428302
O O4 0.750000 0.262075 0.776843
O O5 0.501885 0.276868 0.743443
O O6 0.533296 0.275019 0.830820
O O7 0.580253 0.000000 0.786389
O O8 0.750000 0.719745 0.291213
O O9 0.971830 0.760114 0.344387
O O10 0.895647 0.000000 0.290113
O O11 0.250000 0.279372 0.958695
O O12 0.485436 0.209282 0.913747
O O13 0.386645 0.000000 0.972170
O O14 0.500000 0.280898 0.000000
O O15 0.250000 0.817344 0.608347
O O16 0.473449 0.000000 0.592449
O O17 0.250000 0.233280 0.114574
O O18 0.086351 0.500000 0.106930
#
# Coordination Sequence:
#
# PCOD8211336 Si02
#       6
#     4   8   8   8   8   8
#     4  10  20  34  52  74 102 134 172 214 259 312
#     4   9  17  30  49  72  99 132 167 205 251 298
#     4   8  14  27  48  71  94 123 162 204 245 294
#     4  10  21  37  58  81 101 125 163 210 257 305
#     4   8  15  30  51  73  99 133 171 212 258 308
#     4  10  21  36  52  72 103 140 173 204 245 300
#
# _framework density 19.521788999999998
#
# number of rings (size 3 to 8) (size 9 to 14) (size 15 to 20)
#    0.000    2.909    0.000    2.182    0.000    3.636 
#    1.636    2.727    0.000    1.091    0.000    0.000 
#    0.000    0.000    0.000    0.000    0.000    0.000 
#
# Total GULP energy -545373.337347 kJ/mol
# GULP energy per Si atom -12394.848576 kJ/mol
# Density = 1.947736 g / cm^3
# Si number density = 19.521789 Si / 1000 Ang^3
#
#
#
# Elastic Constant Matrix: (Units=GPa)
#
#
# Indices 1 2 3 4 5 6 
#
# 1 89.1473 22.1395 77.2029 0.0000 0.0000 0.0000
# 2 22.1395 55.5594 42.7564 0.0000 0.0000 0.0000
# 3 77.2029 42.7564 172.8405 0.0000 0.0000 0.0000
# 4 0.0000 0.0000 0.0000 0.8922 0.0000 0.0000
# 5 0.0000 0.0000 0.0000 0.0000 38.7973 0.0000
# 6 0.0000 0.0000 0.0000 0.0000 0.0000 12.0311
#
#
#
# Elastic Compliance Matrix: (Units=1/GPa)
#
#
# Indices 1 2 3 4 5 6 
#
# 1 0.018363 -0.001242 -0.007895 0.000000 0.000000 0.000000
# 2 -0.001242 0.022315 -0.004966 0.000000 0.000000 0.000000
# 3 -0.007895 -0.004966 0.010541 0.000000 0.000000 0.000000
# 4 0.000000 0.000000 0.000000 1.120871 0.000000 0.000000
# 5 0.000000 0.000000 0.000000 0.000000 0.025775 0.000000
# 6 0.000000 0.000000 0.000000 0.000000 0.000000 0.083118
#
#
# Mechanical properties :
#
#
# Convention : Reuss Voigt Hill
#
# Bulk Modulus (GPa) = 43.45201 66.86055 55.15628
# Shear Modulus (GPa) = 3.79692 22.04069 12.91880
#
# Velocity S-wave (km/s) = 1.39613 3.36375 2.57527
# Velocity P-wave (km/s) = 4.99054 7.02922 6.09571
#
# Compressibility (1/GPa) = 0.02301389
#
# Stress axis : x y z
#
# Youngs Moduli (GPa) = 54.45738 44.81329 94.87185
#
# Poissons Ratio (x) = 0.05564 0.74902
# Poissons Ratio (y) = 0.06761 0.47109
# Poissons Ratio (z) = 0.42995 0.22252
#
# Static dielectric constant tensor:
#      x y z
#    x 3.650310 0.000000 0.000000 
#    y 0.000000 3.443830 0.000000 
#    z 0.000000 0.000000 3.685130 
# 
# 
# High freq. dielectric constant tensor:
#      x y z
#    x 1.733310 0.000000 0.000000 
#    y 0.000000 1.742890 0.000000 
#    z 0.000000 0.000000 1.765640 
# 
# From -- ./inp_files/36808.got.cif
#   From: 2010.03.12/outbox.cif.g09.slc.cpg/sg51_19_cif.got.tgz:36808.got - 2010.04.16 13:43:02.
