data_PCOD8211330
_publ_section_title
;
Structure prediction by ZEFSAII (Michael W. Deem and Ramdas Pophale) SiO2 
 PCOD8211330
Probable space group: P M M A
;
_chemical_formula_sum "Si O2"
_cell_formula_units_Z 56
_cell_length_a 18.481278
_cell_length_b 9.190963
_cell_length_c 18.062443
_cell_angle_alpha 90.000000
_cell_angle_beta 90.000000
_cell_angle_gamma 90.000000
_cell_volume 3068.099976
_symmetry_space_group_name_H-M "P M M A"
_symmetry_group_IT_number 51
_symmetry_cell_setting 'orthorhombic'
loop_
_space_group_symop_operation_xyz
x,y,z
1/2-x,-y,z
1/2+x,-y,-z
-x,y,-z
-x,-y,-z
1/2+x,y,-z
1/2-x,y,z
x,-y,z
loop_
_atom_site_type_symbol
_atom_site_label
_atom_site_fract_x
_atom_site_fract_y
_atom_site_fract_z
Si Si1 0.833554 0.831077 0.143557
Si Si2 0.836058 0.335875 0.999947
Si Si3 0.834318 0.830018 0.855506
Si Si4 0.334031 0.168639 0.430569
Si Si5 0.333818 0.329667 0.579104
Si Si6 0.416518 0.171139 0.708793
Si Si7 0.917458 0.828075 0.712483
O O1 0.750000 0.793386 0.159348
O O2 0.864914 0.742449 0.073870
O O3 0.878716 0.783605 0.214918
O O4 0.843721 0.000000 0.125120
O O5 0.750000 0.330587 0.000367
O O6 0.865611 0.500000 0.998622
O O7 0.864727 0.252387 0.927606
O O8 0.750000 0.798563 0.842020
O O9 0.877454 0.766258 0.785124
O O10 0.848963 0.000000 0.867907
O O11 0.250000 0.191012 0.411969
O O12 0.358274 0.259869 0.501742
O O13 0.379277 0.231930 0.361522
O O14 0.351758 0.000000 0.446203
O O15 0.250000 0.295322 0.594748
O O16 0.349492 0.500000 0.575846
O O17 0.380229 0.258844 0.643267
O O18 0.499512 0.220040 0.713613
O O19 0.407878 0.000000 0.693178
O O20 0.908530 0.000000 0.713273
#
# Coordination Sequence:
#
# PCOD8211330 Si02
#       7
#     8   8   8   8   8   8   8
#     4   9  17  30  49  71  93 121 160 202 243 289
#     4   9  17  29  47  72  98 124 159 203 247 289
#     4   9  16  29  51  75  99 128 163 203 245 290
#     4   9  17  32  55  78  99 127 165 205 243 287
#     4  10  21  36  53  74 100 129 163 203 246 292
#     4  10  20  34  52  74 101 131 164 203 246 293
#     4   9  18  32  51  76 102 129 164 204 245 289
#
# _framework density 18.252338000000002
#
# number of rings (size 3 to 8) (size 9 to 14) (size 15 to 20)
#    0.000    2.714    0.000    1.714    0.000    6.000 
#    0.000    7.143    0.000    7.714    0.000    0.000 
#    0.000    0.000    0.000    0.000    0.000    0.000 
#
# Total GULP energy -694488.776081 kJ/mol
# GULP energy per Si atom -12401.585287 kJ/mol
# Density = 1.821079 g / cm^3
# Si number density = 18.252338 Si / 1000 Ang^3
#
#
#
# Elastic Constant Matrix: (Units=GPa)
#
#
# Indices 1 2 3 4 5 6 
#
# 1 84.3691 44.7975 87.8901 0.0000 0.0000 0.0000
# 2 44.7975 71.5449 77.3893 0.0000 0.0000 0.0000
# 3 87.8901 77.3893 205.5288 0.0000 0.0000 0.0000
# 4 0.0000 0.0000 0.0000 2.0824 0.0000 0.0000
# 5 0.0000 0.0000 0.0000 0.0000 -513.3635 0.0000
# 6 0.0000 0.0000 0.0000 0.0000 0.0000 13.9272
#
#
#
# Elastic Compliance Matrix: (Units=1/GPa)
#
#
# Indices 1 2 3 4 5 6 
#
# 1 0.022960 -0.006337 -0.007432 0.000000 0.000000 0.000000
# 2 -0.006337 0.025331 -0.006828 0.000000 0.000000 0.000000
# 3 -0.007432 -0.006828 0.010615 0.000000 0.000000 0.000000
# 4 0.000000 0.000000 0.000000 0.480214 0.000000 0.000000
# 5 0.000000 0.000000 0.000000 0.000000 -0.001948 0.000000
# 6 0.000000 0.000000 0.000000 0.000000 0.000000 0.071802
#
#
# Mechanical properties :
#
#
# Convention : Reuss Voigt Hill
#
# Bulk Modulus (GPa) = 56.46200 86.84406 71.65303
# Shear Modulus (GPa) = 7.62112 -89.37973 -40.87931
#
# Velocity S-wave (km/s) = 2.04560 -7.00537 -4.73765
# Velocity P-wave (km/s) = 6.04819 4.21315 3.06838
#
# Compressibility (1/GPa) = 0.01771103
#
# Stress axis : x y z
#
# Youngs Moduli (GPa) = 43.55456 39.47718 94.20784
#
# Poissons Ratio (x) = 0.25016 0.70017
# Poissons Ratio (y) = 0.27600 0.64328
# Poissons Ratio (z) = 0.32371 0.26956
#
# Static dielectric constant tensor:
#      x y z
#    x 3.259930 0.000000 0.000000 
#    y 0.000000 3.209220 0.000000 
#    z 0.000000 0.000000 3.598070 
# 
# 
# High freq. dielectric constant tensor:
#      x y z
#    x 1.686900 0.000000 0.000000 
#    y 0.000000 1.687220 0.000000 
#    z 0.000000 0.000000 1.724260 
# 
# From -- ./inp_files/33418.got.cif
#   From: 2010.03.12/outbox.cif.g09.slc.cpg/sg51_17_cif.got.tgz:33418.got - 2010.04.16 13:43:02.
