data_PCOD8211450
_publ_section_title
;
Structure prediction by ZEFSAII (Michael W. Deem and Ramdas Pophale) SiO2 
 PCOD8211450
Probable space group: P M M A
;
_chemical_formula_sum "Si O2"
_cell_formula_units_Z 56
_cell_length_a 20.891484
_cell_length_b 8.807286
_cell_length_c 15.435771
_cell_angle_alpha 90.000000
_cell_angle_beta 90.000000
_cell_angle_gamma 90.000000
_cell_volume 2840.139795
_symmetry_space_group_name_H-M "P M M A"
_symmetry_group_IT_number 51
_symmetry_cell_setting 'orthorhombic'
loop_
_space_group_symop_operation_xyz
x,y,z
1/2-x,-y,z
1/2+x,-y,-z
-x,y,-z
-x,-y,-z
1/2+x,y,-z
1/2-x,y,z
x,-y,z
loop_
_atom_site_type_symbol
_atom_site_label
_atom_site_fract_x
_atom_site_fract_y
_atom_site_fract_z
Si Si1 0.955634 0.179200 0.081512
Si Si2 0.321725 0.322649 0.954041
Si Si3 0.820676 0.823256 0.544620
Si Si4 0.500916 0.823832 0.728771
Si Si5 0.126365 0.323965 0.292952
Si Si6 0.941156 0.176363 0.444594
Si Si7 0.678602 0.831145 0.868273
O O1 0.882731 0.239379 0.087327
O O2 0.985353 0.230452 0.173545
O O3 0.951362 0.000000 0.074516
O O4 0.000000 0.239733 0.000000
O O5 0.250000 0.269178 0.920554
O O6 0.329453 0.500000 0.937213
O O7 0.325838 0.288733 0.055199
O O8 0.750000 0.795828 0.505171
O O9 0.825172 0.730268 0.633686
O O10 0.873104 0.757340 0.477450
O O11 0.831497 0.000000 0.566133
O O12 0.553791 0.716941 0.683308
O O13 0.443460 0.798467 0.659624
O O14 0.522178 0.000000 0.728905
O O15 0.137602 0.500000 0.274562
O O16 0.133144 0.226761 0.206072
O O17 0.000000 0.249949 0.500000
O O18 0.941173 0.000000 0.466788
O O19 0.750000 0.838371 0.830815
O O20 0.656211 0.000000 0.899085
#
# Coordination Sequence:
#
# PCOD8211450 Si02
#       7
#     8   8   8   8   8   8   8
#     4  10  21  36  56  85 118 152 193 242 291 342
#     4  10  21  37  57  81 112 152 194 237 289 345
#     4  10  20  35  56  80 107 143 186 232 284 339
#     4  10  20  36  58  81 108 146 192 236 285 340
#     4  12  23  33  50  79 114 146 181 226 282 345
#     4   9  16  32  58  82 106 140 184 233 280 327
#     4  10  20  34  53  76 105 144 188 231 280 340
#
# _framework density 19.717338999999999
#
# number of rings (size 3 to 8) (size 9 to 14) (size 15 to 20)
#    0.000    1.857    1.429    3.429    0.000    5.714 
#    0.000    2.143    0.000    2.571    0.000    0.000 
#    0.000    0.000    0.000    0.000    0.000    0.000 
#
# Total GULP energy -693880.096790 kJ/mol
# GULP energy per Si atom -12390.716014 kJ/mol
# Density = 1.967246 g / cm^3
# Si number density = 19.717339 Si / 1000 Ang^3
#
#
#
# Elastic Constant Matrix: (Units=GPa)
#
#
# Indices 1 2 3 4 5 6 
#
# 1 130.4098 23.9577 43.4560 0.0000 0.0000 0.0000
# 2 23.9577 41.9944 13.9743 0.0000 0.0000 0.0000
# 3 43.4560 13.9743 101.2057 0.0000 0.0000 0.0000
# 4 0.0000 0.0000 0.0000 11.9660 0.0000 0.0000
# 5 0.0000 0.0000 0.0000 0.0000 31.7755 0.0000
# 6 0.0000 0.0000 0.0000 0.0000 0.0000 22.6821
#
#
#
# Elastic Compliance Matrix: (Units=1/GPa)
#
#
# Indices 1 2 3 4 5 6 
#
# 1 0.009643 -0.004322 -0.003544 0.000000 0.000000 0.000000
# 2 -0.004322 0.026897 -0.001858 0.000000 0.000000 0.000000
# 3 -0.003544 -0.001858 0.011659 0.000000 0.000000 0.000000
# 4 0.000000 0.000000 0.000000 0.083570 0.000000 0.000000
# 5 0.000000 0.000000 0.000000 0.000000 0.031471 0.000000
# 6 0.000000 0.000000 0.000000 0.000000 0.000000 0.044088
#
#
# Mechanical properties :
#
#
# Convention : Reuss Voigt Hill
#
# Bulk Modulus (GPa) = 34.78131 48.48732 41.63432
# Shear Modulus (GPa) = 21.15426 26.09951 23.62688
#
# Velocity S-wave (km/s) = 3.27903 3.64219 3.46537
# Velocity P-wave (km/s) = 5.65812 6.50631 6.09698
#
# Compressibility (1/GPa) = 0.02875107
#
# Stress axis : x y z
#
# Youngs Moduli (GPa) = 103.70181 37.17924 85.77030
#
# Poissons Ratio (x) = 0.16069 0.30395
# Poissons Ratio (y) = 0.44821 0.15936
# Poissons Ratio (z) = 0.36750 0.06908
#
# Static dielectric constant tensor:
#      x y z
#    x 3.945960 0.000000 0.000000 
#    y 0.000000 3.321570 0.000000 
#    z 0.000000 0.000000 3.470130 
# 
# 
# High freq. dielectric constant tensor:
#      x y z
#    x 1.777910 0.000000 0.000000 
#    y 0.000000 1.740600 0.000000 
#    z 0.000000 0.000000 1.752350 
# 
# From -- ./inp_files/25678.got.cif
#   From: 2010.03.12/outbox.cif.g09.slc.cpg/sg51_13_cif.got.tgz:25678.got - 2010.04.16 13:43:02.
