data_PCOD8211993
_publ_section_title
;
Structure prediction by ZEFSAII (Michael W. Deem and Ramdas Pophale) SiO2 
 PCOD8211993
Probable space group: P M M A
;
_chemical_formula_sum "Si O2"
_cell_formula_units_Z 56
_cell_length_a 9.264544
_cell_length_b 13.803301
_cell_length_c 22.218597
_cell_angle_alpha 90.000000
_cell_angle_beta 90.000000
_cell_angle_gamma 90.000000
_cell_volume 2841.342834
_symmetry_space_group_name_H-M "P M M A"
_symmetry_group_IT_number 51
_symmetry_cell_setting 'orthorhombic'
loop_
_space_group_symop_operation_xyz
x,y,z
1/2-x,-y,z
1/2+x,-y,-z
-x,y,-z
-x,-y,-z
1/2+x,y,-z
1/2-x,y,z
x,-y,z
loop_
_atom_site_type_symbol
_atom_site_label
_atom_site_fract_x
_atom_site_fract_y
_atom_site_fract_z
Si Si1 0.085156 0.160034 0.688120
Si Si2 0.080211 0.000000 0.245483
Si Si3 0.078981 0.000000 0.111157
Si Si4 0.918370 0.393814 0.859590
Si Si5 0.415666 0.784665 0.556115
Si Si6 0.087401 0.336254 0.273284
Si Si7 0.410224 0.605887 0.403590
Si Si8 0.922660 0.210052 0.938030
O O1 0.250000 0.135175 0.704898
O O2 0.062323 0.152173 0.616187
O O3 0.042562 0.262621 0.714825
O O4 0.972217 0.091366 0.718724
O O5 0.250000 0.000000 0.242542
O O6 0.015798 0.000000 0.178419
O O7 0.024927 0.101226 0.081209
O O8 0.250000 0.000000 0.111248
O O9 0.750000 0.394970 0.872192
O O10 0.980797 0.500000 0.881970
O O11 0.951273 0.390283 0.788423
O O12 0.977655 0.296220 0.892795
O O13 0.500000 0.833318 0.500000
O O14 0.250000 0.776989 0.538223
O O15 0.473313 0.676759 0.567708
O O16 0.250000 0.289799 0.267630
O O17 0.082167 0.405588 0.331068
O O18 0.250000 0.643301 0.421462
O O19 0.440150 0.500000 0.430720
O O20 0.750000 0.211388 0.944791
O O21 0.000000 0.235105 0.000000
#
# Coordination Sequence:
#
# PCOD8211993 Si02
#       8
#     8   4   4   8   8   8   8   8
#     4  10  21  36  53  78 111 139 164 207 269 321
#     4  11  21  36  61  87 106 130 168 209 254 315
#     4   9  19  36  58  83 107 134 173 219 266 317
#     4   9  17  30  51  78 106 140 183 229 274 319
#     4  10  21  36  53  71  97 136 177 214 254 306
#     4   9  16  30  53  77 101 134 177 218 258 315
#     4   9  17  29  48  75 103 130 166 216 268 315
#     4  10  20  35  54  76 106 142 180 222 266 315
#
# _framework density 19.708991000000001
#
# number of rings (size 3 to 8) (size 9 to 14) (size 15 to 20)
#    0.000    2.429    0.000    2.571    0.000    6.571 
#    0.000    3.929    0.000    2.143    0.000    0.000 
#    0.000    0.000    0.000    0.000    0.000    0.000 
#
# Total GULP energy -693752.794979 kJ/mol
# GULP energy per Si atom -12388.442767 kJ/mol
# Density = 1.966413 g / cm^3
# Si number density = 19.708991 Si / 1000 Ang^3
#
#
#
# Elastic Constant Matrix: (Units=GPa)
#
#
# Indices 1 2 3 4 5 6 
#
# 1 59.7933 11.8110 33.5721 0.0000 0.0000 0.0000
# 2 11.8110 85.0525 30.5286 0.0000 0.0000 0.0000
# 3 33.5721 30.5286 99.4165 0.0000 0.0000 0.0000
# 4 0.0000 0.0000 0.0000 14.2743 0.0000 0.0000
# 5 0.0000 0.0000 0.0000 0.0000 29.4687 0.0000
# 6 0.0000 0.0000 0.0000 0.0000 0.0000 14.7411
#
#
#
# Elastic Compliance Matrix: (Units=1/GPa)
#
#
# Indices 1 2 3 4 5 6 
#
# 1 0.020650 -0.000410 -0.006847 0.000000 0.000000 0.000000
# 2 -0.000410 0.013222 -0.003922 0.000000 0.000000 0.000000
# 3 -0.006847 -0.003922 0.013575 0.000000 0.000000 0.000000
# 4 0.000000 0.000000 0.000000 0.070056 0.000000 0.000000
# 5 0.000000 0.000000 0.000000 0.000000 0.033934 0.000000
# 6 0.000000 0.000000 0.000000 0.000000 0.000000 0.067838
#
#
# Mechanical properties :
#
#
# Convention : Reuss Voigt Hill
#
# Bulk Modulus (GPa) = 39.85788 44.00951 41.93369
# Shear Modulus (GPa) = 20.00030 22.92019 21.46024
#
# Velocity S-wave (km/s) = 3.18902 3.41388 3.30336
# Velocity P-wave (km/s) = 5.81609 6.15772 5.98934
#
# Compressibility (1/GPa) = 0.02508914
#
# Stress axis : x y z
#
# Youngs Moduli (GPa) = 48.42650 75.63131 73.66319
#
# Poissons Ratio (x) = 0.03099 0.50440
# Poissons Ratio (y) = 0.01984 0.28889
# Poissons Ratio (z) = 0.33160 0.29661
#
# Static dielectric constant tensor:
#      x y z
#    x 3.336780 0.000000 0.000000 
#    y 0.000000 3.416050 0.000000 
#    z 0.000000 0.000000 3.720210 
# 
# 
# High freq. dielectric constant tensor:
#      x y z
#    x 1.741310 0.000000 0.000000 
#    y 0.000000 1.763380 0.000000 
#    z 0.000000 0.000000 1.772990 
# 
# From -- ./inp_files/32076.got.cif
#   From: 2010.03.12/outbox.cif.g09.slc.cpg/sg51_17_cif.got.tgz:32076.got - 2010.04.16 13:43:02.
