data_PCOD8211735
_publ_section_title
;
Structure prediction by ZEFSAII (Michael W. Deem and Ramdas Pophale) SiO2 
 PCOD8211735
Probable space group: P M M A
;
_chemical_formula_sum "Si O2"
_cell_formula_units_Z 64
_cell_length_a 18.449685
_cell_length_b 14.318177
_cell_length_c 12.236019
_cell_angle_alpha 90.000000
_cell_angle_beta 90.000000
_cell_angle_gamma 90.000000
_cell_volume 3232.338426
_symmetry_space_group_name_H-M "P M M A"
_symmetry_group_IT_number 51
_symmetry_cell_setting 'orthorhombic'
loop_
_space_group_symop_operation_xyz
x,y,z
1/2-x,-y,z
1/2+x,-y,-z
-x,y,-z
-x,-y,-z
1/2+x,y,-z
1/2-x,y,z
x,-y,z
loop_
_atom_site_type_symbol
_atom_site_label
_atom_site_fract_x
_atom_site_fract_y
_atom_site_fract_z
Si Si1 0.923306 0.100491 0.488067
Si Si2 0.333100 0.392210 0.984162
Si Si3 0.014272 0.106905 0.874143
Si Si4 0.586708 0.712633 0.197762
Si Si5 0.166067 0.255160 0.589679
Si Si6 0.064647 0.608765 0.185395
Si Si7 0.670790 0.704541 0.661708
Si Si8 0.626726 0.101149 0.730679
O O1 0.864412 0.150002 0.411702
O O2 0.896313 0.084713 0.608429
O O3 0.000000 0.156124 0.500000
O O4 0.937712 0.000000 0.431260
O O5 0.250000 0.373587 0.019338
O O6 0.344403 0.500000 0.950923
O O7 0.352481 0.326904 0.882866
O O8 0.385731 0.364208 0.082824
O O9 0.074909 0.176913 0.825151
O O10 0.939981 0.123617 0.809516
O O11 0.041743 0.000000 0.861510
O O12 0.000000 0.131901 0.000000
O O13 0.618157 0.691667 0.319182
O O14 0.511197 0.660931 0.177962
O O15 0.250000 0.256698 0.623695
O O16 0.153300 0.292863 0.467462
O O17 0.047683 0.500000 0.190374
O O18 0.108218 0.638669 0.292899
O O19 0.750000 0.658693 0.678266
O O20 0.675562 0.805435 0.724238
O O21 0.663157 0.000000 0.767244
#
# Coordination Sequence:
#
# PCOD8211735 Si02
#       8
#     8   8   8   8   8   8   8   8
#     4   9  17  30  53  82 110 148 201 252 291 335
#     4  10  22  41  65  91 118 149 190 246 307 360
#     4  10  20  34  54  84 122 160 199 242 291 349
#     4  12  22  37  62  89 121 156 201 243 294 355
#     4  10  23  38  55  83 121 160 196 242 299 362
#     4  11  23  40  63  91 116 146 196 255 305 355
#     4  10  21  38  58  83 118 158 197 244 304 357
#     4   9  17  31  52  80 112 148 195 243 289 338
#
# _framework density 19.799907000000001
#
# number of rings (size 3 to 8) (size 9 to 14) (size 15 to 20)
#    0.000    1.875    1.250    3.000    1.750    3.750 
#    0.000    4.375    0.000    2.625    0.000    0.000 
#    0.000    0.000    0.000    0.000    0.000    0.000 
#
# Total GULP energy -792990.564191 kJ/mol
# GULP energy per Si atom -12390.477565 kJ/mol
# Density = 1.975484 g / cm^3
# Si number density = 19.799907 Si / 1000 Ang^3
#
#
#
# Elastic Constant Matrix: (Units=GPa)
#
#
# Indices 1 2 3 4 5 6 
#
# 1 102.2706 38.0545 39.6124 0.0000 0.0000 0.0000
# 2 38.0545 66.9733 42.8308 0.0000 0.0000 0.0000
# 3 39.6124 42.8308 90.6768 0.0000 0.0000 0.0000
# 4 0.0000 0.0000 0.0000 21.8216 0.0000 0.0000
# 5 0.0000 0.0000 0.0000 0.0000 30.8991 0.0000
# 6 0.0000 0.0000 0.0000 0.0000 0.0000 25.5613
#
#
#
# Elastic Compliance Matrix: (Units=1/GPa)
#
#
# Indices 1 2 3 4 5 6 
#
# 1 0.012994 -0.005377 -0.003136 0.000000 0.000000 0.000000
# 2 -0.005377 0.023619 -0.008807 0.000000 0.000000 0.000000
# 3 -0.003136 -0.008807 0.016558 0.000000 0.000000 0.000000
# 4 0.000000 0.000000 0.000000 0.045826 0.000000 0.000000
# 5 0.000000 0.000000 0.000000 0.000000 0.032363 0.000000
# 6 0.000000 0.000000 0.000000 0.000000 0.000000 0.039122
#
#
# Mechanical properties :
#
#
# Convention : Reuss Voigt Hill
#
# Bulk Modulus (GPa) = 53.96865 55.65734 54.81300
# Shear Modulus (GPa) = 23.66293 24.95126 24.30710
#
# Velocity S-wave (km/s) = 3.46078 3.55374 3.50757
# Velocity P-wave (km/s) = 6.57917 6.70893 6.64436
#
# Compressibility (1/GPa) = 0.01852927
#
# Stress axis : x y z
#
# Youngs Moduli (GPa) = 76.96058 42.33841 60.39215
#
# Poissons Ratio (x) = 0.22767 0.18941
# Poissons Ratio (y) = 0.41384 0.53190
# Poissons Ratio (z) = 0.24138 0.37289
#
# Static dielectric constant tensor:
#      x y z
#    x 3.576280 0.000000 0.000000 
#    y 0.000000 4.265530 0.000000 
#    z 0.000000 0.000000 3.857360 
# 
# 
# High freq. dielectric constant tensor:
#      x y z
#    x 1.765780 0.000000 0.000000 
#    y 0.000000 1.765520 0.000000 
#    z 0.000000 0.000000 1.773550 
# 
# From -- ./inp_files/17540.got.cif
#   From: 2010.03.12/outbox.cif.g09.slc.cpg/sg51_9_cif.got.tgz:17540.got - 2010.04.16 13:43:02.
