data_PCOD8211092
_publ_section_title
;
Structure prediction by ZEFSAII (Michael W. Deem and Ramdas Pophale) SiO2 
 PCOD8211092
Probable space group: P M M A
;
_chemical_formula_sum "Si O2"
_cell_formula_units_Z 64
_cell_length_a 23.194566
_cell_length_b 9.386053
_cell_length_c 17.006180
_cell_angle_alpha 90.000000
_cell_angle_beta 90.000000
_cell_angle_gamma 90.000000
_cell_volume 3702.337658
_symmetry_space_group_name_H-M "P M M A"
_symmetry_group_IT_number 51
_symmetry_cell_setting 'orthorhombic'
loop_
_space_group_symop_operation_xyz
x,y,z
1/2-x,-y,z
1/2+x,-y,-z
-x,y,-z
-x,-y,-z
1/2+x,y,-z
1/2-x,y,z
x,-y,z
loop_
_atom_site_type_symbol
_atom_site_label
_atom_site_fract_x
_atom_site_fract_y
_atom_site_fract_z
Si Si1 0.685202 0.335846 0.209685
Si Si2 0.684394 0.162587 0.757897
Si Si3 0.521798 0.343662 0.825672
Si Si4 0.505032 0.163669 0.592677
Si Si5 0.391906 0.836386 0.089857
Si Si6 0.900537 0.658920 0.673085
Si Si7 0.684484 0.167712 0.053785
Si Si8 0.928247 0.333158 0.292866
O O1 0.750000 0.299346 0.239703
O O2 0.680638 0.500000 0.184035
O O3 0.668173 0.242746 0.134842
O O4 0.639751 0.303690 0.279674
O O5 0.750000 0.204698 0.772787
O O6 0.652020 0.187569 0.839352
O O7 0.660187 0.263379 0.688784
O O8 0.677516 0.000000 0.729780
O O9 0.513340 0.500000 0.862947
O O10 0.547271 0.243047 0.894144
O O11 0.566594 0.350061 0.754826
O O12 0.461695 0.288250 0.787852
O O13 0.500000 0.171273 0.500000
O O14 0.563568 0.246220 0.612433
O O15 0.450147 0.239333 0.633951
O O16 0.508343 0.000000 0.622057
O O17 0.408216 0.000000 0.078853
O O18 0.360033 0.776599 0.012290
O O19 0.890309 0.500000 0.638655
O O20 0.750000 0.206270 0.028539
O O21 0.678117 0.000000 0.065857
O O22 0.941057 0.500000 0.310932
#
# Coordination Sequence:
#
# PCOD8211092 Si02
#       8
#     8   8   8   8   8   8   8   8
#     4   9  18  33  52  72  93 120 157 198 237 279
#     4   9  16  26  42  64  91 126 165 201 237 276
#     4   8  15  27  42  62  88 118 152 190 233 279
#     4  10  20  33  52  78 101 119 145 182 224 274
#     4   9  16  26  41  62  89 122 161 203 243 281
#     4   9  17  29  45  66  94 125 156 190 226 269
#     4   9  17  29  44  63  89 121 159 204 248 285
#     4   9  18  33  52  73  97 124 154 189 232 282
#
# _framework density 17.286375
#
# number of rings (size 3 to 8) (size 9 to 14) (size 15 to 20)
#    0.000    3.000    0.000    1.875    0.000    6.750 
#    0.000    0.625    0.000    6.750    0.000    3.500 
#    0.000    0.000    0.000    0.000    0.000    0.000 
#
# Total GULP energy -793292.007355 kJ/mol
# GULP energy per Si atom -12395.187615 kJ/mol
# Density = 1.724703 g / cm^3
# Si number density = 17.286375 Si / 1000 Ang^3
#
#
#
# Elastic Constant Matrix: (Units=GPa)
#
#
# Indices 1 2 3 4 5 6 
#
# 1 87.7528 39.2114 32.0871 0.0000 0.0000 0.0000
# 2 39.2114 82.8544 39.5961 0.0000 0.0000 0.0000
# 3 32.0871 39.5961 57.2780 0.0000 0.0000 0.0000
# 4 0.0000 0.0000 0.0000 21.4798 0.0000 0.0000
# 5 0.0000 0.0000 0.0000 0.0000 19.4849 0.0000
# 6 0.0000 0.0000 0.0000 0.0000 0.0000 24.9142
#
#
#
# Elastic Compliance Matrix: (Units=1/GPa)
#
#
# Indices 1 2 3 4 5 6 
#
# 1 0.015492 -0.004755 -0.005391 0.000000 0.000000 0.000000
# 2 -0.004755 0.019483 -0.010805 0.000000 0.000000 0.000000
# 3 -0.005391 -0.010805 0.027948 0.000000 0.000000 0.000000
# 4 0.000000 0.000000 0.000000 0.046555 0.000000 0.000000
# 5 0.000000 0.000000 0.000000 0.000000 0.051322 0.000000
# 6 0.000000 0.000000 0.000000 0.000000 0.000000 0.040138
#
#
# Mechanical properties :
#
#
# Convention : Reuss Voigt Hill
#
# Bulk Modulus (GPa) = 47.57203 49.96382 48.76792
# Shear Modulus (GPa) = 20.01213 20.97515 20.49364
#
# Velocity S-wave (km/s) = 3.40616 3.48716 3.44690
# Velocity P-wave (km/s) = 6.56117 6.72161 6.64187
#
# Compressibility (1/GPa) = 0.02102076
#
# Stress axis : x y z
#
# Youngs Moduli (GPa) = 64.55053 51.32559 35.78016
#
# Poissons Ratio (x) = 0.24406 0.19290
# Poissons Ratio (y) = 0.30694 0.38661
# Poissons Ratio (z) = 0.34801 0.55458
#
# Static dielectric constant tensor:
#      x y z
#    x 3.438590 0.000000 0.000000 
#    y 0.000000 3.415500 0.000000 
#    z 0.000000 0.000000 2.879990 
# 
# 
# High freq. dielectric constant tensor:
#      x y z
#    x 1.665020 0.000000 0.000000 
#    y 0.000000 1.670630 0.000000 
#    z 0.000000 0.000000 1.629690 
# 
# From -- ./inp_files/30606.got.cif
#   From: 2010.03.12/outbox.cif.g09.slc.cpg/sg51_16_cif.got.tgz:30606.got - 2010.04.16 13:43:02.
