data_PCOD8211364
_publ_section_title
;
Structure prediction by ZEFSAII (Michael W. Deem and Ramdas Pophale) SiO2 
 PCOD8211364
Probable space group: P M M A
;
_chemical_formula_sum "Si O2"
_cell_formula_units_Z 48
_cell_length_a 23.293826
_cell_length_b 9.198773
_cell_length_c 12.681620
_cell_angle_alpha 90.000000
_cell_angle_beta 90.000000
_cell_angle_gamma 90.000000
_cell_volume 2717.349277
_symmetry_space_group_name_H-M "P M M A"
_symmetry_group_IT_number 51
_symmetry_cell_setting 'orthorhombic'
loop_
_space_group_symop_operation_xyz
x,y,z
1/2-x,-y,z
1/2+x,-y,-z
-x,y,-z
-x,-y,-z
1/2+x,y,-z
1/2-x,y,z
x,-y,z
loop_
_atom_site_type_symbol
_atom_site_label
_atom_site_fract_x
_atom_site_fract_y
_atom_site_fract_z
Si Si1 0.375294 0.168178 0.795352
Si Si2 0.500093 0.830301 0.877922
Si Si3 0.186358 0.672453 0.376242
Si Si4 0.184613 0.671073 0.611758
Si Si5 0.888933 0.673053 0.816610
Si Si6 0.316668 0.832222 0.009594
O O1 0.439300 0.211961 0.828524
O O2 0.359086 0.255575 0.691605
O O3 0.371190 0.000000 0.766889
O O4 0.331682 0.207782 0.889429
O O5 0.547442 0.737843 0.816148
O O6 0.514296 0.000000 0.865579
O O7 0.500000 0.785278 0.000000
O O8 0.250000 0.734026 0.349762
O O9 0.189079 0.500000 0.372756
O O10 0.167755 0.722333 0.493475
O O11 0.141415 0.730493 0.290155
O O12 0.250000 0.718329 0.636435
O O13 0.177878 0.500000 0.623214
O O14 0.891873 0.500000 0.821775
O O15 0.853197 0.729153 0.915869
O O16 0.250000 0.802412 0.029473
O O17 0.333383 0.000000 0.031945
#
# Coordination Sequence:
#
# PCOD8211364 Si02
#       6
#     8   8   8   8   8   8
#     4  10  20  35  55  76 101 137 178 217 258 306
#     4  10  20  38  57  71 100 146 183 212 258 316
#     4   8  16  33  54  76 106 142 172 205 260 318
#     4   9  18  34  56  79 105 138 173 211 259 314
#     4  11  21  33  54  81 107 134 175 224 264 306
#     4  10  20  34  52  75 106 141 173 209 261 322
#
# _framework density 17.664273000000001
#
# number of rings (size 3 to 8) (size 9 to 14) (size 15 to 20)
#    0.000    2.333    1.667    2.500    0.000    3.667 
#    0.000    2.500    0.000    7.000    0.000    0.000 
#    0.000    0.000    0.000    0.000    0.000    0.000 
#
# Total GULP energy -595231.215059 kJ/mol
# GULP energy per Si atom -12400.650314 kJ/mol
# Density = 1.762407 g / cm^3
# Si number density = 17.664273 Si / 1000 Ang^3
#
#
#
# Elastic Constant Matrix: (Units=GPa)
#
#
# Indices 1 2 3 4 5 6 
#
# 1 101.6485 39.0278 56.6158 0.0000 0.0000 0.0000
# 2 39.0278 44.7343 37.2318 0.0000 0.0000 0.0000
# 3 56.6158 37.2318 111.4420 0.0000 0.0000 0.0000
# 4 0.0000 0.0000 0.0000 3.2112 0.0000 0.0000
# 5 0.0000 0.0000 0.0000 0.0000 30.1891 0.0000
# 6 0.0000 0.0000 0.0000 0.0000 0.0000 29.4118
#
#
#
# Elastic Compliance Matrix: (Units=1/GPa)
#
#
# Indices 1 2 3 4 5 6 
#
# 1 0.016567 -0.010318 -0.004970 0.000000 0.000000 0.000000
# 2 -0.010318 0.037390 -0.007250 0.000000 0.000000 0.000000
# 3 -0.004970 -0.007250 0.013920 0.000000 0.000000 0.000000
# 4 0.000000 0.000000 0.000000 0.311414 0.000000 0.000000
# 5 0.000000 0.000000 0.000000 0.000000 0.033125 0.000000
# 6 0.000000 0.000000 0.000000 0.000000 0.000000 0.034000
#
#
# Mechanical properties :
#
#
# Convention : Reuss Voigt Hill
#
# Bulk Modulus (GPa) = 43.85443 58.17508 51.01475
# Shear Modulus (GPa) = 10.01821 20.89237 15.45529
#
# Velocity S-wave (km/s) = 2.38406 3.44284 2.96116
# Velocity P-wave (km/s) = 5.69727 6.98638 6.37449
#
# Compressibility (1/GPa) = 0.02280272
#
# Stress axis : x y z
#
# Youngs Moduli (GPa) = 60.36009 26.74523 71.83860
#
# Poissons Ratio (x) = 0.27595 0.35701
# Poissons Ratio (y) = 0.62278 0.52082
# Poissons Ratio (z) = 0.29996 0.19390
#
# Static dielectric constant tensor:
#      x y z
#    x 3.460630 0.000000 0.000000 
#    y 0.000000 3.072980 0.000000 
#    z 0.000000 0.000000 3.375920 
# 
# 
# High freq. dielectric constant tensor:
#      x y z
#    x 1.687370 0.000000 0.000000 
#    y 0.000000 1.664560 0.000000 
#    z 0.000000 0.000000 1.685390 
# 
# From -- ./inp_files/18540.got.cif
#   From: 2010.03.12/outbox.cif.g09.slc.cpg/sg51_10_cif.got.tgz:18540.got - 2010.04.16 13:43:02.
