data_PCOD8211386
_publ_section_title
;
Structure prediction by ZEFSAII (Michael W. Deem and Ramdas Pophale) SiO2 
 PCOD8211386
Probable space group: P M M A
;
_chemical_formula_sum "Si O2"
_cell_formula_units_Z 64
_cell_length_a 8.741537
_cell_length_b 24.511476
_cell_length_c 15.336433
_cell_angle_alpha 90.000000
_cell_angle_beta 90.000000
_cell_angle_gamma 90.000000
_cell_volume 3286.106433
_symmetry_space_group_name_H-M "P M M A"
_symmetry_group_IT_number 51
_symmetry_cell_setting 'orthorhombic'
loop_
_space_group_symop_operation_xyz
x,y,z
1/2-x,-y,z
1/2+x,-y,-z
-x,y,-z
-x,-y,-z
1/2+x,y,-z
1/2-x,y,z
x,-y,z
loop_
_atom_site_type_symbol
_atom_site_label
_atom_site_fract_x
_atom_site_fract_y
_atom_site_fract_z
Si Si1 0.568893 0.642989 0.589594
Si Si2 0.429312 0.938205 0.410701
Si Si3 0.071239 0.734568 0.689768
Si Si4 0.569830 0.171193 0.086533
Si Si5 0.924633 0.562050 0.743012
Si Si6 0.430619 0.396763 0.914330
Si Si7 0.569951 0.715754 0.869897
Si Si8 0.572863 0.142047 0.277585
O O1 0.500000 0.619737 0.500000
O O2 0.750000 0.649851 0.582462
O O3 0.489091 0.701985 0.605692
O O4 0.519712 0.600766 0.664824
O O5 0.500000 0.914352 0.500000
O O6 0.250000 0.935862 0.421383
O O7 0.476279 0.902825 0.327800
O O8 0.487498 0.000000 0.395296
O O9 0.250000 0.723606 0.707693
O O10 0.041568 0.799048 0.678997
O O11 0.971682 0.710634 0.768476
O O12 0.750000 0.170595 0.079483
O O13 0.514184 0.233204 0.087099
O O14 0.518559 0.141587 0.176218
O O15 0.500000 0.141985 0.000000
O O16 0.750000 0.576294 0.768481
O O17 0.940176 0.500000 0.710388
O O18 0.029142 0.569937 0.827606
O O19 0.250000 0.391157 0.921685
O O20 0.510336 0.337944 0.916295
O O21 0.500000 0.427252 0.000000
O O22 0.750000 0.722480 0.882022
O O23 0.750000 0.126482 0.284467
#
# Coordination Sequence:
#
# PCOD8211386 Si02
#       8
#     8   8   8   8   8   8   8   8
#     4  11  23  39  62  88 116 151 189 232 286 344
#     4  10  21  37  59  86 115 150 194 243 293 343
#     4  10  20  36  57  84 118 152 189 233 282 340
#     4  10  20  34  52  80 117 156 197 239 284 335
#     4  10  23  44  65  85 112 145 186 238 289 343
#     4  12  24  38  59  85 114 148 188 232 282 341
#     4  11  20  33  54  81 114 151 189 230 281 336
#     4   9  20  36  56  84 118 155 193 236 287 339
#
# _framework density 19.475936000000001
#
# number of rings (size 3 to 8) (size 9 to 14) (size 15 to 20)
#    0.000    1.625    1.250    4.875    0.000    5.500 
#    0.000    0.000    0.000    0.375    0.000    0.000 
#    0.000    0.000    0.000    0.000    0.000    0.000 
#
# Total GULP energy -793720.290287 kJ/mol
# GULP energy per Si atom -12401.879536 kJ/mol
# Density = 1.943161 g / cm^3
# Si number density = 19.475936 Si / 1000 Ang^3
#
#
#
# Elastic Constant Matrix: (Units=GPa)
#
#
# Indices 1 2 3 4 5 6 
#
# 1 73.9028 33.5298 44.9906 0.0000 0.0000 0.0000
# 2 33.5298 74.2237 54.3657 0.0000 0.0000 0.0000
# 3 44.9906 54.3657 140.5557 0.0000 0.0000 0.0000
# 4 0.0000 0.0000 0.0000 13.5883 0.0000 0.0000
# 5 0.0000 0.0000 0.0000 0.0000 39.2023 0.0000
# 6 0.0000 0.0000 0.0000 0.0000 0.0000 26.1010
#
#
#
# Elastic Compliance Matrix: (Units=1/GPa)
#
#
# Indices 1 2 3 4 5 6 
#
# 1 0.018311 -0.005552 -0.003714 0.000000 0.000000 0.000000
# 2 -0.005552 0.020482 -0.006145 0.000000 0.000000 0.000000
# 3 -0.003714 -0.006145 0.010680 0.000000 0.000000 0.000000
# 4 0.000000 0.000000 0.000000 0.073593 0.000000 0.000000
# 5 0.000000 0.000000 0.000000 0.000000 0.025509 0.000000
# 6 0.000000 0.000000 0.000000 0.000000 0.000000 0.038313
#
#
# Mechanical properties :
#
#
# Convention : Reuss Voigt Hill
#
# Bulk Modulus (GPa) = 53.61404 61.60604 57.61004
# Shear Modulus (GPa) = 22.32884 26.16471 24.24678
#
# Velocity S-wave (km/s) = 3.38965 3.66927 3.53223
# Velocity P-wave (km/s) = 6.55040 7.04641 6.80293
#
# Compressibility (1/GPa) = 0.01865183
#
# Stress axis : x y z
#
# Youngs Moduli (GPa) = 54.61204 48.82407 93.63038
#
# Poissons Ratio (x) = 0.27105 0.34773
# Poissons Ratio (y) = 0.30318 0.57537
# Poissons Ratio (z) = 0.20282 0.30003
#
# Static dielectric constant tensor:
#      x y z
#    x 3.550820 0.000000 0.000000 
#    y 0.000000 3.387780 0.000000 
#    z 0.000000 0.000000 3.707300 
# 
# 
# High freq. dielectric constant tensor:
#      x y z
#    x 1.766930 0.000000 0.000000 
#    y 0.000000 1.732410 0.000000 
#    z 0.000000 0.000000 1.768870 
# 
# From -- ./inp_files/22214.got.cif
#   From: 2010.03.12/outbox.cif.g09.slc.cpg/sg51_12_cif.got.tgz:22214.got - 2010.04.16 13:43:02.
