data_PCOD8211015
_publ_section_title
;
Structure prediction by ZEFSAII (Michael W. Deem and Ramdas Pophale) SiO2 
 PCOD8211015
Probable space group: P M M A
;
_chemical_formula_sum "Si O2"
_cell_formula_units_Z 48
_cell_length_a 15.305696
_cell_length_b 8.979744
_cell_length_c 19.268216
_cell_angle_alpha 90.000000
_cell_angle_beta 90.000000
_cell_angle_gamma 90.000000
_cell_volume 2648.247342
_symmetry_space_group_name_H-M "P M M A"
_symmetry_group_IT_number 51
_symmetry_cell_setting 'orthorhombic'
loop_
_space_group_symop_operation_xyz
x,y,z
1/2-x,-y,z
1/2+x,-y,-z
-x,y,-z
-x,-y,-z
1/2+x,y,-z
1/2-x,y,z
x,-y,z
loop_
_atom_site_type_symbol
_atom_site_label
_atom_site_fract_x
_atom_site_fract_y
_atom_site_fract_z
Si Si1 0.849208 0.828838 0.567292
Si Si2 0.750000 0.167716 0.210363
Si Si3 0.422759 0.325160 0.950782
Si Si4 0.004090 0.825027 0.667725
Si Si5 0.750000 0.834608 0.045728
Si Si6 0.574091 0.324130 0.207875
Si Si7 0.649361 0.674238 0.424307
O O1 0.750000 0.803485 0.593311
O O2 0.871361 0.724530 0.502524
O O3 0.914075 0.784224 0.629243
O O4 0.864116 0.000000 0.544539
O O5 0.750000 0.163021 0.127997
O O6 0.665315 0.257011 0.235736
O O7 0.750000 0.000000 0.240934
O O8 0.408031 0.500000 0.955663
O O9 0.335814 0.249681 0.980610
O O10 0.444249 0.277963 0.871709
O O11 0.500000 0.269227 0.000000
O O12 0.999272 0.746430 0.743329
O O13 0.087595 0.764359 0.626796
O O14 0.014867 0.000000 0.677966
O O15 0.750000 0.000000 0.014344
O O16 0.577262 0.500000 0.217053
O O17 0.750000 0.710978 0.405601
O O18 0.629359 0.500000 0.417649
#
# Coordination Sequence:
#
# PCOD8211015 Si02
#       7
#     8   4   8   8   4   8   8
#     4   9  19  37  57  74  96 132 177 218 258 308
#     4   9  17  31  49  71 103 137 166 199 248 313
#     4   9  18  34  56  78 103 140 179 214 257 312
#     4  11  22  34  52  76 104 138 174 212 258 312
#     4   9  17  29  49  79 107 133 166 207 256 305
#     4  10  20  33  51  76 106 136 171 214 259 307
#     4  10  21  35  52  77 107 136 168 210 260 310
#
# _framework density 18.125194
#
# number of rings (size 3 to 8) (size 9 to 14) (size 15 to 20)
#    0.000    2.333    0.000    2.500    1.167    7.333 
#    0.000    0.000    1.833    0.000    0.000    0.000 
#    0.000    0.000    0.000    0.000    0.000    0.000 
#
# Total GULP energy -595257.722127 kJ/mol
# GULP energy per Si atom -12401.202544 kJ/mol
# Density = 1.808394 g / cm^3
# Si number density = 18.125194 Si / 1000 Ang^3
#
#
#
# Elastic Constant Matrix: (Units=GPa)
#
#
# Indices 1 2 3 4 5 6 
#
# 1 109.8746 46.9000 64.6609 0.0000 0.0000 0.0000
# 2 46.9000 76.5385 39.5804 0.0000 0.0000 0.0000
# 3 64.6609 39.5804 88.0376 0.0000 0.0000 0.0000
# 4 0.0000 0.0000 0.0000 26.5220 0.0000 0.0000
# 5 0.0000 0.0000 0.0000 0.0000 30.3706 0.0000
# 6 0.0000 0.0000 0.0000 0.0000 0.0000 25.7305
#
#
#
# Elastic Compliance Matrix: (Units=1/GPa)
#
#
# Indices 1 2 3 4 5 6 
#
# 1 0.017553 -0.005327 -0.010497 0.000000 0.000000 0.000000
# 2 -0.005327 0.018640 -0.004467 0.000000 0.000000 0.000000
# 3 -0.010497 -0.004467 0.021077 0.000000 0.000000 0.000000
# 4 0.000000 0.000000 0.000000 0.037704 0.000000 0.000000
# 5 0.000000 0.000000 0.000000 0.000000 0.032927 0.000000
# 6 0.000000 0.000000 0.000000 0.000000 0.000000 0.038864
#
#
# Mechanical properties :
#
#
# Convention : Reuss Voigt Hill
#
# Bulk Modulus (GPa) = 59.92960 64.08147 62.00553
# Shear Modulus (GPa) = 23.48409 24.74525 24.11467
#
# Velocity S-wave (km/s) = 3.60343 3.69892 3.65149
# Velocity P-wave (km/s) = 7.10275 7.32628 7.21538
#
# Compressibility (1/GPa) = 0.01668625
#
# Stress axis : x y z
#
# Youngs Moduli (GPa) = 56.97179 53.64795 47.44557
#
# Poissons Ratio (x) = 0.28580 0.49802
# Poissons Ratio (y) = 0.30351 0.21196
# Poissons Ratio (z) = 0.59801 0.23967
#
# Static dielectric constant tensor:
#      x y z
#    x 3.417170 0.000000 0.000000 
#    y 0.000000 3.438740 0.000000 
#    z 0.000000 0.000000 3.299930 
# 
# 
# High freq. dielectric constant tensor:
#      x y z
#    x 1.695540 0.000000 0.000000 
#    y 0.000000 1.711660 0.000000 
#    z 0.000000 0.000000 1.685690 
# 
# From -- ./inp_files/29659.got.cif
#   From: 2010.03.12/outbox.cif.g09.slc.cpg/sg51_15_cif.got.tgz:29659.got - 2010.04.16 13:43:02.
