data_PCOD8211387
_publ_section_title
;
Structure prediction by ZEFSAII (Michael W. Deem and Ramdas Pophale) SiO2 
 PCOD8211387
Probable space group: P M M A
;
_chemical_formula_sum "Si O2"
_cell_formula_units_Z 64
_cell_length_a 8.753010
_cell_length_b 24.352279
_cell_length_c 15.381654
_cell_angle_alpha 90.000000
_cell_angle_beta 90.000000
_cell_angle_gamma 90.000000
_cell_volume 3278.687866
_symmetry_space_group_name_H-M "P M M A"
_symmetry_group_IT_number 51
_symmetry_cell_setting 'orthorhombic'
loop_
_space_group_symop_operation_xyz
x,y,z
1/2-x,-y,z
1/2+x,-y,-z
-x,y,-z
-x,-y,-z
1/2+x,y,-z
1/2-x,y,z
x,-y,z
loop_
_atom_site_type_symbol
_atom_site_label
_atom_site_fract_x
_atom_site_fract_y
_atom_site_fract_z
Si Si1 0.425959 0.064847 0.590121
Si Si2 0.431457 0.353193 0.409599
Si Si3 0.424907 0.253960 0.679675
Si Si4 0.930857 0.140722 0.729609
Si Si5 0.929938 0.160270 0.088986
Si Si6 0.427600 0.393170 0.086158
Si Si7 0.568236 0.561410 0.733647
Si Si8 0.422010 0.715927 0.874296
O O1 0.500000 0.085605 0.500000
O O2 0.250000 0.083647 0.592176
O O3 0.516382 0.089986 0.671168
O O4 0.442562 0.000000 0.598792
O O5 0.500000 0.373907 0.500000
O O6 0.250000 0.351924 0.413382
O O7 0.492491 0.292079 0.390778
O O8 0.493426 0.396462 0.338402
O O9 0.250000 0.243662 0.652043
O O10 0.508585 0.195841 0.684377
O O11 0.435155 0.285284 0.770705
O O12 0.750000 0.143138 0.735754
O O13 0.996806 0.131692 0.826647
O O14 0.750000 0.149773 0.092159
O O15 0.970367 0.224664 0.090714
O O16 0.000000 0.135217 0.000000
O O17 0.250000 0.403701 0.082038
O O18 0.498252 0.421456 0.172037
O O19 0.461352 0.328035 0.086763
O O20 0.500000 0.420251 0.000000
O O21 0.750000 0.564303 0.736680
O O22 0.511707 0.500000 0.710966
O O23 0.250000 0.700851 0.903453
#
# Coordination Sequence:
#
# PCOD8211387 Si02
#       8
#     8   8   8   8   8   8   8   8
#     4  10  21  39  63  90 121 157 199 247 296 346
#     4  11  22  38  60  85 110 142 181 225 280 342
#     4  10  20  36  57  82 115 149 185 231 281 336
#     4  11  22  36  58  88 122 160 200 242 289 345
#     4  10  20  34  52  80 117 159 200 243 289 341
#     4  11  21  33  53  79 106 140 179 221 271 330
#     4   9  20  39  59  78 105 141 180 226 279 337
#     4   9  18  32  52  77 108 143 180 225 273 325
#
# _framework density 19.520004
#
# number of rings (size 3 to 8) (size 9 to 14) (size 15 to 20)
#    0.000    1.875    1.250    4.125    0.000    5.250 
#    0.000    2.500    0.000    5.625    0.000    0.000 
#    0.000    0.000    0.000    0.000    0.000    0.000 
#
# Total GULP energy -793740.148073 kJ/mol
# GULP energy per Si atom -12402.189814 kJ/mol
# Density = 1.947558 g / cm^3
# Si number density = 19.520004 Si / 1000 Ang^3
#
#
#
# Elastic Constant Matrix: (Units=GPa)
#
#
# Indices 1 2 3 4 5 6 
#
# 1 110.4174 29.9310 54.0929 0.0000 0.0000 0.0000
# 2 29.9310 52.7599 44.8959 0.0000 0.0000 0.0000
# 3 54.0929 44.8959 151.8069 0.0000 0.0000 0.0000
# 4 0.0000 0.0000 0.0000 17.7572 0.0000 0.0000
# 5 0.0000 0.0000 0.0000 0.0000 36.7414 0.0000
# 6 0.0000 0.0000 0.0000 0.0000 0.0000 19.9374
#
#
#
# Elastic Compliance Matrix: (Units=1/GPa)
#
#
# Indices 1 2 3 4 5 6 
#
# 1 0.011598 -0.004093 -0.002922 0.000000 0.000000 0.000000
# 2 -0.004093 0.026772 -0.006459 0.000000 0.000000 0.000000
# 3 -0.002922 -0.006459 0.009539 0.000000 0.000000 0.000000
# 4 0.000000 0.000000 0.000000 0.056315 0.000000 0.000000
# 5 0.000000 0.000000 0.000000 0.000000 0.027217 0.000000
# 6 0.000000 0.000000 0.000000 0.000000 0.000000 0.050157
#
#
# Mechanical properties :
#
#
# Convention : Reuss Voigt Hill
#
# Bulk Modulus (GPa) = 47.70963 63.64711 55.67837
# Shear Modulus (GPa) = 23.19827 27.29148 25.24488
#
# Velocity S-wave (km/s) = 3.45111 3.74321 3.60013
# Velocity P-wave (km/s) = 6.35411 7.16652 6.77251
#
# Compressibility (1/GPa) = 0.02096013
#
# Stress axis : x y z
#
# Youngs Moduli (GPa) = 86.22545 37.35212 104.83447
#
# Poissons Ratio (x) = 0.15287 0.30634
# Poissons Ratio (y) = 0.35290 0.67716
# Poissons Ratio (z) = 0.25196 0.24127
#
# Static dielectric constant tensor:
#      x y z
#    x 3.481830 0.000000 0.000000 
#    y 0.000000 3.321760 0.000000 
#    z 0.000000 0.000000 3.814480 
# 
# 
# High freq. dielectric constant tensor:
#      x y z
#    x 1.758560 0.000000 0.000000 
#    y 0.000000 1.734750 0.000000 
#    z 0.000000 0.000000 1.772550 
# 
# From -- ./inp_files/22292.got.cif
#   From: 2010.03.12/outbox.cif.g09.slc.cpg/sg51_12_cif.got.tgz:22292.got - 2010.04.16 13:43:02.
