data_PCOD8211000
_publ_section_title
;
Structure prediction by ZEFSAII (Michael W. Deem and Ramdas Pophale) SiO2 
 PCOD8211000
Probable space group: P M M A
;
_chemical_formula_sum "Si O2"
_cell_formula_units_Z 64
_cell_length_a 24.111691
_cell_length_b 9.260295
_cell_length_c 15.747581
_cell_angle_alpha 90.000000
_cell_angle_beta 90.000000
_cell_angle_gamma 90.000000
_cell_volume 3516.141485
_symmetry_space_group_name_H-M "P M M A"
_symmetry_group_IT_number 51
_symmetry_cell_setting 'orthorhombic'
loop_
_space_group_symop_operation_xyz
x,y,z
1/2-x,-y,z
1/2+x,-y,-z
-x,y,-z
-x,-y,-z
1/2+x,y,-z
1/2-x,y,z
x,-y,z
loop_
_atom_site_type_symbol
_atom_site_label
_atom_site_fract_x
_atom_site_fract_y
_atom_site_fract_z
Si Si1 0.559607 0.341811 0.461718
Si Si2 0.687952 0.832609 0.337971
Si Si3 0.813780 0.840617 0.703549
Si Si4 0.587117 0.667709 0.273983
Si Si5 0.154756 0.830331 0.478429
Si Si6 0.588197 0.832708 0.953756
Si Si7 0.472688 0.167279 0.872437
Si Si8 0.685048 0.329487 0.866977
O O1 0.500000 0.345257 0.500000
O O2 0.588065 0.500000 0.471692
O O3 0.556501 0.302076 0.362769
O O4 0.591768 0.221361 0.514830
O O5 0.750000 0.810408 0.303395
O O6 0.647550 0.742973 0.276735
O O7 0.686001 0.776059 0.436162
O O8 0.670043 0.000000 0.334859
O O9 0.750000 0.863591 0.720749
O O10 0.821336 0.768619 0.610155
O O11 0.835869 0.733507 0.776332
O O12 0.842859 0.000000 0.710136
O O13 0.595945 0.500000 0.254042
O O14 0.547241 0.734567 0.204193
O O15 0.159479 0.000000 0.472944
O O16 0.536436 0.791087 0.893026
O O17 0.643610 0.738919 0.936697
O O18 0.603934 0.000000 0.941480
O O19 0.568263 0.802090 0.049187
O O20 0.469272 0.000000 0.846609
O O21 0.750000 0.292075 0.886853
O O22 0.676461 0.500000 0.865312
#
# Coordination Sequence:
#
# PCOD8211000 Si02
#       8
#     8   8   8   8   8   8   8   8
#     4   9  19  34  47  63  95 135 168 200 243 295
#     4   9  17  31  51  72  97 132 172 214 260 305
#     4   9  17  30  48  70  98 131 166 204 245 291
#     4  10  20  33  51  76 104 135 170 209 255 304
#     4   9  17  29  47  71  94 121 165 215 254 289
#     4   9  19  37  60  82 102 129 166 208 255 305
#     4   9  19  37  59  81 104 129 164 211 257 304
#     4  10  21  35  51  76 110 142 171 206 250 302
#
# _framework density 18.201771000000001
#
# number of rings (size 3 to 8) (size 9 to 14) (size 15 to 20)
#    0.000    2.750    0.000    1.875    0.000    5.750 
#    0.000    4.375    0.000    3.000    0.000    0.000 
#    0.000    0.000    0.000    0.000    0.000    0.000 
#
# Total GULP energy -793204.828352 kJ/mol
# GULP energy per Si atom -12393.825443 kJ/mol
# Density = 1.816034 g / cm^3
# Si number density = 18.201771 Si / 1000 Ang^3
#
#
#
# Elastic Constant Matrix: (Units=GPa)
#
#
# Indices 1 2 3 4 5 6 
#
# 1 89.0527 46.0198 40.0149 0.0000 0.0000 0.0000
# 2 46.0198 62.5661 37.6751 0.0000 0.0000 0.0000
# 3 40.0149 37.6751 65.8205 0.0000 0.0000 0.0000
# 4 0.0000 0.0000 0.0000 21.9194 0.0000 0.0000
# 5 0.0000 0.0000 0.0000 0.0000 26.1418 0.0000
# 6 0.0000 0.0000 0.0000 0.0000 0.0000 24.4809
#
#
#
# Elastic Compliance Matrix: (Units=1/GPa)
#
#
# Indices 1 2 3 4 5 6 
#
# 1 0.019345 -0.010906 -0.005518 0.000000 0.000000 0.000000
# 2 -0.010906 0.030538 -0.010849 0.000000 0.000000 0.000000
# 3 -0.005518 -0.010849 0.024758 0.000000 0.000000 0.000000
# 4 0.000000 0.000000 0.000000 0.045622 0.000000 0.000000
# 5 0.000000 0.000000 0.000000 0.000000 0.038253 0.000000
# 6 0.000000 0.000000 0.000000 0.000000 0.000000 0.040848
#
#
# Mechanical properties :
#
#
# Convention : Reuss Voigt Hill
#
# Bulk Modulus (GPa) = 49.76753 51.65098 50.70926
# Shear Modulus (GPa) = 19.18594 20.75706 19.97150
#
# Velocity S-wave (km/s) = 3.25017 3.38062 3.31604
# Velocity P-wave (km/s) = 6.44098 6.60883 6.52545
#
# Compressibility (1/GPa) = 0.02009342
#
# Stress axis : x y z
#
# Youngs Moduli (GPa) = 51.69395 32.74600 40.39180
#
# Poissons Ratio (x) = 0.35713 0.22288
# Poissons Ratio (y) = 0.56378 0.43823
# Poissons Ratio (z) = 0.28524 0.35528
#
# Static dielectric constant tensor:
#      x y z
#    x 3.259730 0.000000 0.000000 
#    y 0.000000 3.480510 0.000000 
#    z 0.000000 0.000000 3.367860 
# 
# 
# High freq. dielectric constant tensor:
#      x y z
#    x 1.696640 0.000000 0.000000 
#    y 0.000000 1.700560 0.000000 
#    z 0.000000 0.000000 1.697510 
# 
# From -- ./inp_files/26273.got.cif
#   From: 2010.03.12/outbox.cif.g09.slc.cpg/sg51_14_cif.got.tgz:26273.got - 2010.04.16 13:43:02.
