data_PCOD8211923
_publ_section_title
;
Structure prediction by ZEFSAII (Michael W. Deem and Ramdas Pophale) SiO2 
 PCOD8211923
Probable space group: P M M A
;
_chemical_formula_sum "Si O2"
_cell_formula_units_Z 40
_cell_length_a 8.608319
_cell_length_b 25.548501
_cell_length_c 10.022727
_cell_angle_alpha 90.000000
_cell_angle_beta 90.000000
_cell_angle_gamma 90.000000
_cell_volume 2204.294807
_symmetry_space_group_name_H-M "P M M A"
_symmetry_group_IT_number 51
_symmetry_cell_setting 'orthorhombic'
loop_
_space_group_symop_operation_xyz
x,y,z
1/2-x,-y,z
1/2+x,-y,-z
-x,y,-z
-x,-y,-z
1/2+x,y,-z
1/2-x,y,z
x,-y,z
loop_
_atom_site_type_symbol
_atom_site_label
_atom_site_fract_x
_atom_site_fract_y
_atom_site_fract_z
Si Si1 0.070601 0.561401 0.640834
Si Si2 0.932869 0.634967 0.857675
Si Si3 0.434041 0.168542 0.647092
Si Si4 0.065579 0.746257 0.855840
Si Si5 0.566904 0.944823 0.353965
O O1 0.250000 0.578217 0.646693
O O2 0.049441 0.500000 0.664026
O O3 0.000000 0.578776 0.500000
O O4 0.973496 0.589863 0.754346
O O5 0.750000 0.642101 0.870111
O O6 0.006723 0.689524 0.809603
O O7 0.000000 0.617782 0.000000
O O8 0.500000 0.178817 0.500000
O O9 0.250000 0.172437 0.636546
O O10 0.498437 0.211940 0.748772
O O11 0.486527 0.111184 0.707418
O O12 0.250000 0.745993 0.863059
O O13 0.000000 0.761686 0.000000
O O14 0.500000 0.946915 0.500000
O O15 0.750000 0.944034 0.364920
O O16 0.515452 0.000000 0.279577
#
# Coordination Sequence:
#
# PCOD8211923 Si02
#       5
#     8   8   8   8   8
#     4  10  21  38  59  83 111 141 172 207 250 299
#     4  11  22  37  57  79 104 135 173 214 256 301
#     4   9  18  30  47  72  98 125 160 203 247 295
#     4  10  20  35  52  71  98 131 169 208 250 300
#     4   8  13  23  40  63  91 121 153 192 240 290
#
# _framework density 18.146391000000001
#
# number of rings (size 3 to 8) (size 9 to 14) (size 15 to 20)
#    0.000    2.400    0.000    4.200    0.000    4.000 
#    0.000    2.000    0.000    0.600    0.000    0.000 
#    0.000    0.000    0.000    0.000    0.000    0.800 
#
# Total GULP energy -495615.532269 kJ/mol
# GULP energy per Si atom -12390.388307 kJ/mol
# Density = 1.810509 g / cm^3
# Si number density = 18.146391 Si / 1000 Ang^3
#
#
#
# Elastic Constant Matrix: (Units=GPa)
#
#
# Indices 1 2 3 4 5 6 
#
# 1 65.0670 29.7842 27.9135 0.0000 0.0000 0.0000
# 2 29.7842 101.4602 69.0222 0.0000 0.0000 0.0000
# 3 27.9135 69.0222 89.9001 0.0000 0.0000 0.0000
# 4 0.0000 0.0000 0.0000 -10.1677 0.0000 0.0000
# 5 0.0000 0.0000 0.0000 0.0000 26.7548 0.0000
# 6 0.0000 0.0000 0.0000 0.0000 0.0000 9.3451
#
#
#
# Elastic Compliance Matrix: (Units=1/GPa)
#
#
# Indices 1 2 3 4 5 6 
#
# 1 0.018195 -0.003136 -0.003242 0.000000 0.000000 0.000000
# 2 -0.003136 0.021173 -0.015282 0.000000 0.000000 0.000000
# 3 -0.003242 -0.015282 0.023863 0.000000 0.000000 0.000000
# 4 0.000000 0.000000 0.000000 -0.098350 0.000000 0.000000
# 5 0.000000 0.000000 0.000000 0.000000 0.037376 0.000000
# 6 0.000000 0.000000 0.000000 0.000000 0.000000 0.107009
#
#
# Mechanical properties :
#
#
# Convention : Reuss Voigt Hill
#
# Bulk Modulus (GPa) = 50.22273 56.65190 53.43731
# Shear Modulus (GPa) = 31.40259 13.83358 22.61808
#
# Velocity S-wave (km/s) = 4.16446 2.76403 3.53430
# Velocity P-wave (km/s) = 7.13163 6.44000 6.79462
#
# Compressibility (1/GPa) = 0.01991130
#
# Stress axis : x y z
#
# Youngs Moduli (GPa) = 54.96033 47.23019 41.90563
#
# Poissons Ratio (x) = 0.14811 0.13585
# Poissons Ratio (y) = 0.17235 0.64041
# Poissons Ratio (z) = 0.17817 0.72178
#
# Static dielectric constant tensor:
#      x y z
#    x 3.396480 0.000000 0.000000 
#    y 0.000000 3.976330 0.000000 
#    z 0.000000 0.000000 3.178370 
# 
# 
# High freq. dielectric constant tensor:
#      x y z
#    x 1.710220 0.000000 0.000000 
#    y 0.000000 1.723890 0.000000 
#    z 0.000000 0.000000 1.672250 
# 
# From -- ./inp_files/5486.got.cif
#   From: 2010.03.12/outbox.cif.g09.slc.cpg/sg51_3_cif.got.tgz:5486.got - 2010.04.16 13:43:02.
