data_PCOD8211656
_publ_section_title
;
Structure prediction by ZEFSAII (Michael W. Deem and Ramdas Pophale) SiO2 
 PCOD8211656
Probable space group: P M M A
;
_chemical_formula_sum "Si O2"
_cell_formula_units_Z 40
_cell_length_a 9.115165
_cell_length_b 8.775025
_cell_length_c 25.734741
_cell_angle_alpha 90.000000
_cell_angle_beta 90.000000
_cell_angle_gamma 90.000000
_cell_volume 2058.413866
_symmetry_space_group_name_H-M "P M M A"
_symmetry_group_IT_number 51
_symmetry_cell_setting 'orthorhombic'
loop_
_space_group_symop_operation_xyz
x,y,z
1/2-x,-y,z
1/2+x,-y,-z
-x,y,-z
-x,-y,-z
1/2+x,y,-z
1/2-x,y,z
x,-y,z
loop_
_atom_site_type_symbol
_atom_site_label
_atom_site_fract_x
_atom_site_fract_y
_atom_site_fract_z
Si Si1 0.915711 0.680845 0.151608
Si Si2 0.084173 0.318298 0.050605
Si Si3 0.079265 0.677032 0.657885
Si Si4 0.078839 0.825930 0.551295
Si Si5 0.919327 0.178292 0.752350
O O1 0.750000 0.744523 0.150108
O O2 0.914638 0.500000 0.150684
O O3 0.002497 0.745066 0.101661
O O4 0.993648 0.733283 0.203603
O O5 0.250000 0.255251 0.050238
O O6 0.084195 0.500000 0.050425
O O7 0.000000 0.255581 0.000000
O O8 0.250000 0.715469 0.667127
O O9 0.046714 0.500000 0.666931
O O10 0.031079 0.722806 0.599889
O O11 0.983168 0.776194 0.696801
O O12 0.250000 0.813137 0.540875
O O13 0.000000 0.761882 0.500000
O O14 0.031334 0.000000 0.562563
O O15 0.750000 0.226734 0.754988
O O16 0.940151 0.000000 0.760993
#
# Coordination Sequence:
#
# PCOD8211656 Si02
#       5
#     8   8   8   8   8
#     4  10  20  34  54  80 108 139 177 220 266 317
#     4   9  16  27  46  74 108 143 178 218 263 311
#     4  10  21  37  57  81 108 139 177 220 266 317
#     4   9  18  33  53  77 107 143 180 217 258 307
#     4  11  24  39  55  77 105 138 177 220 267 321
#
# _framework density 19.432438000000001
#
# number of rings (size 3 to 8) (size 9 to 14) (size 15 to 20)
#    0.000    2.200    0.000    3.000    0.000   10.000 
#    0.000    2.000    0.000    0.600    0.000    0.000 
#    0.000    0.000    0.000    0.000    0.000    0.000 
#
# Total GULP energy -496129.817860 kJ/mol
# GULP energy per Si atom -12403.245447 kJ/mol
# Density = 1.938821 g / cm^3
# Si number density = 19.432438 Si / 1000 Ang^3
#
#
#
# Elastic Constant Matrix: (Units=GPa)
#
#
# Indices 1 2 3 4 5 6 
#
# 1 128.7182 15.7601 68.5199 0.0000 0.0000 0.0000
# 2 15.7601 13.2983 4.3265 0.0000 0.0000 0.0000
# 3 68.5199 4.3265 133.3626 0.0000 0.0000 0.0000
# 4 0.0000 0.0000 0.0000 -4.6519 0.0000 0.0000
# 5 0.0000 0.0000 0.0000 0.0000 45.1981 0.0000
# 6 0.0000 0.0000 0.0000 0.0000 0.0000 17.6800
#
#
#
# Elastic Compliance Matrix: (Units=1/GPa)
#
#
# Indices 1 2 3 4 5 6 
#
# 1 0.012565 -0.012927 -0.006036 0.000000 0.000000 0.000000
# 2 -0.012927 0.089300 0.003745 0.000000 0.000000 0.000000
# 3 -0.006036 0.003745 0.010478 0.000000 0.000000 0.000000
# 4 0.000000 0.000000 0.000000 -0.214968 0.000000 0.000000
# 5 0.000000 0.000000 0.000000 0.000000 0.022125 0.000000
# 6 0.000000 0.000000 0.000000 0.000000 0.000000 0.056561
#
#
# Mechanical properties :
#
#
# Convention : Reuss Voigt Hill
#
# Bulk Modulus (GPa) = 12.20922 50.28803 31.24862
# Shear Modulus (GPa) = 147.92782 24.09676 86.01229
#
# Velocity S-wave (km/s) = 8.73438 3.52522 6.66020
# Velocity P-wave (km/s) = 10.39306 6.51952 8.67525
#
# Compressibility (1/GPa) = 0.08190534
#
# Stress axis : x y z
#
# Youngs Moduli (GPa) = 79.58626 11.19826 95.43572
#
# Poissons Ratio (x) = 0.14476 0.57608
# Poissons Ratio (y) = 1.02882 -0.35738
# Poissons Ratio (z) = 0.48041 -0.04193
#
# Static dielectric constant tensor:
#      x y z
#    x 3.766250 0.000000 0.000000 
#    y 0.000000 3.258270 0.000000 
#    z 0.000000 0.000000 3.696200 
# 
# 
# High freq. dielectric constant tensor:
#      x y z
#    x 1.764230 0.000000 0.000000 
#    y 0.000000 1.727000 0.000000 
#    z 0.000000 0.000000 1.773080 
# 
# From -- ./inp_files/34303.got.cif
#   From: 2010.03.12/outbox.cif.g09.slc.cpg/sg51_18_cif.got.tgz:34303.got - 2010.04.16 13:43:02.
