data_PCOD8211892
_publ_section_title
;
Structure prediction by ZEFSAII (Michael W. Deem and Ramdas Pophale) SiO2 
 PCOD8211892
Probable space group: P M M A
;
_chemical_formula_sum "Si O2"
_cell_formula_units_Z 48
_cell_length_a 15.226698
_cell_length_b 18.388435
_cell_length_c 8.583579
_cell_angle_alpha 90.000000
_cell_angle_beta 90.000000
_cell_angle_gamma 90.000000
_cell_volume 2403.360459
_symmetry_space_group_name_H-M "P M M A"
_symmetry_group_IT_number 51
_symmetry_cell_setting 'orthorhombic'
loop_
_space_group_symop_operation_xyz
x,y,z
1/2-x,-y,z
1/2+x,-y,-z
-x,y,-z
-x,-y,-z
1/2+x,y,-z
1/2-x,y,z
x,-y,z
loop_
_atom_site_type_symbol
_atom_site_label
_atom_site_fract_x
_atom_site_fract_y
_atom_site_fract_z
Si Si1 0.649095 0.334059 0.798558
Si Si2 0.153812 0.159549 0.703239
Si Si3 0.851477 0.312365 0.161037
Si Si4 0.994868 0.083012 0.820944
Si Si5 0.586372 0.197128 0.604046
Si Si6 0.991486 0.584126 0.320467
O O1 0.750000 0.356100 0.763923
O O2 0.619733 0.268801 0.687961
O O3 0.584950 0.401452 0.763104
O O4 0.636379 0.311866 0.976609
O O5 0.250000 0.141670 0.769093
O O6 0.116627 0.233742 0.779865
O O7 0.091408 0.092784 0.747670
O O8 0.159697 0.169225 0.516565
O O9 0.750000 0.327085 0.208496
O O10 0.912160 0.372377 0.241098
O O11 0.926589 0.134683 0.732688
O O12 0.964412 0.000000 0.799504
O O13 0.000000 0.105786 0.000000
O O14 0.500000 0.212914 0.500000
O O15 0.967867 0.500000 0.301451
O O16 0.000000 0.607023 0.500000
#
# Coordination Sequence:
#
# PCOD8211892 Si02
#       6
#     8   8   8   8   8   8
#     4  11  22  37  60  86 113 146 186 232 278 329
#     4  10  20  35  57  83 111 142 180 228 277 327
#     4  10  22  39  60  86 113 145 186 231 278 329
#     4  10  21  37  56  78 109 149 187 225 274 330
#     4  10  20  34  57  84 111 145 185 228 274 327
#     4  11  24  40  58  82 114 151 187 227 278 333
#
# _framework density 19.972035000000002
#
# number of rings (size 3 to 8) (size 9 to 14) (size 15 to 20)
#    0.000    1.667    0.000    5.500    0.000    7.333 
#    0.000    4.167    0.000    3.500    0.000    0.000 
#    0.000    0.000    0.000    0.000    0.000    0.000 
#
# Total GULP energy -595243.584411 kJ/mol
# GULP energy per Si atom -12400.908009 kJ/mol
# Density = 1.992658 g / cm^3
# Si number density = 19.972035 Si / 1000 Ang^3
#
#
#
# Elastic Constant Matrix: (Units=GPa)
#
#
# Indices 1 2 3 4 5 6 
#
# 1 81.3846 18.4073 23.3927 0.0000 0.0000 0.0000
# 2 18.4073 49.9082 26.2399 0.0000 0.0000 0.0000
# 3 23.3927 26.2399 115.3855 0.0000 0.0000 0.0000
# 4 0.0000 0.0000 0.0000 32.3293 0.0000 0.0000
# 5 0.0000 0.0000 0.0000 0.0000 26.7128 0.0000
# 6 0.0000 0.0000 0.0000 0.0000 0.0000 2.8555
#
#
#
# Elastic Compliance Matrix: (Units=1/GPa)
#
#
# Indices 1 2 3 4 5 6 
#
# 1 0.013747 -0.004094 -0.001856 0.000000 0.000000 0.000000
# 2 -0.004094 0.023977 -0.004623 0.000000 0.000000 0.000000
# 3 -0.001856 -0.004623 0.010094 0.000000 0.000000 0.000000
# 4 0.000000 0.000000 0.000000 0.030932 0.000000 0.000000
# 5 0.000000 0.000000 0.000000 0.000000 0.037435 0.000000
# 6 0.000000 0.000000 0.000000 0.000000 0.000000 0.350205
#
#
# Mechanical properties :
#
#
# Convention : Reuss Voigt Hill
#
# Bulk Modulus (GPa) = 37.49185 42.52866 40.01026
# Shear Modulus (GPa) = 10.07199 24.28874 17.18036
#
# Velocity S-wave (km/s) = 2.24811 3.49110 2.93613
# Velocity P-wave (km/s) = 5.05486 6.13113 5.61882
#
# Compressibility (1/GPa) = 0.02667246
#
# Stress axis : x y z
#
# Youngs Moduli (GPa) = 72.74401 41.70613 99.06795
#
# Poissons Ratio (x) = 0.17076 0.18386
# Poissons Ratio (y) = 0.29784 0.45795
# Poissons Ratio (z) = 0.13500 0.19279
#
# Static dielectric constant tensor:
#      x y z
#    x 3.762630 0.000000 0.000000 
#    y 0.000000 3.420480 0.000000 
#    z 0.000000 0.000000 3.928480 
# 
# 
# High freq. dielectric constant tensor:
#      x y z
#    x 1.780960 0.000000 0.000000 
#    y 0.000000 1.766790 0.000000 
#    z 0.000000 0.000000 1.799020 
# 
# From -- ./inp_files/8292.got.cif
#   From: 2010.03.12/outbox.cif.g09.slc.cpg/sg51_5_cif.got.tgz:8292.got - 2010.04.16 13:43:02.
