data_PCOD8211280
_publ_section_title
;
Structure prediction by ZEFSAII (Michael W. Deem and Ramdas Pophale) SiO2 
 PCOD8211280
Probable space group: P M M A
;
_chemical_formula_sum "Si O2"
_cell_formula_units_Z 56
_cell_length_a 19.446685
_cell_length_b 9.454285
_cell_length_c 16.976359
_cell_angle_alpha 90.000000
_cell_angle_beta 90.000000
_cell_angle_gamma 90.000000
_cell_volume 3121.180035
_symmetry_space_group_name_H-M "P M M A"
_symmetry_group_IT_number 51
_symmetry_cell_setting 'orthorhombic'
loop_
_space_group_symop_operation_xyz
x,y,z
1/2-x,-y,z
1/2+x,-y,-z
-x,y,-z
-x,-y,-z
1/2+x,y,-z
1/2-x,y,z
x,-y,z
loop_
_atom_site_type_symbol
_atom_site_label
_atom_site_fract_x
_atom_site_fract_y
_atom_site_fract_z
Si Si1 0.328365 0.838521 0.828446
Si Si2 0.170640 0.660790 0.375258
Si Si3 0.951115 0.663518 0.883099
Si Si4 0.327954 0.336592 0.558667
Si Si5 0.933109 0.166588 0.727672
Si Si6 0.086412 0.165672 0.680139
Si Si7 0.400317 0.337688 0.948921
O O1 0.250000 0.820661 0.801959
O O2 0.375280 0.777667 0.758186
O O3 0.340863 0.754429 0.909161
O O4 0.347800 0.000000 0.845500
O O5 0.250000 0.685230 0.353159
O O6 0.149095 0.500000 0.354180
O O7 0.158413 0.689489 0.467015
O O8 0.125939 0.771897 0.327304
O O9 0.947060 0.500000 0.856700
O O10 0.926651 0.763394 0.813144
O O11 0.027717 0.704422 0.909021
O O12 0.901377 0.691274 0.957640
O O13 0.250000 0.290522 0.580376
O O14 0.338859 0.500000 0.580518
O O15 0.383489 0.244476 0.604720
O O16 0.006160 0.201632 0.687760
O O17 0.922422 0.000000 0.737627
O O18 0.100013 0.000000 0.668789
O O19 0.383603 0.500000 0.932284
#
# Coordination Sequence:
#
# PCOD8211280 Si02
#       7
#     8   8   8   8   8   8   8
#     4  10  20  34  51  74 110 151 184 217 264 320
#     4   9  20  40  61  79 104 139 177 222 278 328
#     4   9  18  34  55  78 105 137 174 218 269 318
#     4   9  19  36  57  80 105 139 185 227 264 315
#     4  11  22  35  55  84 112 140 179 223 265 318
#     4  10  21  35  51  77 113 148 179 215 267 321
#     4   9  18  33  54  78 102 134 179 224 263 312
#
# _framework density 17.941932000000001
#
# number of rings (size 3 to 8) (size 9 to 14) (size 15 to 20)
#    0.000    2.429    1.429    2.571    0.000    4.857 
#    0.000    6.429    0.000    0.857    0.000    0.000 
#    0.000    0.000    0.000    0.000    0.000    0.000 
#
# Total GULP energy -694490.423962 kJ/mol
# GULP energy per Si atom -12401.614714 kJ/mol
# Density = 1.790110 g / cm^3
# Si number density = 17.941932 Si / 1000 Ang^3
#
#
#
# Elastic Constant Matrix: (Units=GPa)
#
#
# Indices 1 2 3 4 5 6 
#
# 1 83.0403 52.0880 55.8979 0.0000 0.0000 0.0000
# 2 52.0880 81.2983 62.6110 0.0000 0.0000 0.0000
# 3 55.8979 62.6110 100.9495 0.0000 0.0000 0.0000
# 4 0.0000 0.0000 0.0000 22.0293 0.0000 0.0000
# 5 0.0000 0.0000 0.0000 0.0000 28.2596 0.0000
# 6 0.0000 0.0000 0.0000 0.0000 0.0000 31.7650
#
#
#
# Elastic Compliance Matrix: (Units=1/GPa)
#
#
# Indices 1 2 3 4 5 6 
#
# 1 0.022250 -0.009127 -0.006660 0.000000 0.000000 0.000000
# 2 -0.009127 0.027292 -0.011873 0.000000 0.000000 0.000000
# 3 -0.006660 -0.011873 0.020958 0.000000 0.000000 0.000000
# 4 0.000000 0.000000 0.000000 0.045394 0.000000 0.000000
# 5 0.000000 0.000000 0.000000 0.000000 0.035386 0.000000
# 6 0.000000 0.000000 0.000000 0.000000 0.000000 0.031481
#
#
# Mechanical properties :
#
#
# Convention : Reuss Voigt Hill
#
# Bulk Modulus (GPa) = 65.87594 67.38690 66.63142
# Shear Modulus (GPa) = 20.56413 22.72352 21.64382
#
# Velocity S-wave (km/s) = 3.38915 3.56266 3.47699
# Velocity P-wave (km/s) = 7.21880 7.38669 7.30323
#
# Compressibility (1/GPa) = 0.01518005
#
# Stress axis : x y z
#
# Youngs Moduli (GPa) = 44.94337 36.64055 47.71496
#
# Poissons Ratio (x) = 0.33441 0.31777
# Poissons Ratio (y) = 0.41019 0.56654
# Poissons Ratio (z) = 0.29931 0.43505
#
# Static dielectric constant tensor:
#      x y z
#    x 3.201170 0.000000 0.000000 
#    y 0.000000 3.240700 0.000000 
#    z 0.000000 0.000000 3.286110 
# 
# 
# High freq. dielectric constant tensor:
#      x y z
#    x 1.685250 0.000000 0.000000 
#    y 0.000000 1.692820 0.000000 
#    z 0.000000 0.000000 1.696200 
# 
# From -- ./inp_files/25616.got.cif
#   From: 2010.03.12/outbox.cif.g09.slc.cpg/sg51_13_cif.got.tgz:25616.got - 2010.04.16 13:43:02.
