data_PCOD8211009
_publ_section_title
;
Structure prediction by ZEFSAII (Michael W. Deem and Ramdas Pophale) SiO2 
 PCOD8211009
Probable space group: P M M A
;
_chemical_formula_sum "Si O2"
_cell_formula_units_Z 64
_cell_length_a 18.304003
_cell_length_b 9.156222
_cell_length_c 20.555208
_cell_angle_alpha 90.000000
_cell_angle_beta 90.000000
_cell_angle_gamma 90.000000
_cell_volume 3444.960670
_symmetry_space_group_name_H-M "P M M A"
_symmetry_group_IT_number 51
_symmetry_cell_setting 'orthorhombic'
loop_
_space_group_symop_operation_xyz
x,y,z
1/2-x,-y,z
1/2+x,-y,-z
-x,y,-z
-x,-y,-z
1/2+x,y,-z
1/2-x,y,z
x,-y,z
loop_
_atom_site_type_symbol
_atom_site_label
_atom_site_fract_x
_atom_site_fract_y
_atom_site_fract_z
Si Si1 0.834518 0.669582 0.184602
Si Si2 0.166116 0.828290 0.571350
Si Si3 0.662954 0.164871 0.057215
Si Si4 0.834016 0.668681 0.558377
Si Si5 0.836974 0.335105 0.932113
Si Si6 0.586333 0.332030 0.689125
Si Si7 0.834918 0.170701 0.803737
Si Si8 0.085331 0.332029 0.685129
O O1 0.750000 0.704784 0.198396
O O2 0.846393 0.500000 0.168744
O O3 0.864888 0.759550 0.123229
O O4 0.879869 0.720349 0.247137
O O5 0.250000 0.783781 0.584693
O O6 0.139407 0.762019 0.503080
O O7 0.116451 0.766469 0.628167
O O8 0.155735 0.000000 0.567950
O O9 0.750000 0.167469 0.055320
O O10 0.633051 0.000000 0.054632
O O11 0.631366 0.252781 0.995419
O O12 0.750000 0.701881 0.575834
O O13 0.846034 0.500000 0.540661
O O14 0.882745 0.716286 0.619370
O O15 0.750000 0.334659 0.934632
O O16 0.867456 0.500000 0.931101
O O17 0.864471 0.251894 0.867930
O O18 0.607543 0.500000 0.704133
O O19 0.620745 0.227802 0.742531
O O20 0.500443 0.308460 0.689069
O O21 0.750000 0.205324 0.792064
O O22 0.848953 0.000000 0.813181
O O23 0.106044 0.500000 0.671169
#
# Coordination Sequence:
#
# PCOD8211009 Si02
#       8
#     8   8   8   8   8   8   8   8
#     4   9  17  30  49  72  98 131 170 208 249 301
#     4  10  21  36  55  79 105 133 168 211 257 306
#     4   9  16  26  43  70 102 131 162 206 257 304
#     4   9  18  34  56  78 101 132 169 209 253 303
#     4   9  16  27  46  72 101 132 167 209 255 303
#     4  10  21  36  54  77 104 136 175 215 255 302
#     4  10  20  33  51  76 105 137 172 211 257 307
#     4  10  21  36  54  76 104 138 174 213 256 304
#
# _framework density 18.577860999999999
#
# number of rings (size 3 to 8) (size 9 to 14) (size 15 to 20)
#    0.000    2.500    0.000    2.250    0.000    7.500 
#    0.000    5.000    0.000    0.750    0.000    5.250 
#    0.000    0.000    0.000    0.000    0.000    0.000 
#
# Total GULP energy -793794.375398 kJ/mol
# GULP energy per Si atom -12403.037116 kJ/mol
# Density = 1.853558 g / cm^3
# Si number density = 18.577861 Si / 1000 Ang^3
#
#
#
# Elastic Constant Matrix: (Units=GPa)
#
#
# Indices 1 2 3 4 5 6 
#
# 1 48.8535 38.1294 53.9895 0.0000 0.0000 0.0000
# 2 38.1294 109.0990 86.9748 0.0000 0.0000 0.0000
# 3 53.9895 86.9748 172.4207 0.0000 0.0000 0.0000
# 4 0.0000 0.0000 0.0000 16.0242 0.0000 0.0000
# 5 0.0000 0.0000 0.0000 0.0000 -4.3042 0.0000
# 6 0.0000 0.0000 0.0000 0.0000 0.0000 18.6579
#
#
#
# Elastic Compliance Matrix: (Units=1/GPa)
#
#
# Indices 1 2 3 4 5 6 
#
# 1 0.033192 -0.005544 -0.007596 0.000000 0.000000 0.000000
# 2 -0.005544 0.016257 -0.006465 0.000000 0.000000 0.000000
# 3 -0.007596 -0.006465 0.011439 0.000000 0.000000 0.000000
# 4 0.000000 0.000000 0.000000 0.062406 0.000000 0.000000
# 5 0.000000 0.000000 0.000000 0.000000 -0.232329 0.000000
# 6 0.000000 0.000000 0.000000 0.000000 0.000000 0.053597
#
#
# Mechanical properties :
#
#
# Convention : Reuss Voigt Hill
#
# Bulk Modulus (GPa) = 46.13062 76.50673 61.31868
# Shear Modulus (GPa) = -555.48027 16.16087 -269.65970
#
# Velocity S-wave (km/s) = -17.31041 2.95261 -12.06094
# Velocity P-wave (km/s) = 19.35585 7.27289 12.68373
#
# Compressibility (1/GPa) = 0.02167757
#
# Stress axis : x y z
#
# Youngs Moduli (GPa) = 30.12805 61.51032 87.41680
#
# Poissons Ratio (x) = 0.34103 0.66406
# Poissons Ratio (y) = 0.16704 0.56513
# Poissons Ratio (z) = 0.22887 0.39765
#
# Static dielectric constant tensor:
#      x y z
#    x 3.029560 0.000000 0.000000 
#    y 0.000000 3.464300 0.000000 
#    z 0.000000 0.000000 3.557710 
# 
# 
# High freq. dielectric constant tensor:
#      x y z
#    x 1.684670 0.000000 0.000000 
#    y 0.000000 1.724440 0.000000 
#    z 0.000000 0.000000 1.735950 
# 
# From -- ./inp_files/30523.got.cif
#   From: 2010.03.12/outbox.cif.g09.slc.cpg/sg51_16_cif.got.tgz:30523.got - 2010.04.16 13:43:02.
