data_PCOD8211809
_publ_section_title
;
Structure prediction by ZEFSAII (Michael W. Deem and Ramdas Pophale) SiO2 
 PCOD8211809
Probable space group: P M M A
;
_chemical_formula_sum "Si O2"
_cell_formula_units_Z 40
_cell_length_a 8.893230
_cell_length_b 7.711158
_cell_length_c 29.014625
_cell_angle_alpha 90.000000
_cell_angle_beta 90.000000
_cell_angle_gamma 90.000000
_cell_volume 1989.738888
_symmetry_space_group_name_H-M "P M M A"
_symmetry_group_IT_number 51
_symmetry_cell_setting 'orthorhombic'
loop_
_space_group_symop_operation_xyz
x,y,z
1/2-x,-y,z
1/2+x,-y,-z
-x,y,-z
-x,-y,-z
1/2+x,y,-z
1/2-x,y,z
x,-y,z
loop_
_atom_site_type_symbol
_atom_site_label
_atom_site_fract_x
_atom_site_fract_y
_atom_site_fract_z
Si Si1 0.925759 0.799918 0.046536
Si Si2 0.571597 0.000000 0.799301
Si Si3 0.923441 0.796250 0.547525
Si Si4 0.423352 0.695693 0.638939
Si Si5 0.429085 0.000000 0.304656
Si Si6 0.922375 0.307352 0.862783
O O1 0.750000 0.771092 0.042244
O O2 0.985687 0.695014 0.090030
O O3 0.970303 0.000000 0.053517
O O4 0.000000 0.726070 0.000000
O O5 0.508471 0.000000 0.747547
O O6 0.511622 0.829298 0.825896
O O7 0.750000 0.000000 0.797026
O O8 0.750000 0.739894 0.546464
O O9 0.000000 0.739431 0.500000
O O10 0.008267 0.697029 0.587962
O O11 0.940924 0.000000 0.556340
O O12 0.250000 0.753718 0.636668
O O13 0.439180 0.500000 0.658468
O O14 0.512704 0.825830 0.671656
O O15 0.250000 0.000000 0.307627
O O16 0.750000 0.260617 0.874194
O O17 0.936707 0.500000 0.841359
#
# Coordination Sequence:
#
# PCOD8211809 Si02
#       6
#     8   4   8   8   4   8
#     4  10  20  34  55  83 115 154 194 234 282 336
#     4   9  20  39  62  87 116 147 188 240 295 351
#     4  10  20  35  59  90 123 162 203 245 295 351
#     4  11  24  41  62  89 123 163 203 246 298 357
#     4  11  23  41  66  93 118 153 197 252 310 357
#     4  10  20  36  60  87 115 150 190 234 286 343
#
# _framework density 20.10314
#
# number of rings (size 3 to 8) (size 9 to 14) (size 15 to 20)
#    0.000    1.800    2.000    2.100    0.000    5.200 
#    0.000    4.000    0.000    0.000    0.000    0.000 
#    0.000    0.000    0.000    0.000    0.000    0.000 
#
# Total GULP energy -496142.589838 kJ/mol
# GULP energy per Si atom -12403.564746 kJ/mol
# Density = 2.005738 g / cm^3
# Si number density = 20.103140 Si / 1000 Ang^3
#
#
#
# Elastic Constant Matrix: (Units=GPa)
#
#
# Indices 1 2 3 4 5 6 
#
# 1 101.9427 41.9900 49.4186 0.0000 0.0000 0.0000
# 2 41.9900 113.9550 62.8482 0.0000 0.0000 0.0000
# 3 49.4186 62.8482 151.5335 0.0000 0.0000 0.0000
# 4 0.0000 0.0000 0.0000 8.7104 0.0000 0.0000
# 5 0.0000 0.0000 0.0000 0.0000 27.8840 0.0000
# 6 0.0000 0.0000 0.0000 0.0000 0.0000 21.1737
#
#
#
# Elastic Compliance Matrix: (Units=1/GPa)
#
#
# Indices 1 2 3 4 5 6 
#
# 1 0.012412 -0.003035 -0.002789 0.000000 0.000000 0.000000
# 2 -0.003035 0.012120 -0.004037 0.000000 0.000000 0.000000
# 3 -0.002789 -0.004037 0.009183 0.000000 0.000000 0.000000
# 4 0.000000 0.000000 0.000000 0.114805 0.000000 0.000000
# 5 0.000000 0.000000 0.000000 0.000000 0.035863 0.000000
# 6 0.000000 0.000000 0.000000 0.000000 0.000000 0.047228
#
#
# Mechanical properties :
#
#
# Convention : Reuss Voigt Hill
#
# Bulk Modulus (GPa) = 71.46588 75.10498 73.28543
# Shear Modulus (GPa) = 19.53144 25.76524 22.64834
#
# Velocity S-wave (km/s) = 3.12037 3.58390 3.36014
# Velocity P-wave (km/s) = 6.97202 7.38693 7.18247
#
# Compressibility (1/GPa) = 0.01399269
#
# Stress axis : x y z
#
# Youngs Moduli (GPa) = 80.56973 82.50607 108.89654
#
# Poissons Ratio (x) = 0.25043 0.30369
# Poissons Ratio (y) = 0.24456 0.43961
# Poissons Ratio (z) = 0.22469 0.33308
#
# Static dielectric constant tensor:
#      x y z
#    x 3.565850 0.000000 0.000000 
#    y 0.000000 3.657480 0.000000 
#    z 0.000000 0.000000 3.688990 
# 
# 
# High freq. dielectric constant tensor:
#      x y z
#    x 1.780950 0.000000 0.000000 
#    y 0.000000 1.789320 0.000000 
#    z 0.000000 0.000000 1.779960 
# 
# From -- ./inp_files/36075.got.cif
#   From: 2010.03.12/outbox.cif.g09.slc.cpg/sg51_19_cif.got.tgz:36075.got - 2010.04.16 13:43:02.
