data_PCOD8211023
_publ_section_title
;
Structure prediction by ZEFSAII (Michael W. Deem and Ramdas Pophale) SiO2 
 PCOD8211023
Probable space group: P M M A
;
_chemical_formula_sum "Si O2"
_cell_formula_units_Z 64
_cell_length_a 9.196403
_cell_length_b 16.001402
_cell_length_c 23.279261
_cell_angle_alpha 90.000000
_cell_angle_beta 90.000000
_cell_angle_gamma 90.000000
_cell_volume 3425.667599
_symmetry_space_group_name_H-M "P M M A"
_symmetry_group_IT_number 51
_symmetry_cell_setting 'orthorhombic'
loop_
_space_group_symop_operation_xyz
x,y,z
1/2-x,-y,z
1/2+x,-y,-z
-x,y,-z
-x,-y,-z
1/2+x,y,-z
1/2-x,y,z
x,-y,z
loop_
_atom_site_type_symbol
_atom_site_label
_atom_site_fract_x
_atom_site_fract_y
_atom_site_fract_z
Si Si1 0.923112 0.264156 0.735502
Si Si2 0.418333 0.171298 0.639944
Si Si3 0.914859 0.328321 0.441270
Si Si4 0.579283 0.094440 0.940415
Si Si5 0.078046 0.749502 0.134176
Si Si6 0.420592 0.594096 0.059567
Si Si7 0.415876 0.405465 0.673130
Si Si8 0.091306 0.905314 0.448909
O O1 0.750000 0.256252 0.728724
O O2 0.976852 0.252093 0.800570
O O3 0.004530 0.192388 0.699746
O O4 0.974560 0.354371 0.713255
O O5 0.250000 0.150537 0.650646
O O6 0.444966 0.242833 0.592631
O O7 0.503215 0.094152 0.611260
O O8 0.750000 0.336563 0.460429
O O9 0.957834 0.399493 0.394456
O O10 0.000000 0.338725 0.500000
O O11 0.750000 0.104849 0.951260
O O12 0.522084 0.164651 0.895665
O O13 0.544422 0.000000 0.917746
O O14 0.500000 0.111552 0.000000
O O15 0.250000 0.748351 0.133139
O O16 0.020347 0.665011 0.103217
O O17 0.250000 0.604998 0.048735
O O18 0.454398 0.500000 0.083116
O O19 0.500000 0.609631 0.000000
O O20 0.250000 0.370179 0.680279
O O21 0.426705 0.500000 0.694054
O O22 0.250000 0.860867 0.443302
O O23 0.000000 0.860161 0.500000
O O24 0.118041 0.000000 0.467179
#
# Coordination Sequence:
#
# PCOD8211023 Si02
#       8
#     8   8   8   8   8   8   8   8
#     4  10  20  34  52  73  96 125 169 215 250 295
#     4  10  20  35  52  69  96 133 168 205 253 303
#     4   9  18  30  46  69  93 120 154 193 241 295
#     4   9  17  31  52  77 104 133 164 199 243 295
#     4   9  18  32  50  73 101 133 167 206 252 299
#     4   9  17  30  48  71 101 134 166 203 249 300
#     4   9  19  36  52  67  95 131 162 199 251 305
#     4  10  20  33  51  77 105 131 162 202 250 305
#
# _framework density 18.682490999999999
#
# number of rings (size 3 to 8) (size 9 to 14) (size 15 to 20)
#    0.000    2.625    0.000    2.625    0.000    5.250 
#    0.000    4.375    0.000    3.750    0.000    0.000 
#    0.000    0.000    0.000    0.000    0.000    0.000 
#
# Total GULP energy -793187.537519 kJ/mol
# GULP energy per Si atom -12393.555274 kJ/mol
# Density = 1.863997 g / cm^3
# Si number density = 18.682491 Si / 1000 Ang^3
#
#
#
# Elastic Constant Matrix: (Units=GPa)
#
#
# Indices 1 2 3 4 5 6 
#
# 1 92.8287 30.7929 58.4280 0.0000 0.0000 0.0000
# 2 30.7929 80.3661 60.6278 0.0000 0.0000 0.0000
# 3 58.4280 60.6278 151.7123 0.0000 0.0000 0.0000
# 4 0.0000 0.0000 0.0000 18.0897 0.0000 0.0000
# 5 0.0000 0.0000 0.0000 0.0000 29.6613 0.0000
# 6 0.0000 0.0000 0.0000 0.0000 0.0000 20.1266
#
#
#
# Elastic Compliance Matrix: (Units=1/GPa)
#
#
# Indices 1 2 3 4 5 6 
#
# 1 0.014422 -0.001912 -0.004790 0.000000 0.000000 0.000000
# 2 -0.001912 0.018067 -0.006483 0.000000 0.000000 0.000000
# 3 -0.004790 -0.006483 0.011027 0.000000 0.000000 0.000000
# 4 0.000000 0.000000 0.000000 0.055280 0.000000 0.000000
# 5 0.000000 0.000000 0.000000 0.000000 0.033714 0.000000
# 6 0.000000 0.000000 0.000000 0.000000 0.000000 0.049685
#
#
# Mechanical properties :
#
#
# Convention : Reuss Voigt Hill
#
# Bulk Modulus (GPa) = 58.32851 69.40051 63.86451
# Shear Modulus (GPa) = 23.33379 25.24607 24.28993
#
# Velocity S-wave (km/s) = 3.53790 3.68002 3.60966
# Velocity P-wave (km/s) = 6.92660 7.43537 7.18549
#
# Compressibility (1/GPa) = 0.01714427
#
# Stress axis : x y z
#
# Youngs Moduli (GPa) = 69.33972 55.34988 90.68563
#
# Poissons Ratio (x) = 0.10584 0.43438
# Poissons Ratio (y) = 0.13260 0.58796
# Poissons Ratio (z) = 0.33213 0.35886
#
# Static dielectric constant tensor:
#      x y z
#    x 3.484560 0.000000 0.000000 
#    y 0.000000 3.538640 0.000000 
#    z 0.000000 0.000000 3.444730 
# 
# 
# High freq. dielectric constant tensor:
#      x y z
#    x 1.718500 0.000000 0.000000 
#    y 0.000000 1.720810 0.000000 
#    z 0.000000 0.000000 1.714820 
# 
# From -- ./inp_files/35123.got.cif
#   From: 2010.03.12/outbox.cif.g09.slc.cpg/sg51_18_cif.got.tgz:35123.got - 2010.04.16 13:43:02.
