data_PCOD8211481
_publ_section_title
;
Structure prediction by ZEFSAII (Michael W. Deem and Ramdas Pophale) SiO2 
 PCOD8211481
Probable space group: P M M A
;
_chemical_formula_sum "Si O2"
_cell_formula_units_Z 48
_cell_length_a 30.555788
_cell_length_b 9.148478
_cell_length_c 9.059998
_cell_angle_alpha 90.000000
_cell_angle_beta 90.000000
_cell_angle_gamma 90.000000
_cell_volume 2532.622367
_symmetry_space_group_name_H-M "P M M A"
_symmetry_group_IT_number 51
_symmetry_cell_setting 'orthorhombic'
loop_
_space_group_symop_operation_xyz
x,y,z
1/2-x,-y,z
1/2+x,-y,-z
-x,y,-z
-x,-y,-z
1/2+x,y,-z
1/2-x,y,z
x,-y,z
loop_
_atom_site_type_symbol
_atom_site_label
_atom_site_fract_x
_atom_site_fract_y
_atom_site_fract_z
Si Si1 0.460549 0.831892 0.100890
Si Si2 0.199259 0.169132 0.430554
Si Si3 0.124928 0.672859 0.598719
Si Si4 0.623293 0.169164 0.098745
Si Si5 0.798219 0.826225 0.900782
Si Si6 0.041770 0.327484 0.408880
O O1 0.458793 0.739886 0.248215
O O2 0.468570 0.000000 0.143520
O O3 0.500000 0.772936 0.000000
O O4 0.415691 0.809853 0.015101
O O5 0.250000 0.190169 0.472509
O O6 0.170772 0.263412 0.542937
O O7 0.190339 0.227665 0.264596
O O8 0.185718 0.000000 0.446032
O O9 0.128646 0.500000 0.609739
O O10 0.113666 0.735182 0.758807
O O11 0.085946 0.722341 0.490787
O O12 0.628896 0.000000 0.144577
O O13 0.666843 0.231490 0.018911
O O14 0.750000 0.769087 0.947236
O O15 0.798468 0.000000 0.896017
O O16 0.039563 0.500000 0.391511
O O17 0.000000 0.269364 0.500000
#
# Coordination Sequence:
#
# PCOD8211481 Si02
#       6
#     8   8   8   8   8   8
#     4  10  21  36  56  83 109 134 173 226 276 318
#     4   9  18  35  59  82 105 139 180 220 269 327
#     4  11  23  36  52  78 111 144 181 225 268 313
#     4  10  20  34  53  77 106 139 175 217 267 322
#     4   8  15  30  53  78 100 127 170 217 256 305
#     4  10  22  39  57  78 107 146 187 222 264 323
#
# _framework density 18.952687999999998
#
# number of rings (size 3 to 8) (size 9 to 14) (size 15 to 20)
#    0.000    2.333    0.000    3.500    0.000    5.000 
#    0.000    2.500    0.000    1.000    0.000    0.000 
#    0.000    0.000    0.000    0.000    0.000    0.000 
#
# Total GULP energy -595292.198024 kJ/mol
# GULP energy per Si atom -12401.920792 kJ/mol
# Density = 1.890955 g / cm^3
# Si number density = 18.952688 Si / 1000 Ang^3
#
#
#
# Elastic Constant Matrix: (Units=GPa)
#
#
# Indices 1 2 3 4 5 6 
#
# 1 108.5189 35.0419 47.7489 0.0000 0.0000 0.0000
# 2 35.0419 42.9843 36.8877 0.0000 0.0000 0.0000
# 3 47.7489 36.8877 111.1449 0.0000 0.0000 0.0000
# 4 0.0000 0.0000 0.0000 26.4486 0.0000 0.0000
# 5 0.0000 0.0000 0.0000 0.0000 33.8432 0.0000
# 6 0.0000 0.0000 0.0000 0.0000 0.0000 18.2304
#
#
#
# Elastic Compliance Matrix: (Units=1/GPa)
#
#
# Indices 1 2 3 4 5 6 
#
# 1 0.013154 -0.008213 -0.002925 0.000000 0.000000 0.000000
# 2 -0.008213 0.037657 -0.008970 0.000000 0.000000 0.000000
# 3 -0.002925 -0.008970 0.013231 0.000000 0.000000 0.000000
# 4 0.000000 0.000000 0.000000 0.037809 0.000000 0.000000
# 5 0.000000 0.000000 0.000000 0.000000 0.029548 0.000000
# 6 0.000000 0.000000 0.000000 0.000000 0.000000 0.054854
#
#
# Mechanical properties :
#
#
# Convention : Reuss Voigt Hill
#
# Bulk Modulus (GPa) = 41.97049 55.77835 48.87442
# Shear Modulus (GPa) = 21.32999 25.23575 23.28287
#
# Velocity S-wave (km/s) = 3.35839 3.65295 3.50876
# Velocity P-wave (km/s) = 6.10175 6.87650 6.50068
#
# Compressibility (1/GPa) = 0.02382626
#
# Stress axis : x y z
#
# Youngs Moduli (GPa) = 76.02082 26.55520 75.58070
#
# Poissons Ratio (x) = 0.21811 0.22110
# Poissons Ratio (y) = 0.62438 0.67792
# Poissons Ratio (z) = 0.22238 0.23819
#
# Static dielectric constant tensor:
#      x y z
#    x 3.856040 0.000000 0.000000 
#    y 0.000000 3.201060 0.000000 
#    z 0.000000 0.000000 3.445290 
# 
# 
# High freq. dielectric constant tensor:
#      x y z
#    x 1.754720 0.000000 0.000000 
#    y 0.000000 1.708490 0.000000 
#    z 0.000000 0.000000 1.742690 
# 
# From -- ./inp_files/12732.got.cif
#   From: 2010.03.12/outbox.cif.g09.slc.cpg/sg51_7_cif.got.tgz:12732.got - 2010.04.16 13:43:02.
