data_PCOD8211054
_publ_section_title
;
Structure prediction by ZEFSAII (Michael W. Deem and Ramdas Pophale) SiO2 
 PCOD8211054
Probable space group: P M M A
;
_chemical_formula_sum "Si O2"
_cell_formula_units_Z 48
_cell_length_a 23.474124
_cell_length_b 8.941623
_cell_length_c 11.530173
_cell_angle_alpha 90.000000
_cell_angle_beta 90.000000
_cell_angle_gamma 90.000000
_cell_volume 2420.146036
_symmetry_space_group_name_H-M "P M M A"
_symmetry_group_IT_number 51
_symmetry_cell_setting 'orthorhombic'
loop_
_space_group_symop_operation_xyz
x,y,z
1/2-x,-y,z
1/2+x,-y,-z
-x,y,-z
-x,-y,-z
1/2+x,y,-z
1/2-x,y,z
x,-y,z
loop_
_atom_site_type_symbol
_atom_site_label
_atom_site_fract_x
_atom_site_fract_y
_atom_site_fract_z
Si Si1 0.370073 0.323419 0.908518
Si Si2 0.524222 0.676355 0.236535
Si Si3 0.400496 0.673572 0.553272
Si Si4 0.184412 0.167683 0.699062
Si Si5 0.902257 0.674183 0.713940
Si Si6 0.184376 0.822904 0.130391
O O1 0.365898 0.500000 0.927825
O O2 0.434324 0.274910 0.869447
O O3 0.326926 0.274767 0.808147
O O4 0.352563 0.242523 0.025734
O O5 0.520363 0.500000 0.241840
O O6 0.549437 0.730569 0.360549
O O7 0.459306 0.734128 0.219450
O O8 0.387314 0.500000 0.576796
O O9 0.344708 0.768809 0.583560
O O10 0.416048 0.702689 0.420641
O O11 0.250000 0.166844 0.669806
O O12 0.162709 0.000000 0.727738
O O13 0.890254 0.500000 0.739236
O O14 0.846744 0.766779 0.752884
O O15 0.250000 0.766035 0.127658
O O16 0.183039 0.000000 0.124177
#
# Coordination Sequence:
#
# PCOD8211054 Si02
#       6
#     8   8   8   8   8   8
#     4  10  20  36  60  85 107 135 177 227 274 323
#     4   8  16  33  58  87 113 136 168 218 277 324
#     4   9  18  33  55  82 110 143 182 222 265 316
#     4  10  20  33  51  77 110 146 181 222 275 326
#     4  10  20  36  59  83 109 143 183 223 262 315
#     4  11  25  42  56  74 108 150 185 221 270 323
#
# _framework density 19.833514000000001
#
# number of rings (size 3 to 8) (size 9 to 14) (size 15 to 20)
#    0.000    2.333    0.000    3.500    0.000    8.667 
#    0.000   10.833    0.000    5.000    0.000    0.000 
#    0.000    0.000    0.000    0.000    0.000    0.000 
#
# Total GULP energy -594997.963747 kJ/mol
# GULP energy per Si atom -12395.790911 kJ/mol
# Density = 1.978837 g / cm^3
# Si number density = 19.833514 Si / 1000 Ang^3
#
#
#
# Elastic Constant Matrix: (Units=GPa)
#
#
# Indices 1 2 3 4 5 6 
#
# 1 115.4141 39.1931 46.8195 0.0000 0.0000 0.0000
# 2 39.1931 53.3167 25.4654 0.0000 0.0000 0.0000
# 3 46.8195 25.4654 70.0459 0.0000 0.0000 0.0000
# 4 0.0000 0.0000 0.0000 19.4184 0.0000 0.0000
# 5 0.0000 0.0000 0.0000 0.0000 21.5758 0.0000
# 6 0.0000 0.0000 0.0000 0.0000 0.0000 14.4078
#
#
#
# Elastic Compliance Matrix: (Units=1/GPa)
#
#
# Indices 1 2 3 4 5 6 
#
# 1 0.013706 -0.006897 -0.006654 0.000000 0.000000 0.000000
# 2 -0.006897 0.026168 -0.004903 0.000000 0.000000 0.000000
# 3 -0.006654 -0.004903 0.020506 0.000000 0.000000 0.000000
# 4 0.000000 0.000000 0.000000 0.051498 0.000000 0.000000
# 5 0.000000 0.000000 0.000000 0.000000 0.046348 0.000000
# 6 0.000000 0.000000 0.000000 0.000000 0.000000 0.069407
#
#
# Mechanical properties :
#
#
# Convention : Reuss Voigt Hill
#
# Bulk Modulus (GPa) = 42.60419 51.30362 46.95391
# Shear Modulus (GPa) = 18.35773 19.56697 18.96235
#
# Velocity S-wave (km/s) = 3.04565 3.14436 3.09540
# Velocity P-wave (km/s) = 5.82199 6.25348 6.04159
#
# Compressibility (1/GPa) = 0.02347187
#
# Stress axis : x y z
#
# Youngs Moduli (GPa) = 72.96193 38.21472 48.76548
#
# Poissons Ratio (x) = 0.26357 0.32447
# Poissons Ratio (y) = 0.50323 0.23911
# Poissons Ratio (z) = 0.48546 0.18738
#
# Static dielectric constant tensor:
#      x y z
#    x 3.903410 0.000000 0.000000 
#    y 0.000000 3.538890 0.000000 
#    z 0.000000 0.000000 3.558350 
# 
# 
# High freq. dielectric constant tensor:
#      x y z
#    x 1.780440 0.000000 0.000000 
#    y 0.000000 1.754090 0.000000 
#    z 0.000000 0.000000 1.768170 
# 
# From -- ./inp_files/18536.got.cif
#   From: 2010.03.12/outbox.cif.g09.slc.cpg/sg51_10_cif.got.tgz:18536.got - 2010.04.16 13:43:02.
