data_PCOD8211662
_publ_section_title
;
Structure prediction by ZEFSAII (Michael W. Deem and Ramdas Pophale) SiO2 
 PCOD8211662
Probable space group: P M M A
;
_chemical_formula_sum "Si O2"
_cell_formula_units_Z 64
_cell_length_a 17.644390
_cell_length_b 9.056254
_cell_length_c 21.532006
_cell_angle_alpha 90.000000
_cell_angle_beta 90.000000
_cell_angle_gamma 90.000000
_cell_volume 3440.643972
_symmetry_space_group_name_H-M "P M M A"
_symmetry_group_IT_number 51
_symmetry_cell_setting 'orthorhombic'
loop_
_space_group_symop_operation_xyz
x,y,z
1/2-x,-y,z
1/2+x,-y,-z
-x,y,-z
-x,-y,-z
1/2+x,y,-z
1/2-x,y,z
x,-y,z
loop_
_atom_site_type_symbol
_atom_site_label
_atom_site_fract_x
_atom_site_fract_y
_atom_site_fract_z
Si Si1 0.661873 0.171754 0.228817
Si Si2 0.665836 0.168772 0.637085
Si Si3 0.662904 0.670721 0.992709
Si Si4 0.983911 0.827179 0.568996
Si Si5 0.445742 0.672335 0.682361
Si Si6 0.399379 0.327854 0.250545
Si Si7 0.595413 0.172780 0.877129
Si Si8 0.419986 0.172034 0.896612
O O1 0.750000 0.207504 0.222652
O O2 0.629667 0.260904 0.287321
O O3 0.621521 0.225064 0.165841
O O4 0.645759 0.000000 0.240386
O O5 0.750000 0.191622 0.608693
O O6 0.603670 0.210315 0.585082
O O7 0.658040 0.273030 0.696724
O O8 0.653456 0.000000 0.658734
O O9 0.750000 0.693203 0.011886
O O10 0.642635 0.500000 0.983007
O O11 0.647906 0.755917 0.929128
O O12 0.610719 0.734543 0.046525
O O13 0.000000 0.767846 0.500000
O O14 0.040682 0.745248 0.615542
O O15 0.001206 0.000000 0.574038
O O16 0.434571 0.500000 0.671967
O O17 0.515252 0.708447 0.728175
O O18 0.386625 0.500000 0.239175
O O19 0.380543 0.241585 0.188123
O O20 0.508242 0.207407 0.891399
O O21 0.611519 0.000000 0.874747
O O22 0.404287 0.000000 0.909617
#
# Coordination Sequence:
#
# PCOD8211662 Si02
#       8
#     8   8   8   8   8   8   8   8
#     4  10  20  35  57  83 111 144 181 226 277 326
#     4   9  18  33  54  80 110 144 184 229 274 321
#     4  11  25  41  55  76 109 146 182 225 277 331
#     4   9  18  34  57  82 110 148 191 231 271 321
#     4  10  20  34  54  80 112 145 179 222 270 325
#     4  10  20  34  54  80 109 142 177 218 272 327
#     4  11  22  37  60  84 106 139 182 228 275 328
#     4  10  21  38  60  83 107 138 182 230 276 328
#
# _framework density 18.601168000000001
#
# number of rings (size 3 to 8) (size 9 to 14) (size 15 to 20)
#    0.000    2.000    1.250    2.250    0.000    6.750 
#    0.000    0.625    0.000    2.250    0.000    0.000 
#    0.000    0.000    0.000    0.000    0.000    0.000 
#
# Total GULP energy -793894.445773 kJ/mol
# GULP energy per Si atom -12404.600715 kJ/mol
# Density = 1.855883 g / cm^3
# Si number density = 18.601168 Si / 1000 Ang^3
#
#
#
# Elastic Constant Matrix: (Units=GPa)
#
#
# Indices 1 2 3 4 5 6 
#
# 1 63.8520 28.8283 32.0249 0.0000 0.0000 0.0000
# 2 28.8283 69.1148 48.3161 0.0000 0.0000 0.0000
# 3 32.0249 48.3161 129.6912 0.0000 0.0000 0.0000
# 4 0.0000 0.0000 0.0000 16.0063 0.0000 0.0000
# 5 0.0000 0.0000 0.0000 0.0000 20.1530 0.0000
# 6 0.0000 0.0000 0.0000 0.0000 0.0000 4.5874
#
#
#
# Elastic Compliance Matrix: (Units=1/GPa)
#
#
# Indices 1 2 3 4 5 6 
#
# 1 0.019858 -0.006565 -0.002458 0.000000 0.000000 0.000000
# 2 -0.006565 0.021734 -0.006476 0.000000 0.000000 0.000000
# 3 -0.002458 -0.006476 0.010730 0.000000 0.000000 0.000000
# 4 0.000000 0.000000 0.000000 0.062475 0.000000 0.000000
# 5 0.000000 0.000000 0.000000 0.000000 0.049620 0.000000
# 6 0.000000 0.000000 0.000000 0.000000 0.000000 0.217986
#
#
# Mechanical properties :
#
#
# Convention : Reuss Voigt Hill
#
# Bulk Modulus (GPa) = 46.89318 53.44407 50.16863
# Shear Modulus (GPa) = 11.89035 18.38195 15.13615
#
# Velocity S-wave (km/s) = 2.53104 3.14700 2.85567
# Velocity P-wave (km/s) = 5.81430 6.48064 6.15649
#
# Compressibility (1/GPa) = 0.02132506
#
# Stress axis : x y z
#
# Youngs Moduli (GPa) = 50.35808 46.01102 93.19542
#
# Poissons Ratio (x) = 0.30204 0.22907
# Poissons Ratio (y) = 0.33058 0.60353
# Poissons Ratio (z) = 0.12378 0.29796
#
# Static dielectric constant tensor:
#      x y z
#    x 3.408460 0.000000 0.000000 
#    y 0.000000 3.410900 0.000000 
#    z 0.000000 0.000000 3.396810 
# 
# 
# High freq. dielectric constant tensor:
#      x y z
#    x 1.720470 0.000000 0.000000 
#    y 0.000000 1.724730 0.000000 
#    z 0.000000 0.000000 1.717820 
# 
# From -- ./inp_files/33761.got.cif
#   From: 2010.03.12/outbox.cif.g09.slc.cpg/sg51_17_cif.got.tgz:33761.got - 2010.04.16 13:43:02.
