data_PCOD8211963
_publ_section_title
;
Structure prediction by ZEFSAII (Michael W. Deem and Ramdas Pophale) SiO2 
 PCOD8211963
Probable space group: P M M A
;
_chemical_formula_sum "Si O2"
_cell_formula_units_Z 56
_cell_length_a 9.188337
_cell_length_b 15.693571
_cell_length_c 20.353620
_cell_angle_alpha 90.000000
_cell_angle_beta 90.000000
_cell_angle_gamma 90.000000
_cell_volume 2934.947614
_symmetry_space_group_name_H-M "P M M A"
_symmetry_group_IT_number 51
_symmetry_cell_setting 'orthorhombic'
loop_
_space_group_symop_operation_xyz
x,y,z
1/2-x,-y,z
1/2+x,-y,-z
-x,y,-z
-x,-y,-z
1/2+x,y,-z
1/2-x,y,z
x,-y,z
loop_
_atom_site_type_symbol
_atom_site_label
_atom_site_fract_x
_atom_site_fract_y
_atom_site_fract_z
Si Si1 0.079629 0.906854 0.669678
Si Si2 0.421770 0.233244 0.566975
Si Si3 0.077258 0.362484 0.238393
Si Si4 0.582509 0.772304 0.062399
Si Si5 0.583504 0.408007 0.112413
Si Si6 0.083576 0.593808 0.634282
Si Si7 0.419093 0.806024 0.792891
O O1 0.250000 0.911414 0.657156
O O2 0.017889 0.832646 0.622316
O O3 0.049790 0.887562 0.747058
O O4 0.009954 0.000000 0.654140
O O5 0.500000 0.207991 0.500000
O O6 0.250000 0.224474 0.557236
O O7 0.465334 0.330237 0.585717
O O8 0.250000 0.362803 0.237709
O O9 0.018798 0.413134 0.175649
O O10 0.020677 0.408838 0.303144
O O11 0.017795 0.266944 0.237789
O O12 0.750000 0.784394 0.046525
O O13 0.538400 0.672040 0.067374
O O14 0.539984 0.821186 0.130266
O O15 0.500000 0.812597 0.000000
O O16 0.750000 0.393479 0.135561
O O17 0.567633 0.500000 0.075586
O O18 0.250000 0.610789 0.656836
O O19 0.070299 0.500000 0.600080
O O20 0.250000 0.778002 0.788638
#
# Coordination Sequence:
#
# PCOD8211963 Si02
#       7
#     8   8   8   8   8   8   8
#     4   9  17  33  61  89 107 131 175 223 262 311
#     4  10  21  37  56  80 111 144 178 217 262 314
#     4  11  20  29  47  76 106 134 172 224 275 311
#     4   9  18  30  47  70  98 135 176 216 260 313
#     4   9  18  32  47  64  93 136 181 221 266 320
#     4  10  20  35  54  73 100 145 189 220 259 312
#     4   9  17  34  56  76 103 139 177 214 258 317
#
# _framework density 19.080409
#
# number of rings (size 3 to 8) (size 9 to 14) (size 15 to 20)
#    0.000    2.429    1.429    2.571    0.000    6.000 
#    0.000    0.000    0.000    1.714    0.000    0.000 
#    0.000    0.000    0.000    0.000    0.000    0.286 
#
# Total GULP energy -693939.881361 kJ/mol
# GULP energy per Si atom -12391.783596 kJ/mol
# Density = 1.903698 g / cm^3
# Si number density = 19.080409 Si / 1000 Ang^3
#
#
#
# Elastic Constant Matrix: (Units=GPa)
#
#
# Indices 1 2 3 4 5 6 
#
# 1 56.6849 18.4987 33.1612 0.0000 0.0000 0.0000
# 2 18.4987 110.4499 54.3751 0.0000 0.0000 0.0000
# 3 33.1612 54.3751 128.2675 0.0000 0.0000 0.0000
# 4 0.0000 0.0000 0.0000 9.2921 0.0000 0.0000
# 5 0.0000 0.0000 0.0000 0.0000 27.6238 0.0000
# 6 0.0000 0.0000 0.0000 0.0000 0.0000 7.7305
#
#
#
# Elastic Compliance Matrix: (Units=1/GPa)
#
#
# Indices 1 2 3 4 5 6 
#
# 1 0.020883 -0.001061 -0.004949 0.000000 0.000000 0.000000
# 2 -0.001061 0.011496 -0.004599 0.000000 0.000000 0.000000
# 3 -0.004949 -0.004599 0.011025 0.000000 0.000000 0.000000
# 4 0.000000 0.000000 0.000000 0.107618 0.000000 0.000000
# 5 0.000000 0.000000 0.000000 0.000000 0.036201 0.000000
# 6 0.000000 0.000000 0.000000 0.000000 0.000000 0.129358
#
#
# Mechanical properties :
#
#
# Convention : Reuss Voigt Hill
#
# Bulk Modulus (GPa) = 45.07414 56.38581 50.72998
# Shear Modulus (GPa) = 14.48460 21.55376 18.01918
#
# Velocity S-wave (km/s) = 2.75823 3.36464 3.07641
# Velocity P-wave (km/s) = 5.81535 6.68657 6.26612
#
# Compressibility (1/GPa) = 0.02218567
#
# Stress axis : x y z
#
# Youngs Moduli (GPa) = 47.88598 86.98925 90.70074
#
# Poissons Ratio (x) = 0.09231 0.44888
# Poissons Ratio (y) = 0.05081 0.41712
# Poissons Ratio (z) = 0.23699 0.40006
#
# Static dielectric constant tensor:
#      x y z
#    x 3.191210 0.000000 0.000000 
#    y 0.000000 3.600140 0.000000 
#    z 0.000000 0.000000 3.377290 
# 
# 
# High freq. dielectric constant tensor:
#      x y z
#    x 1.713430 0.000000 0.000000 
#    y 0.000000 1.729130 0.000000 
#    z 0.000000 0.000000 1.731270 
# 
# From -- ./inp_files/32003.got.cif
#   From: 2010.03.12/outbox.cif.g09.slc.cpg/sg51_17_cif.got.tgz:32003.got - 2010.04.16 13:43:02.
