data_PCOD8211129
_publ_section_title
;
Structure prediction by ZEFSAII (Michael W. Deem and Ramdas Pophale) SiO2 
 PCOD8211129
Probable space group: P M M A
;
_chemical_formula_sum "Si O2"
_cell_formula_units_Z 64
_cell_length_a 18.254057
_cell_length_b 9.036195
_cell_length_c 20.477055
_cell_angle_alpha 90.000000
_cell_angle_beta 90.000000
_cell_angle_gamma 90.000000
_cell_volume 3377.633267
_symmetry_space_group_name_H-M "P M M A"
_symmetry_group_IT_number 51
_symmetry_cell_setting 'orthorhombic'
loop_
_space_group_symop_operation_xyz
x,y,z
1/2-x,-y,z
1/2+x,-y,-z
-x,y,-z
-x,-y,-z
1/2+x,y,-z
1/2-x,y,z
x,-y,z
loop_
_atom_site_type_symbol
_atom_site_label
_atom_site_fract_x
_atom_site_fract_y
_atom_site_fract_z
Si Si1 0.833782 0.172910 0.748817
Si Si2 0.573628 0.326112 0.118890
Si Si3 0.335017 0.329235 0.008343
Si Si4 0.914345 0.828993 0.500305
Si Si5 0.835803 0.171783 0.229311
Si Si6 0.669261 0.824520 0.374826
Si Si7 0.917866 0.825233 0.878236
Si Si8 0.665897 0.326336 0.617247
O O1 0.750000 0.217043 0.765259
O O2 0.884979 0.222006 0.808476
O O3 0.862605 0.257389 0.684937
O O4 0.840544 0.000000 0.734622
O O5 0.561640 0.500000 0.124661
O O6 0.615424 0.270770 0.182570
O O7 0.495522 0.250247 0.111128
O O8 0.621395 0.282949 0.056252
O O9 0.250000 0.298625 0.994798
O O10 0.349597 0.500000 0.026438
O O11 0.361119 0.227162 0.067209
O O12 0.885011 0.766914 0.430993
O O13 0.881168 0.735026 0.558281
O O14 0.000000 0.805433 0.500000
O O15 0.892369 0.000000 0.510232
O O16 0.750000 0.199601 0.216161
O O17 0.856895 0.224151 0.302705
O O18 0.855354 0.000000 0.218224
O O19 0.750000 0.759300 0.389432
O O20 0.673295 0.000000 0.374957
O O21 0.927353 0.000000 0.883428
O O22 0.750000 0.280951 0.605462
O O23 0.655149 0.500000 0.621449
#
# Coordination Sequence:
#
# PCOD8211129 Si02
#       8
#     8   8   8   8   8   8   8   8
#     4   9  19  37  59  81 106 139 180 225 273 326
#     4  11  23  38  56  81 115 152 185 217 266 333
#     4  10  22  40  60  81 109 147 187 226 270 324
#     4  10  20  33  52  79 109 143 183 225 271 324
#     4   9  18  34  56  80 105 138 185 237 281 321
#     4   8  15  30  52  75 101 137 180 224 270 321
#     4  11  23  38  58  85 114 143 181 230 277 320
#     4  10  21  36  55  80 109 142 181 224 270 322
#
# _framework density 18.948177999999999
#
# number of rings (size 3 to 8) (size 9 to 14) (size 15 to 20)
#    0.000    2.250    0.000    3.375    0.000    7.500 
#    0.000    4.375    0.000    0.750    0.000    0.000 
#    0.000    0.000    0.000    0.000    0.000    0.000 
#
# Total GULP energy -793737.347300 kJ/mol
# GULP energy per Si atom -12402.146052 kJ/mol
# Density = 1.890505 g / cm^3
# Si number density = 18.948178 Si / 1000 Ang^3
#
#
#
# Elastic Constant Matrix: (Units=GPa)
#
#
# Indices 1 2 3 4 5 6 
#
# 1 78.3521 35.4487 53.8543 0.0000 0.0000 0.0000
# 2 35.4487 56.9783 50.1097 0.0000 0.0000 0.0000
# 3 53.8543 50.1097 139.4024 0.0000 0.0000 0.0000
# 4 0.0000 0.0000 0.0000 -11.2396 0.0000 0.0000
# 5 0.0000 0.0000 0.0000 0.0000 -129.2600 0.0000
# 6 0.0000 0.0000 0.0000 0.0000 0.0000 46.8071
#
#
#
# Elastic Compliance Matrix: (Units=1/GPa)
#
#
# Indices 1 2 3 4 5 6 
#
# 1 0.019645 -0.008112 -0.004673 0.000000 0.000000 0.000000
# 2 -0.008112 0.029013 -0.007295 0.000000 0.000000 0.000000
# 3 -0.004673 -0.007295 0.011601 0.000000 0.000000 0.000000
# 4 0.000000 0.000000 0.000000 -0.088971 0.000000 0.000000
# 5 0.000000 0.000000 0.000000 0.000000 -0.007736 0.000000
# 6 0.000000 0.000000 0.000000 0.000000 0.000000 0.021364
#
#
# Mechanical properties :
#
#
# Convention : Reuss Voigt Hill
#
# Bulk Modulus (GPa) = 49.75561 61.50647 55.63104
# Shear Modulus (GPa) = 157.34259 -9.71714 73.81272
#
# Velocity S-wave (km/s) = 9.12243 -2.26703 6.24817
# Velocity P-wave (km/s) = 11.71640 5.06737 9.02641
#
# Compressibility (1/GPa) = 0.02009824
#
# Stress axis : x y z
#
# Youngs Moduli (GPa) = 50.90288 34.46705 86.19753
#
# Poissons Ratio (x) = 0.27960 0.40284
# Poissons Ratio (y) = 0.41293 0.62883
# Poissons Ratio (z) = 0.23789 0.25144
#
# Static dielectric constant tensor:
#      x y z
#    x 3.431080 0.000000 0.000000 
#    y 0.000000 3.320340 0.000000 
#    z 0.000000 0.000000 3.687190 
# 
# 
# High freq. dielectric constant tensor:
#      x y z
#    x 1.739060 0.000000 0.000000 
#    y 0.000000 1.721500 0.000000 
#    z 0.000000 0.000000 1.751790 
# 
# From -- ./inp_files/33840.got.cif
#   From: 2010.03.12/outbox.cif.g09.slc.cpg/sg51_17_cif.got.tgz:33840.got - 2010.04.16 13:43:02.
