data_PCOD8211224
_publ_section_title
;
Structure prediction by ZEFSAII (Michael W. Deem and Ramdas Pophale) SiO2 
 PCOD8211224
Probable space group: P M M A
;
_chemical_formula_sum "Si O2"
_cell_formula_units_Z 64
_cell_length_a 9.349714
_cell_length_b 14.604359
_cell_length_c 23.984804
_cell_angle_alpha 90.000000
_cell_angle_beta 90.000000
_cell_angle_gamma 90.000000
_cell_volume 3275.042953
_symmetry_space_group_name_H-M "P M M A"
_symmetry_group_IT_number 51
_symmetry_cell_setting 'orthorhombic'
loop_
_space_group_symop_operation_xyz
x,y,z
1/2-x,-y,z
1/2+x,-y,-z
-x,y,-z
-x,-y,-z
1/2+x,y,-z
1/2-x,y,z
x,-y,z
loop_
_atom_site_type_symbol
_atom_site_label
_atom_site_fract_x
_atom_site_fract_y
_atom_site_fract_z
Si Si1 0.591035 0.392247 0.841328
Si Si2 0.407486 0.360278 0.950190
Si Si3 0.094722 0.153186 0.952627
Si Si4 0.419130 0.394309 0.284188
Si Si5 0.409608 0.107134 0.147739
Si Si6 0.907261 0.103320 0.249793
Si Si7 0.411878 0.243067 0.651242
Si Si8 0.581358 0.103933 0.443030
O O1 0.750000 0.350597 0.852526
O O2 0.604060 0.500000 0.841569
O O3 0.483340 0.361965 0.889860
O O4 0.536421 0.363151 0.779107
O O5 0.250000 0.407541 0.945361
O O6 0.381408 0.257317 0.970168
O O7 0.500000 0.408654 0.000000
O O8 0.250000 0.104070 0.947810
O O9 0.012665 0.155902 0.894962
O O10 0.000000 0.102323 0.000000
O O11 0.250000 0.383896 0.291112
O O12 0.465166 0.500000 0.294615
O O13 0.493809 0.330786 0.331097
O O14 0.250000 0.146136 0.141858
O O15 0.468206 0.133368 0.208007
O O16 0.414891 0.000000 0.136574
O O17 0.750000 0.110251 0.221084
O O18 0.916351 0.168707 0.301127
O O19 0.933977 0.000000 0.270699
O O20 0.250000 0.277842 0.640955
O O21 0.470703 0.185605 0.598243
O O22 0.500000 0.122952 0.500000
O O23 0.750000 0.112542 0.452970
O O24 0.545964 0.000000 0.421222
#
# Coordination Sequence:
#
# PCOD8211224 Si02
#       8
#     8   8   8   8   8   8   8   8
#     4   9  19  36  55  74  99 132 168 209 264 327
#     4  10  21  35  52  74  98 125 162 208 261 323
#     4  10  21  36  52  70  92 121 160 205 254 311
#     4   9  20  38  56  78 110 147 187 232 284 336
#     4  10  21  35  50  70  96 127 164 207 255 307
#     4   9  18  33  51  74 108 144 175 212 261 320
#     4  10  20  33  55  85 113 147 190 230 273 322
#     4   9  18  34  56  85 123 162 196 232 273 320
#
# _framework density 19.541730000000001
#
# number of rings (size 3 to 8) (size 9 to 14) (size 15 to 20)
#    0.000    2.500    0.000    2.250    1.750    6.250 
#    0.000    1.250    0.000    4.125    0.000    0.000 
#    0.000    0.000    0.000    0.000    0.000    0.000 
#
# Total GULP energy -793000.653013 kJ/mol
# GULP energy per Si atom -12390.635203 kJ/mol
# Density = 1.949725 g / cm^3
# Si number density = 19.541730 Si / 1000 Ang^3
#
#
#
# Elastic Constant Matrix: (Units=GPa)
#
#
# Indices 1 2 3 4 5 6 
#
# 1 124.2294 35.8648 58.1968 0.0000 0.0000 0.0000
# 2 35.8648 67.3310 55.0332 0.0000 0.0000 0.0000
# 3 58.1968 55.0332 95.0819 0.0000 0.0000 0.0000
# 4 0.0000 0.0000 0.0000 29.2961 0.0000 0.0000
# 5 0.0000 0.0000 0.0000 0.0000 34.7209 0.0000
# 6 0.0000 0.0000 0.0000 0.0000 0.0000 23.6141
#
#
#
# Elastic Compliance Matrix: (Units=1/GPa)
#
#
# Indices 1 2 3 4 5 6 
#
# 1 0.011303 -0.000695 -0.006516 0.000000 0.000000 0.000000
# 2 -0.000695 0.028229 -0.015914 0.000000 0.000000 0.000000
# 3 -0.006516 -0.015914 0.023716 0.000000 0.000000 0.000000
# 4 0.000000 0.000000 0.000000 0.034134 0.000000 0.000000
# 5 0.000000 0.000000 0.000000 0.000000 0.028801 0.000000
# 6 0.000000 0.000000 0.000000 0.000000 0.000000 0.042348
#
#
# Mechanical properties :
#
#
# Convention : Reuss Voigt Hill
#
# Bulk Modulus (GPa) = 58.82583 64.98133 61.90358
# Shear Modulus (GPa) = 22.68125 26.69607 24.68866
#
# Velocity S-wave (km/s) = 3.41054 3.70010 3.55826
# Velocity P-wave (km/s) = 6.75848 7.18186 6.97338
#
# Compressibility (1/GPa) = 0.01699933
#
# Stress axis : x y z
#
# Youngs Moduli (GPa) = 88.47488 35.42424 42.16507
#
# Poissons Ratio (x) = 0.02461 0.27474
# Poissons Ratio (y) = 0.06147 0.67101
# Poissons Ratio (z) = 0.57649 0.56373
#
# Static dielectric constant tensor:
#      x y z
#    x 4.015980 0.000000 0.000000 
#    y 0.000000 3.518040 0.000000 
#    z 0.000000 0.000000 3.539920 
# 
# 
# High freq. dielectric constant tensor:
#      x y z
#    x 1.765270 0.000000 0.000000 
#    y 0.000000 1.755260 0.000000 
#    z 0.000000 0.000000 1.740460 
# 
# From -- ./inp_files/34914.got.cif
#   From: 2010.03.12/outbox.cif.g09.slc.cpg/sg51_18_cif.got.tgz:34914.got - 2010.04.16 13:43:02.
