data_PCOD8211727
_publ_section_title
;
Structure prediction by ZEFSAII (Michael W. Deem and Ramdas Pophale) SiO2 
 PCOD8211727
Probable space group: P M M A
;
_chemical_formula_sum "Si O2"
_cell_formula_units_Z 56
_cell_length_a 14.208371
_cell_length_b 19.650463
_cell_length_c 9.424857
_cell_angle_alpha 90.000000
_cell_angle_beta 90.000000
_cell_angle_gamma 90.000000
_cell_volume 2631.430146
_symmetry_space_group_name_H-M "P M M A"
_symmetry_group_IT_number 51
_symmetry_cell_setting 'orthorhombic'
loop_
_space_group_symop_operation_xyz
x,y,z
1/2-x,-y,z
1/2+x,-y,-z
-x,y,-z
-x,-y,-z
1/2+x,y,-z
1/2-x,y,z
x,-y,z
loop_
_atom_site_type_symbol
_atom_site_label
_atom_site_fract_x
_atom_site_fract_y
_atom_site_fract_z
Si Si1 0.138603 0.424685 0.495979
Si Si2 0.476988 0.843300 0.654554
Si Si3 0.638766 0.692282 0.012158
Si Si4 0.096156 0.075957 0.914062
Si Si5 0.862516 0.706740 0.332156
Si Si6 0.861950 0.425611 0.821601
Si Si7 0.353803 0.823927 0.140464
O O1 0.250000 0.425053 0.499576
O O2 0.103871 0.500000 0.551169
O O3 0.101782 0.360419 0.585030
O O4 0.100119 0.413205 0.337144
O O5 0.500000 0.876476 0.500000
O O6 0.412578 0.890261 0.757243
O O7 0.422017 0.772840 0.621393
O O8 0.578654 0.838961 0.728614
O O9 0.750000 0.692035 0.000280
O O10 0.607388 0.689925 0.173115
O O11 0.593452 0.628631 0.929493
O O12 0.599205 0.759983 0.939053
O O13 0.136658 0.000000 0.891740
O O14 0.162323 0.118467 0.019646
O O15 0.000000 0.073851 0.000000
O O16 0.750000 0.720060 0.350765
O O17 0.750000 0.418941 0.819367
O O18 0.892102 0.500000 0.876143
O O19 0.250000 0.808573 0.204091
#
# Coordination Sequence:
#
# PCOD8211727 Si02
#       7
#     8   8   8   8   8   8   8
#     4   8  15  28  47  74 110 154 201 248 306 374
#     4  11  24  38  58  92 128 163 202 245 305 363
#     4   9  17  29  50  78 107 145 192 246 298 345
#     4   9  19  39  65  89 117 154 193 237 288 350
#     4  10  20  34  54  82 120 160 202 254 308 366
#     4   8  14  25  43  72 108 146 193 245 299 360
#     4  10  21  39  61  88 120 159 206 250 297 359
#
# _framework density 21.281205
#
# number of rings (size 3 to 8) (size 9 to 14) (size 15 to 20)
#    0.000    2.714    1.429    0.857    2.000    1.714 
#    0.000    2.857    0.000    1.286    0.000    4.000 
#    0.000    0.000    0.000    0.000    0.000    0.000 
#
# Total GULP energy -693822.546622 kJ/mol
# GULP energy per Si atom -12389.688333 kJ/mol
# Density = 2.123277 g / cm^3
# Si number density = 21.281205 Si / 1000 Ang^3
#
#
#
# Elastic Constant Matrix: (Units=GPa)
#
#
# Indices 1 2 3 4 5 6 
#
# 1 55.3048 6.1628 13.2808 0.0000 0.0000 0.0000
# 2 6.1628 130.1887 42.8217 0.0000 0.0000 0.0000
# 3 13.2808 42.8217 119.5345 0.0000 0.0000 0.0000
# 4 0.0000 0.0000 0.0000 30.4184 0.0000 0.0000
# 5 0.0000 0.0000 0.0000 0.0000 13.5914 0.0000
# 6 0.0000 0.0000 0.0000 0.0000 0.0000 12.7689
#
#
#
# Elastic Compliance Matrix: (Units=1/GPa)
#
#
# Indices 1 2 3 4 5 6 
#
# 1 0.018583 -0.000227 -0.001983 0.000000 0.000000 0.000000
# 2 -0.000227 0.008710 -0.003095 0.000000 0.000000 0.000000
# 3 -0.001983 -0.003095 0.009695 0.000000 0.000000 0.000000
# 4 0.000000 0.000000 0.000000 0.032875 0.000000 0.000000
# 5 0.000000 0.000000 0.000000 0.000000 0.073576 0.000000
# 6 0.000000 0.000000 0.000000 0.000000 0.000000 0.078316
#
#
# Mechanical properties :
#
#
# Convention : Reuss Voigt Hill
#
# Bulk Modulus (GPa) = 37.91197 47.72874 42.82036
# Shear Modulus (GPa) = 20.73331 27.53991 24.13661
#
# Velocity S-wave (km/s) = 3.12469 3.60126 3.37140
# Velocity P-wave (km/s) = 5.55623 6.30622 5.94307
#
# Compressibility (1/GPa) = 0.02637689
#
# Stress axis : x y z
#
# Youngs Moduli (GPa) = 53.81206 114.81172 103.14742
#
# Poissons Ratio (x) = 0.02610 0.20457
# Poissons Ratio (y) = 0.01223 0.31924
# Poissons Ratio (z) = 0.10672 0.35534
#
# Static dielectric constant tensor:
#      x y z
#    x 3.460090 0.000000 0.000000 
#    y 0.000000 4.240390 0.000000 
#    z 0.000000 0.000000 3.927040 
# 
# 
# High freq. dielectric constant tensor:
#      x y z
#    x 1.819460 0.000000 0.000000 
#    y 0.000000 1.832360 0.000000 
#    z 0.000000 0.000000 1.827880 
# 
# From -- ./inp_files/8471.got.cif
#   From: 2010.03.12/outbox.cif.g09.slc.cpg/sg51_5_cif.got.tgz:8471.got - 2010.04.16 13:43:02.
