data_PCOD8211570
_publ_section_title
;
Structure prediction by ZEFSAII (Michael W. Deem and Ramdas Pophale) SiO2 
 PCOD8211570
Probable space group: P M M A
;
_chemical_formula_sum "Si O2"
_cell_formula_units_Z 56
_cell_length_a 14.640146
_cell_length_b 21.587314
_cell_length_c 9.493286
_cell_angle_alpha 90.000000
_cell_angle_beta 90.000000
_cell_angle_gamma 90.000000
_cell_volume 3000.271671
_symmetry_space_group_name_H-M "P M M A"
_symmetry_group_IT_number 51
_symmetry_cell_setting 'orthorhombic'
loop_
_space_group_symop_operation_xyz
x,y,z
1/2-x,-y,z
1/2+x,-y,-z
-x,y,-z
-x,-y,-z
1/2+x,y,-z
1/2-x,y,z
x,-y,z
loop_
_atom_site_type_symbol
_atom_site_label
_atom_site_fract_x
_atom_site_fract_y
_atom_site_fract_z
Si Si1 0.011450 0.071762 0.660675
Si Si2 0.646108 0.071172 0.872430
Si Si3 0.356549 0.712599 0.847118
Si Si4 0.988003 0.500000 0.337944
Si Si5 0.856551 0.143908 0.147124
Si Si6 0.484784 0.365230 0.666704
Si Si7 0.144088 0.365407 0.115694
Si Si8 0.851163 0.500000 0.856378
O O1 0.092034 0.113016 0.722914
O O2 0.000000 0.091774 0.500000
O O3 0.915949 0.085842 0.737980
O O4 0.039216 0.000000 0.674797
O O5 0.750000 0.087702 0.830391
O O6 0.637138 0.000000 0.920031
O O7 0.611194 0.112459 0.001942
O O8 0.250000 0.701750 0.818872
O O9 0.381336 0.784246 0.861906
O O10 0.410990 0.684922 0.715107
O O11 0.388146 0.679463 0.991003
O O12 0.090726 0.500000 0.283696
O O13 0.000000 0.500000 0.500000
O O14 0.942737 0.565945 0.294038
O O15 0.750000 0.132407 0.172166
O O16 0.500000 0.357418 0.500000
O O17 0.580932 0.353785 0.747664
O O18 0.250000 0.352701 0.157388
O O19 0.131096 0.436361 0.056635
O O20 0.750000 0.500000 0.795567
#
# Coordination Sequence:
#
# PCOD8211570 Si02
#       8
#     8   8   8   4   8   8   8   4
#     4  10  21  35  54  83 114 140 168 208 259 310
#     4   9  18  34  56  80 105 136 175 215 254 302
#     4  10  22  38  53  74 104 137 176 219 259 304
#     4   8  16  31  47  71 103 132 166 207 255 313
#     4  10  21  37  56  76 102 139 180 218 255 300
#     4  10  20  34  54  77 104 137 172 213 262 313
#     4   9  18  33  53  76 102 133 171 214 263 315
#     4   8  14  27  49  73  96 126 165 211 260 311
#
# _framework density 18.664977
#
# number of rings (size 3 to 8) (size 9 to 14) (size 15 to 20)
#    0.000    2.571    0.000    1.286    0.000    6.571 
#    0.000    6.786    0.000    3.429    0.000    0.000 
#    0.000    0.000    0.000    0.000    0.000    0.000 
#
# Total GULP energy -694123.856583 kJ/mol
# GULP energy per Si atom -12395.068868 kJ/mol
# Density = 1.862249 g / cm^3
# Si number density = 18.664977 Si / 1000 Ang^3
#
#
#
# Elastic Constant Matrix: (Units=GPa)
#
#
# Indices 1 2 3 4 5 6 
#
# 1 67.9703 59.1852 59.6640 0.0000 0.0000 0.0000
# 2 59.1852 125.3247 78.4251 0.0000 0.0000 0.0000
# 3 59.6640 78.4251 141.1338 0.0000 0.0000 0.0000
# 4 0.0000 0.0000 0.0000 5.7147 0.0000 0.0000
# 5 0.0000 0.0000 0.0000 0.0000 23.6643 0.0000
# 6 0.0000 0.0000 0.0000 0.0000 0.0000 26.8819
#
#
#
# Elastic Compliance Matrix: (Units=1/GPa)
#
#
# Indices 1 2 3 4 5 6 
#
# 1 0.029021 -0.009241 -0.007133 0.000000 0.000000 0.000000
# 2 -0.009241 0.015176 -0.004526 0.000000 0.000000 0.000000
# 3 -0.007133 -0.004526 0.012616 0.000000 0.000000 0.000000
# 4 0.000000 0.000000 0.000000 0.174988 0.000000 0.000000
# 5 0.000000 0.000000 0.000000 0.000000 0.042258 0.000000
# 6 0.000000 0.000000 0.000000 0.000000 0.000000 0.037200
#
#
# Mechanical properties :
#
#
# Convention : Reuss Voigt Hill
#
# Bulk Modulus (GPa) = 66.61666 80.99748 73.80707
# Shear Modulus (GPa) = 13.96397 20.39579 17.17988
#
# Velocity S-wave (km/s) = 2.73818 3.30923 3.03716
# Velocity P-wave (km/s) = 6.76499 7.62175 7.20611
#
# Compressibility (1/GPa) = 0.01501126
#
# Stress axis : x y z
#
# Youngs Moduli (GPa) = 34.45800 65.89373 79.26367
#
# Poissons Ratio (x) = 0.60895 0.56541
# Poissons Ratio (y) = 0.31844 0.35876
# Poissons Ratio (z) = 0.24580 0.29825
#
# Static dielectric constant tensor:
#      x y z
#    x 3.364050 0.000000 0.000000 
#    y 0.000000 3.777920 0.000000 
#    z 0.000000 0.000000 3.246000 
# 
# 
# High freq. dielectric constant tensor:
#      x y z
#    x 1.724150 0.000000 0.000000 
#    y 0.000000 1.732650 0.000000 
#    z 0.000000 0.000000 1.709850 
# 
# From -- ./inp_files/8609.got.cif
#   From: 2010.03.12/outbox.cif.g09.slc.cpg/sg51_5_cif.got.tgz:8609.got - 2010.04.16 13:43:02.
