data_PCOD8211154
_publ_section_title
;
Structure prediction by ZEFSAII (Michael W. Deem and Ramdas Pophale) SiO2 
 PCOD8211154
Probable space group: P M M A
;
_chemical_formula_sum "Si O2"
_cell_formula_units_Z 56
_cell_length_a 14.052668
_cell_length_b 8.845748
_cell_length_c 22.918780
_cell_angle_alpha 90.000000
_cell_angle_beta 90.000000
_cell_angle_gamma 90.000000
_cell_volume 2848.950114
_symmetry_space_group_name_H-M "P M M A"
_symmetry_group_IT_number 51
_symmetry_cell_setting 'orthorhombic'
loop_
_space_group_symop_operation_xyz
x,y,z
1/2-x,-y,z
1/2+x,-y,-z
-x,y,-z
-x,-y,-z
1/2+x,y,-z
1/2-x,y,z
x,-y,z
loop_
_atom_site_type_symbol
_atom_site_label
_atom_site_fract_x
_atom_site_fract_y
_atom_site_fract_z
Si Si1 0.359762 0.673963 0.527033
Si Si2 0.043921 0.326292 0.857423
Si Si3 0.640162 0.177136 0.250795
Si Si4 0.356816 0.673346 0.082999
Si Si5 0.641823 0.822098 0.593122
Si Si6 0.032094 0.321722 0.642270
Si Si7 0.138294 0.828472 0.963845
O O1 0.250000 0.699158 0.542072
O O2 0.382672 0.500000 0.512733
O O3 0.391414 0.769704 0.471055
O O4 0.417085 0.731729 0.582952
O O5 0.067438 0.500000 0.841951
O O6 0.085163 0.218241 0.808048
O O7 0.089526 0.285248 0.919175
O O8 0.929813 0.300774 0.863383
O O9 0.750000 0.227471 0.245431
O O10 0.592291 0.262733 0.303982
O O11 0.631443 0.000000 0.261622
O O12 0.250000 0.714461 0.104485
O O13 0.361552 0.500000 0.061581
O O14 0.388265 0.778683 0.029259
O O15 0.750000 0.768343 0.604999
O O16 0.574348 0.746935 0.641957
O O17 0.632419 0.000000 0.597448
O O18 0.025585 0.500000 0.647433
O O19 0.250000 0.816229 0.953469
O O20 0.102607 0.000000 0.954208
#
# Coordination Sequence:
#
# PCOD8211154 Si02
#       7
#     8   8   8   8   8   8   8
#     4   9  18  33  54  82 115 148 183 226 278 335
#     4  11  22  36  57  82 108 144 187 229 275 325
#     4  11  25  43  61  82 110 144 182 226 276 331
#     4   9  19  36  56  80 111 144 180 223 270 323
#     4  10  21  36  55  82 116 151 187 229 277 329
#     4  11  22  37  59  84 111 147 189 232 279 330
#     4  10  20  33  52  81 115 148 181 221 273 329
#
# _framework density 19.656365000000001
#
# number of rings (size 3 to 8) (size 9 to 14) (size 15 to 20)
#    0.000    1.857    0.000    3.857    0.000   10.857 
#    0.000    2.143    0.000    2.571    0.000    0.000 
#    0.000    0.000    0.000    0.000    0.000    0.000 
#
# Total GULP energy -694578.046900 kJ/mol
# GULP energy per Si atom -12403.179409 kJ/mol
# Density = 1.961163 g / cm^3
# Si number density = 19.656365 Si / 1000 Ang^3
#
#
#
# Elastic Constant Matrix: (Units=GPa)
#
#
# Indices 1 2 3 4 5 6 
#
# 1 95.7271 34.2455 64.9197 0.0000 0.0000 0.0000
# 2 34.2455 46.6279 27.6149 0.0000 0.0000 0.0000
# 3 64.9197 27.6149 71.9528 0.0000 0.0000 0.0000
# 4 0.0000 0.0000 0.0000 58.5358 0.0000 0.0000
# 5 0.0000 0.0000 0.0000 0.0000 33.5319 0.0000
# 6 0.0000 0.0000 0.0000 0.0000 0.0000 29.3857
#
#
#
# Elastic Compliance Matrix: (Units=1/GPa)
#
#
# Indices 1 2 3 4 5 6 
#
# 1 0.028788 -0.007455 -0.023113 0.000000 0.000000 0.000000
# 2 -0.007455 0.029685 -0.004667 0.000000 0.000000 0.000000
# 3 -0.023113 -0.004667 0.036543 0.000000 0.000000 0.000000
# 4 0.000000 0.000000 0.000000 0.017084 0.000000 0.000000
# 5 0.000000 0.000000 0.000000 0.000000 0.029822 0.000000
# 6 0.000000 0.000000 0.000000 0.000000 0.000000 0.034030
#
#
# Mechanical properties :
#
#
# Convention : Reuss Voigt Hill
#
# Bulk Modulus (GPa) = 40.73828 51.98532 46.36180
# Shear Modulus (GPa) = 19.63843 30.12586 24.88214
#
# Velocity S-wave (km/s) = 3.16426 3.91912 3.56175
# Velocity P-wave (km/s) = 5.84126 6.85448 6.36805
#
# Compressibility (1/GPa) = 0.02454694
#
# Stress axis : x y z
#
# Youngs Moduli (GPa) = 34.73719 33.68666 27.36519
#
# Poissons Ratio (x) = 0.25112 0.63248
# Poissons Ratio (y) = 0.25895 0.12772
# Poissons Ratio (z) = 0.80287 0.15722
#
# Static dielectric constant tensor:
#      x y z
#    x 3.925050 0.000000 0.000000 
#    y 0.000000 3.604260 0.000000 
#    z 0.000000 0.000000 3.407780 
# 
# 
# High freq. dielectric constant tensor:
#      x y z
#    x 1.784750 0.000000 0.000000 
#    y 0.000000 1.771300 0.000000 
#    z 0.000000 0.000000 1.742470 
# 
# From -- ./inp_files/33348.got.cif
#   From: 2010.03.12/outbox.cif.g09.slc.cpg/sg51_17_cif.got.tgz:33348.got - 2010.04.16 13:43:02.
