data_PCOD8211580
_publ_section_title
;
Structure prediction by ZEFSAII (Michael W. Deem and Ramdas Pophale) SiO2 
 PCOD8211580
Probable space group: P M M A
;
_chemical_formula_sum "Si O2"
_cell_formula_units_Z 40
_cell_length_a 9.404287
_cell_length_b 10.006065
_cell_length_c 24.619460
_cell_angle_alpha 90.000000
_cell_angle_beta 90.000000
_cell_angle_gamma 90.000000
_cell_volume 2316.688896
_symmetry_space_group_name_H-M "P M M A"
_symmetry_group_IT_number 51
_symmetry_cell_setting 'orthorhombic'
loop_
_space_group_symop_operation_xyz
x,y,z
1/2-x,-y,z
1/2+x,-y,-z
-x,y,-z
-x,-y,-z
1/2+x,y,-z
1/2-x,y,z
x,-y,z
loop_
_atom_site_type_symbol
_atom_site_label
_atom_site_fract_x
_atom_site_fract_y
_atom_site_fract_z
Si Si1 0.590041 0.841194 0.168179
Si Si2 0.588915 0.000000 0.553566
Si Si3 0.914616 0.268411 0.616636
Si Si4 0.914922 0.152462 0.730913
Si Si5 0.909842 0.159059 0.049209
Si Si6 0.422441 0.500000 0.558149
O O1 0.750000 0.788733 0.176872
O O2 0.493891 0.784523 0.216886
O O3 0.533077 0.794186 0.108704
O O4 0.586593 0.000000 0.169987
O O5 0.500000 0.000000 0.500000
O O6 0.553544 0.128239 0.588902
O O7 0.750000 0.000000 0.534308
O O8 0.750000 0.313541 0.607495
O O9 0.947453 0.249207 0.680262
O O10 0.025908 0.372005 0.591748
O O11 0.750000 0.152365 0.744817
O O12 0.964558 0.000000 0.718221
O O13 0.750000 0.210533 0.041746
O O14 0.915108 0.000000 0.046096
O O15 0.000000 0.223037 0.000000
O O16 0.250000 0.500000 0.551705
O O17 0.500000 0.500000 0.500000
#
# Coordination Sequence:
#
# PCOD8211580 Si02
#       6
#     8   4   8   8   8   4
#     4   8  14  23  34  52  81 115 150 192 239 283
#     4  10  20  34  54  78 102 126 157 196 239 286
#     4  10  20  37  57  77 103 132 161 201 246 290
#     4   9  16  28  47  70  94 121 155 195 239 287
#     4   8  13  20  29  43  68 105 149 193 234 276
#     4  12  26  42  58  78 102 132 167 200 241 296
#
# _framework density 17.266020999999999
#
# number of rings (size 3 to 8) (size 9 to 14) (size 15 to 20)
#    0.000    2.800    1.000    2.700    0.000    4.000 
#    0.000    4.000    0.000    0.000    0.000    0.000 
#    0.000    0.000    0.000    0.900    0.000   12.200 
#
# Total GULP energy -495690.464228 kJ/mol
# GULP energy per Si atom -12392.261606 kJ/mol
# Density = 1.722672 g / cm^3
# Si number density = 17.266021 Si / 1000 Ang^3
#
#
#
# Elastic Constant Matrix: (Units=GPa)
#
#
# Indices 1 2 3 4 5 6 
#
# 1 92.3971 35.8976 84.2951 0.0000 0.0000 0.0000
# 2 35.8976 53.4996 34.6962 0.0000 0.0000 0.0000
# 3 84.2951 34.6962 175.2092 0.0000 0.0000 0.0000
# 4 0.0000 0.0000 0.0000 11.8605 0.0000 0.0000
# 5 0.0000 0.0000 0.0000 0.0000 39.1802 0.0000
# 6 0.0000 0.0000 0.0000 0.0000 0.0000 13.8202
#
#
#
# Elastic Compliance Matrix: (Units=1/GPa)
#
#
# Indices 1 2 3 4 5 6 
#
# 1 0.022762 -0.009375 -0.009095 0.000000 0.000000 0.000000
# 2 -0.009375 0.025307 -0.000501 0.000000 0.000000 0.000000
# 3 -0.009095 -0.000501 0.010182 0.000000 0.000000 0.000000
# 4 0.000000 0.000000 0.000000 0.084313 0.000000 0.000000
# 5 0.000000 0.000000 0.000000 0.000000 0.025523 0.000000
# 6 0.000000 0.000000 0.000000 0.000000 0.000000 0.072358
#
#
# Mechanical properties :
#
#
# Convention : Reuss Voigt Hill
#
# Bulk Modulus (GPa) = 49.23641 70.09821 59.66731
# Shear Modulus (GPa) = 17.53410 24.05330 20.79370
#
# Velocity S-wave (km/s) = 3.19019 3.73648 3.47409
# Velocity P-wave (km/s) = 6.49215 7.70078 7.12215
#
# Compressibility (1/GPa) = 0.02031017
#
# Stress axis : x y z
#
# Youngs Moduli (GPa) = 43.93196 39.51428 98.20998
#
# Poissons Ratio (x) = 0.37045 0.89319
# Poissons Ratio (y) = 0.41187 0.04921
# Poissons Ratio (z) = 0.39955 0.01980
#
# Static dielectric constant tensor:
#      x y z
#    x 3.283410 0.000000 0.000000 
#    y 0.000000 2.753910 0.000000 
#    z 0.000000 0.000000 3.273970 
# 
# 
# High freq. dielectric constant tensor:
#      x y z
#    x 1.660670 0.000000 0.000000 
#    y 0.000000 1.605000 0.000000 
#    z 0.000000 0.000000 1.687770 
# 
# From -- ./inp_files/36047.got.cif
#   From: 2010.03.12/outbox.cif.g09.slc.cpg/sg51_19_cif.got.tgz:36047.got - 2010.04.16 13:43:02.
