data_PCOD8211700
_publ_section_title
;
Structure prediction by ZEFSAII (Michael W. Deem and Ramdas Pophale) SiO2 
 PCOD8211700
Probable space group: P M M A
;
_chemical_formula_sum "Si O2"
_cell_formula_units_Z 48
_cell_length_a 9.679859
_cell_length_b 9.006062
_cell_length_c 29.174021
_cell_angle_alpha 90.000000
_cell_angle_beta 90.000000
_cell_angle_gamma 90.000000
_cell_volume 2543.315599
_symmetry_space_group_name_H-M "P M M A"
_symmetry_group_IT_number 51
_symmetry_cell_setting 'orthorhombic'
loop_
_space_group_symop_operation_xyz
x,y,z
1/2-x,-y,z
1/2+x,-y,-z
-x,y,-z
-x,-y,-z
1/2+x,y,-z
1/2-x,y,z
x,-y,z
loop_
_atom_site_type_symbol
_atom_site_label
_atom_site_fract_x
_atom_site_fract_y
_atom_site_fract_z
Si Si1 0.586592 0.164416 0.286402
Si Si2 0.750000 0.173110 0.932657
Si Si3 0.911272 0.826045 0.544432
Si Si4 0.978455 0.323055 0.099030
Si Si5 0.750000 0.172351 0.040801
Si Si6 0.408107 0.324338 0.621148
Si Si7 0.911022 0.663504 0.200116
O O1 0.750000 0.153724 0.281930
O O2 0.545647 0.266808 0.329136
O O3 0.522782 0.233073 0.239595
O O4 0.523577 0.000000 0.293308
O O5 0.626876 0.258854 0.909318
O O6 0.750000 0.000000 0.919485
O O7 0.750000 0.194539 0.986757
O O8 0.750000 0.778921 0.538359
O O9 0.000000 0.781866 0.500000
O O10 0.981300 0.739756 0.585939
O O11 0.922440 0.000000 0.554486
O O12 0.971181 0.500000 0.094295
O O13 0.883655 0.250952 0.060581
O O14 0.933548 0.269529 0.149608
O O15 0.750000 0.000000 0.054374
O O16 0.250000 0.273338 0.609535
O O17 0.418076 0.500000 0.620932
O O18 0.750000 0.649158 0.209892
O O19 0.979783 0.500000 0.203186
#
# Coordination Sequence:
#
# PCOD8211700 Si02
#       7
#     8   4   8   8   4   8   8
#     4   9  17  29  50  81 111 142 182 227 274 326
#     4  11  25  41  55  79 115 151 185 229 288 341
#     4  10  21  37  58  83 112 148 189 234 282 331
#     4  11  22  38  60  85 111 146 189 233 281 339
#     4  11  23  39  59  83 113 147 185 233 284 337
#     4  10  20  34  54  81 113 149 186 227 277 329
#     4   9  17  32  53  80 112 141 178 229 279 328
#
# _framework density 18.873000999999999
#
# number of rings (size 3 to 8) (size 9 to 14) (size 15 to 20)
#    0.000    2.000    0.833    3.000    0.000    9.000 
#    0.000    0.000    1.833    0.000    0.000    0.000 
#    0.000    0.000    0.000    0.000    0.000    0.000 
#
# Total GULP energy -595118.878026 kJ/mol
# GULP energy per Si atom -12398.309959 kJ/mol
# Density = 1.883005 g / cm^3
# Si number density = 18.873001 Si / 1000 Ang^3
#
#
#
# Elastic Constant Matrix: (Units=GPa)
#
#
# Indices 1 2 3 4 5 6 
#
# 1 77.1796 35.0696 26.6825 0.0000 0.0000 0.0000
# 2 35.0696 82.9760 55.7976 0.0000 0.0000 0.0000
# 3 26.6825 55.7976 106.8950 0.0000 0.0000 0.0000
# 4 0.0000 0.0000 0.0000 36.4878 0.0000 0.0000
# 5 0.0000 0.0000 0.0000 0.0000 17.4045 0.0000
# 6 0.0000 0.0000 0.0000 0.0000 0.0000 25.9965
#
#
#
# Elastic Compliance Matrix: (Units=1/GPa)
#
#
# Indices 1 2 3 4 5 6 
#
# 1 0.016072 -0.006310 -0.000718 0.000000 0.000000 0.000000
# 2 -0.006310 0.021047 -0.009411 0.000000 0.000000 0.000000
# 3 -0.000718 -0.009411 0.014447 0.000000 0.000000 0.000000
# 4 0.000000 0.000000 0.000000 0.027406 0.000000 0.000000
# 5 0.000000 0.000000 0.000000 0.000000 0.057456 0.000000
# 6 0.000000 0.000000 0.000000 0.000000 0.000000 0.038467
#
#
# Mechanical properties :
#
#
# Convention : Reuss Voigt Hill
#
# Bulk Modulus (GPa) = 53.51186 55.79447 54.65317
# Shear Modulus (GPa) = 23.36408 25.94450 24.65429
#
# Velocity S-wave (km/s) = 3.52229 3.71170 3.61823
# Velocity P-wave (km/s) = 6.70501 6.92793 6.81739
#
# Compressibility (1/GPa) = 0.01868745
#
# Stress axis : x y z
#
# Youngs Moduli (GPa) = 62.21902 47.51216 69.21950
#
# Poissons Ratio (x) = 0.29980 0.04971
# Poissons Ratio (y) = 0.39260 0.65145
# Poissons Ratio (z) = 0.04468 0.44715
#
# Static dielectric constant tensor:
#      x y z
#    x 3.235980 0.000000 0.000000 
#    y 0.000000 3.672980 0.000000 
#    z 0.000000 0.000000 3.600530 
# 
# 
# High freq. dielectric constant tensor:
#      x y z
#    x 1.704770 0.000000 0.000000 
#    y 0.000000 1.742090 0.000000 
#    z 0.000000 0.000000 1.746460 
# 
# From -- ./inp_files/37116.got.cif
#   From: 2010.03.12/outbox.cif.g09.slc.cpg/sg51_19_cif.got.tgz:37116.got - 2010.04.16 13:43:02.
