data_PCOD8211190
_publ_section_title
;
Structure prediction by ZEFSAII (Michael W. Deem and Ramdas Pophale) SiO2 
 PCOD8211190
Probable space group: P M M A
;
_chemical_formula_sum "Si O2"
_cell_formula_units_Z 56
_cell_length_a 15.013641
_cell_length_b 9.255171
_cell_length_c 21.103334
_cell_angle_alpha 90.000000
_cell_angle_beta 90.000000
_cell_angle_gamma 90.000000
_cell_volume 2932.388764
_symmetry_space_group_name_H-M "P M M A"
_symmetry_group_IT_number 51
_symmetry_cell_setting 'orthorhombic'
loop_
_space_group_symop_operation_xyz
x,y,z
1/2-x,-y,z
1/2+x,-y,-z
-x,y,-z
-x,-y,-z
1/2+x,y,-z
1/2-x,y,z
x,-y,z
loop_
_atom_site_type_symbol
_atom_site_label
_atom_site_fract_x
_atom_site_fract_y
_atom_site_fract_z
Si Si1 0.355698 0.162343 0.987674
Si Si2 0.403148 0.157874 0.470414
Si Si3 0.513914 0.332894 0.779043
Si Si4 0.148585 0.666996 0.865201
Si Si5 0.352692 0.332408 0.109709
Si Si6 0.002227 0.170549 0.348133
Si Si7 0.149949 0.663892 0.582495
O O1 0.250000 0.164504 0.988648
O O2 0.391005 0.243370 0.050100
O O3 0.393712 0.000000 0.987422
O O4 0.388538 0.242781 0.924580
O O5 0.500000 0.144051 0.500000
O O6 0.417263 0.205923 0.397278
O O7 0.347988 0.274309 0.510520
O O8 0.356090 0.000000 0.473703
O O9 0.522381 0.500000 0.759140
O O10 0.415061 0.300650 0.805769
O O11 0.588919 0.290271 0.829742
O O12 0.531764 0.232913 0.718958
O O13 0.250000 0.710014 0.846732
O O14 0.143006 0.500000 0.885090
O O15 0.250000 0.293507 0.124535
O O16 0.363522 0.500000 0.092561
O O17 0.910330 0.243368 0.370439
O O18 0.985348 0.000000 0.343624
O O19 0.250000 0.668610 0.609430
O O20 0.113920 0.500000 0.580195
#
# Coordination Sequence:
#
# PCOD8211190 Si02
#       7
#     8   8   8   8   8   8   8
#     4   9  17  30  50  75 100 127 163 211 264 311
#     4   8  16  32  52  73  98 129 164 201 243 292
#     4  10  21  35  52  75 102 136 177 216 255 305
#     4   9  18  33  51  71  99 134 169 207 254 308
#     4   9  18  34  54  73  96 129 169 214 265 317
#     4  10  21  36  53  74 103 139 173 206 252 307
#     4  10  20  33  53  82 109 133 167 210 252 296
#
# _framework density 19.097058000000001
#
# number of rings (size 3 to 8) (size 9 to 14) (size 15 to 20)
#    0.000    2.714    0.000    2.143    0.000    8.286 
#    0.000    5.000    0.000    2.571    0.000    0.000 
#    0.000    0.000    0.000    0.000    0.000    0.000 
#
# Total GULP energy -694299.628609 kJ/mol
# GULP energy per Si atom -12398.207654 kJ/mol
# Density = 1.905359 g / cm^3
# Si number density = 19.097058 Si / 1000 Ang^3
#
#
#
# Elastic Constant Matrix: (Units=GPa)
#
#
# Indices 1 2 3 4 5 6 
#
# 1 33.1502 4.8975 3.1246 0.0000 0.0000 0.0000
# 2 4.8975 87.2465 43.0896 0.0000 0.0000 0.0000
# 3 3.1246 43.0896 103.6342 0.0000 0.0000 0.0000
# 4 0.0000 0.0000 0.0000 31.7800 0.0000 0.0000
# 5 0.0000 0.0000 0.0000 0.0000 19.8118 0.0000
# 6 0.0000 0.0000 0.0000 0.0000 0.0000 9.6545
#
#
#
# Elastic Compliance Matrix: (Units=1/GPa)
#
#
# Indices 1 2 3 4 5 6 
#
# 1 0.030424 -0.001579 -0.000261 0.000000 0.000000 0.000000
# 2 -0.001579 0.014506 -0.005984 0.000000 0.000000 0.000000
# 3 -0.000261 -0.005984 0.012145 0.000000 0.000000 0.000000
# 4 0.000000 0.000000 0.000000 0.031466 0.000000 0.000000
# 5 0.000000 0.000000 0.000000 0.000000 0.050475 0.000000
# 6 0.000000 0.000000 0.000000 0.000000 0.000000 0.103578
#
#
# Mechanical properties :
#
#
# Convention : Reuss Voigt Hill
#
# Bulk Modulus (GPa) = 24.13852 36.25046 30.19449
# Shear Modulus (GPa) = 18.37897 23.77721 21.07809
#
# Velocity S-wave (km/s) = 3.10562 3.53239 3.32585
# Velocity P-wave (km/s) = 5.05244 5.97164 5.53117
#
# Compressibility (1/GPa) = 0.04142756
#
# Stress axis : x y z
#
# Youngs Moduli (GPa) = 32.86922 68.93874 82.33774
#
# Poissons Ratio (x) = 0.10885 0.02147
# Poissons Ratio (y) = 0.05190 0.49268
# Poissons Ratio (z) = 0.00857 0.41250
#
# Static dielectric constant tensor:
#      x y z
#    x 3.364820 0.000000 0.000000 
#    y 0.000000 3.589860 0.000000 
#    z 0.000000 0.000000 3.572850 
# 
# 
# High freq. dielectric constant tensor:
#      x y z
#    x 1.726280 0.000000 0.000000 
#    y 0.000000 1.744130 0.000000 
#    z 0.000000 0.000000 1.735920 
# 
# From -- ./inp_files/33303.got.cif
#   From: 2010.03.12/outbox.cif.g09.slc.cpg/sg51_17_cif.got.tgz:33303.got - 2010.04.16 13:43:02.
