data_PCOD8211799
_publ_section_title
;
Structure prediction by ZEFSAII (Michael W. Deem and Ramdas Pophale) SiO2 
 PCOD8211799
Probable space group: P M M A
;
_chemical_formula_sum "Si O2"
_cell_formula_units_Z 48
_cell_length_a 9.719363
_cell_length_b 8.991022
_cell_length_c 28.815157
_cell_angle_alpha 90.000000
_cell_angle_beta 90.000000
_cell_angle_gamma 90.000000
_cell_volume 2518.070314
_symmetry_space_group_name_H-M "P M M A"
_symmetry_group_IT_number 51
_symmetry_cell_setting 'orthorhombic'
loop_
_space_group_symop_operation_xyz
x,y,z
1/2-x,-y,z
1/2+x,-y,-z
-x,y,-z
-x,-y,-z
1/2+x,y,-z
1/2-x,y,z
x,-y,z
loop_
_atom_site_type_symbol
_atom_site_label
_atom_site_fract_x
_atom_site_fract_y
_atom_site_fract_z
Si Si1 0.098006 0.823473 0.776055
Si Si2 0.485636 0.326842 0.396604
Si Si3 0.590989 0.676154 0.956558
Si Si4 0.907771 0.824453 0.119725
Si Si5 0.250000 0.669850 0.469129
Si Si6 0.250000 0.175148 0.566285
Si Si7 0.094321 0.169109 0.304574
O O1 0.250000 0.765946 0.762839
O O2 0.059813 0.770219 0.827850
O O3 0.994328 0.760667 0.737387
O O4 0.094024 0.000000 0.775879
O O5 0.520718 0.500000 0.392576
O O6 0.383822 0.295709 0.439055
O O7 0.620861 0.233958 0.405650
O O8 0.417952 0.272509 0.349250
O O9 0.750000 0.730947 0.961317
O O10 0.586588 0.500000 0.952622
O O11 0.520480 0.743068 0.911212
O O12 0.500000 0.732096 0.000000
O O13 0.750000 0.780787 0.106431
O O14 0.927176 0.000000 0.114360
O O15 0.250000 0.500000 0.486722
O O16 0.250000 0.774958 0.513208
O O17 0.250000 0.000000 0.567493
O O18 0.250000 0.170822 0.287013
O O19 0.047943 0.000000 0.316616
#
# Coordination Sequence:
#
# PCOD8211799 Si02
#       7
#     8   8   8   8   4   4   8
#     4   8  16  32  54  80 111 146 184 228 278 328
#     4  11  23  41  61  84 116 153 188 226 278 339
#     4  10  21  36  54  77 107 146 190 235 285 339
#     4   9  18  34  56  82 112 146 185 230 279 333
#     4  10  22  42  64  84 114 154 188 222 277 340
#     4  12  26  40  60  90 116 144 186 238 283 326
#     4  10  20  34  55  83 113 145 185 231 277 327
#
# _framework density 19.062215999999999
#
# number of rings (size 3 to 8) (size 9 to 14) (size 15 to 20)
#    0.000    2.167    0.833    3.250    1.167    5.667 
#    0.000    2.500    0.000    1.000    0.000    0.000 
#    0.000    0.000    0.000    0.000    0.000    0.000 
#
# Total GULP energy -595187.936617 kJ/mol
# GULP energy per Si atom -12399.748680 kJ/mol
# Density = 1.901883 g / cm^3
# Si number density = 19.062216 Si / 1000 Ang^3
#
#
#
# Elastic Constant Matrix: (Units=GPa)
#
#
# Indices 1 2 3 4 5 6 
#
# 1 130.6404 39.2085 58.5537 0.0000 0.0000 0.0000
# 2 39.2085 54.8903 30.8195 0.0000 0.0000 0.0000
# 3 58.5537 30.8195 109.4434 0.0000 0.0000 0.0000
# 4 0.0000 0.0000 0.0000 -38.6267 0.0000 0.0000
# 5 0.0000 0.0000 0.0000 0.0000 47.0930 0.0000
# 6 0.0000 0.0000 0.0000 0.0000 0.0000 24.0846
#
#
#
# Elastic Compliance Matrix: (Units=1/GPa)
#
#
# Indices 1 2 3 4 5 6 
#
# 1 0.011345 -0.005578 -0.004499 0.000000 0.000000 0.000000
# 2 -0.005578 0.024382 -0.003882 0.000000 0.000000 0.000000
# 3 -0.004499 -0.003882 0.012637 0.000000 0.000000 0.000000
# 4 0.000000 0.000000 0.000000 -0.025889 0.000000 0.000000
# 5 0.000000 0.000000 0.000000 0.000000 0.021235 0.000000
# 6 0.000000 0.000000 0.000000 0.000000 0.000000 0.041520
#
#
# Mechanical properties :
#
#
# Convention : Reuss Voigt Hill
#
# Bulk Modulus (GPa) = 48.90682 61.34861 55.12771
# Shear Modulus (GPa) = 41.67926 17.60298 29.64112
#
# Velocity S-wave (km/s) = 4.68106 3.04213 3.94759
# Velocity P-wave (km/s) = 7.41138 6.67777 7.05412
#
# Compressibility (1/GPa) = 0.02044705
#
# Stress axis : x y z
#
# Youngs Moduli (GPa) = 88.14335 41.01390 79.13051
#
# Poissons Ratio (x) = 0.22877 0.35602
# Poissons Ratio (y) = 0.49165 0.30717
# Poissons Ratio (z) = 0.39656 0.15921
#
# Static dielectric constant tensor:
#      x y z
#    x 3.731700 0.000000 0.000000 
#    y 0.000000 3.244720 0.000000 
#    z 0.000000 0.000000 3.619820 
# 
# 
# High freq. dielectric constant tensor:
#      x y z
#    x 1.753500 0.000000 0.000000 
#    y 0.000000 1.717500 0.000000 
#    z 0.000000 0.000000 1.749040 
# 
# From -- ./inp_files/37234.got.cif
#   From: 2010.03.12/outbox.cif.g09.slc.cpg/sg51_19_cif.got.tgz:37234.got - 2010.04.16 13:43:02.
