data_PCOD8211541
_publ_section_title
;
Structure prediction by ZEFSAII (Michael W. Deem and Ramdas Pophale) SiO2 
 PCOD8211541
Probable space group: P M M A
;
_chemical_formula_sum "Si O2"
_cell_formula_units_Z 56
_cell_length_a 18.913171
_cell_length_b 9.046857
_cell_length_c 16.185075
_cell_angle_alpha 90.000000
_cell_angle_beta 90.000000
_cell_angle_gamma 90.000000
_cell_volume 2769.343268
_symmetry_space_group_name_H-M "P M M A"
_symmetry_group_IT_number 51
_symmetry_cell_setting 'orthorhombic'
loop_
_space_group_symop_operation_xyz
x,y,z
1/2-x,-y,z
1/2+x,-y,-z
-x,y,-z
-x,-y,-z
1/2+x,y,-z
1/2-x,y,z
x,-y,z
loop_
_atom_site_type_symbol
_atom_site_label
_atom_site_fract_x
_atom_site_fract_y
_atom_site_fract_z
Si Si1 0.166681 0.664704 0.180580
Si Si2 0.830185 0.829650 0.350857
Si Si3 0.168790 0.672971 0.479389
Si Si4 0.099653 0.170966 0.330652
Si Si5 0.947846 0.326627 0.074014
Si Si6 0.167526 0.171879 0.017286
Si Si7 0.041568 0.830763 0.760742
O O1 0.250000 0.652799 0.176447
O O2 0.133008 0.500000 0.180510
O O3 0.147379 0.751089 0.262542
O O4 0.138607 0.751762 0.100713
O O5 0.750000 0.803610 0.319766
O O6 0.847531 0.727732 0.428724
O O7 0.882650 0.784732 0.276852
O O8 0.842269 0.000000 0.376724
O O9 0.250000 0.708655 0.455241
O O10 0.153329 0.500000 0.474304
O O11 0.115514 0.756257 0.418605
O O12 0.017181 0.192904 0.309968
O O13 0.121052 0.000000 0.333768
O O14 0.934535 0.500000 0.077339
O O15 0.978350 0.271896 0.161608
O O16 0.873317 0.243986 0.059615
O O17 0.000000 0.281725 0.000000
O O18 0.250000 0.200853 0.002888
O O19 0.149955 0.000000 0.023783
O O20 0.042384 0.000000 0.791140
#
# Coordination Sequence:
#
# PCOD8211541 Si02
#       7
#     8   8   8   8   8   8   8
#     4  10  20  34  53  79 113 149 186 233 284 333
#     4   9  19  39  64  85 109 144 186 231 279 333
#     4  10  21  37  58  85 116 149 186 229 276 327
#     4  11  22  35  54  81 115 152 189 230 276 333
#     4  11  24  40  59  84 115 152 192 235 286 343
#     4  10  21  37  58  83 110 144 188 236 286 341
#     4  10  23  40  58  84 114 146 187 235 285 335
#
# _framework density 20.221401
#
# number of rings (size 3 to 8) (size 9 to 14) (size 15 to 20)
#    0.000    1.857    0.000    3.429    0.000   10.571 
#    0.000    4.286    0.000    0.000    0.000    0.000 
#    0.000    0.000    0.000    0.000    0.000    0.000 
#
# Total GULP energy -694679.095880 kJ/mol
# GULP energy per Si atom -12404.983855 kJ/mol
# Density = 2.017538 g / cm^3
# Si number density = 20.221401 Si / 1000 Ang^3
#
#
#
# Elastic Constant Matrix: (Units=GPa)
#
#
# Indices 1 2 3 4 5 6 
#
# 1 72.8470 54.1403 51.1531 0.0000 0.0000 0.0000
# 2 54.1403 127.5365 57.0377 0.0000 0.0000 0.0000
# 3 51.1531 57.0377 97.4589 0.0000 0.0000 0.0000
# 4 0.0000 0.0000 0.0000 29.1299 0.0000 0.0000
# 5 0.0000 0.0000 0.0000 0.0000 34.7572 0.0000
# 6 0.0000 0.0000 0.0000 0.0000 0.0000 23.5271
#
#
#
# Elastic Compliance Matrix: (Units=1/GPa)
#
#
# Indices 1 2 3 4 5 6 
#
# 1 0.025140 -0.006462 -0.009413 0.000000 0.000000 0.000000
# 2 -0.006462 0.012282 -0.003796 0.000000 0.000000 0.000000
# 3 -0.009413 -0.003796 0.017423 0.000000 0.000000 0.000000
# 4 0.000000 0.000000 0.000000 0.034329 0.000000 0.000000
# 5 0.000000 0.000000 0.000000 0.000000 0.028771 0.000000
# 6 0.000000 0.000000 0.000000 0.000000 0.000000 0.042504
#
#
# Mechanical properties :
#
#
# Convention : Reuss Voigt Hill
#
# Bulk Modulus (GPa) = 64.50828 69.16718 66.83773
# Shear Modulus (GPa) = 24.39499 26.51692 25.45595
#
# Velocity S-wave (km/s) = 3.47709 3.62516 3.55189
# Velocity P-wave (km/s) = 6.93473 7.19733 7.06725
#
# Compressibility (1/GPa) = 0.01550189
#
# Stress axis : x y z
#
# Youngs Moduli (GPa) = 39.77689 81.42032 57.39513
#
# Poissons Ratio (x) = 0.52617 0.54027
# Poissons Ratio (y) = 0.25705 0.21788
# Poissons Ratio (z) = 0.37443 0.30908
#
# Static dielectric constant tensor:
#      x y z
#    x 3.718490 0.000000 0.000000 
#    y 0.000000 3.831750 0.000000 
#    z 0.000000 0.000000 3.544940 
# 
# 
# High freq. dielectric constant tensor:
#      x y z
#    x 1.792010 0.000000 0.000000 
#    y 0.000000 1.798270 0.000000 
#    z 0.000000 0.000000 1.783390 
# 
# From -- ./inp_files/25635.got.cif
#   From: 2010.03.12/outbox.cif.g09.slc.cpg/sg51_13_cif.got.tgz:25635.got - 2010.04.16 13:43:02.
