data_PCOD8211234
_publ_section_title
;
Structure prediction by ZEFSAII (Michael W. Deem and Ramdas Pophale) SiO2 
 PCOD8211234
Probable space group: P M M A
;
_chemical_formula_sum "Si O2"
_cell_formula_units_Z 64
_cell_length_a 9.353041
_cell_length_b 14.218669
_cell_length_c 24.267397
_cell_angle_alpha 90.000000
_cell_angle_beta 90.000000
_cell_angle_gamma 90.000000
_cell_volume 3227.267596
_symmetry_space_group_name_H-M "P M M A"
_symmetry_group_IT_number 51
_symmetry_cell_setting 'orthorhombic'
loop_
_space_group_symop_operation_xyz
x,y,z
1/2-x,-y,z
1/2+x,-y,-z
-x,y,-z
-x,-y,-z
1/2+x,y,-z
1/2-x,y,z
x,-y,z
loop_
_atom_site_type_symbol
_atom_site_label
_atom_site_fract_x
_atom_site_fract_y
_atom_site_fract_z
Si Si1 0.582116 0.610981 0.721471
Si Si2 0.905795 0.145435 0.047062
Si Si3 0.409935 0.389951 0.828721
Si Si4 0.907844 0.888799 0.849368
Si Si5 0.087523 0.245607 0.651461
Si Si6 0.593666 0.640720 0.048715
Si Si7 0.908529 0.107084 0.249123
Si Si8 0.418231 0.893325 0.556082
O O1 0.750000 0.633556 0.724627
O O2 0.555409 0.500000 0.711885
O O3 0.509981 0.647185 0.778899
O O4 0.512844 0.667082 0.669677
O O5 0.750000 0.095889 0.051378
O O6 0.883776 0.252701 0.030264
O O7 0.987177 0.143962 0.103790
O O8 0.000000 0.093666 0.000000
O O9 0.250000 0.344934 0.822953
O O10 0.398690 0.500000 0.821966
O O11 0.475459 0.366840 0.889624
O O12 0.750000 0.845223 0.857464
O O13 0.976275 0.850317 0.793227
O O14 0.900006 0.000000 0.848410
O O15 0.250000 0.283395 0.644136
O O16 0.081686 0.164599 0.696000
O O17 0.032234 0.190499 0.597238
O O18 0.750000 0.591099 0.050975
O O19 0.500000 0.591689 0.000000
O O20 0.750000 0.113560 0.222672
O O21 0.946309 0.000000 0.263973
O O22 0.500000 0.872577 0.500000
O O23 0.250000 0.885330 0.545596
O O24 0.454519 0.000000 0.577433
#
# Coordination Sequence:
#
# PCOD8211234 Si02
#       8
#     8   8   8   8   8   8   8   8
#     4  10  22  38  54  78 111 145 186 237 288 333
#     4  10  20  34  50  67  89 119 159 206 254 310
#     4   9  18  34  54  74  99 132 169 212 266 330
#     4  10  21  35  49  68  95 125 159 204 258 313
#     4  10  20  34  57  85 112 149 192 228 269 322
#     4   9  19  33  49  71  96 123 159 205 258 320
#     4   9  18  33  52  76 107 140 174 214 260 316
#     4   9  18  34  57  88 126 163 196 231 270 317
#
# _framework density 19.831018
#
# number of rings (size 3 to 8) (size 9 to 14) (size 15 to 20)
#    0.000    2.500    0.000    1.500    1.750    5.500 
#    0.000    0.000    0.000    4.125    0.000    0.000 
#    0.000    0.000    0.000    0.000    0.000    0.000 
#
# Total GULP energy -793069.142706 kJ/mol
# GULP energy per Si atom -12391.705355 kJ/mol
# Density = 1.978588 g / cm^3
# Si number density = 19.831018 Si / 1000 Ang^3
#
#
#
# Elastic Constant Matrix: (Units=GPa)
#
#
# Indices 1 2 3 4 5 6 
#
# 1 125.2966 36.8558 58.8417 0.0000 0.0000 0.0000
# 2 36.8558 57.2995 43.7851 0.0000 0.0000 0.0000
# 3 58.8417 43.7851 110.2067 0.0000 0.0000 0.0000
# 4 0.0000 0.0000 0.0000 28.6995 0.0000 0.0000
# 5 0.0000 0.0000 0.0000 0.0000 34.3035 0.0000
# 6 0.0000 0.0000 0.0000 0.0000 0.0000 18.6432
#
#
#
# Elastic Compliance Matrix: (Units=1/GPa)
#
#
# Indices 1 2 3 4 5 6 
#
# 1 0.011195 -0.003781 -0.004475 0.000000 0.000000 0.000000
# 2 -0.003781 0.026338 -0.008445 0.000000 0.000000 0.000000
# 3 -0.004475 -0.008445 0.014818 0.000000 0.000000 0.000000
# 4 0.000000 0.000000 0.000000 0.034844 0.000000 0.000000
# 5 0.000000 0.000000 0.000000 0.000000 0.029152 0.000000
# 6 0.000000 0.000000 0.000000 0.000000 0.000000 0.053639
#
#
# Mechanical properties :
#
#
# Convention : Reuss Voigt Hill
#
# Bulk Modulus (GPa) = 52.77485 63.52975 58.15230
# Shear Modulus (GPa) = 23.84324 26.55058 25.19691
#
# Velocity S-wave (km/s) = 3.47121 3.66299 3.56839
# Velocity P-wave (km/s) = 6.53726 7.07072 6.80922
#
# Compressibility (1/GPa) = 0.01894842
#
# Stress axis : x y z
#
# Youngs Moduli (GPa) = 89.32742 37.96865 67.48413
#
# Poissons Ratio (x) = 0.14357 0.30198
# Poissons Ratio (y) = 0.33776 0.56991
# Poissons Ratio (z) = 0.39973 0.32065
#
# Static dielectric constant tensor:
#      x y z
#    x 4.033000 0.000000 0.000000 
#    y 0.000000 3.523800 0.000000 
#    z 0.000000 0.000000 3.533710 
# 
# 
# High freq. dielectric constant tensor:
#      x y z
#    x 1.772770 0.000000 0.000000 
#    y 0.000000 1.766560 0.000000 
#    z 0.000000 0.000000 1.754800 
# 
# From -- ./inp_files/35029.got.cif
#   From: 2010.03.12/outbox.cif.g09.slc.cpg/sg51_18_cif.got.tgz:35029.got - 2010.04.16 13:43:02.
