data_PCOD8211723
_publ_section_title
;
Structure prediction by ZEFSAII (Michael W. Deem and Ramdas Pophale) SiO2 
 PCOD8211723
Probable space group: P M M A
;
_chemical_formula_sum "Si O2"
_cell_formula_units_Z 64
_cell_length_a 13.820154
_cell_length_b 8.933834
_cell_length_c 25.918440
_cell_angle_alpha 90.000000
_cell_angle_beta 90.000000
_cell_angle_gamma 90.000000
_cell_volume 3200.071039
_symmetry_space_group_name_H-M "P M M A"
_symmetry_group_IT_number 51
_symmetry_cell_setting 'orthorhombic'
loop_
_space_group_symop_operation_xyz
x,y,z
1/2-x,-y,z
1/2+x,-y,-z
-x,y,-z
-x,-y,-z
1/2+x,y,-z
1/2-x,y,z
x,-y,z
loop_
_atom_site_type_symbol
_atom_site_label
_atom_site_fract_x
_atom_site_fract_y
_atom_site_fract_z
Si Si1 0.362078 0.672915 0.526033
Si Si2 0.634948 0.169224 0.974106
Si Si3 0.139167 0.176016 0.421479
Si Si4 0.962746 0.824183 0.171907
Si Si5 0.028632 0.676489 0.628055
Si Si6 0.137916 0.173946 0.720880
Si Si7 0.860302 0.322946 0.869164
Si Si8 0.134911 0.329756 0.923962
O O1 0.250000 0.703575 0.535428
O O2 0.384706 0.500000 0.515059
O O3 0.399772 0.763344 0.476411
O O4 0.414028 0.730565 0.577391
O O5 0.750000 0.170119 0.977126
O O6 0.601709 0.264908 0.924592
O O7 0.595408 0.000000 0.969241
O O8 0.591869 0.244945 0.025768
O O9 0.250000 0.224914 0.412996
O O10 0.077508 0.248846 0.375088
O O11 0.126441 0.000000 0.420238
O O12 0.909981 0.784985 0.224898
O O13 0.898982 0.754252 0.126861
O O14 0.070128 0.751361 0.173549
O O15 0.972048 0.000000 0.163018
O O16 0.017560 0.500000 0.630674
O O17 0.085074 0.729561 0.677993
O O18 0.250000 0.219958 0.722997
O O19 0.125260 0.000000 0.707663
O O20 0.750000 0.272048 0.858309
O O21 0.869758 0.500000 0.867652
O O22 0.250000 0.326418 0.925596
O O23 0.096394 0.500000 0.923598
#
# Coordination Sequence:
#
# PCOD8211723 Si02
#       8
#     8   8   8   8   8   8   8   8
#     4   9  18  33  53  81 118 155 190 231 282 339
#     4   9  17  31  53  81 113 148 185 226 274 330
#     4  10  21  36  55  82 117 156 196 237 282 333
#     4  11  23  39  60  84 110 144 188 233 279 333
#     4  11  22  36  58  86 115 151 194 237 284 338
#     4  10  23  43  64  86 114 147 184 230 281 331
#     4  10  21  38  59  83 113 146 182 228 280 334
#     4  10  20  34  54  82 116 151 186 227 278 335
#
# _framework density 19.999555000000001
#
# number of rings (size 3 to 8) (size 9 to 14) (size 15 to 20)
#    0.000    2.000    0.000    3.375    0.000    9.000 
#    0.000    4.375    0.000    0.750    0.000    0.000 
#    0.000    0.000    0.000    0.000    0.000    0.000 
#
# Total GULP energy -793854.150798 kJ/mol
# GULP energy per Si atom -12403.971106 kJ/mol
# Density = 1.995404 g / cm^3
# Si number density = 19.999555 Si / 1000 Ang^3
#
#
#
# Elastic Constant Matrix: (Units=GPa)
#
#
# Indices 1 2 3 4 5 6 
#
# 1 74.5768 46.6190 62.2799 0.0000 0.0000 0.0000
# 2 46.6190 106.7607 63.1063 0.0000 0.0000 0.0000
# 3 62.2799 63.1063 107.9665 0.0000 0.0000 0.0000
# 4 0.0000 0.0000 0.0000 27.1149 0.0000 0.0000
# 5 0.0000 0.0000 0.0000 0.0000 36.8581 0.0000
# 6 0.0000 0.0000 0.0000 0.0000 0.0000 31.0486
#
#
#
# Elastic Compliance Matrix: (Units=1/GPa)
#
#
# Indices 1 2 3 4 5 6 
#
# 1 0.026913 -0.003935 -0.013224 0.000000 0.000000 0.000000
# 2 -0.003935 0.014887 -0.006431 0.000000 0.000000 0.000000
# 3 -0.013224 -0.006431 0.020650 0.000000 0.000000 0.000000
# 4 0.000000 0.000000 0.000000 0.036880 0.000000 0.000000
# 5 0.000000 0.000000 0.000000 0.000000 0.027131 0.000000
# 6 0.000000 0.000000 0.000000 0.000000 0.000000 0.032208
#
#
# Mechanical properties :
#
#
# Convention : Reuss Voigt Hill
#
# Bulk Modulus (GPa) = 65.49871 70.36825 67.93348
# Shear Modulus (GPa) = 23.70361 26.82423 25.26392
#
# Velocity S-wave (km/s) = 3.44642 3.66627 3.55804
# Velocity P-wave (km/s) = 6.97555 7.29269 7.13588
#
# Compressibility (1/GPa) = 0.01526748
#
# Stress axis : x y z
#
# Youngs Moduli (GPa) = 37.15721 67.17463 48.42685
#
# Poissons Ratio (x) = 0.26433 0.64042
# Poissons Ratio (y) = 0.14621 0.31145
# Poissons Ratio (z) = 0.49138 0.43202
#
# Static dielectric constant tensor:
#      x y z
#    x 3.834440 0.000000 0.000000 
#    y 0.000000 3.677360 0.000000 
#    z 0.000000 0.000000 3.558860 
# 
# 
# High freq. dielectric constant tensor:
#      x y z
#    x 1.796910 0.000000 0.000000 
#    y 0.000000 1.787380 0.000000 
#    z 0.000000 0.000000 1.763390 
# 
# From -- ./inp_files/35872.got.cif
#   From: 2010.03.12/outbox.cif.g09.slc.cpg/sg51_18_cif.got.tgz:35872.got - 2010.04.16 13:43:02.
