data_PCOD8211046
_publ_section_title
;
Structure prediction by ZEFSAII (Michael W. Deem and Ramdas Pophale) SiO2 
 PCOD8211046
Probable space group: P M M A
;
_chemical_formula_sum "Si O2"
_cell_formula_units_Z 56
_cell_length_a 8.754403
_cell_length_b 22.494561
_cell_length_c 14.750529
_cell_angle_alpha 90.000000
_cell_angle_beta 90.000000
_cell_angle_gamma 90.000000
_cell_volume 2904.769346
_symmetry_space_group_name_H-M "P M M A"
_symmetry_group_IT_number 51
_symmetry_cell_setting 'orthorhombic'
loop_
_space_group_symop_operation_xyz
x,y,z
1/2-x,-y,z
1/2+x,-y,-z
-x,y,-z
-x,-y,-z
1/2+x,y,-z
1/2-x,y,z
x,-y,z
loop_
_atom_site_type_symbol
_atom_site_label
_atom_site_fract_x
_atom_site_fract_y
_atom_site_fract_z
Si Si1 0.070260 0.067794 0.594142
Si Si2 0.428279 0.785163 0.093240
Si Si3 0.575212 0.432906 0.773402
Si Si4 0.429944 0.658605 0.905797
Si Si5 0.072509 0.836710 0.281803
Si Si6 0.426889 0.603244 0.594898
Si Si7 0.426259 0.257848 0.594608
O O1 0.250000 0.073888 0.586529
O O2 0.000000 0.092024 0.500000
O O3 0.012686 0.105861 0.679097
O O4 0.018360 0.000000 0.610865
O O5 0.250000 0.773909 0.077735
O O6 0.503373 0.722614 0.120700
O O7 0.457544 0.832459 0.173692
O O8 0.500000 0.810499 0.000000
O O9 0.750000 0.410967 0.778626
O O10 0.560363 0.500000 0.810946
O O11 0.468106 0.389493 0.830051
O O12 0.518255 0.432759 0.670319
O O13 0.250000 0.664509 0.915064
O O14 0.500000 0.635773 0.000000
O O15 0.250000 0.842956 0.303735
O O16 0.010821 0.776293 0.325417
O O17 0.500000 0.584685 0.500000
O O18 0.250000 0.585031 0.595650
O O19 0.448434 0.672951 0.613732
O O20 0.500000 0.238510 0.500000
O O21 0.250000 0.239025 0.592624
#
# Coordination Sequence:
#
# PCOD8211046 Si02
#       7
#     8   8   8   8   8   8   8
#     4  10  21  37  57  81 112 151 191 230 270 314
#     4  10  21  37  58  84 113 144 179 221 270 323
#     4  11  24  40  57  78 105 138 178 224 271 322
#     4  11  22  38  61  85 111 142 175 217 271 329
#     4  11  22  34  53  81 112 146 181 222 270 318
#     4  10  21  37  57  79 105 140 179 221 271 324
#     4  10  20  33  51  77 108 140 174 216 265 319
#
# _framework density 19.278638999999998
#
# number of rings (size 3 to 8) (size 9 to 14) (size 15 to 20)
#    0.000    1.571    0.000    6.000    0.000    8.857 
#    0.000    0.000    0.000    0.429    0.000    0.000 
#    0.000    0.000    0.000    0.000    0.000    0.000 
#
# Total GULP energy -694661.283258 kJ/mol
# GULP energy per Si atom -12404.665772 kJ/mol
# Density = 1.923476 g / cm^3
# Si number density = 19.278639 Si / 1000 Ang^3
#
#
#
# Elastic Constant Matrix: (Units=GPa)
#
#
# Indices 1 2 3 4 5 6 
#
# 1 124.8920 36.5636 52.2299 0.0000 0.0000 0.0000
# 2 36.5636 65.9721 46.4214 0.0000 0.0000 0.0000
# 3 52.2299 46.4214 117.0939 0.0000 0.0000 0.0000
# 4 0.0000 0.0000 0.0000 22.2326 0.0000 0.0000
# 5 0.0000 0.0000 0.0000 0.0000 37.0590 0.0000
# 6 0.0000 0.0000 0.0000 0.0000 0.0000 22.5492
#
#
#
# Elastic Compliance Matrix: (Units=1/GPa)
#
#
# Indices 1 2 3 4 5 6 
#
# 1 0.010383 -0.003461 -0.003259 0.000000 0.000000 0.000000
# 2 -0.003461 0.022176 -0.007248 0.000000 0.000000 0.000000
# 3 -0.003259 -0.007248 0.012867 0.000000 0.000000 0.000000
# 4 0.000000 0.000000 0.000000 0.044979 0.000000 0.000000
# 5 0.000000 0.000000 0.000000 0.000000 0.026984 0.000000
# 6 0.000000 0.000000 0.000000 0.000000 0.000000 0.044347
#
#
# Mechanical properties :
#
#
# Convention : Reuss Voigt Hill
#
# Bulk Modulus (GPa) = 57.17510 64.26532 60.72021
# Shear Modulus (GPa) = 25.57496 27.88439 26.72968
#
# Velocity S-wave (km/s) = 3.64620 3.80727 3.72760
# Velocity P-wave (km/s) = 6.88825 7.26184 7.07751
#
# Compressibility (1/GPa) = 0.01749013
#
# Stress axis : x y z
#
# Youngs Moduli (GPa) = 96.30873 45.09341 77.71652
#
# Poissons Ratio (x) = 0.15608 0.25330
# Poissons Ratio (y) = 0.33336 0.56327
# Poissons Ratio (z) = 0.31389 0.32683
#
# Static dielectric constant tensor:
#      x y z
#    x 3.682220 0.000000 0.000000 
#    y 0.000000 3.365280 0.000000 
#    z 0.000000 0.000000 3.553870 
# 
# 
# High freq. dielectric constant tensor:
#      x y z
#    x 1.770180 0.000000 0.000000 
#    y 0.000000 1.732770 0.000000 
#    z 0.000000 0.000000 1.752750 
# 
# From -- ./inp_files/21767.got.cif
#   From: 2010.03.12/outbox.cif.g09.slc.cpg/sg51_11_cif.got.tgz:21767.got - 2010.04.16 13:43:02.
