data_PCOD8211699
_publ_section_title
;
Structure prediction by ZEFSAII (Michael W. Deem and Ramdas Pophale) SiO2 
 PCOD8211699
Probable space group: P M M A
;
_chemical_formula_sum "Si O2"
_cell_formula_units_Z 44
_cell_length_a 9.333584
_cell_length_b 8.001771
_cell_length_c 30.150064
_cell_angle_alpha 90.000000
_cell_angle_beta 90.000000
_cell_angle_gamma 90.000000
_cell_volume 2251.763613
_symmetry_space_group_name_H-M "P M M A"
_symmetry_group_IT_number 51
_symmetry_cell_setting 'orthorhombic'
loop_
_space_group_symop_operation_xyz
x,y,z
1/2-x,-y,z
1/2+x,-y,-z
-x,y,-z
-x,-y,-z
1/2+x,y,-z
1/2-x,y,z
x,-y,z
loop_
_atom_site_type_symbol
_atom_site_label
_atom_site_fract_x
_atom_site_fract_y
_atom_site_fract_z
Si Si1 0.410420 0.695758 0.225839
Si Si2 0.590749 0.695042 0.959912
Si Si3 0.916565 0.696854 0.310070
Si Si4 0.085065 0.189051 0.393458
Si Si5 0.082402 0.500000 0.454342
Si Si6 0.586399 0.804613 0.867325
O O1 0.250000 0.775328 0.229436
O O2 0.398902 0.500000 0.230804
O O3 0.510561 0.765198 0.265005
O O4 0.484443 0.740160 0.178464
O O5 0.750000 0.776223 0.960506
O O6 0.602337 0.500000 0.968214
O O7 0.515299 0.729706 0.912120
O O8 0.500000 0.777201 0.000000
O O9 0.750000 0.741690 0.307995
O O10 0.942156 0.500000 0.316648
O O11 0.987473 0.795372 0.350340
O O12 0.250000 0.220375 0.379828
O O13 0.037184 0.330720 0.428505
O O14 0.065358 0.000000 0.412907
O O15 0.250000 0.500000 0.464473
O O16 0.000000 0.500000 0.500000
O O17 0.750000 0.741532 0.866222
O O18 0.570946 0.000000 0.869730
#
# Coordination Sequence:
#
# PCOD8211699 Si02
#       6
#     8   8   8   8   4   8
#     4   9  17  30  50  73  98 133 175 216 259 311
#     4   9  17  30  48  68  89 115 151 195 243 297
#     4  10  20  34  54  81 113 147 183 226 278 330
#     4  10  21  38  61  87 115 152 196 237 278 329
#     4  10  22  40  62  88 120 154 192 238 283 330
#     4   9  17  29  46  68  93 122 160 205 249 299
#
# _framework density 19.540239
#
# number of rings (size 3 to 8) (size 9 to 14) (size 15 to 20)
#    0.000    2.545    0.909    1.091    0.000    5.455 
#    0.000    2.727    0.000    5.455    0.000    0.000 
#    0.000    0.000    0.000    0.000    0.000    0.000 
#
# Total GULP energy -545397.522048 kJ/mol
# GULP energy per Si atom -12395.398228 kJ/mol
# Density = 1.949576 g / cm^3
# Si number density = 19.540239 Si / 1000 Ang^3
#
#
#
# Elastic Constant Matrix: (Units=GPa)
#
#
# Indices 1 2 3 4 5 6 
#
# 1 69.9521 29.0103 66.1175 0.0000 0.0000 0.0000
# 2 29.0103 68.2527 51.9160 0.0000 0.0000 0.0000
# 3 66.1175 51.9160 184.7355 0.0000 0.0000 0.0000
# 4 0.0000 0.0000 0.0000 12.3103 0.0000 0.0000
# 5 0.0000 0.0000 0.0000 0.0000 24.3223 0.0000
# 6 0.0000 0.0000 0.0000 0.0000 0.0000 14.5886
#
#
#
# Elastic Compliance Matrix: (Units=1/GPa)
#
#
# Indices 1 2 3 4 5 6 
#
# 1 0.022593 -0.004391 -0.006852 0.000000 0.000000 0.000000
# 2 -0.004391 0.019488 -0.003905 0.000000 0.000000 0.000000
# 3 -0.006852 -0.003905 0.008963 0.000000 0.000000 0.000000
# 4 0.000000 0.000000 0.000000 0.081233 0.000000 0.000000
# 5 0.000000 0.000000 0.000000 0.000000 0.041115 0.000000
# 6 0.000000 0.000000 0.000000 0.000000 0.000000 0.068547
#
#
# Mechanical properties :
#
#
# Convention : Reuss Voigt Hill
#
# Bulk Modulus (GPa) = 48.19817 68.55865 58.37841
# Shear Modulus (GPa) = 17.91147 21.97067 19.94107
#
# Velocity S-wave (km/s) = 3.03090 3.35682 3.19801
# Velocity P-wave (km/s) = 6.08014 7.08423 6.60131
#
# Compressibility (1/GPa) = 0.02074768
#
# Stress axis : x y z
#
# Youngs Moduli (GPa) = 44.26143 51.31289 111.56941
#
# Poissons Ratio (x) = 0.22531 0.76449
# Poissons Ratio (y) = 0.19435 0.43570
# Poissons Ratio (z) = 0.30329 0.20039
#
# Static dielectric constant tensor:
#      x y z
#    x 3.416460 0.000000 0.000000 
#    y 0.000000 3.441140 0.000000 
#    z 0.000000 0.000000 3.755370 
# 
# 
# High freq. dielectric constant tensor:
#      x y z
#    x 1.724980 0.000000 0.000000 
#    y 0.000000 1.754390 0.000000 
#    z 0.000000 0.000000 1.770220 
# 
# From -- ./inp_files/36802.got.cif
#   From: 2010.03.12/outbox.cif.g09.slc.cpg/sg51_19_cif.got.tgz:36802.got - 2010.04.16 13:43:02.
