data_PCOD8211848
_publ_section_title
;
Structure prediction by ZEFSAII (Michael W. Deem and Ramdas Pophale) SiO2 
 PCOD8211848
Probable space group: P M M A
;
_chemical_formula_sum "Si O2"
_cell_formula_units_Z 64
_cell_length_a 18.887687
_cell_length_b 8.713808
_cell_length_c 20.126376
_cell_angle_alpha 90.000000
_cell_angle_beta 90.000000
_cell_angle_gamma 90.000000
_cell_volume 3312.472989
_symmetry_space_group_name_H-M "P M M A"
_symmetry_group_IT_number 51
_symmetry_cell_setting 'orthorhombic'
loop_
_space_group_symop_operation_xyz
x,y,z
1/2-x,-y,z
1/2+x,-y,-z
-x,y,-z
-x,-y,-z
1/2+x,y,-z
1/2-x,y,z
x,-y,z
loop_
_atom_site_type_symbol
_atom_site_label
_atom_site_fract_x
_atom_site_fract_y
_atom_site_fract_z
Si Si1 0.424002 0.182877 0.026049
Si Si2 0.828338 0.817891 0.233725
Si Si3 0.101453 0.682398 0.285968
Si Si4 0.546014 0.183403 0.322782
Si Si5 0.672190 0.182333 0.088048
Si Si6 0.829185 0.681226 0.577592
Si Si7 0.924357 0.830401 0.468332
Si Si8 0.832689 0.181796 0.846957
O O1 0.389147 0.239499 0.096208
O O2 0.426046 0.000000 0.028156
O O3 0.500000 0.245404 0.000000
O O4 0.374923 0.254058 0.969162
O O5 0.750000 0.750820 0.249510
O O6 0.885523 0.753998 0.284380
O O7 0.854700 0.767330 0.160656
O O8 0.824312 0.000000 0.237696
O O9 0.102246 0.500000 0.282653
O O10 0.137779 0.744672 0.353763
O O11 0.144115 0.745125 0.222795
O O12 0.021389 0.742280 0.287298
O O13 0.560969 0.245557 0.396746
O O14 0.536780 0.000000 0.321178
O O15 0.750000 0.248058 0.076853
O O16 0.671785 0.000000 0.082139
O O17 0.750000 0.747622 0.570933
O O18 0.828435 0.500000 0.580299
O O19 0.873030 0.728995 0.512956
O O20 0.000000 0.845340 0.500000
O O21 0.890119 0.000000 0.460711
O O22 0.750000 0.227232 0.862939
O O23 0.838104 0.000000 0.840472
#
# Coordination Sequence:
#
# PCOD8211848 Si02
#       8
#     8   8   8   8   8   8   8   8
#     4   9  17  27  44  75 110 139 171 215 269 323
#     4   8  15  27  46  75 107 138 172 213 264 320
#     4  11  23  38  57  80 109 147 190 233 277 326
#     4  10  20  34  56  82 113 144 179 225 272 329
#     4   8  13  23  40  64  97 133 165 201 250 308
#     4  10  22  39  58  80 106 141 188 234 273 324
#     4  10  20  35  54  81 112 141 174 217 275 334
#     4  10  21  36  55  81 113 146 182 229 283 334
#
# _framework density 19.320912
#
# number of rings (size 3 to 8) (size 9 to 14) (size 15 to 20)
#    0.000    2.500    1.250    1.875    1.750    4.250 
#    0.000    1.250    0.000    0.750    0.000    0.000 
#    0.000    0.000    0.000    0.000    0.000    0.000 
#
# Total GULP energy -792955.436227 kJ/mol
# GULP energy per Si atom -12389.928691 kJ/mol
# Density = 1.927694 g / cm^3
# Si number density = 19.320912 Si / 1000 Ang^3
#
#
#
# Elastic Constant Matrix: (Units=GPa)
#
#
# Indices 1 2 3 4 5 6 
#
# 1 120.0308 20.4075 77.2069 0.0000 0.0000 0.0000
# 2 20.4075 21.1346 19.0788 0.0000 0.0000 0.0000
# 3 77.2069 19.0788 141.7742 0.0000 0.0000 0.0000
# 4 0.0000 0.0000 0.0000 25.1887 0.0000 0.0000
# 5 0.0000 0.0000 0.0000 0.0000 42.3210 0.0000
# 6 0.0000 0.0000 0.0000 0.0000 0.0000 120.6164
#
#
#
# Elastic Compliance Matrix: (Units=1/GPa)
#
#
# Indices 1 2 3 4 5 6 
#
# 1 0.013778 -0.007434 -0.006503 0.000000 0.000000 0.000000
# 2 -0.007434 0.057869 -0.003739 0.000000 0.000000 0.000000
# 3 -0.006503 -0.003739 0.011098 0.000000 0.000000 0.000000
# 4 0.000000 0.000000 0.000000 0.039700 0.000000 0.000000
# 5 0.000000 0.000000 0.000000 0.000000 0.023629 0.000000
# 6 0.000000 0.000000 0.000000 0.000000 0.000000 0.008291
#
#
# Mechanical properties :
#
#
# Convention : Reuss Voigt Hill
#
# Bulk Modulus (GPa) = 21.09994 57.36955 39.23475
# Shear Modulus (GPa) = 24.32926 48.70832 36.51879
#
# Velocity S-wave (km/s) = 3.55240 5.02642 4.35226
# Velocity P-wave (km/s) = 5.26977 7.96517 6.75331
#
# Compressibility (1/GPa) = 0.04739349
#
# Stress axis : x y z
#
# Youngs Moduli (GPa) = 72.58087 17.28036 90.10723
#
# Poissons Ratio (x) = 0.12845 0.58594
# Poissons Ratio (y) = 0.53953 0.33695
# Poissons Ratio (z) = 0.47197 0.06462
#
# Static dielectric constant tensor:
#      x y z
#    x 3.847160 0.000000 0.000000 
#    y 0.000000 3.028720 0.000000 
#    z 0.000000 0.000000 4.012250 
# 
# 
# High freq. dielectric constant tensor:
#      x y z
#    x 1.764150 0.000000 0.000000 
#    y 0.000000 1.696420 0.000000 
#    z 0.000000 0.000000 1.767540 
# 
# From -- ./inp_files/33953.got.cif
#   From: 2010.03.12/outbox.cif.g09.slc.cpg/sg51_17_cif.got.tgz:33953.got - 2010.04.16 13:43:02.
