data_PCOD8211840
_publ_section_title
;
Structure prediction by ZEFSAII (Michael W. Deem and Ramdas Pophale) SiO2 
 PCOD8211840
Probable space group: P M M A
;
_chemical_formula_sum "Si O2"
_cell_formula_units_Z 48
_cell_length_a 17.979691
_cell_length_b 7.779180
_cell_length_c 18.420196
_cell_angle_alpha 90.000000
_cell_angle_beta 90.000000
_cell_angle_gamma 90.000000
_cell_volume 2576.382207
_symmetry_space_group_name_H-M "P M M A"
_symmetry_group_IT_number 51
_symmetry_cell_setting 'orthorhombic'
loop_
_space_group_symop_operation_xyz
x,y,z
1/2-x,-y,z
1/2+x,-y,-z
-x,y,-z
-x,-y,-z
1/2+x,y,-z
1/2-x,y,z
x,-y,z
loop_
_atom_site_type_symbol
_atom_site_label
_atom_site_fract_x
_atom_site_fract_y
_atom_site_fract_z
Si Si1 0.167585 0.196778 0.717750
Si Si2 0.984552 0.500000 0.915718
Si Si3 0.167207 0.798749 0.413195
Si Si4 0.166738 0.500000 0.162997
Si Si5 0.461107 0.801529 0.818858
Si Si6 0.887798 0.803190 0.740308
Si Si7 0.666054 0.302113 0.434877
O O1 0.250000 0.285580 0.721415
O O2 0.112408 0.272192 0.778696
O O3 0.131686 0.213272 0.636846
O O4 0.176099 0.000000 0.737215
O O5 0.895858 0.500000 0.899972
O O6 0.021801 0.326062 0.884991
O O7 0.000000 0.500000 0.000000
O O8 0.250000 0.715895 0.406669
O O9 0.119649 0.742307 0.343283
O O10 0.126144 0.738054 0.487952
O O11 0.174037 0.000000 0.415739
O O12 0.250000 0.500000 0.128850
O O13 0.159337 0.673089 0.210433
O O14 0.525865 0.790539 0.759347
O O15 0.452997 0.000000 0.846642
O O16 0.858362 0.000000 0.751440
O O17 0.750000 0.231566 0.443665
O O18 0.663082 0.500000 0.417297
#
# Coordination Sequence:
#
# PCOD8211840 Si02
#       7
#     8   4   8   4   8   8   8
#     4   9  17  31  51  73  98 132 176 222 262 300
#     4  10  22  40  60  83 111 139 165 197 246 312
#     4   9  16  26  41  62  91 129 172 216 258 299
#     4  10  20  34  56  81 107 137 171 209 249 296
#     4   9  19  36  57  79 104 135 170 208 254 310
#     4   9  18  32  50  74 104 138 175 215 259 304
#     4   9  17  26  39  63  95 131 172 216 261 305
#
# _framework density 18.630775
#
# number of rings (size 3 to 8) (size 9 to 14) (size 15 to 20)
#    0.000    2.833    0.000    1.000    2.333    3.333 
#    0.000    1.667    0.000    5.000    0.000    0.000 
#    0.000    0.000    0.000    0.000    0.000    0.000 
#
# Total GULP energy -594713.243509 kJ/mol
# GULP energy per Si atom -12389.859240 kJ/mol
# Density = 1.858837 g / cm^3
# Si number density = 18.630775 Si / 1000 Ang^3
#
#
#
# Elastic Constant Matrix: (Units=GPa)
#
#
# Indices 1 2 3 4 5 6 
#
# 1 79.3507 33.8667 64.4658 0.0000 0.0000 0.0000
# 2 33.8667 70.2290 48.7183 0.0000 0.0000 0.0000
# 3 64.4658 48.7183 148.4081 0.0000 0.0000 0.0000
# 4 0.0000 0.0000 0.0000 24.1391 0.0000 0.0000
# 5 0.0000 0.0000 0.0000 0.0000 17.6907 0.0000
# 6 0.0000 0.0000 0.0000 0.0000 0.0000 15.3461
#
#
#
# Elastic Compliance Matrix: (Units=1/GPa)
#
#
# Indices 1 2 3 4 5 6 
#
# 1 0.020673 -0.004842 -0.007390 0.000000 0.000000 0.000000
# 2 -0.004842 0.019572 -0.004322 0.000000 0.000000 0.000000
# 3 -0.007390 -0.004322 0.011367 0.000000 0.000000 0.000000
# 4 0.000000 0.000000 0.000000 0.041427 0.000000 0.000000
# 5 0.000000 0.000000 0.000000 0.000000 0.056527 0.000000
# 6 0.000000 0.000000 0.000000 0.000000 0.000000 0.065163
#
#
# Mechanical properties :
#
#
# Convention : Reuss Voigt Hill
#
# Bulk Modulus (GPa) = 54.04356 65.78772 59.91564
# Shear Modulus (GPa) = 19.68463 21.49766 20.59114
#
# Velocity S-wave (km/s) = 3.25401 3.40056 3.32809
# Velocity P-wave (km/s) = 6.57182 7.12786 6.85548
#
# Compressibility (1/GPa) = 0.01850359
#
# Stress axis : x y z
#
# Youngs Moduli (GPa) = 48.37209 51.09289 87.97357
#
# Poissons Ratio (x) = 0.24742 0.65016
# Poissons Ratio (y) = 0.23424 0.38018
# Poissons Ratio (z) = 0.35749 0.22080
#
# Static dielectric constant tensor:
#      x y z
#    x 3.508160 0.000000 0.000000 
#    y 0.000000 3.481040 0.000000 
#    z 0.000000 0.000000 3.237760 
# 
# 
# High freq. dielectric constant tensor:
#      x y z
#    x 1.694300 0.000000 0.000000 
#    y 0.000000 1.728400 0.000000 
#    z 0.000000 0.000000 1.700050 
# 
# From -- ./inp_files/24856.got.cif
#   From: 2010.03.12/outbox.cif.g09.slc.cpg/sg51_13_cif.got.tgz:24856.got - 2010.04.16 13:43:02.
