data_PCOD8211846
_publ_section_title
;
Structure prediction by ZEFSAII (Michael W. Deem and Ramdas Pophale) SiO2 
 PCOD8211846
Probable space group: P M M A
;
_chemical_formula_sum "Si O2"
_cell_formula_units_Z 56
_cell_length_a 14.404447
_cell_length_b 9.770459
_cell_length_c 22.006864
_cell_angle_alpha 90.000000
_cell_angle_beta 90.000000
_cell_angle_gamma 90.000000
_cell_volume 3097.203320
_symmetry_space_group_name_H-M "P M M A"
_symmetry_group_IT_number 51
_symmetry_cell_setting 'orthorhombic'
loop_
_space_group_symop_operation_xyz
x,y,z
1/2-x,-y,z
1/2+x,-y,-z
-x,y,-z
-x,-y,-z
1/2+x,y,-z
1/2-x,y,z
x,-y,z
loop_
_atom_site_type_symbol
_atom_site_label
_atom_site_fract_x
_atom_site_fract_y
_atom_site_fract_z
Si Si1 0.975069 0.842365 0.295061
Si Si2 0.946851 0.159236 0.157176
Si Si3 0.750000 0.344181 0.985159
Si Si4 0.250000 0.157361 0.897470
Si Si5 0.639739 0.651638 0.519083
Si Si6 0.141574 0.342186 0.616047
Si Si7 0.354811 0.156461 0.374522
Si Si8 0.050505 0.342299 0.062067
O O1 0.966497 0.794849 0.225801
O O2 0.907623 0.753068 0.335658
O O3 0.081683 0.820042 0.315488
O O4 0.944742 0.000000 0.302299
O O5 0.839735 0.191885 0.142815
O O6 0.014554 0.247054 0.115483
O O7 0.970004 0.000000 0.146731
O O8 0.750000 0.500000 0.009562
O O9 0.839750 0.316327 0.943910
O O10 0.750000 0.247434 0.042797
O O11 0.250000 0.000000 0.918411
O O12 0.750000 0.653464 0.516353
O O13 0.604393 0.500000 0.536979
O O14 0.602680 0.690804 0.451871
O O15 0.603307 0.756714 0.569584
O O16 0.250000 0.309560 0.619409
O O17 0.122014 0.500000 0.632161
O O18 0.250000 0.202230 0.357525
O O19 0.356886 0.000000 0.396079
O O20 0.028000 0.500000 0.077647
O O21 0.000000 0.298804 0.000000
#
# Coordination Sequence:
#
# PCOD8211846 Si02
#       8
#     8   8   4   4   8   8   8   8
#     4  10  22  37  53  76 106 143 181 218 262 312
#     4  10  22  38  55  80 112 144 180 219 260 312
#     4  10  20  36  58  86 114 140 173 216 267 316
#     4  10  20  34  56  82 110 142 175 214 261 314
#     4   8  15  30  52  76 102 132 170 218 272 322
#     4   9  19  35  53  77 108 139 173 217 267 320
#     4   9  18  34  54  74 100 135 178 224 267 315
#     4  10  20  36  59  84 112 143 176 218 265 311
#
# _framework density 18.080826999999999
#
# number of rings (size 3 to 8) (size 9 to 14) (size 15 to 20)
#    0.000    2.571    1.429    0.857    1.000    3.429 
#    1.286    4.286    0.000    0.000    0.000    0.000 
#    0.000    0.000    0.000    0.000    0.000    0.000 
#
# Total GULP energy -694411.641837 kJ/mol
# GULP energy per Si atom -12400.207890 kJ/mol
# Density = 1.803967 g / cm^3
# Si number density = 18.080827 Si / 1000 Ang^3
#
#
#
# Elastic Constant Matrix: (Units=GPa)
#
#
# Indices 1 2 3 4 5 6 
#
# 1 99.0538 52.1466 64.5748 0.0000 0.0000 0.0000
# 2 52.1466 81.7840 79.4883 0.0000 0.0000 0.0000
# 3 64.5748 79.4883 150.4356 0.0000 0.0000 0.0000
# 4 0.0000 0.0000 0.0000 -57.7728 0.0000 0.0000
# 5 0.0000 0.0000 0.0000 0.0000 24.3320 0.0000
# 6 0.0000 0.0000 0.0000 0.0000 0.0000 24.5390
#
#
#
# Elastic Compliance Matrix: (Units=1/GPa)
#
#
# Indices 1 2 3 4 5 6 
#
# 1 0.015831 -0.007173 -0.003005 0.000000 0.000000 0.000000
# 2 -0.007173 0.028386 -0.011920 0.000000 0.000000 0.000000
# 3 -0.003005 -0.011920 0.014236 0.000000 0.000000 0.000000
# 4 0.000000 0.000000 0.000000 -0.017309 0.000000 0.000000
# 5 0.000000 0.000000 0.000000 0.000000 0.041098 0.000000
# 6 0.000000 0.000000 0.000000 0.000000 0.000000 0.040752
#
#
# Mechanical properties :
#
#
# Convention : Reuss Voigt Hill
#
# Bulk Modulus (GPa) = 70.14396 80.41031 75.27713
# Shear Modulus (GPa) = 29.07952 7.22387 18.15170
#
# Velocity S-wave (km/s) = 4.01472 2.00100 3.17191
# Velocity P-wave (km/s) = 7.76978 7.06455 7.42554
#
# Compressibility (1/GPa) = 0.01425640
#
# Stress axis : x y z
#
# Youngs Moduli (GPa) = 63.16724 35.22825 70.24583
#
# Poissons Ratio (x) = 0.25270 0.21111
# Poissons Ratio (y) = 0.45311 0.83732
# Poissons Ratio (z) = 0.18984 0.41992
#
# Static dielectric constant tensor:
#      x y z
#    x 3.461700 0.000000 0.000000 
#    y 0.000000 3.412190 0.000000 
#    z 0.000000 0.000000 3.295090 
# 
# 
# High freq. dielectric constant tensor:
#      x y z
#    x 1.708550 0.000000 0.000000 
#    y 0.000000 1.699600 0.000000 
#    z 0.000000 0.000000 1.689180 
# 
# From -- ./inp_files/33557.got.cif
#   From: 2010.03.12/outbox.cif.g09.slc.cpg/sg51_17_cif.got.tgz:33557.got - 2010.04.16 13:43:02.
