data_PCOD8211601
_publ_section_title
;
Structure prediction by ZEFSAII (Michael W. Deem and Ramdas Pophale) SiO2 
 PCOD8211601
Probable space group: P M M A
;
_chemical_formula_sum "Si O2"
_cell_formula_units_Z 40
_cell_length_a 9.607805
_cell_length_b 13.289678
_cell_length_c 16.348738
_cell_angle_alpha 90.000000
_cell_angle_beta 90.000000
_cell_angle_gamma 90.000000
_cell_volume 2087.482640
_symmetry_space_group_name_H-M "P M M A"
_symmetry_group_IT_number 51
_symmetry_cell_setting 'orthorhombic'
loop_
_space_group_symop_operation_xyz
x,y,z
1/2-x,-y,z
1/2+x,-y,-z
-x,y,-z
-x,-y,-z
1/2+x,y,-z
1/2-x,y,z
x,-y,z
loop_
_atom_site_type_symbol
_atom_site_label
_atom_site_fract_x
_atom_site_fract_y
_atom_site_fract_z
Si Si1 0.905621 0.115378 0.857468
Si Si2 0.971125 0.805785 0.685055
Si Si3 0.750000 0.121318 0.562896
Si Si4 0.911958 0.711503 0.075131
Si Si5 0.089499 0.385966 0.752729
Si Si6 0.750000 0.116466 0.379019
O O1 0.750000 0.134623 0.892931
O O2 0.898168 0.142672 0.761890
O O3 0.020915 0.180111 0.904538
O O4 0.949559 0.000000 0.868446
O O5 0.885308 0.829965 0.603942
O O6 0.989323 0.685743 0.699172
O O7 0.121795 0.852699 0.676037
O O8 0.750000 0.162771 0.470271
O O9 0.750000 0.000000 0.571166
O O10 0.750000 0.725631 0.051629
O O11 0.928706 0.636883 0.151266
O O12 0.000000 0.664314 0.000000
O O13 0.250000 0.369212 0.726939
O O14 0.042353 0.500000 0.736167
O O15 0.750000 0.000000 0.394733
#
# Coordination Sequence:
#
# PCOD8211601 Si02
#       6
#     8   8   4   8   8   4
#     4  10  20  34  54  78 110 153 191 227 274 329
#     4  11  20  36  57  83 114 153 192 235 280 333
#     4  11  22  36  55  83 124 157 181 229 285 333
#     4  10  21  36  56  82 113 145 181 230 280 334
#     4   9  19  38  62  84 107 145 192 238 287 330
#     4  11  22  34  55  87 118 153 193 225 275 345
#
# _framework density 19.161836000000001
#
# number of rings (size 3 to 8) (size 9 to 14) (size 15 to 20)
#    0.000    1.800    2.000    3.000    1.400    2.800 
#    0.000    0.500    0.000    3.600    0.000    0.000 
#    0.000    0.000    0.000    0.000    0.000    0.000 
#
# Total GULP energy -495989.295214 kJ/mol
# GULP energy per Si atom -12399.732380 kJ/mol
# Density = 1.911822 g / cm^3
# Si number density = 19.161836 Si / 1000 Ang^3
#
#
#
# Elastic Constant Matrix: (Units=GPa)
#
#
# Indices 1 2 3 4 5 6 
#
# 1 104.4798 35.4586 11.4857 0.0000 0.0000 0.0000
# 2 35.4586 98.2921 21.6571 0.0000 0.0000 0.0000
# 3 11.4857 21.6571 46.4144 0.0000 0.0000 0.0000
# 4 0.0000 0.0000 0.0000 18.4763 0.0000 0.0000
# 5 0.0000 0.0000 0.0000 0.0000 31.1534 0.0000
# 6 0.0000 0.0000 0.0000 0.0000 0.0000 25.2051
#
#
#
# Elastic Compliance Matrix: (Units=1/GPa)
#
#
# Indices 1 2 3 4 5 6 
#
# 1 0.010945 -0.003736 -0.000965 0.000000 0.000000 0.000000
# 2 -0.003736 0.012615 -0.004962 0.000000 0.000000 0.000000
# 3 -0.000965 -0.004962 0.024099 0.000000 0.000000 0.000000
# 4 0.000000 0.000000 0.000000 0.054123 0.000000 0.000000
# 5 0.000000 0.000000 0.000000 0.000000 0.032099 0.000000
# 6 0.000000 0.000000 0.000000 0.000000 0.000000 0.039674
#
#
# Mechanical properties :
#
#
# Convention : Reuss Voigt Hill
#
# Bulk Modulus (GPa) = 35.29402 42.93213 39.11308
# Shear Modulus (GPa) = 24.71263 27.00597 25.85930
#
# Velocity S-wave (km/s) = 3.59511 3.75822 3.67757
# Velocity P-wave (km/s) = 5.97427 6.42541 6.20395
#
# Compressibility (1/GPa) = 0.02833341
#
# Stress axis : x y z
#
# Youngs Moduli (GPa) = 91.36424 79.27307 41.49549
#
# Poissons Ratio (x) = 0.29614 0.04006
# Poissons Ratio (y) = 0.34131 0.20588
# Poissons Ratio (z) = 0.08820 0.39332
#
# Static dielectric constant tensor:
#      x y z
#    x 3.587820 0.000000 0.000000 
#    y 0.000000 3.396870 0.000000 
#    z 0.000000 0.000000 3.547490 
# 
# 
# High freq. dielectric constant tensor:
#      x y z
#    x 1.753060 0.000000 0.000000 
#    y 0.000000 1.730910 0.000000 
#    z 0.000000 0.000000 1.740600 
# 
# From -- ./inp_files/20539.got.cif
#   From: 2010.03.12/outbox.cif.g09.slc.cpg/sg51_11_cif.got.tgz:20539.got - 2010.04.16 13:43:02.
