data_PCOD8211134
_publ_section_title
;
Structure prediction by ZEFSAII (Michael W. Deem and Ramdas Pophale) SiO2 
 PCOD8211134
Probable space group: P M M A
;
_chemical_formula_sum "Si O2"
_cell_formula_units_Z 64
_cell_length_a 14.439197
_cell_length_b 9.145012
_cell_length_c 24.319095
_cell_angle_alpha 90.000000
_cell_angle_beta 90.000000
_cell_angle_gamma 90.000000
_cell_volume 3211.254535
_symmetry_space_group_name_H-M "P M M A"
_symmetry_group_IT_number 51
_symmetry_cell_setting 'orthorhombic'
loop_
_space_group_symop_operation_xyz
x,y,z
1/2-x,-y,z
1/2+x,-y,-z
-x,y,-z
-x,-y,-z
1/2+x,y,-z
1/2-x,y,z
x,-y,z
loop_
_atom_site_type_symbol
_atom_site_label
_atom_site_fract_x
_atom_site_fract_y
_atom_site_fract_z
Si Si1 0.853662 0.337000 0.878653
Si Si2 0.048943 0.832735 0.733190
Si Si3 0.528703 0.327551 0.372401
Si Si4 0.355342 0.826049 0.846006
Si Si5 0.855473 0.831139 0.588485
Si Si6 0.857514 0.834895 0.460877
Si Si7 0.994552 0.827279 0.061442
Si Si8 0.149554 0.162431 0.228704
O O1 0.750000 0.336176 0.902231
O O2 0.896519 0.500000 0.883282
O O3 0.909193 0.218352 0.912546
O O4 0.854825 0.289713 0.815660
O O5 0.092906 0.772096 0.790308
O O6 0.081896 0.737242 0.681288
O O7 0.937309 0.817138 0.731483
O O8 0.080569 0.000000 0.724502
O O9 0.526846 0.500000 0.367472
O O10 0.423772 0.268341 0.375755
O O11 0.584615 0.280835 0.426246
O O12 0.250000 0.765770 0.847306
O O13 0.410043 0.766915 0.900233
O O14 0.356046 0.000000 0.846785
O O15 0.750000 0.782660 0.600314
O O16 0.879537 0.808597 0.524567
O O17 0.869738 0.000000 0.605147
O O18 0.750000 0.810022 0.448742
O O19 0.886704 0.000000 0.444293
O O20 0.987279 0.000000 0.058736
O O21 0.000000 0.760476 0.000000
O O22 0.250000 0.173870 0.259748
O O23 0.141400 0.000000 0.201205
#
# Coordination Sequence:
#
# PCOD8211134 Si02
#       8
#     8   8   8   8   8   8   8   8
#     4  10  20  33  52  79 112 147 179 216 269 334
#     4  10  20  36  56  77 105 148 197 239 280 331
#     4  12  25  36  52  84 123 155 186 234 293 351
#     4   9  18  35  58  83 110 142 186 237 285 331
#     4   9  19  38  63  87 112 148 195 242 285 338
#     4   9  19  38  63  86 109 145 196 246 288 336
#     4  10  20  35  58  87 115 144 184 235 285 333
#     4   9  17  32  56  81 102 130 177 233 280 326
#
# _framework density 19.929904000000001
#
# number of rings (size 3 to 8) (size 9 to 14) (size 15 to 20)
#    0.000    2.250    1.250    2.625    0.000    5.500 
#    0.000    5.000    0.000    1.125    0.000    0.000 
#    0.000    0.000    0.000    0.000    0.000    0.000 
#
# Total GULP energy -793281.639601 kJ/mol
# GULP energy per Si atom -12395.025619 kJ/mol
# Density = 1.988454 g / cm^3
# Si number density = 19.929904 Si / 1000 Ang^3
#
#
#
# Elastic Constant Matrix: (Units=GPa)
#
#
# Indices 1 2 3 4 5 6 
#
# 1 85.8166 31.5109 39.8069 0.0000 0.0000 0.0000
# 2 31.5109 54.0203 38.8670 0.0000 0.0000 0.0000
# 3 39.8069 38.8670 98.1448 0.0000 0.0000 0.0000
# 4 0.0000 0.0000 0.0000 8.0389 0.0000 0.0000
# 5 0.0000 0.0000 0.0000 0.0000 12.8878 0.0000
# 6 0.0000 0.0000 0.0000 0.0000 0.0000 14.4980
#
#
#
# Elastic Compliance Matrix: (Units=1/GPa)
#
#
# Indices 1 2 3 4 5 6 
#
# 1 0.015810 -0.006445 -0.003860 0.000000 0.000000 0.000000
# 2 -0.006445 0.028515 -0.008678 0.000000 0.000000 0.000000
# 3 -0.003860 -0.008678 0.015191 0.000000 0.000000 0.000000
# 4 0.000000 0.000000 0.000000 0.124395 0.000000 0.000000
# 5 0.000000 0.000000 0.000000 0.000000 0.077593 0.000000
# 6 0.000000 0.000000 0.000000 0.000000 0.000000 0.068975
#
#
# Mechanical properties :
#
#
# Convention : Reuss Voigt Hill
#
# Bulk Modulus (GPa) = 46.40470 50.92791 48.66631
# Shear Modulus (GPa) = 13.31101 15.60474 14.45787
#
# Velocity S-wave (km/s) = 2.58716 2.80122 2.69631
# Velocity P-wave (km/s) = 5.67971 6.00595 5.84510
#
# Compressibility (1/GPa) = 0.02154954
#
# Stress axis : x y z
#
# Youngs Moduli (GPa) = 63.25207 35.06936 65.82645
#
# Poissons Ratio (x) = 0.22601 0.25410
# Poissons Ratio (y) = 0.40765 0.57127
# Poissons Ratio (z) = 0.24416 0.30435
#
# Static dielectric constant tensor:
#      x y z
#    x 3.803710 0.000000 0.000000 
#    y 0.000000 3.315230 0.000000 
#    z 0.000000 0.000000 3.639660 
# 
# 
# High freq. dielectric constant tensor:
#      x y z
#    x 1.782030 0.000000 0.000000 
#    y 0.000000 1.744530 0.000000 
#    z 0.000000 0.000000 1.772120 
# 
# From -- ./inp_files/35735.got.cif
#   From: 2010.03.12/outbox.cif.g09.slc.cpg/sg51_18_cif.got.tgz:35735.got - 2010.04.16 13:43:02.
