data_PCOD8211320
_publ_section_title
;
Structure prediction by ZEFSAII (Michael W. Deem and Ramdas Pophale) SiO2 
 PCOD8211320
Probable space group: P M M A
;
_chemical_formula_sum "Si O2"
_cell_formula_units_Z 64
_cell_length_a 17.908233
_cell_length_b 15.963469
_cell_length_c 12.122187
_cell_angle_alpha 90.000000
_cell_angle_beta 90.000000
_cell_angle_gamma 90.000000
_cell_volume 3465.460785
_symmetry_space_group_name_H-M "P M M A"
_symmetry_group_IT_number 51
_symmetry_cell_setting 'orthorhombic'
loop_
_space_group_symop_operation_xyz
x,y,z
1/2-x,-y,z
1/2+x,-y,-z
-x,y,-z
-x,-y,-z
1/2+x,y,-z
1/2-x,y,z
x,-y,z
loop_
_atom_site_type_symbol
_atom_site_label
_atom_site_fract_x
_atom_site_fract_y
_atom_site_fract_z
Si Si1 0.164817 0.906264 0.567410
Si Si2 0.833303 0.407538 0.887108
Si Si3 0.334732 0.638903 0.872070
Si Si4 0.913906 0.593850 0.342958
Si Si5 0.668432 0.904132 0.174505
Si Si6 0.087615 0.260067 0.488995
Si Si7 0.951519 0.783786 0.108993
Si Si8 0.553425 0.313310 0.738683
O O1 0.250000 0.902806 0.528002
O O2 0.158307 0.889711 0.696308
O O3 0.122508 0.830682 0.508446
O O4 0.132780 0.000000 0.538565
O O5 0.750000 0.373270 0.860342
O O6 0.843758 0.500000 0.836091
O O7 0.894427 0.346178 0.836376
O O8 0.843345 0.417452 0.018879
O O9 0.250000 0.668383 0.854090
O O10 0.360221 0.589883 0.763021
O O11 0.385398 0.718111 0.893550
O O12 0.913332 0.500000 0.396211
O O13 0.884715 0.665073 0.429309
O O14 0.998030 0.614038 0.303999
O O15 0.750000 0.865552 0.138909
O O16 0.593859 0.869944 0.116484
O O17 0.670353 0.000000 0.141999
O O18 0.105773 0.284238 0.362440
O O19 0.000000 0.249806 0.500000
O O20 0.004919 0.764618 0.213765
O O21 0.000000 0.782995 0.000000
#
# Coordination Sequence:
#
# PCOD8211320 Si02
#       8
#     8   8   8   8   8   8   8   8
#     4   9  18  35  59  84 107 137 180 228 277 327
#     4  10  20  34  52  73  99 137 183 227 271 317
#     4  10  20  35  54  78 107 137 180 237 280 314
#     4  10  21  34  53  79 109 146 184 224 276 331
#     4   9  18  33  55  82 109 138 175 222 277 332
#     4  10  21  35  53  80 114 144 178 220 270 332
#     4  11  20  34  54  79 107 141 185 225 274 327
#     4  10  21  36  51  76 108 144 183 222 270 324
#
# _framework density 18.467962
#
# number of rings (size 3 to 8) (size 9 to 14) (size 15 to 20)
#    0.000    2.125    1.250    4.125    0.000    6.000 
#    0.000    2.500    0.000    0.000    0.000    1.750 
#    0.000    0.000    0.000    0.000    0.000    0.000 
#
# Total GULP energy -793077.622917 kJ/mol
# GULP energy per Si atom -12391.837858 kJ/mol
# Density = 1.842593 g / cm^3
# Si number density = 18.467962 Si / 1000 Ang^3
#
#
#
# Elastic Constant Matrix: (Units=GPa)
#
#
# Indices 1 2 3 4 5 6 
#
# 1 70.7087 27.9589 30.0602 0.0000 0.0000 0.0000
# 2 27.9589 86.1357 33.2194 0.0000 0.0000 0.0000
# 3 30.0602 33.2194 78.9601 0.0000 0.0000 0.0000
# 4 0.0000 0.0000 0.0000 19.5501 0.0000 0.0000
# 5 0.0000 0.0000 0.0000 0.0000 6.7489 0.0000
# 6 0.0000 0.0000 0.0000 0.0000 0.0000 32.5490
#
#
#
# Elastic Compliance Matrix: (Units=1/GPa)
#
#
# Indices 1 2 3 4 5 6 
#
# 1 0.017852 -0.003788 -0.005203 0.000000 0.000000 0.000000
# 2 -0.003788 0.014662 -0.004726 0.000000 0.000000 0.000000
# 3 -0.005203 -0.004726 0.016634 0.000000 0.000000 0.000000
# 4 0.000000 0.000000 0.000000 0.051151 0.000000 0.000000
# 5 0.000000 0.000000 0.000000 0.000000 0.148171 0.000000
# 6 0.000000 0.000000 0.000000 0.000000 0.000000 0.030723
#
#
# Mechanical properties :
#
#
# Convention : Reuss Voigt Hill
#
# Bulk Modulus (GPa) = 46.05406 46.47575 46.26490
# Shear Modulus (GPa) = 15.93043 21.40733 18.66888
#
# Velocity S-wave (km/s) = 2.94019 3.40834 3.18288
# Velocity P-wave (km/s) = 6.04299 6.38038 6.21397
#
# Compressibility (1/GPa) = 0.02171361
#
# Stress axis : x y z
#
# Youngs Moduli (GPa) = 56.01551 68.20371 60.11905
#
# Poissons Ratio (x) = 0.25837 0.31278
# Poissons Ratio (y) = 0.21220 0.28414
# Poissons Ratio (z) = 0.29143 0.32235
#
# Static dielectric constant tensor:
#      x y z
#    x 3.481700 0.000000 0.000000 
#    y 0.000000 3.398870 0.000000 
#    z 0.000000 0.000000 3.466780 
# 
# 
# High freq. dielectric constant tensor:
#      x y z
#    x 1.715430 0.000000 0.000000 
#    y 0.000000 1.711540 0.000000 
#    z 0.000000 0.000000 1.703050 
# 
# From -- ./inp_files/17525.got.cif
#   From: 2010.03.12/outbox.cif.g09.slc.cpg/sg51_9_cif.got.tgz:17525.got - 2010.04.16 13:43:02.
