data_PCOD8211910
_publ_section_title
;
Structure prediction by ZEFSAII (Michael W. Deem and Ramdas Pophale) SiO2 
 PCOD8211910
Probable space group: P M M A
;
_chemical_formula_sum "Si O2"
_cell_formula_units_Z 30
_cell_length_a 14.434785
_cell_length_b 7.712972
_cell_length_c 14.824483
_cell_angle_alpha 90.000000
_cell_angle_beta 90.000000
_cell_angle_gamma 90.000000
_cell_volume 1650.485187
_symmetry_space_group_name_H-M "P M M A"
_symmetry_group_IT_number 51
_symmetry_cell_setting 'orthorhombic'
loop_
_space_group_symop_operation_xyz
x,y,z
1/2-x,-y,z
1/2+x,-y,-z
-x,y,-z
-x,-y,-z
1/2+x,y,-z
1/2-x,y,z
x,-y,z
loop_
_atom_site_type_symbol
_atom_site_label
_atom_site_fract_x
_atom_site_fract_y
_atom_site_fract_z
Si Si1 0.084360 0.698492 0.350945
Si Si2 0.854251 0.686950 0.845263
Si Si3 0.533047 0.000000 0.899467
Si Si4 0.250000 0.000000 0.627863
Si Si5 0.250000 0.702415 0.484299
Si Si6 0.952044 0.000000 0.296886
O O1 0.047476 0.500000 0.362216
O O2 0.144373 0.721964 0.261210
O O3 0.155632 0.746736 0.430341
O O4 0.997421 0.830428 0.345008
O O5 0.750000 0.690650 0.879339
O O6 0.899722 0.500000 0.866402
O O7 0.907275 0.828650 0.900203
O O8 0.464620 0.000000 0.812470
O O9 0.500000 0.000000 0.000000
O O10 0.250000 0.176023 0.570820
O O11 0.158026 0.000000 0.689278
O O12 0.250000 0.500000 0.512046
#
# Coordination Sequence:
#
# PCOD8211910 Si02
#       6
#     8   8   4   2   4   4
#     4   9  17  33  58  86 109 134 173 228 278 314
#     4   9  16  30  55  84 110 130 158 215 286 331
#     4  10  21  36  54  81 101 138 180 225 268 321
#     4  12  26  40  48  70 114 164 188 212 252 316
#     4  10  20  34  58  87 113 139 179 226 268 320
#     4  10  23  39  54  73 109 151 187 222 270 321
#
# _framework density 18.176473000000001
#
# number of rings (size 3 to 8) (size 9 to 14) (size 15 to 20)
#    0.000    2.400    1.333    1.200    0.000    3.733 
#    2.400    2.667    0.000    0.000    0.000    0.000 
#    0.000    0.000    0.000    0.000    0.000    0.000 
#
# Total GULP energy -371725.650298 kJ/mol
# GULP energy per Si atom -12390.855010 kJ/mol
# Density = 1.813510 g / cm^3
# Si number density = 18.176473 Si / 1000 Ang^3
#
#
#
# Elastic Constant Matrix: (Units=GPa)
#
#
# Indices 1 2 3 4 5 6 
#
# 1 115.6279 64.4072 44.1678 0.0000 0.0000 0.0000
# 2 64.4072 132.9968 49.6000 0.0000 0.0000 0.0000
# 3 44.1678 49.6000 83.5242 0.0000 0.0000 0.0000
# 4 0.0000 0.0000 0.0000 -2.7221 0.0000 0.0000
# 5 0.0000 0.0000 0.0000 0.0000 21.1512 0.0000
# 6 0.0000 0.0000 0.0000 0.0000 0.0000 23.0193
#
#
#
# Elastic Compliance Matrix: (Units=1/GPa)
#
#
# Indices 1 2 3 4 5 6 
#
# 1 0.012789 -0.004715 -0.003962 0.000000 0.000000 0.000000
# 2 -0.004715 0.011397 -0.004274 0.000000 0.000000 0.000000
# 3 -0.003962 -0.004274 0.016606 0.000000 0.000000 0.000000
# 4 0.000000 0.000000 0.000000 -0.367367 0.000000 0.000000
# 5 0.000000 0.000000 0.000000 0.000000 0.047279 0.000000
# 6 0.000000 0.000000 0.000000 0.000000 0.000000 0.043442
#
#
# Mechanical properties :
#
#
# Convention : Reuss Voigt Hill
#
# Bulk Modulus (GPa) = 67.17209 72.05543 69.61376
# Shear Modulus (GPa) = -24.39160 19.88796 -2.25182
#
# Velocity S-wave (km/s) = -3.66721 3.31140 -1.11425
# Velocity P-wave (km/s) = 4.37087 7.37215 6.06024
#
# Compressibility (1/GPa) = 0.01488714
#
# Stress axis : x y z
#
# Youngs Moduli (GPa) = 78.19447 87.74547 60.21885
#
# Poissons Ratio (x) = 0.41376 0.23861
# Poissons Ratio (y) = 0.36872 0.25739
# Poissons Ratio (z) = 0.30984 0.37504
#
# Static dielectric constant tensor:
#      x y z
#    x 3.233640 0.000000 0.000000 
#    y 0.000000 3.431100 0.000000 
#    z 0.000000 0.000000 3.046920 
# 
# 
# High freq. dielectric constant tensor:
#      x y z
#    x 1.685580 0.000000 0.000000 
#    y 0.000000 1.728280 0.000000 
#    z 0.000000 0.000000 1.677090 
# 
# From -- ./inp_files/22797.got.cif
#   From: 2010.03.12/outbox.cif.g09.slc.cpg/sg51_12_cif.got.tgz:22797.got - 2010.04.16 13:43:02.
