data_PCOD8211726
_publ_section_title
;
Structure prediction by ZEFSAII (Michael W. Deem and Ramdas Pophale) SiO2 
 PCOD8211726
Probable space group: P M M A
;
_chemical_formula_sum "Si O2"
_cell_formula_units_Z 64
_cell_length_a 13.995487
_cell_length_b 8.937340
_cell_length_c 25.456917
_cell_angle_alpha 90.000000
_cell_angle_beta 90.000000
_cell_angle_gamma 90.000000
_cell_volume 3184.212931
_symmetry_space_group_name_H-M "P M M A"
_symmetry_group_IT_number 51
_symmetry_cell_setting 'orthorhombic'
loop_
_space_group_symop_operation_xyz
x,y,z
1/2-x,-y,z
1/2+x,-y,-z
-x,y,-z
-x,-y,-z
1/2+x,y,-z
1/2-x,y,z
x,-y,z
loop_
_atom_site_type_symbol
_atom_site_label
_atom_site_fract_x
_atom_site_fract_y
_atom_site_fract_z
Si Si1 0.466477 0.324177 0.174959
Si Si2 0.394536 0.662724 0.479604
Si Si3 0.646670 0.675459 0.408552
Si Si4 0.139143 0.672259 0.282128
Si Si5 0.636476 0.669035 0.025160
Si Si6 0.545878 0.824471 0.620155
Si Si7 0.140765 0.823098 0.868043
Si Si8 0.136330 0.171193 0.078921
O O1 0.473258 0.500000 0.165155
O O2 0.418661 0.285377 0.230160
O O3 0.572916 0.253047 0.175420
O O4 0.401888 0.251722 0.130300
O O5 0.500000 0.640614 0.500000
O O6 0.353117 0.500000 0.462354
O O7 0.339767 0.727851 0.530483
O O8 0.391197 0.772059 0.429777
O O9 0.750000 0.706941 0.381102
O O10 0.621101 0.500000 0.407226
O O11 0.561920 0.760455 0.378904
O O12 0.250000 0.706052 0.271732
O O13 0.122607 0.500000 0.297860
O O14 0.101039 0.776529 0.328079
O O15 0.750000 0.669394 0.022071
O O16 0.597066 0.500000 0.030055
O O17 0.603798 0.764870 0.075487
O O18 0.594460 0.745091 0.972581
O O19 0.537436 0.000000 0.617866
O O20 0.250000 0.774217 0.856984
O O21 0.129744 0.000000 0.866395
O O22 0.250000 0.180619 0.079587
O O23 0.101141 0.000000 0.078028
#
# Coordination Sequence:
#
# PCOD8211726 Si02
#       8
#     8   8   8   8   8   8   8   8
#     4  11  23  39  61  86 109 138 184 237 283 329
#     4   8  15  30  52  78 110 150 194 233 270 320
#     4   9  18  34  57  84 116 157 200 236 274 327
#     4  10  23  44  66  84 106 142 188 235 280 329
#     4   9  17  31  53  81 113 148 187 230 271 317
#     4  11  22  35  55  85 119 152 188 234 288 341
#     4  10  21  38  59  83 114 149 182 220 273 337
#     4  10  20  34  54  82 117 153 185 222 276 339
#
# _framework density 20.099160000000001
#
# number of rings (size 3 to 8) (size 9 to 14) (size 15 to 20)
#    0.000    2.250    0.000    3.750    0.000    8.250 
#    0.000    4.375    0.000    0.750    0.000    0.000 
#    0.000    0.000    0.000    0.000    0.000    0.000 
#
# Total GULP energy -793474.735051 kJ/mol
# GULP energy per Si atom -12398.042735 kJ/mol
# Density = 2.005341 g / cm^3
# Si number density = 20.099160 Si / 1000 Ang^3
#
#
#
# Elastic Constant Matrix: (Units=GPa)
#
#
# Indices 1 2 3 4 5 6 
#
# 1 79.6135 37.6087 40.3453 0.0000 0.0000 0.0000
# 2 37.6087 121.1629 55.4329 0.0000 0.0000 0.0000
# 3 40.3453 55.4329 99.1595 0.0000 0.0000 0.0000
# 4 0.0000 0.0000 0.0000 -15.7156 0.0000 0.0000
# 5 0.0000 0.0000 0.0000 0.0000 27.9264 0.0000
# 6 0.0000 0.0000 0.0000 0.0000 0.0000 24.6512
#
#
#
# Elastic Compliance Matrix: (Units=1/GPa)
#
#
# Indices 1 2 3 4 5 6 
#
# 1 0.016479 -0.002751 -0.005167 0.000000 0.000000 0.000000
# 2 -0.002751 0.011549 -0.005337 0.000000 0.000000 0.000000
# 3 -0.005167 -0.005337 0.015170 0.000000 0.000000 0.000000
# 4 0.000000 0.000000 0.000000 -0.063631 0.000000 0.000000
# 5 0.000000 0.000000 0.000000 0.000000 0.035808 0.000000
# 6 0.000000 0.000000 0.000000 0.000000 0.000000 0.040566
#
#
# Mechanical properties :
#
#
# Convention : Reuss Voigt Hill
#
# Bulk Modulus (GPa) = 59.92120 62.96775 61.44448
# Shear Modulus (GPa) = 56.80952 18.47567 37.64260
#
# Velocity S-wave (km/s) = 5.32222 3.03516 4.33233
# Velocity P-wave (km/s) = 8.22469 6.60905 7.46073
#
# Compressibility (1/GPa) = 0.01668858
#
# Stress axis : x y z
#
# Youngs Moduli (GPa) = 60.68480 86.58824 65.91787
#
# Poissons Ratio (x) = 0.23821 0.34058
# Poissons Ratio (y) = 0.16695 0.35179
# Poissons Ratio (z) = 0.31354 0.46211
#
# Static dielectric constant tensor:
#      x y z
#    x 3.590960 0.000000 0.000000 
#    y 0.000000 3.635040 0.000000 
#    z 0.000000 0.000000 3.680490 
# 
# 
# High freq. dielectric constant tensor:
#      x y z
#    x 1.796280 0.000000 0.000000 
#    y 0.000000 1.781800 0.000000 
#    z 0.000000 0.000000 1.765870 
# 
# From -- ./inp_files/35691.got.cif
#   From: 2010.03.12/outbox.cif.g09.slc.cpg/sg51_18_cif.got.tgz:35691.got - 2010.04.16 13:43:02.
