data_PCOD8211952
_publ_section_title
;
Structure prediction by ZEFSAII (Michael W. Deem and Ramdas Pophale) SiO2 
 PCOD8211952
Probable space group: P M M A
;
_chemical_formula_sum "Si O2"
_cell_formula_units_Z 36
_cell_length_a 8.916787
_cell_length_b 14.956049
_cell_length_c 14.554028
_cell_angle_alpha 90.000000
_cell_angle_beta 90.000000
_cell_angle_gamma 90.000000
_cell_volume 1940.923767
_symmetry_space_group_name_H-M "P M M A"
_symmetry_group_IT_number 51
_symmetry_cell_setting 'orthorhombic'
loop_
_space_group_symop_operation_xyz
x,y,z
1/2-x,-y,z
1/2+x,-y,-z
-x,y,-z
-x,-y,-z
1/2+x,y,-z
1/2-x,y,z
x,-y,z
loop_
_atom_site_type_symbol
_atom_site_label
_atom_site_fract_x
_atom_site_fract_y
_atom_site_fract_z
Si Si1 0.926278 0.399349 0.595791
Si Si2 0.576639 0.104867 0.405538
Si Si3 0.572333 0.760185 0.726474
Si Si4 0.926907 0.306155 0.099962
Si Si5 0.078518 0.500000 0.904901
O O1 0.750000 0.394515 0.581280
O O2 0.976178 0.500000 0.625087
O O3 0.979253 0.329344 0.672776
O O4 0.000000 0.371217 0.500000
O O5 0.500000 0.135647 0.500000
O O6 0.750000 0.133240 0.408918
O O7 0.492950 0.152853 0.322494
O O8 0.556783 0.000000 0.389415
O O9 0.750000 0.767732 0.733033
O O10 0.503204 0.761215 0.828674
O O11 0.750000 0.287367 0.092427
O O12 0.961816 0.405751 0.143480
O O13 0.000000 0.293265 0.000000
O O14 0.250000 0.500000 0.930993
O O15 0.000000 0.500000 0.000000
#
# Coordination Sequence:
#
# PCOD8211952 Si02
#       5
#     8   8   8   8   4
#     4   9  19  34  49  70 103 142 180 217 259 311
#     4  10  21  38  60  85 113 143 177 223 276 329
#     4  11  22  34  54  81 109 144 184 226 272 325
#     4  10  20  35  53  76 107 143 186 232 278 324
#     4   8  16  30  48  70  97 134 179 226 272 314
#
# _framework density 18.54787
#
# number of rings (size 3 to 8) (size 9 to 14) (size 15 to 20)
#    0.000    2.222    0.000    2.667    1.556    5.778 
#    0.000    0.000    0.000    0.667    0.000    0.000 
#    0.000    0.000    0.000    0.000    0.000    0.000 
#
# Total GULP energy -446249.024777 kJ/mol
# GULP energy per Si atom -12395.806244 kJ/mol
# Density = 1.850565 g / cm^3
# Si number density = 18.547870 Si / 1000 Ang^3
#
#
#
# Elastic Constant Matrix: (Units=GPa)
#
#
# Indices 1 2 3 4 5 6 
#
# 1 88.1708 40.5602 57.1290 0.0000 0.0000 0.0000
# 2 40.5602 57.8312 50.4649 0.0000 0.0000 0.0000
# 3 57.1290 50.4649 123.6600 0.0000 0.0000 0.0000
# 4 0.0000 0.0000 0.0000 11.1808 0.0000 0.0000
# 5 0.0000 0.0000 0.0000 0.0000 34.5917 0.0000
# 6 0.0000 0.0000 0.0000 0.0000 0.0000 27.1619
#
#
#
# Elastic Compliance Matrix: (Units=1/GPa)
#
#
# Indices 1 2 3 4 5 6 
#
# 1 0.018591 -0.008610 -0.005075 0.000000 0.000000 0.000000
# 2 -0.008610 0.030843 -0.008609 0.000000 0.000000 0.000000
# 3 -0.005075 -0.008609 0.013944 0.000000 0.000000 0.000000
# 4 0.000000 0.000000 0.000000 0.089439 0.000000 0.000000
# 5 0.000000 0.000000 0.000000 0.000000 0.028909 0.000000
# 6 0.000000 0.000000 0.000000 0.000000 0.000000 0.036816
#
#
# Mechanical properties :
#
#
# Convention : Reuss Voigt Hill
#
# Bulk Modulus (GPa) = 53.21997 62.88557 58.05277
# Shear Modulus (GPa) = 18.56017 22.68740 20.62379
#
# Velocity S-wave (km/s) = 3.16676 3.50119 3.33817
# Velocity P-wave (km/s) = 6.49051 7.09384 6.79887
#
# Compressibility (1/GPa) = 0.01878994
#
# Stress axis : x y z
#
# Youngs Moduli (GPa) = 53.79049 32.42225 71.71301
#
# Poissons Ratio (x) = 0.27916 0.36393
# Poissons Ratio (y) = 0.46315 0.61738
# Poissons Ratio (z) = 0.27298 0.27912
#
# Static dielectric constant tensor:
#      x y z
#    x 3.423250 0.000000 0.000000 
#    y 0.000000 3.430590 0.000000 
#    z 0.000000 0.000000 3.279240 
# 
# 
# High freq. dielectric constant tensor:
#      x y z
#    x 1.731410 0.000000 0.000000 
#    y 0.000000 1.706710 0.000000 
#    z 0.000000 0.000000 1.709630 
# 
# From -- ./inp_files/20305.got.cif
#   From: 2010.03.12/outbox.cif.g09.slc.cpg/sg51_11_cif.got.tgz:20305.got - 2010.04.16 13:43:02.
