data_PCOD8211715
_publ_section_title
;
Structure prediction by ZEFSAII (Michael W. Deem and Ramdas Pophale) SiO2 
 PCOD8211715
Probable space group: P M M A
;
_chemical_formula_sum "Si O2"
_cell_formula_units_Z 56
_cell_length_a 8.842268
_cell_length_b 14.278135
_cell_length_c 23.517599
_cell_angle_alpha 90.000000
_cell_angle_beta 90.000000
_cell_angle_gamma 90.000000
_cell_volume 2969.122654
_symmetry_space_group_name_H-M "P M M A"
_symmetry_group_IT_number 51
_symmetry_cell_setting 'orthorhombic'
loop_
_space_group_symop_operation_xyz
x,y,z
1/2-x,-y,z
1/2+x,-y,-z
-x,y,-z
-x,-y,-z
1/2+x,y,-z
1/2-x,y,z
x,-y,z
loop_
_atom_site_type_symbol
_atom_site_label
_atom_site_fract_x
_atom_site_fract_y
_atom_site_fract_z
Si Si1 0.571432 0.251549 0.359506
Si Si2 0.923288 0.609928 0.558242
Si Si3 0.073311 0.891563 0.441555
Si Si4 0.574142 0.254209 0.060277
Si Si5 0.926454 0.754443 0.761651
Si Si6 0.926452 0.393023 0.857271
Si Si7 0.074294 0.107932 0.844007
O O1 0.750000 0.246565 0.365015
O O2 0.510192 0.344884 0.389267
O O3 0.499489 0.160382 0.388318
O O4 0.525019 0.255759 0.294319
O O5 0.750000 0.643589 0.557538
O O6 0.937187 0.500000 0.566296
O O7 0.000000 0.643597 0.500000
O O8 0.250000 0.870183 0.444123
O O9 0.000000 0.854553 0.500000
O O10 0.037150 0.000000 0.432633
O O11 0.750000 0.268635 0.051251
O O12 0.511607 0.348508 0.089125
O O13 0.536748 0.163184 0.098189
O O14 0.500000 0.236173 0.000000
O O15 0.750000 0.759278 0.746181
O O16 0.965478 0.664396 0.800286
O O17 0.973931 0.849861 0.793307
O O18 0.750000 0.387367 0.870773
O O19 0.980262 0.500000 0.848792
O O20 0.250000 0.119174 0.827686
O O21 0.029229 0.000000 0.852901
#
# Coordination Sequence:
#
# PCOD8211715 Si02
#       7
#     8   8   8   8   8   8   8
#     4  12  24  37  56  81 111 146 183 224 271 325
#     4  10  21  38  59  82 110 143 180 224 273 326
#     4  10  21  38  59  82 109 141 179 224 274 329
#     4  10  20  34  54  82 114 145 179 220 263 311
#     4  10  21  37  56  80 108 138 179 227 272 321
#     4   9  19  37  59  80 105 140 179 220 268 318
#     4   9  19  37  58  79 107 144 182 221 269 321
#
# _framework density 18.860790999999999
#
# number of rings (size 3 to 8) (size 9 to 14) (size 15 to 20)
#    0.000    2.000    0.000    3.429    0.000    5.143 
#    0.000    1.429    0.000    0.000    0.000    0.000 
#    0.000    0.000    0.000    0.000    0.000    0.000 
#
# Total GULP energy -694649.595101 kJ/mol
# GULP energy per Si atom -12404.457055 kJ/mol
# Density = 1.881786 g / cm^3
# Si number density = 18.860791 Si / 1000 Ang^3
#
#
#
# Elastic Constant Matrix: (Units=GPa)
#
#
# Indices 1 2 3 4 5 6 
#
# 1 91.1319 36.2510 50.1566 0.0000 0.0000 0.0000
# 2 36.2510 121.9725 48.6039 0.0000 0.0000 0.0000
# 3 50.1566 48.6039 124.7048 0.0000 0.0000 0.0000
# 4 0.0000 0.0000 0.0000 19.4586 0.0000 0.0000
# 5 0.0000 0.0000 0.0000 0.0000 38.1721 0.0000
# 6 0.0000 0.0000 0.0000 0.0000 0.0000 29.0317
#
#
#
# Elastic Compliance Matrix: (Units=1/GPa)
#
#
# Indices 1 2 3 4 5 6 
#
# 1 0.014652 -0.002375 -0.004967 0.000000 0.000000 0.000000
# 2 -0.002375 0.010091 -0.002978 0.000000 0.000000 0.000000
# 3 -0.004967 -0.002978 0.011177 0.000000 0.000000 0.000000
# 4 0.000000 0.000000 0.000000 0.051391 0.000000 0.000000
# 5 0.000000 0.000000 0.000000 0.000000 0.026197 0.000000
# 6 0.000000 0.000000 0.000000 0.000000 0.000000 0.034445
#
#
# Mechanical properties :
#
#
# Convention : Reuss Voigt Hill
#
# Bulk Modulus (GPa) = 65.44563 67.53691 66.49127
# Shear Modulus (GPa) = 28.78740 30.85234 29.81987
#
# Velocity S-wave (km/s) = 3.91104 4.04888 3.98056
# Velocity P-wave (km/s) = 7.42762 7.59893 7.51377
#
# Compressibility (1/GPa) = 0.01527986
#
# Stress axis : x y z
#
# Youngs Moduli (GPa) = 68.25109 99.09768 89.46682
#
# Poissons Ratio (x) = 0.23538 0.44440
# Poissons Ratio (y) = 0.16211 0.26640
# Poissons Ratio (z) = 0.33902 0.29508
#
# Static dielectric constant tensor:
#      x y z
#    x 3.569120 0.000000 0.000000 
#    y 0.000000 3.551980 0.000000 
#    z 0.000000 0.000000 3.422130 
# 
# 
# High freq. dielectric constant tensor:
#      x y z
#    x 1.743900 0.000000 0.000000 
#    y 0.000000 1.740160 0.000000 
#    z 0.000000 0.000000 1.732080 
# 
# From -- ./inp_files/31931.got.cif
#   From: 2010.03.12/outbox.cif.g09.slc.cpg/sg51_16_cif.got.tgz:31931.got - 2010.04.16 13:43:02.
