data_PCOD8211473
_publ_section_title
;
Structure prediction by ZEFSAII (Michael W. Deem and Ramdas Pophale) SiO2 
 PCOD8211473
Probable space group: P M M A
;
_chemical_formula_sum "Si O2"
_cell_formula_units_Z 64
_cell_length_a 17.960165
_cell_length_b 8.443772
_cell_length_c 20.764672
_cell_angle_alpha 90.000000
_cell_angle_beta 90.000000
_cell_angle_gamma 90.000000
_cell_volume 3148.994452
_symmetry_space_group_name_H-M "P M M A"
_symmetry_group_IT_number 51
_symmetry_cell_setting 'orthorhombic'
loop_
_space_group_symop_operation_xyz
x,y,z
1/2-x,-y,z
1/2+x,-y,-z
-x,y,-z
-x,-y,-z
1/2+x,y,-z
1/2-x,y,z
x,-y,z
loop_
_atom_site_type_symbol
_atom_site_label
_atom_site_fract_x
_atom_site_fract_y
_atom_site_fract_z
Si Si1 0.334016 0.311188 0.500324
Si Si2 0.077205 0.315671 0.123776
Si Si3 0.332999 0.686099 0.754443
Si Si4 0.333621 0.311522 0.248111
Si Si5 0.662928 0.816244 0.993796
Si Si6 0.917438 0.311135 0.625894
Si Si7 0.584384 0.816429 0.124445
Si Si8 0.085521 0.689029 0.628162
O O1 0.250000 0.246135 0.498135
O O2 0.334325 0.500000 0.500153
O O3 0.378032 0.245631 0.438358
O O4 0.373512 0.246306 0.564561
O O5 0.057013 0.500000 0.130540
O O6 0.120431 0.251845 0.186468
O O7 0.002570 0.215690 0.115854
O O8 0.129429 0.290322 0.062468
O O9 0.250000 0.759483 0.762032
O O10 0.326698 0.500000 0.745950
O O11 0.383307 0.720744 0.815852
O O12 0.371954 0.757332 0.690681
O O13 0.250000 0.242490 0.244566
O O14 0.331005 0.500000 0.249022
O O15 0.373071 0.245788 0.312273
O O16 0.750000 0.782697 0.998319
O O17 0.626286 0.759737 0.060319
O O18 0.645298 0.000000 0.980056
O O19 0.917104 0.500000 0.625865
O O20 0.001388 0.245758 0.628568
O O21 0.598984 0.000000 0.137109
O O22 0.085160 0.500000 0.628710
#
# Coordination Sequence:
#
# PCOD8211473 Si02
#       8
#     8   8   8   8   8   8   8   8
#     4   9  15  22  34  55  87 130 175 212 251 306
#     4  11  22  36  56  82 110 139 174 218 267 318
#     4  10  20  34  53  77 105 137 173 216 267 319
#     4   9  17  29  45  68 100 135 169 209 259 311
#     4  10  22  40  59  79 106 140 176 215 261 313
#     4   9  15  23  37  58  89 131 174 210 249 305
#     4  11  23  39  58  79 106 141 179 218 262 313
#     4   9  16  26  40  62  95 132 168 211 264 315
#
# _framework density 20.323947
#
# number of rings (size 3 to 8) (size 9 to 14) (size 15 to 20)
#    0.000    2.250    0.000    3.750    0.000   10.500 
#    0.000    0.000    0.000    0.000    0.000    0.000 
#    0.000    9.000    0.000    5.375    0.000    2.125 
#
# Total GULP energy -793764.356499 kJ/mol
# GULP energy per Si atom -12402.568070 kJ/mol
# Density = 2.027769 g / cm^3
# Si number density = 20.323947 Si / 1000 Ang^3
#
#
#
# Elastic Constant Matrix: (Units=GPa)
#
#
# Indices 1 2 3 4 5 6 
#
# 1 170.6224 7.3895 83.3757 0.0000 0.0000 0.0000
# 2 7.3895 11.3649 10.5103 0.0000 0.0000 0.0000
# 3 83.3757 10.5103 186.4993 0.0000 0.0000 0.0000
# 4 0.0000 0.0000 0.0000 -2.9218 0.0000 0.0000
# 5 0.0000 0.0000 0.0000 0.0000 48.6299 0.0000
# 6 0.0000 0.0000 0.0000 0.0000 0.0000 15.2048
#
#
#
# Elastic Compliance Matrix: (Units=1/GPa)
#
#
# Indices 1 2 3 4 5 6 
#
# 1 0.007537 -0.001883 -0.003263 0.000000 0.000000 0.000000
# 2 -0.001883 0.093299 -0.004416 0.000000 0.000000 0.000000
# 3 -0.003263 -0.004416 0.007070 0.000000 0.000000 0.000000
# 4 0.000000 0.000000 0.000000 -0.342256 0.000000 0.000000
# 5 0.000000 0.000000 0.000000 0.000000 0.020563 0.000000
# 6 0.000000 0.000000 0.000000 0.000000 0.000000 0.065769
#
#
# Mechanical properties :
#
#
# Convention : Reuss Voigt Hill
#
# Bulk Modulus (GPa) = 11.26369 63.44862 37.35616
# Shear Modulus (GPa) = -50.35255 29.99666 -10.17794
#
# Velocity S-wave (km/s) = -4.98285 3.84595 -2.24025
# Velocity P-wave (km/s) = 5.24890 7.14200 3.42471
#
# Compressibility (1/GPa) = 0.08878087
#
# Stress axis : x y z
#
# Youngs Moduli (GPa) = 132.67664 10.71827 141.44741
#
# Poissons Ratio (x) = 0.02018 0.46160
# Poissons Ratio (y) = 0.24978 0.62467
# Poissons Ratio (z) = 0.43298 0.04733
#
# Static dielectric constant tensor:
#      x y z
#    x 3.938810 0.000000 0.000000 
#    y 0.000000 3.020310 0.000000 
#    z 0.000000 0.000000 3.871010 
# 
# 
# High freq. dielectric constant tensor:
#      x y z
#    x 1.814390 0.000000 0.000000 
#    y 0.000000 1.730970 0.000000 
#    z 0.000000 0.000000 1.812720 
# 
# From -- ./inp_files/30661.got.cif
#   From: 2010.03.12/outbox.cif.g09.slc.cpg/sg51_16_cif.got.tgz:30661.got - 2010.04.16 13:43:02.
