data_PCOD8211761
_publ_section_title
;
Structure prediction by ZEFSAII (Michael W. Deem and Ramdas Pophale) SiO2 
 PCOD8211761
Probable space group: P M M A
;
_chemical_formula_sum "Si O2"
_cell_formula_units_Z 64
_cell_length_a 28.079375
_cell_length_b 9.142772
_cell_length_c 12.978840
_cell_angle_alpha 90.000000
_cell_angle_beta 90.000000
_cell_angle_gamma 90.000000
_cell_volume 3331.970940
_symmetry_space_group_name_H-M "P M M A"
_symmetry_group_IT_number 51
_symmetry_cell_setting 'orthorhombic'
loop_
_space_group_symop_operation_xyz
x,y,z
1/2-x,-y,z
1/2+x,-y,-z
-x,y,-z
-x,-y,-z
1/2+x,y,-z
1/2-x,y,z
x,-y,z
loop_
_atom_site_type_symbol
_atom_site_label
_atom_site_fract_x
_atom_site_fract_y
_atom_site_fract_z
Si Si1 0.148756 0.169563 0.524944
Si Si2 0.643006 0.329627 0.865972
Si Si3 0.804024 0.825819 0.269465
Si Si4 0.864353 0.172615 0.074825
Si Si5 0.048157 0.830669 0.447760
Si Si6 0.193859 0.167786 0.316059
Si Si7 0.955157 0.669579 0.760722
Si Si8 0.026578 0.829001 0.896358
O O1 0.171386 0.241100 0.627628
O O2 0.091755 0.193041 0.527046
O O3 0.171230 0.236010 0.420451
O O4 0.162432 0.000000 0.525327
O O5 0.654670 0.500000 0.874644
O O6 0.676975 0.262313 0.779962
O O7 0.587723 0.301683 0.839976
O O8 0.654831 0.252989 0.973758
O O9 0.750000 0.768436 0.263098
O O10 0.832610 0.770566 0.169737
O O11 0.805955 0.000000 0.272654
O O12 0.918609 0.216907 0.097787
O O13 0.859530 0.000000 0.056698
O O14 0.059964 0.739331 0.346835
O O15 0.000000 0.771976 0.500000
O O16 0.042890 0.000000 0.416442
O O17 0.250000 0.178800 0.326013
O O18 0.177047 0.000000 0.299993
O O19 0.965194 0.500000 0.743983
O O20 0.003239 0.743808 0.801418
O O21 0.020260 0.000000 0.875126
O O22 0.000000 0.780511 0.000000
#
# Coordination Sequence:
#
# PCOD8211761 Si02
#       8
#     8   8   8   8   8   8   8   8
#     4   9  17  32  55  84 115 144 178 225 281 340
#     4  11  23  38  56  81 116 154 189 231 288 348
#     4   9  18  33  55  84 115 144 181 235 289 334
#     4  10  21  36  58  85 114 149 194 241 284 338
#     4  10  21  35  57  86 115 147 183 229 283 340
#     4  10  20  35  59  87 111 142 188 239 289 341
#     4  11  23  37  55  79 114 154 188 229 283 347
#     4  10  20  34  55  81 109 146 189 236 282 330
#
# _framework density 19.207851000000002
#
# number of rings (size 3 to 8) (size 9 to 14) (size 15 to 20)
#    0.000    2.000    2.500    1.125    1.750    4.250 
#    0.000    1.250    0.000    0.750    0.000    0.000 
#    0.000    0.000    0.000    0.000    0.000    0.000 
#
# Total GULP energy -793788.062264 kJ/mol
# GULP energy per Si atom -12402.938473 kJ/mol
# Density = 1.916413 g / cm^3
# Si number density = 19.207851 Si / 1000 Ang^3
#
#
#
# Elastic Constant Matrix: (Units=GPa)
#
#
# Indices 1 2 3 4 5 6 
#
# 1 124.0212 28.3697 70.0350 0.0000 0.0000 0.0000
# 2 28.3697 45.3335 40.0961 0.0000 0.0000 0.0000
# 3 70.0350 40.0961 157.4957 0.0000 0.0000 0.0000
# 4 0.0000 0.0000 0.0000 2.3081 0.0000 0.0000
# 5 0.0000 0.0000 0.0000 0.0000 37.1531 0.0000
# 6 0.0000 0.0000 0.0000 0.0000 0.0000 11.4638
#
#
#
# Elastic Compliance Matrix: (Units=1/GPa)
#
#
# Indices 1 2 3 4 5 6 
#
# 1 0.011146 -0.003345 -0.004105 0.000000 0.000000 0.000000
# 2 -0.003345 0.029473 -0.006016 0.000000 0.000000 0.000000
# 3 -0.004105 -0.006016 0.009706 0.000000 0.000000 0.000000
# 4 0.000000 0.000000 0.000000 0.433263 0.000000 0.000000
# 5 0.000000 0.000000 0.000000 0.000000 0.026916 0.000000
# 6 0.000000 0.000000 0.000000 0.000000 0.000000 0.087231
#
#
# Mechanical properties :
#
#
# Convention : Reuss Voigt Hill
#
# Bulk Modulus (GPa) = 42.74580 67.09468 54.92024
# Shear Modulus (GPa) = 7.90557 22.74163 15.32360
#
# Velocity S-wave (km/s) = 2.03095 3.44463 2.82756
# Velocity P-wave (km/s) = 5.27279 7.12933 6.27015
#
# Compressibility (1/GPa) = 0.02339411
#
# Stress axis : x y z
#
# Youngs Moduli (GPa) = 89.71556 33.92960 103.02461
#
# Poissons Ratio (x) = 0.11348 0.42292
# Poissons Ratio (y) = 0.30006 0.61980
# Poissons Ratio (z) = 0.36829 0.20412
#
# Static dielectric constant tensor:
#      x y z
#    x 3.569830 0.000000 0.000000 
#    y 0.000000 3.169960 0.000000 
#    z 0.000000 0.000000 3.585650 
# 
# 
# High freq. dielectric constant tensor:
#      x y z
#    x 1.755620 0.000000 0.000000 
#    y 0.000000 1.707900 0.000000 
#    z 0.000000 0.000000 1.755540 
# 
# From -- ./inp_files/19538.got.cif
#   From: 2010.03.12/outbox.cif.g09.slc.cpg/sg51_10_cif.got.tgz:19538.got - 2010.04.16 13:43:02.
