data_PCOD8211451
_publ_section_title
;
Structure prediction by ZEFSAII (Michael W. Deem and Ramdas Pophale) SiO2 
 PCOD8211451
Probable space group: P M M A
;
_chemical_formula_sum "Si O2"
_cell_formula_units_Z 56
_cell_length_a 15.023045
_cell_length_b 23.101905
_cell_length_c 8.766002
_cell_angle_alpha 90.000000
_cell_angle_beta 90.000000
_cell_angle_gamma 90.000000
_cell_volume 3042.337055
_symmetry_space_group_name_H-M "P M M A"
_symmetry_group_IT_number 51
_symmetry_cell_setting 'orthorhombic'
loop_
_space_group_symop_operation_xyz
x,y,z
1/2-x,-y,z
1/2+x,-y,-z
-x,y,-z
-x,-y,-z
1/2+x,y,-z
1/2-x,y,z
x,-y,z
loop_
_atom_site_type_symbol
_atom_site_label
_atom_site_fract_x
_atom_site_fract_y
_atom_site_fract_z
Si Si1 0.911081 0.739621 0.406519
Si Si2 0.750000 0.068943 0.566377
Si Si3 0.409975 0.131410 0.594667
Si Si4 0.147276 0.567453 0.677588
Si Si5 0.085926 0.935220 0.898153
Si Si6 0.151223 0.641773 0.391644
Si Si7 0.483249 0.653029 0.822554
Si Si8 0.250000 0.931291 0.091203
O O1 0.870844 0.803660 0.383274
O O2 0.845249 0.700151 0.506413
O O3 0.933487 0.709602 0.244428
O O4 0.000000 0.746553 0.500000
O O5 0.662507 0.091203 0.483467
O O6 0.750000 0.094078 0.738073
O O7 0.750000 0.000000 0.561648
O O8 0.500000 0.130117 0.500000
O O9 0.433132 0.106676 0.759146
O O10 0.250000 0.580820 0.721309
O O11 0.126442 0.500000 0.684023
O O12 0.126923 0.589353 0.506003
O O13 0.081356 0.598155 0.797656
O O14 0.110782 0.000000 0.840209
O O15 0.164552 0.908513 0.000301
O O16 0.000000 0.938203 0.000000
O O17 0.250000 0.633490 0.319940
O O18 0.078391 0.642963 0.258753
O O19 0.500000 0.663052 0.000000
O O20 0.250000 0.000000 0.103420
#
# Coordination Sequence:
#
# PCOD8211451 Si02
#       8
#     8   4   8   8   8   8   8   4
#     4   8  18  36  54  74 101 138 180 223 272 322
#     4  11  23  37  57  83 109 139 180 231 278 331
#     4  11  22  36  58  84 107 138 185 237 274 322
#     4   9  18  34  56  82 111 150 196 233 269 320
#     4  10  20  34  53  76 106 143 172 207 269 336
#     4   9  18  34  57  77 103 145 186 230 275 328
#     4  10  20  34  54  82 115 147 181 228 282 330
#     4   9  19  37  53  71 107 143 171 207 264 333
#
# _framework density 18.406901999999999
#
# number of rings (size 3 to 8) (size 9 to 14) (size 15 to 20)
#    0.000    2.429    0.000    3.000    1.000    5.429 
#    0.000    1.429    0.000    1.714    0.000    0.000 
#    0.000    0.000    0.000    0.000    0.000    0.000 
#
# Total GULP energy -694298.173787 kJ/mol
# GULP energy per Si atom -12398.181675 kJ/mol
# Density = 1.836501 g / cm^3
# Si number density = 18.406902 Si / 1000 Ang^3
#
#
#
# Elastic Constant Matrix: (Units=GPa)
#
#
# Indices 1 2 3 4 5 6 
#
# 1 98.9321 32.3798 39.4447 0.0000 0.0000 0.0000
# 2 32.3798 116.6942 47.8370 0.0000 0.0000 0.0000
# 3 39.4447 47.8370 120.9001 0.0000 0.0000 0.0000
# 4 0.0000 0.0000 0.0000 13.7911 0.0000 0.0000
# 5 0.0000 0.0000 0.0000 0.0000 22.4190 0.0000
# 6 0.0000 0.0000 0.0000 0.0000 0.0000 21.6459
#
#
#
# Elastic Compliance Matrix: (Units=1/GPa)
#
#
# Indices 1 2 3 4 5 6 
#
# 1 0.012021 -0.002062 -0.003106 0.000000 0.000000 0.000000
# 2 -0.002062 0.010582 -0.003514 0.000000 0.000000 0.000000
# 3 -0.003106 -0.003514 0.010675 0.000000 0.000000 0.000000
# 4 0.000000 0.000000 0.000000 0.072510 0.000000 0.000000
# 5 0.000000 0.000000 0.000000 0.000000 0.044605 0.000000
# 6 0.000000 0.000000 0.000000 0.000000 0.000000 0.046198
#
#
# Mechanical properties :
#
#
# Convention : Reuss Voigt Hill
#
# Bulk Modulus (GPa) = 62.83993 63.98326 63.41159
# Shear Modulus (GPa) = 22.80376 26.02887 24.41632
#
# Velocity S-wave (km/s) = 3.52358 3.76451 3.64603
# Velocity P-wave (km/s) = 7.12514 7.33016 7.22838
#
# Compressibility (1/GPa) = 0.01591345
#
# Stress axis : x y z
#
# Youngs Moduli (GPa) = 83.18549 94.49765 93.67537
#
# Poissons Ratio (x) = 0.19489 0.29096
# Poissons Ratio (y) = 0.17156 0.32920
# Poissons Ratio (z) = 0.25838 0.33209
#
# Static dielectric constant tensor:
#      x y z
#    x 3.140950 0.000000 0.000000 
#    y 0.000000 3.648270 0.000000 
#    z 0.000000 0.000000 3.248110 
# 
# 
# High freq. dielectric constant tensor:
#      x y z
#    x 1.724460 0.000000 0.000000 
#    y 0.000000 1.708230 0.000000 
#    z 0.000000 0.000000 1.700040 
# 
# From -- ./inp_files/8599.got.cif
#   From: 2010.03.12/outbox.cif.g09.slc.cpg/sg51_5_cif.got.tgz:8599.got - 2010.04.16 13:43:02.
