data_PCOD8211447
_publ_section_title
;
Structure prediction by ZEFSAII (Michael W. Deem and Ramdas Pophale) SiO2 
 PCOD8211447
Probable space group: P M M A
;
_chemical_formula_sum "Si O2"
_cell_formula_units_Z 48
_cell_length_a 8.694105
_cell_length_b 14.502457
_cell_length_c 18.952182
_cell_angle_alpha 90.000000
_cell_angle_beta 90.000000
_cell_angle_gamma 90.000000
_cell_volume 2389.602620
_symmetry_space_group_name_H-M "P M M A"
_symmetry_group_IT_number 51
_symmetry_cell_setting 'orthorhombic'
loop_
_space_group_symop_operation_xyz
x,y,z
1/2-x,-y,z
1/2+x,-y,-z
-x,y,-z
-x,-y,-z
1/2+x,y,-z
1/2-x,y,z
x,-y,z
loop_
_atom_site_type_symbol
_atom_site_label
_atom_site_fract_x
_atom_site_fract_y
_atom_site_fract_z
Si Si1 0.572433 0.734406 0.307420
Si Si2 0.424429 0.365383 0.929288
Si Si3 0.077585 0.600805 0.209292
Si Si4 0.931685 0.604526 0.575495
Si Si5 0.073481 0.895179 0.222333
Si Si6 0.575870 0.852845 0.072969
O O1 0.750000 0.745537 0.327082
O O2 0.551135 0.667016 0.241281
O O3 0.485363 0.685117 0.371870
O O4 0.508158 0.833521 0.282813
O O5 0.250000 0.401109 0.922007
O O6 0.533980 0.410415 0.871510
O O7 0.431610 0.256150 0.925246
O O8 0.500000 0.402743 0.000000
O O9 0.250000 0.642263 0.218286
O O10 0.073176 0.500000 0.245712
O O11 0.750000 0.608559 0.571229
O O12 0.984523 0.500000 0.597669
O O13 0.000000 0.630015 0.500000
O O14 0.250000 0.864231 0.218211
O O15 0.006739 0.888578 0.143362
O O16 0.055508 0.000000 0.248578
O O17 0.750000 0.889370 0.074389
O O18 0.500000 0.890127 0.000000
#
# Coordination Sequence:
#
# PCOD8211447 Si02
#       6
#     8   8   8   8   8   8
#     4  12  24  39  61  89 122 160 196 240 295 349
#     4  10  20  34  53  76 104 144 189 238 294 351
#     4  11  23  37  55  80 111 150 194 240 290 347
#     4  10  21  39  65  98 134 169 204 242 284 337
#     4  11  24  41  62  87 116 154 200 251 306 363
#     4  10  20  35  57  83 111 148 193 247 309 367
#
# _framework density 20.087022000000001
#
# number of rings (size 3 to 8) (size 9 to 14) (size 15 to 20)
#    0.000    1.333    1.667    4.500    0.000    7.667 
#    0.000    0.000    0.000    0.500    0.000    0.000 
#    0.000    0.000    0.000    0.000    0.000    0.000 
#
# Total GULP energy -595006.487696 kJ/mol
# GULP energy per Si atom -12395.968494 kJ/mol
# Density = 2.004130 g / cm^3
# Si number density = 20.087022 Si / 1000 Ang^3
#
#
#
# Elastic Constant Matrix: (Units=GPa)
#
#
# Indices 1 2 3 4 5 6 
#
# 1 127.5281 37.0914 36.1254 0.0000 0.0000 0.0000
# 2 37.0914 101.6822 43.1133 0.0000 0.0000 0.0000
# 3 36.1254 43.1133 118.2506 0.0000 0.0000 0.0000
# 4 0.0000 0.0000 0.0000 -26.5668 0.0000 0.0000
# 5 0.0000 0.0000 0.0000 0.0000 38.6379 0.0000
# 6 0.0000 0.0000 0.0000 0.0000 0.0000 2.6178
#
#
#
# Elastic Compliance Matrix: (Units=1/GPa)
#
#
# Indices 1 2 3 4 5 6 
#
# 1 0.009105 -0.002533 -0.001858 0.000000 0.000000 0.000000
# 2 -0.002533 0.012338 -0.003724 0.000000 0.000000 0.000000
# 3 -0.001858 -0.003724 0.010382 0.000000 0.000000 0.000000
# 4 0.000000 0.000000 0.000000 -0.037641 0.000000 0.000000
# 5 0.000000 0.000000 0.000000 0.000000 0.025881 0.000000
# 6 0.000000 0.000000 0.000000 0.000000 0.000000 0.382006
#
#
# Mechanical properties :
#
#
# Convention : Reuss Voigt Hill
#
# Bulk Modulus (GPa) = 64.12991 64.45789 64.29390
# Shear Modulus (GPa) = 11.80639 18.34649 15.07644
#
# Velocity S-wave (km/s) = 2.42701 3.02545 2.74260
# Velocity P-wave (km/s) = 6.31262 6.66059 6.48894
#
# Compressibility (1/GPa) = 0.01559335
#
# Stress axis : x y z
#
# Youngs Moduli (GPa) = 109.83570 81.05166 96.32045
#
# Poissons Ratio (x) = 0.20534 0.17894
# Poissons Ratio (y) = 0.27826 0.35873
# Poissons Ratio (z) = 0.20405 0.30186
#
# Static dielectric constant tensor:
#      x y z
#    x 3.845050 0.000000 0.000000 
#    y 0.000000 3.656030 0.000000 
#    z 0.000000 0.000000 3.576930 
# 
# 
# High freq. dielectric constant tensor:
#      x y z
#    x 1.797070 0.000000 0.000000 
#    y 0.000000 1.782170 0.000000 
#    z 0.000000 0.000000 1.770600 
# 
# From -- ./inp_files/27560.got.cif
#   From: 2010.03.12/outbox.cif.g09.slc.cpg/sg51_14_cif.got.tgz:27560.got - 2010.04.16 13:43:02.
