data_PCOD8211586
_publ_section_title
;
Structure prediction by ZEFSAII (Michael W. Deem and Ramdas Pophale) SiO2 
 PCOD8211586
Probable space group: P M M A
;
_chemical_formula_sum "Si O2"
_cell_formula_units_Z 64
_cell_length_a 18.211334
_cell_length_b 9.229273
_cell_length_c 20.359809
_cell_angle_alpha 90.000000
_cell_angle_beta 90.000000
_cell_angle_gamma 90.000000
_cell_volume 3422.023215
_symmetry_space_group_name_H-M "P M M A"
_symmetry_group_IT_number 51
_symmetry_cell_setting 'orthorhombic'
loop_
_space_group_symop_operation_xyz
x,y,z
1/2-x,-y,z
1/2+x,-y,-z
-x,y,-z
-x,-y,-z
1/2+x,y,-z
1/2-x,y,z
x,-y,z
loop_
_atom_site_type_symbol
_atom_site_label
_atom_site_fract_x
_atom_site_fract_y
_atom_site_fract_z
Si Si1 0.837175 0.664935 0.699033
Si Si2 0.418061 0.167446 0.809432
Si Si3 0.834756 0.333662 0.929475
Si Si4 0.909879 0.167871 0.817517
Si Si5 0.162438 0.837326 0.427506
Si Si6 0.837222 0.660676 0.449781
Si Si7 0.665908 0.670756 0.303237
Si Si8 0.165565 0.333594 0.918654
O O1 0.750000 0.670473 0.701861
O O2 0.865579 0.500000 0.697704
O O3 0.867248 0.744429 0.762429
O O4 0.866937 0.744519 0.633857
O O5 0.504360 0.192714 0.808995
O O6 0.386001 0.245730 0.746112
O O7 0.385964 0.231227 0.876356
O O8 0.396799 0.000000 0.805975
O O9 0.750000 0.302513 0.912726
O O10 0.853714 0.500000 0.912423
O O11 0.886044 0.227226 0.888341
O O12 0.850807 0.301647 0.005465
O O13 0.888207 0.000000 0.812204
O O14 0.250000 0.837193 0.428505
O O15 0.131196 0.768766 0.495022
O O16 0.131681 0.000000 0.421282
O O17 0.750000 0.653008 0.454082
O O18 0.869144 0.500000 0.463078
O O19 0.859272 0.714375 0.376963
O O20 0.750000 0.717112 0.290606
O O21 0.657085 0.500000 0.292474
O O22 0.250000 0.299631 0.901702
O O23 0.147940 0.500000 0.901587
#
# Coordination Sequence:
#
# PCOD8211586 Si02
#       8
#     8   8   8   8   8   8   8   8
#     4  10  20  34  54  78 102 132 173 218 260 305
#     4  11  24  37  50  74 108 142 175 213 256 304
#     4   9  19  37  60  84 106 130 167 213 257 304
#     4  11  24  38  51  73 107 142 174 211 257 307
#     4   9  16  26  44  73 106 136 166 204 254 309
#     4   8  14  26  45  71 102 132 165 209 257 303
#     4   9  18  33  54  78 103 135 176 219 261 306
#     4   9  19  37  60  83 106 133 168 211 256 304
#
# _framework density 18.702386000000001
#
# number of rings (size 3 to 8) (size 9 to 14) (size 15 to 20)
#    0.000    2.500    0.000    3.750    0.000    9.500 
#    0.000    5.000    0.000    0.750    0.000    5.250 
#    0.000    0.000    0.000    0.000    0.000    0.000 
#
# Total GULP energy -793641.207752 kJ/mol
# GULP energy per Si atom -12400.643871 kJ/mol
# Density = 1.865982 g / cm^3
# Si number density = 18.702386 Si / 1000 Ang^3
#
#
#
# Elastic Constant Matrix: (Units=GPa)
#
#
# Indices 1 2 3 4 5 6 
#
# 1 14.8090 24.3293 16.1773 0.0000 0.0000 0.0000
# 2 24.3293 112.1058 61.1799 0.0000 0.0000 0.0000
# 3 16.1773 61.1799 114.6607 0.0000 0.0000 0.0000
# 4 0.0000 0.0000 0.0000 13.6798 0.0000 0.0000
# 5 0.0000 0.0000 0.0000 0.0000 -1.6237 0.0000
# 6 0.0000 0.0000 0.0000 0.0000 0.0000 25.0258
#
#
#
# Elastic Compliance Matrix: (Units=1/GPa)
#
#
# Indices 1 2 3 4 5 6 
#
# 1 0.106094 -0.020959 -0.003786 0.000000 0.000000 0.000000
# 2 -0.020959 0.016725 -0.005967 0.000000 0.000000 0.000000
# 3 -0.003786 -0.005967 0.012439 0.000000 0.000000 0.000000
# 4 0.000000 0.000000 0.000000 0.073101 0.000000 0.000000
# 5 0.000000 0.000000 0.000000 0.000000 -0.615887 0.000000
# 6 0.000000 0.000000 0.000000 0.000000 0.000000 0.039959
#
#
# Mechanical properties :
#
#
# Convention : Reuss Voigt Hill
#
# Bulk Modulus (GPa) = 13.54357 49.43874 31.49115
# Shear Modulus (GPa) = -17.75981 16.74230 -0.50875
#
# Velocity S-wave (km/s) = -3.08490 2.99523 -0.52213
# Velocity P-wave (km/s) = 2.33056 6.20110 4.06339
#
# Compressibility (1/GPa) = 0.07383579
#
# Stress axis : x y z
#
# Youngs Moduli (GPa) = 9.42559 59.79079 80.39013
#
# Poissons Ratio (x) = 1.25313 0.30434
# Poissons Ratio (y) = 0.19755 0.47969
# Poissons Ratio (z) = 0.03568 0.35677
#
# Static dielectric constant tensor:
#      x y z
#    x 3.089920 0.000000 0.000000 
#    y 0.000000 3.574550 0.000000 
#    z 0.000000 0.000000 3.608920 
# 
# 
# High freq. dielectric constant tensor:
#      x y z
#    x 1.689060 0.000000 0.000000 
#    y 0.000000 1.730660 0.000000 
#    z 0.000000 0.000000 1.744010 
# 
# From -- ./inp_files/33803.got.cif
#   From: 2010.03.12/outbox.cif.g09.slc.cpg/sg51_17_cif.got.tgz:33803.got - 2010.04.16 13:43:02.
