data_PCOD8211556
_publ_section_title
;
Structure prediction by ZEFSAII (Michael W. Deem and Ramdas Pophale) SiO2 
 PCOD8211556
Probable space group: P M M A
;
_chemical_formula_sum "Si O2"
_cell_formula_units_Z 64
_cell_length_a 21.736872
_cell_length_b 14.010166
_cell_length_c 11.284288
_cell_angle_alpha 90.000000
_cell_angle_beta 90.000000
_cell_angle_gamma 90.000000
_cell_volume 3436.485303
_symmetry_space_group_name_H-M "P M M A"
_symmetry_group_IT_number 51
_symmetry_cell_setting 'orthorhombic'
loop_
_space_group_symop_operation_xyz
x,y,z
1/2-x,-y,z
1/2+x,-y,-z
-x,y,-z
-x,-y,-z
1/2+x,y,-z
1/2-x,y,z
x,-y,z
loop_
_atom_site_type_symbol
_atom_site_label
_atom_site_fract_x
_atom_site_fract_y
_atom_site_fract_z
Si Si1 0.972675 0.767190 0.724289
Si Si2 0.819882 0.890564 0.361400
Si Si3 0.922300 0.889323 0.175448
Si Si4 0.040708 0.394240 0.615565
Si Si5 0.319103 0.603031 0.310754
Si Si6 0.318842 0.608822 0.031554
Si Si7 0.069210 0.741222 0.024780
Si Si8 0.114886 0.253430 0.475169
O O1 0.925570 0.765681 0.835368
O O2 0.942577 0.792484 0.596548
O O3 0.024369 0.847374 0.741113
O O4 0.002731 0.660565 0.717955
O O5 0.750000 0.862237 0.332435
O O6 0.857952 0.871711 0.241926
O O7 0.843114 0.829350 0.472660
O O8 0.825868 0.000000 0.401538
O O9 0.935245 0.000000 0.152653
O O10 0.921660 0.838508 0.048262
O O11 0.061483 0.500000 0.660598
O O12 0.098017 0.326223 0.581318
O O13 0.000000 0.407405 0.500000
O O14 0.250000 0.601832 0.357993
O O15 0.349959 0.500000 0.342884
O O16 0.321115 0.617555 0.171599
O O17 0.352510 0.689582 0.371205
O O18 0.250000 0.643129 0.988841
O O19 0.328785 0.500000 0.989828
O O20 0.376079 0.670640 0.981297
O O21 0.000000 0.699740 0.000000
#
# Coordination Sequence:
#
# PCOD8211556 Si02
#       8
#     8   8   8   8   8   8   8   8
#     4  10  20  34  53  86 113 143 180 225 286 333
#     4  10  22  39  59  82 108 144 187 231 282 336
#     4  10  22  41  60  78 104 142 191 239 283 338
#     4   9  18  30  48  79 117 152 179 211 260 325
#     4   9  17  29  50  81 113 149 187 220 265 326
#     4   9  18  34  55  81 115 151 184 224 278 339
#     4  10  21  36  58  84 111 143 192 240 284 331
#     4  11  18  32  57  82 116 148 182 227 273 329
#
# _framework density 18.62368
#
# number of rings (size 3 to 8) (size 9 to 14) (size 15 to 20)
#    0.000    2.250    2.500    1.500    0.000    4.500 
#    0.000    3.125    0.000    0.000    0.000    0.000 
#    0.000    0.000    0.000    0.000    0.000    0.000 
#
# Total GULP energy -793156.225842 kJ/mol
# GULP energy per Si atom -12393.066029 kJ/mol
# Density = 1.858129 g / cm^3
# Si number density = 18.623680 Si / 1000 Ang^3
#
#
#
# Elastic Constant Matrix: (Units=GPa)
#
#
# Indices 1 2 3 4 5 6 
#
# 1 115.5790 63.8558 28.5986 0.0000 0.0000 0.0000
# 2 63.8558 117.0712 43.4633 0.0000 0.0000 0.0000
# 3 28.5986 43.4633 63.6669 0.0000 0.0000 0.0000
# 4 0.0000 0.0000 0.0000 24.7461 0.0000 0.0000
# 5 0.0000 0.0000 0.0000 0.0000 22.4122 0.0000
# 6 0.0000 0.0000 0.0000 0.0000 0.0000 30.0096
#
#
#
# Elastic Compliance Matrix: (Units=1/GPa)
#
#
# Indices 1 2 3 4 5 6 
#
# 1 0.012462 -0.006321 -0.001283 0.000000 0.000000 0.000000
# 2 -0.006321 0.014648 -0.007160 0.000000 0.000000 0.000000
# 3 -0.001283 -0.007160 0.021171 0.000000 0.000000 0.000000
# 4 0.000000 0.000000 0.000000 0.040410 0.000000 0.000000
# 5 0.000000 0.000000 0.000000 0.000000 0.044619 0.000000
# 6 0.000000 0.000000 0.000000 0.000000 0.000000 0.033323
#
#
# Mechanical properties :
#
#
# Convention : Reuss Voigt Hill
#
# Bulk Modulus (GPa) = 53.32519 63.12804 58.22662
# Shear Modulus (GPa) = 24.70226 26.12689 25.41457
#
# Velocity S-wave (km/s) = 3.64591 3.74957 3.69811
# Velocity P-wave (km/s) = 6.81313 7.26058 7.04041
#
# Compressibility (1/GPa) = 0.01875286
#
# Stress axis : x y z
#
# Youngs Moduli (GPa) = 80.24576 68.26936 47.23456
#
# Poissons Ratio (x) = 0.43153 0.06058
# Poissons Ratio (y) = 0.50724 0.33821
# Poissons Ratio (z) = 0.10292 0.48883
#
# Static dielectric constant tensor:
#      x y z
#    x 3.675390 0.000000 0.000000 
#    y 0.000000 3.493270 0.000000 
#    z 0.000000 0.000000 3.232270 
# 
# 
# High freq. dielectric constant tensor:
#      x y z
#    x 1.723670 0.000000 0.000000 
#    y 0.000000 1.715310 0.000000 
#    z 0.000000 0.000000 1.707360 
# 
# From -- ./inp_files/18886.got.cif
#   From: 2010.03.12/outbox.cif.g09.slc.cpg/sg51_10_cif.got.tgz:18886.got - 2010.04.16 13:43:02.
