data_PCOD8211160
_publ_section_title
;
Structure prediction by ZEFSAII (Michael W. Deem and Ramdas Pophale) SiO2 
 PCOD8211160
Probable space group: P M M A
;
_chemical_formula_sum "Si O2"
_cell_formula_units_Z 64
_cell_length_a 24.681345
_cell_length_b 9.111925
_cell_length_c 14.605526
_cell_angle_alpha 90.000000
_cell_angle_beta 90.000000
_cell_angle_gamma 90.000000
_cell_volume 3284.703410
_symmetry_space_group_name_H-M "P M M A"
_symmetry_group_IT_number 51
_symmetry_cell_setting 'orthorhombic'
loop_
_space_group_symop_operation_xyz
x,y,z
1/2-x,-y,z
1/2+x,-y,-z
-x,y,-z
-x,-y,-z
1/2+x,y,-z
1/2-x,y,z
x,-y,z
loop_
_atom_site_type_symbol
_atom_site_label
_atom_site_fract_x
_atom_site_fract_y
_atom_site_fract_z
Si Si1 0.189183 0.830255 0.824798
Si Si2 0.098805 0.330028 0.708605
Si Si3 0.045895 0.164524 0.066454
Si Si4 0.833895 0.165319 0.973863
Si Si5 0.018717 0.667966 0.237944
Si Si6 0.397114 0.833027 0.339099
Si Si7 0.440373 0.167501 0.530506
Si Si8 0.688324 0.330745 0.787185
O O1 0.250000 0.809589 0.786573
O O2 0.149399 0.744235 0.757836
O O3 0.171409 0.000000 0.824617
O O4 0.188357 0.771456 0.929862
O O5 0.112678 0.500000 0.695623
O O6 0.085913 0.264610 0.609585
O O7 0.045524 0.306993 0.771340
O O8 0.101834 0.164936 0.012964
O O9 0.050166 0.279517 0.148107
O O10 0.031730 0.000000 0.102147
O O11 0.000000 0.224392 0.000000
O O12 0.815952 0.263061 0.888487
O O13 0.812114 0.000000 0.956786
O O14 0.033096 0.500000 0.257209
O O15 0.043577 0.765848 0.318566
O O16 0.395528 0.824384 0.449036
O O17 0.349111 0.746259 0.288808
O O18 0.393928 0.000000 0.303517
O O19 0.500000 0.225968 0.500000
O O20 0.446639 0.000000 0.564826
O O21 0.750000 0.313817 0.753047
O O22 0.670926 0.500000 0.793576
#
# Coordination Sequence:
#
# PCOD8211160 Si02
#       8
#     8   8   8   8   8   8   8   8
#     4  10  22  41  64  88 117 158 207 256 299 343
#     4  11  24  39  60  91 124 160 197 241 301 362
#     4  10  20  33  52  81 116 157 200 242 292 349
#     4  10  20  36  60  88 116 154 205 252 293 345
#     4  11  22  35  54  84 122 158 191 235 294 358
#     4  11  22  38  62  89 117 152 194 243 295 347
#     4  10  21  39  64  92 120 153 196 244 295 355
#     4  11  24  40  59  86 122 162 199 242 297 353
#
# _framework density 19.484254
#
# number of rings (size 3 to 8) (size 9 to 14) (size 15 to 20)
#    0.000    1.500    2.500    2.625    0.000    6.250 
#    0.000    0.625    0.000    0.750    0.000    0.000 
#    0.000    0.000    0.000    0.000    0.000    0.000 
#
# Total GULP energy -793529.262298 kJ/mol
# GULP energy per Si atom -12398.894723 kJ/mol
# Density = 1.943991 g / cm^3
# Si number density = 19.484254 Si / 1000 Ang^3
#
#
#
# Elastic Constant Matrix: (Units=GPa)
#
#
# Indices 1 2 3 4 5 6 
#
# 1 107.5357 54.9564 45.5178 0.0000 0.0000 0.0000
# 2 54.9564 119.0574 56.8169 0.0000 0.0000 0.0000
# 3 45.5178 56.8169 100.4443 0.0000 0.0000 0.0000
# 4 0.0000 0.0000 0.0000 -33.8257 0.0000 0.0000
# 5 0.0000 0.0000 0.0000 0.0000 19.7548 0.0000
# 6 0.0000 0.0000 0.0000 0.0000 0.0000 29.3649
#
#
#
# Elastic Compliance Matrix: (Units=1/GPa)
#
#
# Indices 1 2 3 4 5 6 
#
# 1 0.012971 -0.004359 -0.003412 0.000000 0.000000 0.000000
# 2 -0.004359 0.012970 -0.005361 0.000000 0.000000 0.000000
# 3 -0.003412 -0.005361 0.014535 0.000000 0.000000 0.000000
# 4 0.000000 0.000000 0.000000 -0.029563 0.000000 0.000000
# 5 0.000000 0.000000 0.000000 0.000000 0.050621 0.000000
# 6 0.000000 0.000000 0.000000 0.000000 0.000000 0.034054
#
#
# Mechanical properties :
#
#
# Convention : Reuss Voigt Hill
#
# Bulk Modulus (GPa) = 70.36931 71.29106 70.83018
# Shear Modulus (GPa) = 39.49774 14.37523 26.93648
#
# Velocity S-wave (km/s) = 4.50729 2.71917 3.72220
# Velocity P-wave (km/s) = 7.95499 6.82107 7.40975
#
# Compressibility (1/GPa) = 0.01421074
#
# Stress axis : x y z
#
# Youngs Moduli (GPa) = 77.09297 77.10177 68.80079
#
# Poissons Ratio (x) = 0.33609 0.23478
# Poissons Ratio (y) = 0.33605 0.36885
# Poissons Ratio (z) = 0.26308 0.41335
#
# Static dielectric constant tensor:
#      x y z
#    x 3.625770 0.000000 0.000000 
#    y 0.000000 3.573350 0.000000 
#    z 0.000000 0.000000 3.511970 
# 
# 
# High freq. dielectric constant tensor:
#      x y z
#    x 1.761380 0.000000 0.000000 
#    y 0.000000 1.758720 0.000000 
#    z 0.000000 0.000000 1.751660 
# 
# From -- ./inp_files/26355.got.cif
#   From: 2010.03.12/outbox.cif.g09.slc.cpg/sg51_14_cif.got.tgz:26355.got - 2010.04.16 13:43:02.
