data_PCOD8211870
_publ_section_title
;
Structure prediction by ZEFSAII (Michael W. Deem and Ramdas Pophale) SiO2 
 PCOD8211870
Probable space group: P M M A
;
_chemical_formula_sum "Si O2"
_cell_formula_units_Z 56
_cell_length_a 16.221251
_cell_length_b 9.551283
_cell_length_c 19.735432
_cell_angle_alpha 90.000000
_cell_angle_beta 90.000000
_cell_angle_gamma 90.000000
_cell_volume 3057.684664
_symmetry_space_group_name_H-M "P M M A"
_symmetry_group_IT_number 51
_symmetry_cell_setting 'orthorhombic'
loop_
_space_group_symop_operation_xyz
x,y,z
1/2-x,-y,z
1/2+x,-y,-z
-x,y,-z
-x,-y,-z
1/2+x,y,-z
1/2-x,y,z
x,-y,z
loop_
_atom_site_type_symbol
_atom_site_label
_atom_site_fract_x
_atom_site_fract_y
_atom_site_fract_z
Si Si1 0.061613 0.334705 0.289300
Si Si2 0.158838 0.333711 0.158731
Si Si3 0.345425 0.337247 0.424636
Si Si4 0.902435 0.836808 0.302599
Si Si5 0.750000 0.161573 0.206125
Si Si6 0.250000 0.333026 0.931432
Si Si7 0.590710 0.333756 0.981497
Si Si8 0.152534 0.157794 0.549847
O O1 0.046098 0.500000 0.286936
O O2 0.119308 0.282969 0.228529
O O3 0.103717 0.288455 0.359346
O O4 0.976986 0.256082 0.277031
O O5 0.250000 0.269195 0.154551
O O6 0.163638 0.500000 0.156570
O O7 0.107270 0.278921 0.094480
O O8 0.250000 0.301044 0.411174
O O9 0.357532 0.500000 0.439631
O O10 0.381139 0.254887 0.489393
O O11 0.828290 0.803990 0.252188
O O12 0.881764 0.787960 0.378792
O O13 0.925400 0.000000 0.301484
O O14 0.750000 0.261120 0.141447
O O15 0.750000 0.000000 0.182608
O O16 0.250000 0.500000 0.922386
O O17 0.333548 0.283568 0.970434
O O18 0.587851 0.500000 0.984525
O O19 0.500000 0.272312 0.000000
O O20 0.250000 0.166611 0.554227
O O21 0.123314 0.000000 0.534914
#
# Coordination Sequence:
#
# PCOD8211870 Si02
#       8
#     8   8   8   8   4   4   8   8
#     4  10  21  33  51  80 109 135 172 220 263 306
#     4   9  16  30  51  74 105 146 180 206 250 310
#     4   9  18  33  51  75 108 142 172 210 264 318
#     4  10  21  38  56  74 101 137 177 217 264 319
#     4  10  22  40  58  74 103 144 174 210 269 326
#     4  10  20  34  56  86 111 136 176 224 265 310
#     4   9  17  29  48  79 115 140 167 216 267 306
#     4   9  17  33  56  75  94 131 182 223 254 304
#
# _framework density 18.314513000000002
#
# number of rings (size 3 to 8) (size 9 to 14) (size 15 to 20)
#    0.000    2.571    1.429    0.429    2.000    4.000 
#    0.000    2.857    0.000    2.571    0.000    0.000 
#    0.000    0.000    0.000    0.000    0.000    0.000 
#
# Total GULP energy -694295.364326 kJ/mol
# GULP energy per Si atom -12398.131506 kJ/mol
# Density = 1.827283 g / cm^3
# Si number density = 18.314513 Si / 1000 Ang^3
#
#
#
# Elastic Constant Matrix: (Units=GPa)
#
#
# Indices 1 2 3 4 5 6 
#
# 1 124.5071 31.3085 71.6826 0.0000 0.0000 0.0000
# 2 31.3085 29.7659 39.1715 0.0000 0.0000 0.0000
# 3 71.6826 39.1715 154.7001 0.0000 0.0000 0.0000
# 4 0.0000 0.0000 0.0000 16.5901 0.0000 0.0000
# 5 0.0000 0.0000 0.0000 0.0000 8.4204 0.0000
# 6 0.0000 0.0000 0.0000 0.0000 0.0000 21.5816
#
#
#
# Elastic Compliance Matrix: (Units=1/GPa)
#
#
# Indices 1 2 3 4 5 6 
#
# 1 0.012111 -0.008029 -0.003579 0.000000 0.000000 0.000000
# 2 -0.008029 0.055708 -0.010385 0.000000 0.000000 0.000000
# 3 -0.003579 -0.010385 0.010752 0.000000 0.000000 0.000000
# 4 0.000000 0.000000 0.000000 0.060277 0.000000 0.000000
# 5 0.000000 0.000000 0.000000 0.000000 0.118759 0.000000
# 6 0.000000 0.000000 0.000000 0.000000 0.000000 0.046336
#
#
# Mechanical properties :
#
#
# Convention : Reuss Voigt Hill
#
# Bulk Modulus (GPa) = 28.91476 65.92202 47.41839
# Shear Modulus (GPa) = 13.90987 20.43911 17.17449
#
# Velocity S-wave (km/s) = 2.75889 3.34429 3.06560
# Velocity P-wave (km/s) = 5.09616 7.14037 6.20305
#
# Compressibility (1/GPa) = 0.03458441
#
# Stress axis : x y z
#
# Youngs Moduli (GPa) = 82.56889 17.95087 93.00540
#
# Poissons Ratio (x) = 0.14413 0.33285
# Poissons Ratio (y) = 0.66295 0.96589
# Poissons Ratio (z) = 0.29550 0.18642
#
# Static dielectric constant tensor:
#      x y z
#    x 3.475780 0.000000 0.000000 
#    y 0.000000 3.024490 0.000000 
#    z 0.000000 0.000000 3.566990 
# 
# 
# High freq. dielectric constant tensor:
#      x y z
#    x 1.716580 0.000000 0.000000 
#    y 0.000000 1.667250 0.000000 
#    z 0.000000 0.000000 1.724540 
# 
# From -- ./inp_files/33535.got.cif
#   From: 2010.03.12/outbox.cif.g09.slc.cpg/sg51_17_cif.got.tgz:33535.got - 2010.04.16 13:43:02.
