data_PCOD8211542
_publ_section_title
;
Structure prediction by ZEFSAII (Michael W. Deem and Ramdas Pophale) SiO2 
 PCOD8211542
Probable space group: P M M A
;
_chemical_formula_sum "Si O2"
_cell_formula_units_Z 64
_cell_length_a 23.829349
_cell_length_b 8.993865
_cell_length_c 15.110063
_cell_angle_alpha 90.000000
_cell_angle_beta 90.000000
_cell_angle_gamma 90.000000
_cell_volume 3238.357695
_symmetry_space_group_name_H-M "P M M A"
_symmetry_group_IT_number 51
_symmetry_cell_setting 'orthorhombic'
loop_
_space_group_symop_operation_xyz
x,y,z
1/2-x,-y,z
1/2+x,-y,-z
-x,y,-z
-x,-y,-z
1/2+x,y,-z
1/2-x,y,z
x,-y,z
loop_
_atom_site_type_symbol
_atom_site_label
_atom_site_fract_x
_atom_site_fract_y
_atom_site_fract_z
Si Si1 0.186839 0.822939 0.351772
Si Si2 0.002439 0.172790 0.232420
Si Si3 0.382525 0.827046 0.835518
Si Si4 0.355847 0.824123 0.539326
Si Si5 0.530774 0.675466 0.410180
Si Si6 0.688821 0.331151 0.308060
Si Si7 0.375932 0.176140 0.179551
Si Si8 0.314138 0.176791 0.006237
O O1 0.250000 0.759313 0.350748
O O2 0.154710 0.767848 0.439639
O O3 0.153636 0.759130 0.267466
O O4 0.188646 0.000000 0.350817
O O5 0.949640 0.202210 0.166924
O O6 0.000932 0.262556 0.324096
O O7 0.058459 0.222041 0.179301
O O8 0.005792 0.000000 0.258854
O O9 0.357602 0.734110 0.756020
O O10 0.368839 0.000000 0.820645
O O11 0.353841 0.769728 0.925814
O O12 0.408896 0.748507 0.584658
O O13 0.306051 0.766011 0.602083
O O14 0.361602 0.000000 0.543460
O O15 0.500000 0.723471 0.500000
O O16 0.535729 0.500000 0.400958
O O17 0.750000 0.323385 0.262077
O O18 0.672227 0.500000 0.331172
O O19 0.343381 0.242326 0.094582
O O20 0.369802 0.000000 0.178204
O O21 0.250000 0.237359 0.997112
O O22 0.312634 0.000000 0.009954
#
# Coordination Sequence:
#
# PCOD8211542 Si02
#       8
#     8   8   8   8   8   8   8   8
#     4   9  17  29  47  74 107 142 180 225 280 336
#     4  10  20  34  53  80 111 146 187 231 281 332
#     4  10  20  34  54  81 112 147 186 228 275 327
#     4  11  21  34  54  80 109 143 184 233 283 333
#     4  11  23  37  54  77 109 150 192 232 275 331
#     4  11  23  37  54  78 110 148 187 228 277 333
#     4   9  17  30  50  77 110 144 181 229 281 334
#     4   9  17  30  51  80 112 146 184 229 282 336
#
# _framework density 19.763103999999998
#
# number of rings (size 3 to 8) (size 9 to 14) (size 15 to 20)
#    0.000    2.000    1.250    3.000    0.000    6.000 
#    0.000    2.500    0.000    0.750    0.000    1.750 
#    0.000    7.000    0.000    0.000    0.000    0.000 
#
# Total GULP energy -793437.954245 kJ/mol
# GULP energy per Si atom -12397.468035 kJ/mol
# Density = 1.971812 g / cm^3
# Si number density = 19.763104 Si / 1000 Ang^3
#
#
#
# Elastic Constant Matrix: (Units=GPa)
#
#
# Indices 1 2 3 4 5 6 
#
# 1 133.8218 24.9862 67.6960 0.0000 0.0000 0.0000
# 2 24.9862 28.5024 29.7182 0.0000 0.0000 0.0000
# 3 67.6960 29.7182 153.2072 0.0000 0.0000 0.0000
# 4 0.0000 0.0000 0.0000 8.8211 0.0000 0.0000
# 5 0.0000 0.0000 0.0000 0.0000 38.3546 0.0000
# 6 0.0000 0.0000 0.0000 0.0000 0.0000 11.7131
#
#
#
# Elastic Compliance Matrix: (Units=1/GPa)
#
#
# Indices 1 2 3 4 5 6 
#
# 1 0.010232 -0.005335 -0.003486 0.000000 0.000000 0.000000
# 2 -0.005335 0.046761 -0.006713 0.000000 0.000000 0.000000
# 3 -0.003486 -0.006713 0.009370 0.000000 0.000000 0.000000
# 4 0.000000 0.000000 0.000000 0.113365 0.000000 0.000000
# 5 0.000000 0.000000 0.000000 0.000000 0.026072 0.000000
# 6 0.000000 0.000000 0.000000 0.000000 0.000000 0.085375
#
#
# Mechanical properties :
#
#
# Convention : Reuss Voigt Hill
#
# Bulk Modulus (GPa) = 28.33326 62.25914 45.29620
# Shear Modulus (GPa) = 14.96965 24.65315 19.81140
#
# Velocity S-wave (km/s) = 2.75517 3.53573 3.16957
# Velocity P-wave (km/s) = 4.94862 6.94548 6.03028
#
# Compressibility (1/GPa) = 0.03529421
#
# Stress axis : x y z
#
# Youngs Moduli (GPa) = 97.72884 21.38532 106.72582
#
# Poissons Ratio (x) = 0.11409 0.37209
# Poissons Ratio (y) = 0.52138 0.71647
# Poissons Ratio (z) = 0.34073 0.14356
#
# Static dielectric constant tensor:
#      x y z
#    x 3.894030 0.000000 0.000000 
#    y 0.000000 3.168530 0.000000 
#    z 0.000000 0.000000 3.853010 
# 
# 
# High freq. dielectric constant tensor:
#      x y z
#    x 1.787590 0.000000 0.000000 
#    y 0.000000 1.723200 0.000000 
#    z 0.000000 0.000000 1.773870 
# 
# From -- ./inp_files/26300.got.cif
#   From: 2010.03.12/outbox.cif.g09.slc.cpg/sg51_14_cif.got.tgz:26300.got - 2010.04.16 13:43:02.
