data_PCOD8211149
_publ_section_title
;
Structure prediction by ZEFSAII (Michael W. Deem and Ramdas Pophale) SiO2 
 PCOD8211149
Probable space group: P M M A
;
_chemical_formula_sum "Si O2"
_cell_formula_units_Z 48
_cell_length_a 18.747068
_cell_length_b 8.710008
_cell_length_c 15.294524
_cell_angle_alpha 90.000000
_cell_angle_beta 90.000000
_cell_angle_gamma 90.000000
_cell_volume 2497.398657
_symmetry_space_group_name_H-M "P M M A"
_symmetry_group_IT_number 51
_symmetry_cell_setting 'orthorhombic'
loop_
_space_group_symop_operation_xyz
x,y,z
1/2-x,-y,z
1/2+x,-y,-z
-x,y,-z
-x,-y,-z
1/2+x,y,-z
1/2-x,y,z
x,-y,z
loop_
_atom_site_type_symbol
_atom_site_label
_atom_site_fract_x
_atom_site_fract_y
_atom_site_fract_z
Si Si1 0.328831 0.817900 0.159637
Si Si2 0.168448 0.821704 0.663402
Si Si3 0.666276 0.177295 0.644554
Si Si4 0.417672 0.321787 0.508414
Si Si5 0.667957 0.679077 0.154257
Si Si6 0.420223 0.182070 0.000482
O O1 0.250000 0.749203 0.142585
O O2 0.355069 0.773950 0.256802
O O3 0.381456 0.748949 0.086474
O O4 0.324815 0.000000 0.152554
O O5 0.250000 0.783123 0.636829
O O6 0.117160 0.778406 0.584405
O O7 0.145011 0.726185 0.748286
O O8 0.159475 0.000000 0.685381
O O9 0.750000 0.203522 0.628667
O O10 0.621292 0.286736 0.582353
O O11 0.646685 0.000000 0.626299
O O12 0.500000 0.274962 0.500000
O O13 0.408590 0.500000 0.531409
O O14 0.750000 0.725202 0.137833
O O15 0.655027 0.500000 0.141642
O O16 0.619878 0.770389 0.086769
O O17 0.421459 0.000000 0.005359
O O18 0.500000 0.249458 0.000000
#
# Coordination Sequence:
#
# PCOD8211149 Si02
#       6
#     8   8   8   8   8   8
#     4   8  15  30  52  75 101 135 174 219 266 307
#     4  10  21  38  61  85 106 136 183 233 276 321
#     4   9  18  34  56  79 101 133 182 230 269 314
#     4  11  24  38  52  77 113 147 176 211 265 330
#     4  10  21  37  57  81 110 145 183 225 276 330
#     4  10  20  33  52  81 113 145 184 226 268 318
#
# _framework density 19.219999999999999
#
# number of rings (size 3 to 8) (size 9 to 14) (size 15 to 20)
#    0.000    2.333    0.000    3.500    0.000    8.000 
#    0.000    2.500    0.000    1.000    0.000    0.000 
#    0.000    0.000    0.000    0.000    0.000    0.000 
#
# Total GULP energy -595285.963715 kJ/mol
# GULP energy per Si atom -12401.790911 kJ/mol
# Density = 1.917625 g / cm^3
# Si number density = 19.220000 Si / 1000 Ang^3
#
#
#
# Elastic Constant Matrix: (Units=GPa)
#
#
# Indices 1 2 3 4 5 6 
#
# 1 100.2153 16.4185 65.4157 0.0000 0.0000 0.0000
# 2 16.4185 21.0320 4.9474 0.0000 0.0000 0.0000
# 3 65.4157 4.9474 118.2706 0.0000 0.0000 0.0000
# 4 0.0000 0.0000 0.0000 16.4229 0.0000 0.0000
# 5 0.0000 0.0000 0.0000 0.0000 1.1536 0.0000
# 6 0.0000 0.0000 0.0000 0.0000 0.0000 21.9694
#
#
#
# Elastic Compliance Matrix: (Units=1/GPa)
#
#
# Indices 1 2 3 4 5 6 
#
# 1 0.018167 -0.011936 -0.009549 0.000000 0.000000 0.000000
# 2 -0.011936 0.055861 0.004265 0.000000 0.000000 0.000000
# 3 -0.009549 0.004265 0.013558 0.000000 0.000000 0.000000
# 4 0.000000 0.000000 0.000000 0.060890 0.000000 0.000000
# 5 0.000000 0.000000 0.000000 0.000000 0.866881 0.000000
# 6 0.000000 0.000000 0.000000 0.000000 0.000000 0.045518
#
#
# Mechanical properties :
#
#
# Convention : Reuss Voigt Hill
#
# Bulk Modulus (GPa) = 18.81575 45.89790 32.35683
# Shear Modulus (GPa) = 4.49224 18.09160 11.29192
#
# Velocity S-wave (km/s) = 1.53047 3.07137 2.42649
# Velocity P-wave (km/s) = 3.59639 6.04234 4.97212
#
# Compressibility (1/GPa) = 0.05314696
#
# Stress axis : x y z
#
# Youngs Moduli (GPa) = 55.04452 17.90153 73.75538
#
# Poissons Ratio (x) = 0.21367 0.70429
# Poissons Ratio (y) = 0.65701 -0.31457
# Poissons Ratio (z) = 0.52562 -0.07635
#
# Static dielectric constant tensor:
#      x y z
#    x 3.690550 0.000000 0.000000 
#    y 0.000000 3.257000 0.000000 
#    z 0.000000 0.000000 3.642740 
# 
# 
# High freq. dielectric constant tensor:
#      x y z
#    x 1.744670 0.000000 0.000000 
#    y 0.000000 1.727840 0.000000 
#    z 0.000000 0.000000 1.761420 
# 
# From -- ./inp_files/24736.got.cif
#   From: 2010.03.12/outbox.cif.g09.slc.cpg/sg51_13_cif.got.tgz:24736.got - 2010.04.16 13:43:02.
