data_PCOD8211315
_publ_section_title
;
Structure prediction by ZEFSAII (Michael W. Deem and Ramdas Pophale) SiO2 
 PCOD8211315
Probable space group: P M M A
;
_chemical_formula_sum "Si O2"
_cell_formula_units_Z 64
_cell_length_a 9.057406
_cell_length_b 18.516856
_cell_length_c 20.758284
_cell_angle_alpha 90.000000
_cell_angle_beta 90.000000
_cell_angle_gamma 90.000000
_cell_volume 3481.469013
_symmetry_space_group_name_H-M "P M M A"
_symmetry_group_IT_number 51
_symmetry_cell_setting 'orthorhombic'
loop_
_space_group_symop_operation_xyz
x,y,z
1/2-x,-y,z
1/2+x,-y,-z
-x,y,-z
-x,-y,-z
1/2+x,y,-z
1/2-x,y,z
x,-y,z
loop_
_atom_site_type_symbol
_atom_site_label
_atom_site_fract_x
_atom_site_fract_y
_atom_site_fract_z
Si Si1 0.077197 0.582576 0.563751
Si Si2 0.574012 0.080141 0.800133
Si Si3 0.925377 0.666976 0.309504
Si Si4 0.912442 0.085866 0.940116
Si Si5 0.423066 0.584493 0.193004
Si Si6 0.582881 0.414159 0.063031
Si Si7 0.575169 0.180163 0.684531
Si Si8 0.077172 0.081978 0.435374
O O1 0.250000 0.589926 0.553016
O O2 0.028422 0.500000 0.574689
O O3 0.024254 0.626523 0.625760
O O4 0.000000 0.614673 0.500000
O O5 0.750000 0.076521 0.802898
O O6 0.514740 0.105246 0.870684
O O7 0.520655 0.136347 0.746970
O O8 0.513686 0.000000 0.782990
O O9 0.750000 0.664579 0.299959
O O10 0.001778 0.628452 0.249817
O O11 0.981532 0.747768 0.316286
O O12 0.750000 0.119724 0.944049
O O13 0.904990 0.000000 0.946440
O O14 0.000000 0.120303 0.000000
O O15 0.250000 0.601827 0.190767
O O16 0.453382 0.500000 0.204443
O O17 0.494565 0.611308 0.126213
O O18 0.750000 0.383861 0.065269
O O19 0.585352 0.500000 0.059691
O O20 0.500000 0.382988 0.000000
O O21 0.750000 0.196238 0.686388
O O22 0.529697 0.133451 0.622713
O O23 0.250000 0.085463 0.447160
O O24 0.000000 0.110500 0.500000
O O25 0.027424 0.000000 0.419173
#
# Coordination Sequence:
#
# PCOD8211315 Si02
#       8
#     8   8   8   8   8   8   8   8
#     4   9  19  36  57  78  99 126 161 201 245 295
#     4   8  14  27  49  73  95 124 164 207 248 291
#     4  11  23  37  52  73 105 140 171 206 254 309
#     4   8  13  22  39  65  94 121 151 191 240 290
#     4  10  20  34  54  79 104 133 173 218 261 307
#     4   9  16  27  46  74 107 139 171 211 259 308
#     4  10  20  34  52  73  98 130 171 213 249 292
#     4   9  18  33  54  78 102 130 165 207 255 306
#
# _framework density 18.383044000000002
#
# number of rings (size 3 to 8) (size 9 to 14) (size 15 to 20)
#    0.000    2.750    0.000    2.625    0.000    6.250 
#    0.000    4.375    0.000    2.625    0.000    3.500 
#    0.000    0.000    0.000    0.000    0.000    0.000 
#
# Total GULP energy -793449.882124 kJ/mol
# GULP energy per Si atom -12397.654408 kJ/mol
# Density = 1.834120 g / cm^3
# Si number density = 18.383044 Si / 1000 Ang^3
#
#
#
# Elastic Constant Matrix: (Units=GPa)
#
#
# Indices 1 2 3 4 5 6 
#
# 1 77.2513 39.3636 69.2347 0.0000 0.0000 0.0000
# 2 39.3636 76.4043 74.5230 0.0000 0.0000 0.0000
# 3 69.2347 74.5230 198.6971 0.0000 0.0000 0.0000
# 4 0.0000 0.0000 0.0000 1.5571 0.0000 0.0000
# 5 0.0000 0.0000 0.0000 0.0000 36.1279 0.0000
# 6 0.0000 0.0000 0.0000 0.0000 0.0000 21.5702
#
#
#
# Elastic Compliance Matrix: (Units=1/GPa)
#
#
# Indices 1 2 3 4 5 6 
#
# 1 0.020233 -0.005594 -0.004952 0.000000 0.000000 0.000000
# 2 -0.005594 0.022185 -0.006371 0.000000 0.000000 0.000000
# 3 -0.004952 -0.006371 0.009148 0.000000 0.000000 0.000000
# 4 0.000000 0.000000 0.000000 0.642210 0.000000 0.000000
# 5 0.000000 0.000000 0.000000 0.000000 0.027679 0.000000
# 6 0.000000 0.000000 0.000000 0.000000 0.000000 0.046360
#
#
# Mechanical properties :
#
#
# Convention : Reuss Voigt Hill
#
# Bulk Modulus (GPa) = 56.39819 79.84392 68.12106
# Shear Modulus (GPa) = 6.19147 23.13314 14.66231
#
# Velocity S-wave (km/s) = 1.83721 3.55124 2.82724
# Velocity P-wave (km/s) = 5.93688 7.76806 6.91337
#
# Compressibility (1/GPa) = 0.01773106
#
# Stress axis : x y z
#
# Youngs Moduli (GPa) = 49.42302 45.07576 109.31414
#
# Poissons Ratio (x) = 0.25216 0.54133
# Poissons Ratio (y) = 0.27648 0.69648
# Poissons Ratio (z) = 0.24475 0.28719
#
# Static dielectric constant tensor:
#      x y z
#    x 3.708720 0.000000 0.000000 
#    y 0.000000 3.125420 0.000000 
#    z 0.000000 0.000000 3.734140 
# 
# 
# High freq. dielectric constant tensor:
#      x y z
#    x 1.699960 0.000000 0.000000 
#    y 0.000000 1.678600 0.000000 
#    z 0.000000 0.000000 1.733570 
# 
# From -- ./inp_files/32305.got.cif
#   From: 2010.03.12/outbox.cif.g09.slc.cpg/sg51_17_cif.got.tgz:32305.got - 2010.04.16 13:43:02.
