data_PCOD8211976
_publ_section_title
;
Structure prediction by ZEFSAII (Michael W. Deem and Ramdas Pophale) SiO2 
 PCOD8211976
Probable space group: P M M A
;
_chemical_formula_sum "Si O2"
_cell_formula_units_Z 64
_cell_length_a 8.942522
_cell_length_b 20.252778
_cell_length_c 18.683494
_cell_angle_alpha 90.000000
_cell_angle_beta 90.000000
_cell_angle_gamma 90.000000
_cell_volume 3383.784653
_symmetry_space_group_name_H-M "P M M A"
_symmetry_group_IT_number 51
_symmetry_cell_setting 'orthorhombic'
loop_
_space_group_symop_operation_xyz
x,y,z
1/2-x,-y,z
1/2+x,-y,-z
-x,y,-z
-x,-y,-z
1/2+x,y,-z
1/2-x,y,z
x,-y,z
loop_
_atom_site_type_symbol
_atom_site_label
_atom_site_fract_x
_atom_site_fract_y
_atom_site_fract_z
Si Si1 0.425730 0.694755 0.833565
Si Si2 0.426252 0.425466 0.574680
Si Si3 0.072431 0.927201 0.176508
Si Si4 0.577934 0.076769 0.662847
Si Si5 0.072054 0.190693 0.077413
Si Si6 0.423666 0.573670 0.928292
Si Si7 0.927151 0.308084 0.327693
Si Si8 0.926759 0.813186 0.424020
O O1 0.250000 0.712215 0.838404
O O2 0.519126 0.745061 0.880972
O O3 0.459360 0.621293 0.862102
O O4 0.488779 0.697169 0.752911
O O5 0.500000 0.405421 0.500000
O O6 0.250000 0.418466 0.564539
O O7 0.470857 0.500000 0.597340
O O8 0.486537 0.375281 0.635183
O O9 0.250000 0.929160 0.177361
O O10 0.018835 0.908819 0.256657
O O11 0.012891 0.873571 0.120326
O O12 0.011060 0.000000 0.154882
O O13 0.750000 0.098704 0.654504
O O14 0.477316 0.116808 0.607411
O O15 0.559462 0.000000 0.644322
O O16 0.250000 0.191517 0.070418
O O17 0.000000 0.188655 0.000000
O O18 0.250000 0.572341 0.945127
O O19 0.482429 0.500000 0.909178
O O20 0.500000 0.601307 0.000000
O O21 0.750000 0.310485 0.324702
O O22 0.983327 0.244682 0.371480
O O23 0.750000 0.812868 0.433125
O O24 0.000000 0.800008 0.500000
#
# Coordination Sequence:
#
# PCOD8211976 Si02
#       8
#     8   8   8   8   8   8   8   8
#     4  10  20  35  54  75 102 133 168 212 258 304
#     4   9  17  31  52  76 103 136 172 209 251 301
#     4   8  16  33  56  79 103 133 168 206 249 298
#     4   9  18  35  58  80 102 130 166 208 253 301
#     4  11  22  35  53  77 105 136 171 209 250 299
#     4   9  18  32  51  74  99 130 166 203 245 294
#     4   9  19  34  52  76 103 132 168 212 258 301
#     4  11  22  35  52  74 103 136 170 209 252 300
#
# _framework density 18.913733000000001
#
# number of rings (size 3 to 8) (size 9 to 14) (size 15 to 20)
#    0.000    2.500    0.000    3.000    0.000    2.750 
#    0.000    5.000    0.000    2.625    0.000    3.500 
#    0.000    0.000    0.000    0.000    0.000    0.000 
#
# Total GULP energy -793600.071097 kJ/mol
# GULP energy per Si atom -12400.001111 kJ/mol
# Density = 1.887068 g / cm^3
# Si number density = 18.913733 Si / 1000 Ang^3
#
#
#
# Elastic Constant Matrix: (Units=GPa)
#
#
# Indices 1 2 3 4 5 6 
#
# 1 44.5501 35.4114 39.1842 0.0000 0.0000 0.0000
# 2 35.4114 111.4351 71.9850 0.0000 0.0000 0.0000
# 3 39.1842 71.9850 147.7891 0.0000 0.0000 0.0000
# 4 0.0000 0.0000 0.0000 38.7517 0.0000 0.0000
# 5 0.0000 0.0000 0.0000 0.0000 12.8684 0.0000
# 6 0.0000 0.0000 0.0000 0.0000 0.0000 20.9299
#
#
#
# Elastic Compliance Matrix: (Units=1/GPa)
#
#
# Indices 1 2 3 4 5 6 
#
# 1 0.032604 -0.006969 -0.005250 0.000000 0.000000 0.000000
# 2 -0.006969 0.014583 -0.005255 0.000000 0.000000 0.000000
# 3 -0.005250 -0.005255 0.010718 0.000000 0.000000 0.000000
# 4 0.000000 0.000000 0.000000 0.025805 0.000000 0.000000
# 5 0.000000 0.000000 0.000000 0.000000 0.077710 0.000000
# 6 0.000000 0.000000 0.000000 0.000000 0.000000 0.047778
#
#
# Mechanical properties :
#
#
# Convention : Reuss Voigt Hill
#
# Bulk Modulus (GPa) = 43.56139 66.32618 54.94379
# Shear Modulus (GPa) = 19.85697 24.98958 22.42327
#
# Velocity S-wave (km/s) = 3.24369 3.63883 3.44692
# Velocity P-wave (km/s) = 6.09182 7.26627 6.70481
#
# Compressibility (1/GPa) = 0.02295611
#
# Stress axis : x y z
#
# Youngs Moduli (GPa) = 30.67112 68.57068 93.29981
#
# Poissons Ratio (x) = 0.47790 0.48981
# Poissons Ratio (y) = 0.21376 0.49033
# Poissons Ratio (z) = 0.16102 0.36037
#
# Static dielectric constant tensor:
#      x y z
#    x 3.187540 0.000000 0.000000 
#    y 0.000000 3.796530 0.000000 
#    z 0.000000 0.000000 3.636310 
# 
# 
# High freq. dielectric constant tensor:
#      x y z
#    x 1.707260 0.000000 0.000000 
#    y 0.000000 1.748600 0.000000 
#    z 0.000000 0.000000 1.738930 
# 
# From -- ./inp_files/28472.got.cif
#   From: 2010.03.12/outbox.cif.g09.slc.cpg/sg51_15_cif.got.tgz:28472.got - 2010.04.16 13:43:02.
