data_PCOD8211436
_publ_section_title
;
Structure prediction by ZEFSAII (Michael W. Deem and Ramdas Pophale) SiO2 
 PCOD8211436
Probable space group: P M M A
;
_chemical_formula_sum "Si O2"
_cell_formula_units_Z 48
_cell_length_a 34.506707
_cell_length_b 8.857106
_cell_length_c 8.027490
_cell_angle_alpha 90.000000
_cell_angle_beta 90.000000
_cell_angle_gamma 90.000000
_cell_volume 2453.438250
_symmetry_space_group_name_H-M "P M M A"
_symmetry_group_IT_number 51
_symmetry_cell_setting 'orthorhombic'
loop_
_space_group_symop_operation_xyz
x,y,z
1/2-x,-y,z
1/2+x,-y,-z
-x,y,-z
-x,-y,-z
1/2+x,y,-z
1/2-x,y,z
x,-y,z
loop_
_atom_site_type_symbol
_atom_site_label
_atom_site_fract_x
_atom_site_fract_y
_atom_site_fract_z
Si Si1 0.793977 0.820008 0.996099
Si Si2 0.654770 0.179516 0.687644
Si Si3 0.160699 0.827797 0.687818
Si Si4 0.924573 0.675952 0.670090
Si Si5 0.925939 0.828436 0.330397
Si Si6 0.004652 0.335047 0.810108
O O1 0.750000 0.762186 0.988902
O O2 0.813184 0.751691 0.166220
O O3 0.796627 0.000000 0.000360
O O4 0.814922 0.762337 0.826855
O O5 0.665597 0.242205 0.500284
O O6 0.612591 0.237843 0.744983
O O7 0.652775 0.000000 0.679659
O O8 0.116426 0.814726 0.753124
O O9 0.174037 0.000000 0.672815
O O10 0.919524 0.500000 0.708512
O O11 0.927542 0.707230 0.475816
O O12 0.964784 0.738876 0.744625
O O13 0.960097 0.782321 0.206578
O O14 0.932127 0.000000 0.394388
O O15 0.012256 0.500000 0.723105
O O16 0.000000 0.368324 0.000000
#
# Coordination Sequence:
#
# PCOD8211436 Si02
#       6
#     8   8   8   8   8   8
#     4   9  17  29  49  77 106 135 165 206 263 316
#     4   9  18  32  52  77 105 134 173 218 258 307
#     4   8  16  30  46  71 104 133 164 208 256 306
#     4  10  20  35  54  73  99 138 176 212 262 311
#     4  10  20  34  53  76 102 135 176 220 266 309
#     4  10  22  36  49  72 105 138 176 218 259 313
#
# _framework density 19.564378999999999
#
# number of rings (size 3 to 8) (size 9 to 14) (size 15 to 20)
#    0.000    2.667    0.000    2.500    2.333    4.333 
#    0.000    3.333    0.000    0.500    0.000    0.000 
#    0.000    0.000    0.000    0.000    0.000    0.000 
#
# Total GULP energy -594717.158809 kJ/mol
# GULP energy per Si atom -12389.940809 kJ/mol
# Density = 1.951985 g / cm^3
# Si number density = 19.564379 Si / 1000 Ang^3
#
#
#
# Elastic Constant Matrix: (Units=GPa)
#
#
# Indices 1 2 3 4 5 6 
#
# 1 151.0169 27.0645 74.1768 0.0000 0.0000 0.0000
# 2 27.0645 24.7329 16.0616 0.0000 0.0000 0.0000
# 3 74.1768 16.0616 104.7043 0.0000 0.0000 0.0000
# 4 0.0000 0.0000 0.0000 14.7566 0.0000 0.0000
# 5 0.0000 0.0000 0.0000 0.0000 37.5092 0.0000
# 6 0.0000 0.0000 0.0000 0.0000 0.0000 13.5148
#
#
#
# Elastic Compliance Matrix: (Units=1/GPa)
#
#
# Indices 1 2 3 4 5 6 
#
# 1 0.011439 -0.008058 -0.006868 0.000000 0.000000 0.000000
# 2 -0.008058 0.050581 -0.002051 0.000000 0.000000 0.000000
# 3 -0.006868 -0.002051 0.014731 0.000000 0.000000 0.000000
# 4 0.000000 0.000000 0.000000 0.067766 0.000000 0.000000
# 5 0.000000 0.000000 0.000000 0.000000 0.026660 0.000000
# 6 0.000000 0.000000 0.000000 0.000000 0.000000 0.073993
#
#
# Mechanical properties :
#
#
# Convention : Reuss Voigt Hill
#
# Bulk Modulus (GPa) = 23.36540 57.22887 40.29714
# Shear Modulus (GPa) = 17.04222 24.03286 20.53754
#
# Velocity S-wave (km/s) = 2.95461 3.50865 3.24349
# Velocity P-wave (km/s) = 4.85885 6.76234 5.88803
#
# Compressibility (1/GPa) = 0.04279832
#
# Stress axis : x y z
#
# Youngs Moduli (GPa) = 87.41831 19.77031 67.88453
#
# Poissons Ratio (x) = 0.15930 0.46623
# Poissons Ratio (y) = 0.70437 0.13922
# Poissons Ratio (z) = 0.60039 0.04055
#
# Static dielectric constant tensor:
#      x y z
#    x 4.631880 0.000000 0.000000 
#    y 0.000000 3.217650 0.000000 
#    z 0.000000 0.000000 3.728960 
# 
# 
# High freq. dielectric constant tensor:
#      x y z
#    x 1.766220 0.000000 0.000000 
#    y 0.000000 1.717640 0.000000 
#    z 0.000000 0.000000 1.760420 
# 
# From -- ./inp_files/12783.got.cif
#   From: 2010.03.12/outbox.cif.g09.slc.cpg/sg51_7_cif.got.tgz:12783.got - 2010.04.16 13:43:02.
