data_PCOD8211823
_publ_section_title
;
Structure prediction by ZEFSAII (Michael W. Deem and Ramdas Pophale) SiO2 
 PCOD8211823
Probable space group: P M M A
;
_chemical_formula_sum "Si O2"
_cell_formula_units_Z 40
_cell_length_a 14.444571
_cell_length_b 9.062519
_cell_length_c 14.747513
_cell_angle_alpha 90.000000
_cell_angle_beta 90.000000
_cell_angle_gamma 90.000000
_cell_volume 1930.511378
_symmetry_space_group_name_H-M "P M M A"
_symmetry_group_IT_number 51
_symmetry_cell_setting 'orthorhombic'
loop_
_space_group_symop_operation_xyz
x,y,z
1/2-x,-y,z
1/2+x,-y,-z
-x,y,-z
-x,-y,-z
1/2+x,y,-z
1/2-x,y,z
x,-y,z
loop_
_atom_site_type_symbol
_atom_site_label
_atom_site_fract_x
_atom_site_fract_y
_atom_site_fract_z
Si Si1 0.392921 0.172780 0.505354
Si Si2 0.250000 0.822378 0.861219
Si Si3 0.391977 0.326387 0.991382
Si Si4 0.750000 0.826606 0.345670
Si Si5 0.646243 0.659968 0.670450
Si Si6 0.645978 0.160292 0.831123
O O1 0.500000 0.216636 0.500000
O O2 0.342848 0.222980 0.599160
O O3 0.345231 0.258516 0.424507
O O4 0.377631 0.000000 0.489855
O O5 0.156890 0.758049 0.907775
O O6 0.250000 0.764284 0.756849
O O7 0.250000 0.000000 0.869894
O O8 0.372763 0.500000 0.981178
O O9 0.500000 0.289577 0.000000
O O10 0.348417 0.266106 0.082960
O O11 0.750000 0.000000 0.336442
O O12 0.750000 0.632612 0.705510
O O13 0.596240 0.500000 0.661061
O O14 0.593420 0.758102 0.747180
O O15 0.750000 0.127638 0.799985
O O16 0.597936 0.000000 0.850563
#
# Coordination Sequence:
#
# PCOD8211823 Si02
#       6
#     8   4   8   4   8   8
#     4  10  20  36  60  87 116 156 205 254 306 362
#     4  11  23  41  64  89 122 171 219 262 316 375
#     4  11  24  41  62  90 125 163 204 257 320 379
#     4   9  20  39  60  85 122 161 203 258 310 361
#     4  10  20  34  55  84 117 152 188 235 298 361
#     4  10  20  35  59  88 115 150 195 244 299 358
#
# _framework density 20.719899999999999
#
# number of rings (size 3 to 8) (size 9 to 14) (size 15 to 20)
#    0.000    1.800    2.000    2.100    0.000    5.200 
#    0.000    4.000    0.000    0.000    0.000    0.000 
#    0.000    0.000    0.000    0.000    0.000    0.000 
#
# Total GULP energy -495643.626814 kJ/mol
# GULP energy per Si atom -12391.090670 kJ/mol
# Density = 2.067274 g / cm^3
# Si number density = 20.719900 Si / 1000 Ang^3
#
#
#
# Elastic Constant Matrix: (Units=GPa)
#
#
# Indices 1 2 3 4 5 6 
#
# 1 101.0420 39.2200 45.2418 0.0000 0.0000 0.0000
# 2 39.2200 107.4986 65.0787 0.0000 0.0000 0.0000
# 3 45.2418 65.0787 186.5840 0.0000 0.0000 0.0000
# 4 0.0000 0.0000 0.0000 8.6128 0.0000 0.0000
# 5 0.0000 0.0000 0.0000 0.0000 5.7423 0.0000
# 6 0.0000 0.0000 0.0000 0.0000 0.0000 21.2956
#
#
#
# Elastic Compliance Matrix: (Units=1/GPa)
#
#
# Indices 1 2 3 4 5 6 
#
# 1 0.011963 -0.003307 -0.001747 0.000000 0.000000 0.000000
# 2 -0.003307 0.012707 -0.003630 0.000000 0.000000 0.000000
# 3 -0.001747 -0.003630 0.007049 0.000000 0.000000 0.000000
# 4 0.000000 0.000000 0.000000 0.116106 0.000000 0.000000
# 5 0.000000 0.000000 0.000000 0.000000 0.174147 0.000000
# 6 0.000000 0.000000 0.000000 0.000000 0.000000 0.046958
#
#
# Mechanical properties :
#
#
# Convention : Reuss Voigt Hill
#
# Bulk Modulus (GPa) = 69.68475 77.13394 73.40935
# Shear Modulus (GPa) = 12.78505 23.50242 18.14374
#
# Velocity S-wave (km/s) = 2.48673 3.37158 2.96238
# Velocity P-wave (km/s) = 6.47687 7.24324 6.87075
#
# Compressibility (1/GPa) = 0.01435034
#
# Stress axis : x y z
#
# Youngs Moduli (GPa) = 83.59281 78.69978 141.85709
#
# Poissons Ratio (x) = 0.26024 0.24787
# Poissons Ratio (y) = 0.27642 0.51496
# Poissons Ratio (z) = 0.14606 0.28569
#
# Static dielectric constant tensor:
#      x y z
#    x 5.301710 0.000000 0.000000 
#    y 0.000000 4.076510 0.000000 
#    z 0.000000 0.000000 3.815760 
# 
# 
# High freq. dielectric constant tensor:
#      x y z
#    x 1.783870 0.000000 0.000000 
#    y 0.000000 1.816560 0.000000 
#    z 0.000000 0.000000 1.815030 
# 
# From -- ./inp_files/23753.got.cif
#   From: 2010.03.12/outbox.cif.g09.slc.cpg/sg51_12_cif.got.tgz:23753.got - 2010.04.16 13:43:02.
