data_PCOD8211667
_publ_section_title
;
Structure prediction by ZEFSAII (Michael W. Deem and Ramdas Pophale) SiO2 
 PCOD8211667
Probable space group: P M M A
;
_chemical_formula_sum "Si O2"
_cell_formula_units_Z 48
_cell_length_a 14.418926
_cell_length_b 9.389159
_cell_length_c 19.604175
_cell_angle_alpha 90.000000
_cell_angle_beta 90.000000
_cell_angle_gamma 90.000000
_cell_volume 2654.044359
_symmetry_space_group_name_H-M "P M M A"
_symmetry_group_IT_number 51
_symmetry_cell_setting 'orthorhombic'
loop_
_space_group_symop_operation_xyz
x,y,z
1/2-x,-y,z
1/2+x,-y,-z
-x,y,-z
-x,-y,-z
1/2+x,y,-z
1/2-x,y,z
x,-y,z
loop_
_atom_site_type_symbol
_atom_site_label
_atom_site_fract_x
_atom_site_fract_y
_atom_site_fract_z
Si Si1 0.250000 0.337313 0.985111
Si Si2 0.140691 0.336686 0.441192
Si Si3 0.024381 0.835580 0.335848
Si Si4 0.051545 0.334945 0.931865
Si Si5 0.644946 0.837006 0.427715
Si Si6 0.750000 0.833438 0.876348
Si Si7 0.553738 0.166747 0.818743
O O1 0.250000 0.500000 0.010871
O O2 0.160771 0.305463 0.938853
O O3 0.250000 0.241018 0.051229
O O4 0.250000 0.321824 0.432553
O O5 0.108542 0.500000 0.444471
O O6 0.095706 0.261156 0.376678
O O7 0.108093 0.260610 0.510747
O O8 0.028260 0.787456 0.257670
O O9 0.919715 0.810681 0.362324
O O10 0.054664 0.000000 0.344051
O O11 0.028860 0.500000 0.919137
O O12 0.016651 0.247105 0.867775
O O13 0.000000 0.281152 0.000000
O O14 0.750000 0.796825 0.406562
O O15 0.638782 0.000000 0.452863
O O16 0.840337 0.787420 0.833550
O O17 0.750000 0.000000 0.891038
O O18 0.539329 0.000000 0.830487
#
# Coordination Sequence:
#
# PCOD8211667 Si02
#       7
#     4   8   8   8   8   4   8
#     4  10  20  36  58  82 106 137 180 223 264 315
#     4  10  21  35  53  81 111 139 176 222 269 316
#     4  10  21  36  55  79 108 144 180 216 264 319
#     4  10  20  36  58  81 107 141 180 221 264 314
#     4   9  18  35  57  78 103 139 182 223 263 313
#     4  10  20  34  54  80 110 141 172 215 272 321
#     4  10  22  37  54  81 113 142 176 219 267 320
#
# _framework density 18.085605000000001
#
# number of rings (size 3 to 8) (size 9 to 14) (size 15 to 20)
#    0.000    2.167    1.667    1.000    1.167    5.333 
#    1.500    0.000    0.000    0.000    0.000    0.000 
#    0.000    0.000    0.000    0.000    0.000    0.000 
#
# Total GULP energy -595381.367799 kJ/mol
# GULP energy per Si atom -12403.778496 kJ/mol
# Density = 1.804444 g / cm^3
# Si number density = 18.085605 Si / 1000 Ang^3
#
#
#
# Elastic Constant Matrix: (Units=GPa)
#
#
# Indices 1 2 3 4 5 6 
#
# 1 107.2991 44.8185 71.2740 0.0000 0.0000 0.0000
# 2 44.8185 67.1774 63.0092 0.0000 0.0000 0.0000
# 3 71.2740 63.0092 153.7251 0.0000 0.0000 0.0000
# 4 0.0000 0.0000 0.0000 0.6736 0.0000 0.0000
# 5 0.0000 0.0000 0.0000 0.0000 19.3532 0.0000
# 6 0.0000 0.0000 0.0000 0.0000 0.0000 25.1409
#
#
#
# Elastic Compliance Matrix: (Units=1/GPa)
#
#
# Indices 1 2 3 4 5 6 
#
# 1 0.014627 -0.005520 -0.004519 0.000000 0.000000 0.000000
# 2 -0.005520 0.026266 -0.008207 0.000000 0.000000 0.000000
# 3 -0.004519 -0.008207 0.011964 0.000000 0.000000 0.000000
# 4 0.000000 0.000000 0.000000 1.484514 0.000000 0.000000
# 5 0.000000 0.000000 0.000000 0.000000 0.051671 0.000000
# 6 0.000000 0.000000 0.000000 0.000000 0.000000 0.039776
#
#
# Mechanical properties :
#
#
# Convention : Reuss Voigt Hill
#
# Bulk Modulus (GPa) = 61.10318 76.26725 68.68521
# Shear Modulus (GPa) = 2.99264 18.97352 10.98308
#
# Velocity S-wave (km/s) = 1.28775 3.24249 2.46698
# Velocity P-wave (km/s) = 6.00583 7.50200 6.79522
#
# Compressibility (1/GPa) = 0.01636576
#
# Stress axis : x y z
#
# Youngs Moduli (GPa) = 68.36455 38.07164 83.58164
#
# Poissons Ratio (x) = 0.21015 0.37774
# Poissons Ratio (y) = 0.37737 0.68594
# Poissons Ratio (z) = 0.30897 0.31245
#
# Static dielectric constant tensor:
#      x y z
#    x 3.593080 0.000000 0.000000 
#    y 0.000000 3.360770 0.000000 
#    z 0.000000 0.000000 3.229740 
# 
# 
# High freq. dielectric constant tensor:
#      x y z
#    x 1.713190 0.000000 0.000000 
#    y 0.000000 1.698000 0.000000 
#    z 0.000000 0.000000 1.691290 
# 
# From -- ./inp_files/29562.got.cif
#   From: 2010.03.12/outbox.cif.g09.slc.cpg/sg51_15_cif.got.tgz:29562.got - 2010.04.16 13:43:02.
