data_PCOD8211024
_publ_section_title
;
Structure prediction by ZEFSAII (Michael W. Deem and Ramdas Pophale) SiO2 
 PCOD8211024
Probable space group: P M M A
;
_chemical_formula_sum "Si O2"
_cell_formula_units_Z 48
_cell_length_a 9.085613
_cell_length_b 18.522174
_cell_length_c 15.524400
_cell_angle_alpha 90.000000
_cell_angle_beta 90.000000
_cell_angle_gamma 90.000000
_cell_volume 2612.528387
_symmetry_space_group_name_H-M "P M M A"
_symmetry_group_IT_number 51
_symmetry_cell_setting 'orthorhombic'
loop_
_space_group_symop_operation_xyz
x,y,z
1/2-x,-y,z
1/2+x,-y,-z
-x,y,-z
-x,-y,-z
1/2+x,y,-z
1/2-x,y,z
x,-y,z
loop_
_atom_site_type_symbol
_atom_site_label
_atom_site_fract_x
_atom_site_fract_y
_atom_site_fract_z
Si Si1 0.917946 0.914262 0.245051
Si Si2 0.579147 0.327011 0.913738
Si Si3 0.579869 0.582596 0.419705
Si Si4 0.080918 0.585254 0.770457
Si Si5 0.082957 0.914017 0.415435
Si Si6 0.923126 0.839855 0.911993
O O1 0.750000 0.885797 0.242788
O O2 0.995523 0.885542 0.331919
O O3 0.008482 0.885421 0.164646
O O4 0.921490 0.000000 0.242013
O O5 0.750000 0.339945 0.927896
O O6 0.526568 0.374398 0.834415
O O7 0.542349 0.243863 0.894478
O O8 0.500000 0.354003 0.000000
O O9 0.500000 0.622840 0.500000
O O10 0.750000 0.588689 0.439175
O O11 0.527121 0.500000 0.416645
O O12 0.543310 0.615268 0.325589
O O13 0.250000 0.602946 0.793340
O O14 0.053352 0.500000 0.776281
O O15 0.250000 0.884190 0.413664
O O16 0.000000 0.884092 0.500000
O O17 0.084441 0.000000 0.416901
O O18 0.750000 0.855502 0.918608
O O19 0.000000 0.865430 0.000000
#
# Coordination Sequence:
#
# PCOD8211024 Si02
#       6
#     8   8   8   8   8   8
#     4  10  20  33  51  77 105 132 165 205 249 295
#     4  10  21  36  54  74  96 127 166 205 246 296
#     4   8  14  25  42  66  96 128 160 194 234 281
#     4   9  18  32  50  74 103 132 163 202 247 292
#     4   9  16  27  45  70 101 135 168 203 244 291
#     4  10  21  37  55  74  97 128 166 205 248 300
#
# _framework density 18.373004999999999
#
# number of rings (size 3 to 8) (size 9 to 14) (size 15 to 20)
#    0.000    2.667    0.000    3.000    0.000    6.667 
#    0.000    1.667    0.000    1.000    0.000    2.333 
#    0.000    0.000    0.000    0.000    0.000    0.000 
#
# Total GULP energy -595094.052000 kJ/mol
# GULP energy per Si atom -12397.792750 kJ/mol
# Density = 1.833119 g / cm^3
# Si number density = 18.373005 Si / 1000 Ang^3
#
#
#
# Elastic Constant Matrix: (Units=GPa)
#
#
# Indices 1 2 3 4 5 6 
#
# 1 107.6786 19.6378 68.4418 0.0000 0.0000 0.0000
# 2 19.6378 16.6937 24.7055 0.0000 0.0000 0.0000
# 3 68.4418 24.7055 154.4631 0.0000 0.0000 0.0000
# 4 0.0000 0.0000 0.0000 -19.9490 0.0000 0.0000
# 5 0.0000 0.0000 0.0000 0.0000 43.9812 0.0000
# 6 0.0000 0.0000 0.0000 0.0000 0.0000 21.7147
#
#
#
# Elastic Compliance Matrix: (Units=1/GPa)
#
#
# Indices 1 2 3 4 5 6 
#
# 1 0.014001 -0.009549 -0.004676 0.000000 0.000000 0.000000
# 2 -0.009549 0.084993 -0.009363 0.000000 0.000000 0.000000
# 3 -0.004676 -0.009363 0.010044 0.000000 0.000000 0.000000
# 4 0.000000 0.000000 0.000000 -0.050128 0.000000 0.000000
# 5 0.000000 0.000000 0.000000 0.000000 0.022737 0.000000
# 6 0.000000 0.000000 0.000000 0.000000 0.000000 0.046052
#
#
# Mechanical properties :
#
#
# Convention : Reuss Voigt Hill
#
# Bulk Modulus (GPa) = 16.16553 56.04507 36.10530
# Shear Modulus (GPa) = 25.57614 20.21940 22.89777
#
# Velocity S-wave (km/s) = 3.73507 3.32097 3.53409
# Velocity P-wave (km/s) = 5.23628 6.72870 6.02885
#
# Compressibility (1/GPa) = 0.06186003
#
# Stress axis : x y z
#
# Youngs Moduli (GPa) = 71.42474 11.76574 99.56582
#
# Poissons Ratio (x) = 0.11235 0.46560
# Poissons Ratio (y) = 0.68206 0.93222
# Poissons Ratio (z) = 0.33400 0.11016
#
# Static dielectric constant tensor:
#      x y z
#    x 3.857590 0.000000 0.000000 
#    y 0.000000 2.938830 0.000000 
#    z 0.000000 0.000000 4.630380 
# 
# 
# High freq. dielectric constant tensor:
#      x y z
#    x 1.724310 0.000000 0.000000 
#    y 0.000000 1.660720 0.000000 
#    z 0.000000 0.000000 1.732620 
# 
# From -- ./inp_files/21081.got.cif
#   From: 2010.03.12/outbox.cif.g09.slc.cpg/sg51_11_cif.got.tgz:21081.got - 2010.04.16 13:43:02.
