data_PCOD8211297
_publ_section_title
;
Structure prediction by ZEFSAII (Michael W. Deem and Ramdas Pophale) SiO2 
 PCOD8211297
Probable space group: P M M A
;
_chemical_formula_sum "Si O2"
_cell_formula_units_Z 44
_cell_length_a 9.558266
_cell_length_b 7.683558
_cell_length_c 30.381754
_cell_angle_alpha 90.000000
_cell_angle_beta 90.000000
_cell_angle_gamma 90.000000
_cell_volume 2231.281319
_symmetry_space_group_name_H-M "P M M A"
_symmetry_group_IT_number 51
_symmetry_cell_setting 'orthorhombic'
loop_
_space_group_symop_operation_xyz
x,y,z
1/2-x,-y,z
1/2+x,-y,-z
-x,y,-z
-x,-y,-z
1/2+x,y,-z
1/2-x,y,z
x,-y,z
loop_
_atom_site_type_symbol
_atom_site_label
_atom_site_fract_x
_atom_site_fract_y
_atom_site_fract_z
Si Si1 0.904705 0.793463 0.795377
Si Si2 0.416479 0.500000 0.044885
Si Si3 0.906127 0.793011 0.281836
Si Si4 0.407352 0.206816 0.620704
Si Si5 0.408700 0.792533 0.459015
Si Si6 0.583656 0.193154 0.891962
O O1 0.750000 0.712603 0.790710
O O2 0.969964 0.747973 0.843446
O O3 0.997295 0.711043 0.756290
O O4 0.896900 0.000000 0.790889
O O5 0.250000 0.500000 0.036477
O O6 0.466313 0.329718 0.071554
O O7 0.500000 0.500000 0.000000
O O8 0.750000 0.723895 0.273595
O O9 0.956326 0.732867 0.330500
O O10 0.909246 0.000000 0.279199
O O11 0.250000 0.275964 0.610804
O O12 0.517075 0.280791 0.585131
O O13 0.404589 0.000000 0.618174
O O14 0.500000 0.723770 0.500000
O O15 0.250000 0.719773 0.461798
O O16 0.405469 0.000000 0.458868
O O17 0.750000 0.187590 0.889330
O O18 0.526452 0.000000 0.904292
#
# Coordination Sequence:
#
# PCOD8211297 Si02
#       6
#     8   4   8   8   8   8
#     4   8  13  22  37  55  74  98 129 163 199 245
#     4  10  20  34  52  72  96 126 158 194 235 276
#     4   8  13  20  30  46  68  91 115 149 197 249
#     4   8  13  20  27  35  51  75 102 137 185 239
#     4   9  15  20  25  32  43  64  99 144 193 244
#     4   8  15  29  48  69  93 122 155 190 230 276
#
# _framework density 19.719611
#
# number of rings (size 3 to 8) (size 9 to 14) (size 15 to 20)
#    0.000    3.636    0.000    2.727    0.000    3.273 
#    0.000    4.545    0.000    1.091    0.000    0.000 
#    0.000    0.000    0.000    0.000    0.000    0.000 
#
# Total GULP energy -545183.350854 kJ/mol
# GULP energy per Si atom -12390.530701 kJ/mol
# Density = 1.967473 g / cm^3
# Si number density = 19.719611 Si / 1000 Ang^3
#
#
#
# Elastic Constant Matrix: (Units=GPa)
#
#
# Indices 1 2 3 4 5 6 
#
# 1 105.5630 19.3961 94.8517 0.0000 0.0000 0.0000
# 2 19.3961 43.8100 41.2584 0.0000 0.0000 0.0000
# 3 94.8517 41.2584 209.7241 0.0000 0.0000 0.0000
# 4 0.0000 0.0000 0.0000 -9.6583 0.0000 0.0000
# 5 0.0000 0.0000 0.0000 0.0000 42.1247 0.0000
# 6 0.0000 0.0000 0.0000 0.0000 0.0000 0.3525
#
#
#
# Elastic Compliance Matrix: (Units=1/GPa)
#
#
# Indices 1 2 3 4 5 6 
#
# 1 0.015962 -0.000329 -0.007154 0.000000 0.000000 0.000000
# 2 -0.000329 0.028023 -0.005364 0.000000 0.000000 0.000000
# 3 -0.007154 -0.005364 0.009059 0.000000 0.000000 0.000000
# 4 0.000000 0.000000 0.000000 -0.103538 0.000000 0.000000
# 5 0.000000 0.000000 0.000000 0.000000 0.023739 0.000000
# 6 0.000000 0.000000 0.000000 0.000000 0.000000 2.837123
#
#
# Mechanical properties :
#
#
# Convention : Reuss Voigt Hill
#
# Bulk Modulus (GPa) = 36.56429 74.45661 55.51045
# Shear Modulus (GPa) = 1.75736 20.13650 10.94693
#
# Velocity S-wave (km/s) = 0.94504 3.19900 2.35867
# Velocity P-wave (km/s) = 4.44670 7.17526 5.96898
#
# Compressibility (1/GPa) = 0.02734909
#
# Stress axis : x y z
#
# Youngs Moduli (GPa) = 62.64929 35.68471 110.38642
#
# Poissons Ratio (x) = 0.01175 0.78974
# Poissons Ratio (y) = 0.02062 0.59212
# Poissons Ratio (z) = 0.44821 0.19141
#
# Static dielectric constant tensor:
#      x y z
#    x 3.613840 0.000000 0.000000 
#    y 0.000000 3.166940 0.000000 
#    z 0.000000 0.000000 3.913300 
# 
# 
# High freq. dielectric constant tensor:
#      x y z
#    x 1.738830 0.000000 0.000000 
#    y 0.000000 1.725010 0.000000 
#    z 0.000000 0.000000 1.777050 
# 
# From -- ./inp_files/36768.got.cif
#   From: 2010.03.12/outbox.cif.g09.slc.cpg/sg51_19_cif.got.tgz:36768.got - 2010.04.16 13:43:02.
