data_PCOD8211557
_publ_section_title
;
Structure prediction by ZEFSAII (Michael W. Deem and Ramdas Pophale) SiO2 
 PCOD8211557
Probable space group: P M M A
;
_chemical_formula_sum "Si O2"
_cell_formula_units_Z 48
_cell_length_a 9.244509
_cell_length_b 18.166879
_cell_length_c 15.795780
_cell_angle_alpha 90.000000
_cell_angle_beta 90.000000
_cell_angle_gamma 90.000000
_cell_volume 2652.804524
_symmetry_space_group_name_H-M "P M M A"
_symmetry_group_IT_number 51
_symmetry_cell_setting 'orthorhombic'
loop_
_space_group_symop_operation_xyz
x,y,z
1/2-x,-y,z
1/2+x,-y,-z
-x,y,-z
-x,-y,-z
1/2+x,y,-z
1/2-x,y,z
x,-y,z
loop_
_atom_site_type_symbol
_atom_site_label
_atom_site_fract_x
_atom_site_fract_y
_atom_site_fract_z
Si Si1 0.419583 0.500000 0.865206
Si Si2 0.086679 0.154876 0.842106
Si Si3 0.579673 0.264846 0.730808
Si Si4 0.420556 0.500000 0.673657
Si Si5 0.593822 0.365396 0.884183
Si Si6 0.919335 0.000000 0.088502
Si Si7 0.000000 0.244661 0.000000
Si Si8 0.423649 0.652138 0.589091
O O1 0.250000 0.500000 0.872905
O O2 0.481466 0.500000 0.769298
O O3 0.477163 0.426670 0.911583
O O4 0.250000 0.159585 0.806851
O O5 0.036896 0.070902 0.855996
O O6 0.085604 0.194877 0.933313
O O7 0.978926 0.189825 0.773277
O O8 0.750000 0.255544 0.710759
O O9 0.548480 0.332484 0.793620
O O10 0.487362 0.282681 0.647274
O O11 0.250000 0.500000 0.680801
O O12 0.473262 0.572521 0.624396
O O13 0.750000 0.403888 0.878109
O O14 0.608580 0.298448 0.950165
O O15 0.750000 0.000000 0.067495
O O16 0.000000 0.000000 0.000000
O O17 0.500000 0.662702 0.500000
O O18 0.250000 0.659048 0.582425
#
# Coordination Sequence:
#
# PCOD8211557 Si02
#       8
#     4   8   8   4   8   4   4   8
#     4  11  21  35  53  70  92 133 180 225 274 325
#     4  10  20  35  56  80 110 146 179 217 264 316
#     4  10  21  36  54  78 106 140 179 220 268 320
#     4   9  19  34  51  75 104 137 175 217 269 326
#     4  10  21  35  51  72  97 130 177 229 273 317
#     4  10  20  34  54  84 117 148 181 218 264 314
#     4  10  20  34  54  74 102 136 182 222 270 316
#     4  11  21  36  56  81 110 140 177 221 270 323
#
# _framework density 18.094059000000001
#
# number of rings (size 3 to 8) (size 9 to 14) (size 15 to 20)
#    0.000    1.833    2.500    2.000    0.000    5.000 
#    0.000    1.250    0.000    0.000    0.000    0.583 
#    0.000    0.000    0.000    0.000    0.000    0.000 
#
# Total GULP energy -595119.289915 kJ/mol
# GULP energy per Si atom -12398.318540 kJ/mol
# Density = 1.805288 g / cm^3
# Si number density = 18.094059 Si / 1000 Ang^3
#
#
#
# Elastic Constant Matrix: (Units=GPa)
#
#
# Indices 1 2 3 4 5 6 
#
# 1 96.7877 56.6701 32.4185 0.0000 0.0000 0.0000
# 2 56.6701 130.9890 46.4156 0.0000 0.0000 0.0000
# 3 32.4185 46.4156 87.0486 0.0000 0.0000 0.0000
# 4 0.0000 0.0000 0.0000 17.3791 0.0000 0.0000
# 5 0.0000 0.0000 0.0000 0.0000 25.7113 0.0000
# 6 0.0000 0.0000 0.0000 0.0000 0.0000 26.1527
#
#
#
# Elastic Compliance Matrix: (Units=1/GPa)
#
#
# Indices 1 2 3 4 5 6 
#
# 1 0.014262 -0.005287 -0.002492 0.000000 0.000000 0.000000
# 2 -0.005287 0.011373 -0.004095 0.000000 0.000000 0.000000
# 3 -0.002492 -0.004095 0.014600 0.000000 0.000000 0.000000
# 4 0.000000 0.000000 0.000000 0.057540 0.000000 0.000000
# 5 0.000000 0.000000 0.000000 0.000000 0.038893 0.000000
# 6 0.000000 0.000000 0.000000 0.000000 0.000000 0.038237
#
#
# Mechanical properties :
#
#
# Convention : Reuss Voigt Hill
#
# Bulk Modulus (GPa) = 60.65954 65.09264 62.87609
# Shear Modulus (GPa) = 24.49181 25.80335 25.14758
#
# Velocity S-wave (km/s) = 3.68310 3.78043 3.73208
# Velocity P-wave (km/s) = 7.18918 7.42349 7.30727
#
# Compressibility (1/GPa) = 0.01648545
#
# Stress axis : x y z
#
# Youngs Moduli (GPa) = 70.11433 87.92970 68.49514
#
# Poissons Ratio (x) = 0.46490 0.17071
# Poissons Ratio (y) = 0.37071 0.28049
# Poissons Ratio (z) = 0.17475 0.36008
#
# Static dielectric constant tensor:
#      x y z
#    x 3.247020 0.000000 0.000000 
#    y 0.000000 3.327590 0.000000 
#    z 0.000000 0.000000 3.250540 
# 
# 
# High freq. dielectric constant tensor:
#      x y z
#    x 1.703480 0.000000 0.000000 
#    y 0.000000 1.689470 0.000000 
#    z 0.000000 0.000000 1.684490 
# 
# From -- ./inp_files/21282.got.cif
#   From: 2010.03.12/outbox.cif.g09.slc.cpg/sg51_11_cif.got.tgz:21282.got - 2010.04.16 13:43:02.
