data_PCOD8211825
_publ_section_title
;
Structure prediction by ZEFSAII (Michael W. Deem and Ramdas Pophale) SiO2 
 PCOD8211825
Probable space group: P M M A
;
_chemical_formula_sum "Si O2"
_cell_formula_units_Z 48
_cell_length_a 9.584255
_cell_length_b 14.614780
_cell_length_c 17.762739
_cell_angle_alpha 90.000000
_cell_angle_beta 90.000000
_cell_angle_gamma 90.000000
_cell_volume 2488.058439
_symmetry_space_group_name_H-M "P M M A"
_symmetry_group_IT_number 51
_symmetry_cell_setting 'orthorhombic'
loop_
_space_group_symop_operation_xyz
x,y,z
1/2-x,-y,z
1/2+x,-y,-z
-x,y,-z
-x,-y,-z
1/2+x,y,-z
1/2-x,y,z
x,-y,z
loop_
_atom_site_type_symbol
_atom_site_label
_atom_site_fract_x
_atom_site_fract_y
_atom_site_fract_z
Si Si1 0.095953 0.292084 0.680673
Si Si2 0.414640 0.100064 0.153697
Si Si3 0.408271 0.608325 0.430209
Si Si4 0.020855 0.709696 0.852674
Si Si5 0.750000 0.393854 0.057143
Si Si6 0.750000 0.604794 0.878920
Si Si7 0.093205 0.902773 0.700473
O O1 0.250000 0.328566 0.657296
O O2 0.092183 0.287219 0.771183
O O3 0.072654 0.187924 0.649269
O O4 0.977550 0.356752 0.646860
O O5 0.250000 0.118222 0.156445
O O6 0.489402 0.187588 0.114381
O O7 0.472815 0.096763 0.237654
O O8 0.445621 0.000000 0.114797
O O9 0.500000 0.645183 0.500000
O O10 0.250000 0.645284 0.437198
O O11 0.409015 0.500000 0.427744
O O12 0.114128 0.656885 0.912682
O O13 0.881164 0.652974 0.841755
O O14 0.750000 0.500000 0.082902
O O15 0.750000 0.385135 0.968281
O O16 0.750000 0.500000 0.853781
O O17 0.250000 0.897020 0.736597
O O18 0.080359 0.000000 0.655202
#
# Coordination Sequence:
#
# PCOD8211825 Si02
#       7
#     8   8   8   8   4   4   8
#     4  10  20  34  55  85 116 144 180 227 275 321
#     4   9  17  30  51  79 110 142 176 224 284 339
#     4  10  22  39  58  80 110 149 188 225 273 331
#     4  11  21  38  58  85 112 145 189 239 284 330
#     4  11  24  42  59  77 108 150 193 234 287 347
#     4  11  24  40  59  79 106 148 193 236 287 345
#     4   8  15  28  49  78 111 145 181 221 267 322
#
# _framework density 19.292151
#
# number of rings (size 3 to 8) (size 9 to 14) (size 15 to 20)
#    0.000    2.167    1.667    1.500    2.333    4.333 
#    0.000    0.000    0.000    3.500    0.000    0.000 
#    0.000    0.000    0.000    0.000    0.000    0.000 
#
# Total GULP energy -594683.235578 kJ/mol
# GULP energy per Si atom -12389.234075 kJ/mol
# Density = 1.924824 g / cm^3
# Si number density = 19.292151 Si / 1000 Ang^3
#
#
#
# Elastic Constant Matrix: (Units=GPa)
#
#
# Indices 1 2 3 4 5 6 
#
# 1 119.1648 48.0890 15.0569 0.0000 0.0000 0.0000
# 2 48.0890 111.3660 19.4894 0.0000 0.0000 0.0000
# 3 15.0569 19.4894 32.3778 0.0000 0.0000 0.0000
# 4 0.0000 0.0000 0.0000 3.5347 0.0000 0.0000
# 5 0.0000 0.0000 0.0000 0.0000 25.7753 0.0000
# 6 0.0000 0.0000 0.0000 0.0000 0.0000 31.8977
#
#
#
# Elastic Compliance Matrix: (Units=1/GPa)
#
#
# Indices 1 2 3 4 5 6 
#
# 1 0.010322 -0.004043 -0.002367 0.000000 0.000000 0.000000
# 2 -0.004043 0.011620 -0.005114 0.000000 0.000000 0.000000
# 3 -0.002367 -0.005114 0.035065 0.000000 0.000000 0.000000
# 4 0.000000 0.000000 0.000000 0.282909 0.000000 0.000000
# 5 0.000000 0.000000 0.000000 0.000000 0.038797 0.000000
# 6 0.000000 0.000000 0.000000 0.000000 0.000000 0.031350
#
#
# Mechanical properties :
#
#
# Convention : Reuss Voigt Hill
#
# Bulk Modulus (GPa) = 29.44744 47.57548 38.51146
# Shear Modulus (GPa) = 11.25033 24.25975 17.75504
#
# Velocity S-wave (km/s) = 2.41748 3.54996 3.03698
# Velocity P-wave (km/s) = 4.80514 6.44337 5.68359
#
# Compressibility (1/GPa) = 0.03395881
#
# Stress axis : x y z
#
# Youngs Moduli (GPa) = 96.87688 86.05617 28.51884
#
# Poissons Ratio (x) = 0.34794 0.06749
# Poissons Ratio (y) = 0.39169 0.14586
# Poissons Ratio (z) = 0.22927 0.44013
#
# Static dielectric constant tensor:
#      x y z
#    x 3.471280 0.000000 0.000000 
#    y 0.000000 4.147950 0.000000 
#    z 0.000000 0.000000 2.962240 
# 
# 
# High freq. dielectric constant tensor:
#      x y z
#    x 1.769800 0.000000 0.000000 
#    y 0.000000 1.774610 0.000000 
#    z 0.000000 0.000000 1.688210 
# 
# From -- ./inp_files/27651.got.cif
#   From: 2010.03.12/outbox.cif.g09.slc.cpg/sg51_14_cif.got.tgz:27651.got - 2010.04.16 13:43:02.
