data_PCOD8211497
_publ_section_title
;
Structure prediction by ZEFSAII (Michael W. Deem and Ramdas Pophale) SiO2 
 PCOD8211497
Probable space group: P M M A
;
_chemical_formula_sum "Si O2"
_cell_formula_units_Z 56
_cell_length_a 8.766195
_cell_length_b 15.506927
_cell_length_c 20.391872
_cell_angle_alpha 90.000000
_cell_angle_beta 90.000000
_cell_angle_gamma 90.000000
_cell_volume 2772.004723
_symmetry_space_group_name_H-M "P M M A"
_symmetry_group_IT_number 51
_symmetry_cell_setting 'orthorhombic'
loop_
_space_group_symop_operation_xyz
x,y,z
1/2-x,-y,z
1/2+x,-y,-z
-x,y,-z
-x,-y,-z
1/2+x,y,-z
1/2-x,y,z
x,-y,z
loop_
_atom_site_type_symbol
_atom_site_label
_atom_site_fract_x
_atom_site_fract_y
_atom_site_fract_z
Si Si1 0.074820 0.408536 0.100515
Si Si2 0.431814 0.777901 0.066708
Si Si3 0.424157 0.348679 0.241002
Si Si4 0.068606 0.225902 0.432112
Si Si5 0.927774 0.177366 0.199559
Si Si6 0.926072 0.902942 0.681151
Si Si7 0.070100 0.593151 0.381895
O O1 0.250000 0.407820 0.079421
O O2 0.000475 0.500000 0.075386
O O3 0.001198 0.320816 0.071895
O O4 0.059306 0.410880 0.179053
O O5 0.250000 0.779758 0.065729
O O6 0.487853 0.832338 0.129283
O O7 0.500000 0.818494 0.000000
O O8 0.250000 0.313713 0.247042
O O9 0.535335 0.267980 0.233415
O O10 0.472684 0.400587 0.305333
O O11 0.250000 0.223920 0.436005
O O12 0.011273 0.163371 0.373841
O O13 0.004421 0.323456 0.419995
O O14 0.000000 0.191386 0.500000
O O15 0.750000 0.167261 0.186284
O O16 0.983450 0.104763 0.250341
O O17 0.750000 0.882793 0.695684
O O18 0.948945 0.000000 0.654519
O O19 0.250000 0.593142 0.390741
O O20 0.004605 0.500000 0.407409
#
# Coordination Sequence:
#
# PCOD8211497 Si02
#       7
#     8   8   8   8   8   8   8
#     4   8  14  24  42  70 101 136 182 236 287 333
#     4  10  20  34  53  77 109 150 195 236 282 338
#     4   9  15  28  50  74 103 141 188 235 283 334
#     4  10  21  37  56  82 116 153 191 231 281 338
#     4  11  21  34  56  84 115 146 182 229 284 338
#     4  10  21  40  65  89 112 143 185 231 281 341
#     4   9  16  28  51  79 107 145 194 240 281 331
#
# _framework density 20.201986000000002
#
# number of rings (size 3 to 8) (size 9 to 14) (size 15 to 20)
#    0.000    2.429    1.429    3.000    0.000    3.429 
#    0.000    0.000    0.000   15.429    0.000    0.000 
#    0.000    0.000    0.000    0.000    0.000    0.000 
#
# Total GULP energy -693947.363977 kJ/mol
# GULP energy per Si atom -12391.917214 kJ/mol
# Density = 2.015600 g / cm^3
# Si number density = 20.201986 Si / 1000 Ang^3
#
#
#
# Elastic Constant Matrix: (Units=GPa)
#
#
# Indices 1 2 3 4 5 6 
#
# 1 61.0919 20.4053 35.5602 0.0000 0.0000 0.0000
# 2 20.4053 94.5535 41.6243 0.0000 0.0000 0.0000
# 3 35.5602 41.6243 133.9321 0.0000 0.0000 0.0000
# 4 0.0000 0.0000 0.0000 8.5950 0.0000 0.0000
# 5 0.0000 0.0000 0.0000 0.0000 29.0991 0.0000
# 6 0.0000 0.0000 0.0000 0.0000 0.0000 10.3695
#
#
#
# Elastic Compliance Matrix: (Units=1/GPa)
#
#
# Indices 1 2 3 4 5 6 
#
# 1 0.019771 -0.002266 -0.004545 0.000000 0.000000 0.000000
# 2 -0.002266 0.012512 -0.003287 0.000000 0.000000 0.000000
# 3 -0.004545 -0.003287 0.009695 0.000000 0.000000 0.000000
# 4 0.000000 0.000000 0.000000 0.116346 0.000000 0.000000
# 5 0.000000 0.000000 0.000000 0.000000 0.034365 0.000000
# 6 0.000000 0.000000 0.000000 0.000000 0.000000 0.096437
#
#
# Mechanical properties :
#
#
# Convention : Reuss Voigt Hill
#
# Bulk Modulus (GPa) = 45.90959 53.86191 49.88575
# Shear Modulus (GPa) = 15.79363 22.41189 19.10276
#
# Velocity S-wave (km/s) = 2.79908 3.33436 3.07838
# Velocity P-wave (km/s) = 5.76377 6.44543 6.11411
#
# Compressibility (1/GPa) = 0.02178194
#
# Stress axis : x y z
#
# Youngs Moduli (GPa) = 50.57838 79.92330 103.14789
#
# Poissons Ratio (x) = 0.18110 0.46883
# Poissons Ratio (y) = 0.11460 0.33904
# Poissons Ratio (z) = 0.22989 0.26270
#
# Static dielectric constant tensor:
#      x y z
#    x 3.205770 0.000000 0.000000 
#    y 0.000000 3.726920 0.000000 
#    z 0.000000 0.000000 3.722320 
# 
# 
# High freq. dielectric constant tensor:
#      x y z
#    x 1.744730 0.000000 0.000000 
#    y 0.000000 1.774900 0.000000 
#    z 0.000000 0.000000 1.791420 
# 
# From -- ./inp_files/31882.got.cif
#   From: 2010.03.12/outbox.cif.g09.slc.cpg/sg51_16_cif.got.tgz:31882.got - 2010.04.16 13:43:02.
