data_PCOD8211684
_publ_section_title
;
Structure prediction by ZEFSAII (Michael W. Deem and Ramdas Pophale) SiO2 
 PCOD8211684
Probable space group: P M M A
;
_chemical_formula_sum "Si O2"
_cell_formula_units_Z 64
_cell_length_a 18.449921
_cell_length_b 9.206193
_cell_length_c 19.754215
_cell_angle_alpha 90.000000
_cell_angle_beta 90.000000
_cell_angle_gamma 90.000000
_cell_volume 3355.323220
_symmetry_space_group_name_H-M "P M M A"
_symmetry_group_IT_number 51
_symmetry_cell_setting 'orthorhombic'
loop_
_space_group_symop_operation_xyz
x,y,z
1/2-x,-y,z
1/2+x,-y,-z
-x,y,-z
-x,-y,-z
1/2+x,y,-z
1/2-x,y,z
x,-y,z
loop_
_atom_site_type_symbol
_atom_site_label
_atom_site_fract_x
_atom_site_fract_y
_atom_site_fract_z
Si Si1 0.665340 0.829216 0.968362
Si Si2 0.411131 0.667963 0.909453
Si Si3 0.912707 0.167049 0.340436
Si Si4 0.667586 0.668497 0.606377
Si Si5 0.049769 0.330273 0.285928
Si Si6 0.833392 0.834311 0.204679
Si Si7 0.332844 0.171254 0.526016
Si Si8 0.929220 0.667926 0.866140
O O1 0.750000 0.792662 0.974366
O O2 0.634763 0.761067 0.899353
O O3 0.651023 0.000000 0.967969
O O4 0.623766 0.761035 0.031416
O O5 0.389636 0.500000 0.918893
O O6 0.381971 0.723720 0.837728
O O7 0.497807 0.686648 0.910144
O O8 0.851503 0.186820 0.283327
O O9 0.879747 0.226445 0.410514
O O10 0.983579 0.256062 0.323290
O O11 0.935467 0.000000 0.347384
O O12 0.750000 0.714807 0.621961
O O13 0.661232 0.500000 0.588353
O O14 0.622373 0.707761 0.673098
O O15 0.636361 0.755481 0.542021
O O16 0.033021 0.500000 0.283868
O O17 0.058936 0.271409 0.209635
O O18 0.750000 0.795194 0.192621
O O19 0.849332 0.000000 0.181662
O O20 0.250000 0.219686 0.537983
O O21 0.339078 0.000000 0.517605
O O22 0.905023 0.500000 0.864488
#
# Coordination Sequence:
#
# PCOD8211684 Si02
#       8
#     8   8   8   8   8   8   8   8
#     4  11  25  42  60  86 117 148 187 233 280 334
#     4  11  22  38  60  87 116 148 187 230 276 333
#     4  10  20  34  54  80 112 149 187 228 276 333
#     4   9  19  36  57  80 106 142 188 233 281 335
#     4  10  21  38  58  82 113 146 183 231 281 334
#     4  10  20  34  54  81 113 150 190 229 273 328
#     4   9  18  34  55  79 110 148 189 233 279 327
#     4  10  22  40  61  85 114 149 189 233 281 336
#
# _framework density 19.074168
#
# number of rings (size 3 to 8) (size 9 to 14) (size 15 to 20)
#    0.000    2.000    1.250    1.875    0.000    9.250 
#    0.000    3.750    0.000    3.750    0.000    0.000 
#    0.000    0.000    0.000    0.000    0.000    0.000 
#
# Total GULP energy -793848.034115 kJ/mol
# GULP energy per Si atom -12403.875533 kJ/mol
# Density = 1.903075 g / cm^3
# Si number density = 19.074168 Si / 1000 Ang^3
#
#
#
# Elastic Constant Matrix: (Units=GPa)
#
#
# Indices 1 2 3 4 5 6 
#
# 1 80.1065 44.8169 58.7922 0.0000 0.0000 0.0000
# 2 44.8169 63.5139 48.6034 0.0000 0.0000 0.0000
# 3 58.7922 48.6034 127.3926 0.0000 0.0000 0.0000
# 4 0.0000 0.0000 0.0000 35.0621 0.0000 0.0000
# 5 0.0000 0.0000 0.0000 0.0000 35.5336 0.0000
# 6 0.0000 0.0000 0.0000 0.0000 0.0000 30.5941
#
#
#
# Elastic Compliance Matrix: (Units=1/GPa)
#
#
# Indices 1 2 3 4 5 6 
#
# 1 0.023906 -0.011901 -0.006493 0.000000 0.000000 0.000000
# 2 -0.011901 0.028161 -0.005252 0.000000 0.000000 0.000000
# 3 -0.006493 -0.005252 0.012850 0.000000 0.000000 0.000000
# 4 0.000000 0.000000 0.000000 0.028521 0.000000 0.000000
# 5 0.000000 0.000000 0.000000 0.000000 0.028142 0.000000
# 6 0.000000 0.000000 0.000000 0.000000 0.000000 0.032686
#
#
# Mechanical properties :
#
#
# Convention : Reuss Voigt Hill
#
# Bulk Modulus (GPa) = 56.73096 63.93756 60.33426
# Shear Modulus (GPa) = 24.10429 28.15800 26.13115
#
# Velocity S-wave (km/s) = 3.55873 3.84635 3.70533
# Velocity P-wave (km/s) = 6.83322 7.30200 7.07150
#
# Compressibility (1/GPa) = 0.01762706
#
# Stress axis : x y z
#
# Youngs Moduli (GPa) = 41.82987 35.51027 77.82223
#
# Poissons Ratio (x) = 0.42259 0.50526
# Poissons Ratio (y) = 0.49780 0.40872
# Poissons Ratio (z) = 0.27158 0.18650
#
# Static dielectric constant tensor:
#      x y z
#    x 3.535090 0.000000 0.000000 
#    y 0.000000 3.507770 0.000000 
#    z 0.000000 0.000000 3.642700 
# 
# 
# High freq. dielectric constant tensor:
#      x y z
#    x 1.741780 0.000000 0.000000 
#    y 0.000000 1.735980 0.000000 
#    z 0.000000 0.000000 1.751980 
# 
# From -- ./inp_files/33783.got.cif
#   From: 2010.03.12/outbox.cif.g09.slc.cpg/sg51_17_cif.got.tgz:33783.got - 2010.04.16 13:43:02.
