data_PCOD8211822
_publ_section_title
;
Structure prediction by ZEFSAII (Michael W. Deem and Ramdas Pophale) SiO2 
 PCOD8211822
Probable space group: P M M A
;
_chemical_formula_sum "Si O2"
_cell_formula_units_Z 44
_cell_length_a 9.329435
_cell_length_b 7.939434
_cell_length_c 29.593866
_cell_angle_alpha 90.000000
_cell_angle_beta 90.000000
_cell_angle_gamma 90.000000
_cell_volume 2192.030482
_symmetry_space_group_name_H-M "P M M A"
_symmetry_group_IT_number 51
_symmetry_cell_setting 'orthorhombic'
loop_
_space_group_symop_operation_xyz
x,y,z
1/2-x,-y,z
1/2+x,-y,-z
-x,y,-z
-x,-y,-z
1/2+x,y,-z
1/2-x,y,z
x,-y,z
loop_
_atom_site_type_symbol
_atom_site_label
_atom_site_fract_x
_atom_site_fract_y
_atom_site_fract_z
Si Si1 0.581986 0.000000 0.453394
Si Si2 0.592319 0.194075 0.959640
Si Si3 0.085374 0.689604 0.609002
Si Si4 0.586911 0.802273 0.219070
Si Si5 0.088111 0.306829 0.878270
Si Si6 0.417145 0.197037 0.306262
O O1 0.500000 0.000000 0.500000
O O2 0.535439 0.169330 0.426822
O O3 0.750000 0.000000 0.463419
O O4 0.750000 0.280063 0.957528
O O5 0.514921 0.206845 0.911562
O O6 0.612581 0.000000 0.971497
O O7 0.500000 0.280353 0.000000
O O8 0.250000 0.724226 0.622753
O O9 0.067599 0.500000 0.588736
O O10 0.988408 0.701096 0.653225
O O11 0.750000 0.750282 0.230567
O O12 0.533930 0.714325 0.173089
O O13 0.486222 0.738847 0.259556
O O14 0.572076 0.000000 0.211925
O O15 0.250000 0.234600 0.882362
O O16 0.083250 0.500000 0.892475
O O17 0.250000 0.238439 0.305027
O O18 0.448187 0.000000 0.313495
#
# Coordination Sequence:
#
# PCOD8211822 Si02
#       6
#     4   8   8   8   8   8
#     4  10  22  40  62  88 120 156 196 244 293 346
#     4  10  21  37  58  81 103 132 173 221 272 328
#     4  10  21  38  61  87 116 155 200 242 288 346
#     4   9  18  33  54  78 108 150 193 230 272 327
#     4  10  21  36  54  78 109 143 179 221 270 326
#     4  10  20  34  55  84 117 151 189 236 289 340
#
# _framework density 20.072714000000001
#
# number of rings (size 3 to 8) (size 9 to 14) (size 15 to 20)
#    0.000    2.182    0.909    1.636    0.000    6.182 
#    0.000    3.636    0.000    0.000    0.000    0.000 
#    0.000    0.000    0.000    0.000    0.000    0.000 
#
# Total GULP energy -545655.427570 kJ/mol
# GULP energy per Si atom -12401.259718 kJ/mol
# Density = 2.002703 g / cm^3
# Si number density = 20.072714 Si / 1000 Ang^3
#
#
#
# Elastic Constant Matrix: (Units=GPa)
#
#
# Indices 1 2 3 4 5 6 
#
# 1 114.3645 32.3727 80.4804 0.0000 0.0000 0.0000
# 2 32.3727 71.0995 42.5867 0.0000 0.0000 0.0000
# 3 80.4804 42.5867 146.4112 0.0000 0.0000 0.0000
# 4 0.0000 0.0000 0.0000 7.6641 0.0000 0.0000
# 5 0.0000 0.0000 0.0000 0.0000 41.1453 0.0000
# 6 0.0000 0.0000 0.0000 0.0000 0.0000 18.1493
#
#
#
# Elastic Compliance Matrix: (Units=1/GPa)
#
#
# Indices 1 2 3 4 5 6 
#
# 1 0.014544 -0.002220 -0.007349 0.000000 0.000000 0.000000
# 2 -0.002220 0.017371 -0.003832 0.000000 0.000000 0.000000
# 3 -0.007349 -0.003832 0.011984 0.000000 0.000000 0.000000
# 4 0.000000 0.000000 0.000000 0.130479 0.000000 0.000000
# 5 0.000000 0.000000 0.000000 0.000000 0.024304 0.000000
# 6 0.000000 0.000000 0.000000 0.000000 0.000000 0.055099
#
#
# Mechanical properties :
#
#
# Convention : Reuss Voigt Hill
#
# Bulk Modulus (GPa) = 58.49106 71.41720 64.95413
# Shear Modulus (GPa) = 17.46523 25.15410 21.30966
#
# Velocity S-wave (km/s) = 2.95294 3.54382 3.26179
# Velocity P-wave (km/s) = 6.38978 7.23888 6.82755
#
# Compressibility (1/GPa) = 0.01709663
#
# Stress axis : x y z
#
# Youngs Moduli (GPa) = 68.75699 57.56658 83.44232
#
# Poissons Ratio (x) = 0.12782 0.61320
# Poissons Ratio (y) = 0.15266 0.31977
# Poissons Ratio (z) = 0.50528 0.22061
#
# Static dielectric constant tensor:
#      x y z
#    x 3.812040 0.000000 0.000000 
#    y 0.000000 3.568770 0.000000 
#    z 0.000000 0.000000 3.536610 
# 
# 
# High freq. dielectric constant tensor:
#      x y z
#    x 1.780340 0.000000 0.000000 
#    y 0.000000 1.775490 0.000000 
#    z 0.000000 0.000000 1.780410 
# 
# From -- ./inp_files/36819.got.cif
#   From: 2010.03.12/outbox.cif.g09.slc.cpg/sg51_19_cif.got.tgz:36819.got - 2010.04.16 13:43:02.
