data_PCOD8211457
_publ_section_title
;
Structure prediction by ZEFSAII (Michael W. Deem and Ramdas Pophale) SiO2 
 PCOD8211457
Probable space group: P M M A
;
_chemical_formula_sum "Si O2"
_cell_formula_units_Z 56
_cell_length_a 19.500029
_cell_length_b 8.821326
_cell_length_c 17.834492
_cell_angle_alpha 90.000000
_cell_angle_beta 90.000000
_cell_angle_gamma 90.000000
_cell_volume 3067.819988
_symmetry_space_group_name_H-M "P M M A"
_symmetry_group_IT_number 51
_symmetry_cell_setting 'orthorhombic'
loop_
_space_group_symop_operation_xyz
x,y,z
1/2-x,-y,z
1/2+x,-y,-z
-x,y,-z
-x,-y,-z
1/2+x,y,-z
1/2-x,y,z
x,-y,z
loop_
_atom_site_type_symbol
_atom_site_label
_atom_site_fract_x
_atom_site_fract_y
_atom_site_fract_z
Si Si1 0.923140 0.680034 0.624490
Si Si2 0.172711 0.319436 0.079668
Si Si3 0.423050 0.676650 0.784203
Si Si4 0.672923 0.319807 0.085706
Si Si5 0.329182 0.822798 0.496625
Si Si6 0.578478 0.324503 0.791441
Si Si7 0.433037 0.177756 0.626597
O O1 0.930032 0.500000 0.623628
O O2 0.860840 0.732408 0.572929
O O3 0.907102 0.741857 0.708469
O O4 0.996512 0.745652 0.597914
O O5 0.250000 0.266573 0.096334
O O6 0.167710 0.500000 0.080291
O O7 0.124773 0.245845 0.144197
O O8 0.149733 0.261560 0.996891
O O9 0.408357 0.500000 0.768855
O O10 0.375140 0.746865 0.849065
O O11 0.499864 0.702176 0.813287
O O12 0.409137 0.764802 0.707565
O O13 0.750000 0.264954 0.102194
O O14 0.668517 0.500000 0.087008
O O15 0.250000 0.774051 0.507612
O O16 0.371507 0.778773 0.570681
O O17 0.335338 0.000000 0.479150
O O18 0.597500 0.500000 0.789397
O O19 0.446197 0.000000 0.629163
#
# Coordination Sequence:
#
# PCOD8211457 Si02
#       7
#     8   8   8   8   8   8   8
#     4  10  20  34  53  77 102 127 160 202 247 293
#     4   8  13  22  37  59  90 125 155 184 226 281
#     4   9  17  29  45  68  96 120 150 197 243 280
#     4   8  14  24  39  62  92 124 155 189 234 284
#     4  10  22  38  53  72  99 129 163 201 239 286
#     4   8  15  26  40  63  93 121 150 188 233 278
#     4  10  20  35  54  72  94 129 167 199 239 292
#
# _framework density 18.254004999999999
#
# number of rings (size 3 to 8) (size 9 to 14) (size 15 to 20)
#    0.000    3.000    0.000    3.000    0.000    4.857 
#    0.000    4.286    0.000    0.000    0.000    9.000 
#    0.000    5.714    0.000    0.000    0.000    0.000 
#
# Total GULP energy -694144.543772 kJ/mol
# GULP energy per Si atom -12395.438282 kJ/mol
# Density = 1.821246 g / cm^3
# Si number density = 18.254005 Si / 1000 Ang^3
#
#
#
# Elastic Constant Matrix: (Units=GPa)
#
#
# Indices 1 2 3 4 5 6 
#
# 1 120.4687 27.7451 85.8430 0.0000 0.0000 0.0000
# 2 27.7451 31.2158 28.3661 0.0000 0.0000 0.0000
# 3 85.8430 28.3661 128.8012 0.0000 0.0000 0.0000
# 4 0.0000 0.0000 0.0000 7.3544 0.0000 0.0000
# 5 0.0000 0.0000 0.0000 0.0000 39.4017 0.0000
# 6 0.0000 0.0000 0.0000 0.0000 0.0000 17.9541
#
#
#
# Elastic Compliance Matrix: (Units=1/GPa)
#
#
# Indices 1 2 3 4 5 6 
#
# 1 0.016632 -0.005888 -0.009788 0.000000 0.000000 0.000000
# 2 -0.005888 0.042135 -0.005355 0.000000 0.000000 0.000000
# 3 -0.009788 -0.005355 0.015467 0.000000 0.000000 0.000000
# 4 0.000000 0.000000 0.000000 0.135973 0.000000 0.000000
# 5 0.000000 0.000000 0.000000 0.000000 0.025380 0.000000
# 6 0.000000 0.000000 0.000000 0.000000 0.000000 0.055698
#
#
# Mechanical properties :
#
#
# Convention : Reuss Voigt Hill
#
# Bulk Modulus (GPa) = 31.08401 62.71046 46.89724
# Shear Modulus (GPa) = 14.53198 22.17748 18.35473
#
# Velocity S-wave (km/s) = 2.82458 3.48938 3.17443
# Velocity P-wave (km/s) = 5.26339 7.11781 6.25965
#
# Compressibility (1/GPa) = 0.03217088
#
# Stress axis : x y z
#
# Youngs Moduli (GPa) = 60.12675 23.73337 64.65551
#
# Poissons Ratio (x) = 0.13975 0.63283
# Poissons Ratio (y) = 0.35403 0.34624
# Poissons Ratio (z) = 0.58851 0.12709
#
# Static dielectric constant tensor:
#      x y z
#    x 3.485410 0.000000 0.000000 
#    y 0.000000 2.924810 0.000000 
#    z 0.000000 0.000000 3.759040 
# 
# 
# High freq. dielectric constant tensor:
#      x y z
#    x 1.706410 0.000000 0.000000 
#    y 0.000000 1.660940 0.000000 
#    z 0.000000 0.000000 1.721180 
# 
# From -- ./inp_files/30490.got.cif
#   From: 2010.03.12/outbox.cif.g09.slc.cpg/sg51_16_cif.got.tgz:30490.got - 2010.04.16 13:43:02.
