data_PCOD8211620
_publ_section_title
;
Structure prediction by ZEFSAII (Michael W. Deem and Ramdas Pophale) SiO2 
 PCOD8211620
Probable space group: P M M A
;
_chemical_formula_sum "Si O2"
_cell_formula_units_Z 48
_cell_length_a 9.394412
_cell_length_b 7.757449
_cell_length_c 34.005127
_cell_angle_alpha 90.000000
_cell_angle_beta 90.000000
_cell_angle_gamma 90.000000
_cell_volume 2478.180486
_symmetry_space_group_name_H-M "P M M A"
_symmetry_group_IT_number 51
_symmetry_cell_setting 'orthorhombic'
loop_
_space_group_symop_operation_xyz
x,y,z
1/2-x,-y,z
1/2+x,-y,-z
-x,y,-z
-x,-y,-z
1/2+x,y,-z
1/2-x,y,z
x,-y,z
loop_
_atom_site_type_symbol
_atom_site_label
_atom_site_fract_x
_atom_site_fract_y
_atom_site_fract_z
Si Si1 0.088834 0.294501 0.537170
Si Si2 0.081613 0.000000 0.822549
Si Si3 0.915064 0.304334 0.960996
Si Si4 0.910638 0.295696 0.610720
Si Si5 0.412422 0.691615 0.767686
Si Si6 0.583466 0.000000 0.903306
Si Si7 0.912364 0.801757 0.696150
O O1 0.250000 0.222882 0.535309
O O2 0.090108 0.500000 0.536942
O O3 0.000000 0.224334 0.500000
O O4 0.012699 0.223783 0.576497
O O5 0.030057 0.169725 0.798995
O O6 0.004745 0.000000 0.863809
O O7 0.250000 0.000000 0.829682
O O8 0.750000 0.282704 0.971365
O O9 0.949812 0.500000 0.947154
O O10 0.960129 0.171948 0.927019
O O11 0.000000 0.255467 0.000000
O O12 0.750000 0.225928 0.603796
O O13 0.910641 0.500000 0.610635
O O14 0.971688 0.228324 0.652229
O O15 0.250000 0.736418 0.757214
O O16 0.426911 0.500000 0.786099
O O17 0.498301 0.693008 0.727143
O O18 0.750000 0.000000 0.893236
O O19 0.750000 0.736486 0.697927
O O20 0.925927 0.000000 0.707908
#
# Coordination Sequence:
#
# PCOD8211620 Si02
#       7
#     8   4   8   8   8   4   8
#     4   9  16  26  42  65  93 125 161 202 249 302
#     4  10  22  39  55  78 111 144 183 231 276 326
#     4   9  18  33  53  79 111 145 184 230 277 325
#     4   9  17  29  45  68  98 128 160 201 250 305
#     4  10  21  38  59  80 105 140 180 224 276 329
#     4  10  21  35  53  78 110 146 184 227 275 326
#     4  10  20  34  54  79 106 135 170 214 265 322
#
# _framework density 19.369047999999999
#
# number of rings (size 3 to 8) (size 9 to 14) (size 15 to 20)
#    0.000    2.500    0.833    1.250    0.000    5.667 
#    0.000    1.667    0.000    0.500    0.000    0.000 
#    0.000    0.000    0.000    0.000    0.000    0.000 
#
# Total GULP energy -595234.362088 kJ/mol
# GULP energy per Si atom -12400.715877 kJ/mol
# Density = 1.932496 g / cm^3
# Si number density = 19.369048 Si / 1000 Ang^3
#
#
#
# Elastic Constant Matrix: (Units=GPa)
#
#
# Indices 1 2 3 4 5 6 
#
# 1 86.2966 34.4862 75.3740 0.0000 0.0000 0.0000
# 2 34.4862 88.0784 62.0830 0.0000 0.0000 0.0000
# 3 75.3740 62.0830 165.6297 0.0000 0.0000 0.0000
# 4 0.0000 0.0000 0.0000 23.5527 0.0000 0.0000
# 5 0.0000 0.0000 0.0000 0.0000 41.8217 0.0000
# 6 0.0000 0.0000 0.0000 0.0000 0.0000 10.8944
#
#
#
# Elastic Compliance Matrix: (Units=1/GPa)
#
#
# Indices 1 2 3 4 5 6 
#
# 1 0.019457 -0.001872 -0.008153 0.000000 0.000000 0.000000
# 2 -0.001872 0.015610 -0.005000 0.000000 0.000000 0.000000
# 3 -0.008153 -0.005000 0.011622 0.000000 0.000000 0.000000
# 4 0.000000 0.000000 0.000000 0.042458 0.000000 0.000000
# 5 0.000000 0.000000 0.000000 0.000000 0.023911 0.000000
# 6 0.000000 0.000000 0.000000 0.000000 0.000000 0.091790
#
#
# Mechanical properties :
#
#
# Convention : Reuss Voigt Hill
#
# Bulk Modulus (GPa) = 60.09243 75.98791 68.04017
# Shear Modulus (GPa) = 20.79500 26.45787 23.62643
#
# Velocity S-wave (km/s) = 3.28017 3.69994 3.49636
# Velocity P-wave (km/s) = 6.74080 7.58746 7.17662
#
# Compressibility (1/GPa) = 0.01664103
#
# Stress axis : x y z
#
# Youngs Moduli (GPa) = 51.39612 64.06046 86.04615
#
# Poissons Ratio (x) = 0.11989 0.70152
# Poissons Ratio (y) = 0.09619 0.43019
# Poissons Ratio (z) = 0.41902 0.32027
#
# Static dielectric constant tensor:
#      x y z
#    x 3.549980 0.000000 0.000000 
#    y 0.000000 3.531430 0.000000 
#    z 0.000000 0.000000 3.433110 
# 
# 
# High freq. dielectric constant tensor:
#      x y z
#    x 1.746560 0.000000 0.000000 
#    y 0.000000 1.752290 0.000000 
#    z 0.000000 0.000000 1.746890 
# 
# From -- ./inp_files/37104.got.cif
#   From: 2010.03.12/outbox.cif.g09.slc.cpg/sg51_19_cif.got.tgz:37104.got - 2010.04.16 13:43:02.
