data_PCOD8211499
_publ_section_title
;
Structure prediction by ZEFSAII (Michael W. Deem and Ramdas Pophale) SiO2 
 PCOD8211499
Probable space group: P M M A
;
_chemical_formula_sum "Si O2"
_cell_formula_units_Z 40
_cell_length_a 9.014723
_cell_length_b 9.903660
_cell_length_c 24.479684
_cell_angle_alpha 90.000000
_cell_angle_beta 90.000000
_cell_angle_gamma 90.000000
_cell_volume 2185.515627
_symmetry_space_group_name_H-M "P M M A"
_symmetry_group_IT_number 51
_symmetry_cell_setting 'orthorhombic'
loop_
_space_group_symop_operation_xyz
x,y,z
1/2-x,-y,z
1/2+x,-y,-z
-x,y,-z
-x,-y,-z
1/2+x,y,-z
1/2-x,y,z
x,-y,z
loop_
_atom_site_type_symbol
_atom_site_label
_atom_site_fract_x
_atom_site_fract_y
_atom_site_fract_z
Si Si1 0.913009 0.159922 0.551153
Si Si2 0.073734 0.849490 0.329701
Si Si3 0.920676 0.000000 0.058100
Si Si4 0.424533 0.732715 0.876886
Si Si5 0.424518 0.341592 0.232097
Si Si6 0.425265 0.500000 0.057940
O O1 0.750000 0.224866 0.549153
O O2 0.988725 0.191895 0.610188
O O3 0.000000 0.224569 0.500000
O O4 0.902942 0.000000 0.544324
O O5 0.250000 0.855519 0.334161
O O6 0.024022 0.735778 0.286738
O O7 0.015876 0.000000 0.312772
O O8 0.963172 0.874290 0.095674
O O9 0.750000 0.000000 0.042590
O O10 0.000000 0.000000 0.000000
O O11 0.250000 0.697810 0.880198
O O12 0.478655 0.729099 0.814718
O O13 0.524037 0.629140 0.909467
O O14 0.250000 0.321238 0.220191
O O15 0.463170 0.500000 0.237356
O O16 0.250000 0.500000 0.050980
O O17 0.500000 0.500000 0.000000
#
# Coordination Sequence:
#
# PCOD8211499 Si02
#       6
#     8   8   4   8   8   4
#     4   8  13  23  41  65  94 127 165 211 262 315
#     4   8  15  28  47  72 101 135 174 217 267 317
#     4  10  24  42  60  84 112 142 175 212 263 322
#     4  11  23  40  59  82 113 146 178 219 269 319
#     4  10  20  34  53  78 105 136 181 224 261 314
#     4  12  24  40  62  88 112 140 181 222 263 316
#
# _framework density 18.302316999999999
#
# number of rings (size 3 to 8) (size 9 to 14) (size 15 to 20)
#    0.000    2.400    1.000    3.300    1.400    3.200 
#    0.000    1.000    0.000    1.800    0.000    0.000 
#    0.000    0.000    0.000    0.000    0.000    0.000 
#
# Total GULP energy -495772.100362 kJ/mol
# GULP energy per Si atom -12394.302509 kJ/mol
# Density = 1.826066 g / cm^3
# Si number density = 18.302317 Si / 1000 Ang^3
#
#
#
# Elastic Constant Matrix: (Units=GPa)
#
#
# Indices 1 2 3 4 5 6 
#
# 1 75.8150 41.2733 54.6898 0.0000 0.0000 0.0000
# 2 41.2733 111.6649 73.3428 0.0000 0.0000 0.0000
# 3 54.6898 73.3428 177.5134 0.0000 0.0000 0.0000
# 4 0.0000 0.0000 0.0000 25.4871 0.0000 0.0000
# 5 0.0000 0.0000 0.0000 0.0000 32.8710 0.0000
# 6 0.0000 0.0000 0.0000 0.0000 0.0000 23.2997
#
#
#
# Elastic Compliance Matrix: (Units=1/GPa)
#
#
# Indices 1 2 3 4 5 6 
#
# 1 0.018289 -0.004198 -0.003900 0.000000 0.000000 0.000000
# 2 -0.004198 0.013255 -0.004183 0.000000 0.000000 0.000000
# 3 -0.003900 -0.004183 0.008563 0.000000 0.000000 0.000000
# 4 0.000000 0.000000 0.000000 0.039236 0.000000 0.000000
# 5 0.000000 0.000000 0.000000 0.000000 0.030422 0.000000
# 6 0.000000 0.000000 0.000000 0.000000 0.000000 0.042919
#
#
# Mechanical properties :
#
#
# Convention : Reuss Voigt Hill
#
# Bulk Modulus (GPa) = 64.33298 78.17834 71.25566
# Shear Modulus (GPa) = 27.40827 29.37738 28.39282
#
# Velocity S-wave (km/s) = 3.87399 4.01074 3.94296
# Velocity P-wave (km/s) = 7.43215 8.01597 7.72958
#
# Compressibility (1/GPa) = 0.01554413
#
# Stress axis : x y z
#
# Youngs Moduli (GPa) = 54.67823 75.44603 116.77968
#
# Poissons Ratio (x) = 0.31675 0.45543
# Poissons Ratio (y) = 0.22956 0.48847
# Poissons Ratio (z) = 0.21324 0.31558
#
# Static dielectric constant tensor:
#      x y z
#    x 3.295220 0.000000 0.000000 
#    y 0.000000 3.224300 0.000000 
#    z 0.000000 0.000000 3.412820 
# 
# 
# High freq. dielectric constant tensor:
#      x y z
#    x 1.687790 0.000000 0.000000 
#    y 0.000000 1.690520 0.000000 
#    z 0.000000 0.000000 1.728740 
# 
# From -- ./inp_files/36093.got.cif
#   From: 2010.03.12/outbox.cif.g09.slc.cpg/sg51_19_cif.got.tgz:36093.got - 2010.04.16 13:43:02.
