data_PCOD8211617
_publ_section_title
;
Structure prediction by ZEFSAII (Michael W. Deem and Ramdas Pophale) SiO2 
 PCOD8211617
Probable space group: P M M A
;
_chemical_formula_sum "Si O2"
_cell_formula_units_Z 48
_cell_length_a 9.140149
_cell_length_b 9.046420
_cell_length_c 30.865018
_cell_angle_alpha 90.000000
_cell_angle_beta 90.000000
_cell_angle_gamma 90.000000
_cell_volume 2552.093357
_symmetry_space_group_name_H-M "P M M A"
_symmetry_group_IT_number 51
_symmetry_cell_setting 'orthorhombic'
loop_
_space_group_symop_operation_xyz
x,y,z
1/2-x,-y,z
1/2+x,-y,-z
-x,y,-z
-x,-y,-z
1/2+x,y,-z
1/2-x,y,z
x,-y,z
loop_
_atom_site_type_symbol
_atom_site_label
_atom_site_fract_x
_atom_site_fract_y
_atom_site_fract_z
Si Si1 0.921066 0.828963 0.457005
Si Si2 0.575829 0.333311 0.371778
Si Si3 0.417968 0.173049 0.120423
Si Si4 0.080613 0.672577 0.208918
Si Si5 0.576247 0.168279 0.286662
Si Si6 0.078726 0.670115 0.956005
O O1 0.750000 0.802108 0.463205
O O2 0.983460 0.739467 0.415961
O O3 0.000000 0.769259 0.500000
O O4 0.957686 0.000000 0.448887
O O5 0.750000 0.330034 0.372000
O O6 0.515975 0.500000 0.368411
O O7 0.516392 0.241007 0.330916
O O8 0.250000 0.212154 0.109259
O O9 0.468516 0.254300 0.163982
O O10 0.520610 0.227129 0.082025
O O11 0.440490 0.000000 0.127429
O O12 0.250000 0.705274 0.218488
O O13 0.046853 0.500000 0.205985
O O14 0.985317 0.741551 0.246654
O O15 0.750000 0.176303 0.284786
O O16 0.520455 0.000000 0.284812
O O17 0.250000 0.696708 0.961984
O O18 0.042488 0.500000 0.944928
O O19 0.000000 0.719316 0.000000
#
# Coordination Sequence:
#
# PCOD8211617 Si02
#       6
#     8   8   8   8   8   8
#     4   9  17  30  48  69  94 125 162 204 251 304
#     4   9  17  30  49  72  98 130 168 209 253 302
#     4  10  21  37  57  80 107 141 179 217 260 311
#     4  10  21  37  57  80 107 140 176 215 262 313
#     4  10  20  34  54  79 105 135 173 215 258 307
#     4  10  21  37  58  83 110 142 180 221 265 312
#
# _framework density 18.808088999999999
#
# number of rings (size 3 to 8) (size 9 to 14) (size 15 to 20)
#    0.000    2.333    0.000    2.500    0.000    7.333 
#    0.000    0.833    0.000    3.000    0.000    0.000 
#    0.000    0.000    0.000    0.000    0.000    0.000 
#
# Total GULP energy -595370.030758 kJ/mol
# GULP energy per Si atom -12403.542307 kJ/mol
# Density = 1.876528 g / cm^3
# Si number density = 18.808089 Si / 1000 Ang^3
#
#
#
# Elastic Constant Matrix: (Units=GPa)
#
#
# Indices 1 2 3 4 5 6 
#
# 1 41.4638 32.7188 45.0168 0.0000 0.0000 0.0000
# 2 32.7188 111.8132 76.7865 0.0000 0.0000 0.0000
# 3 45.0168 76.7865 165.0666 0.0000 0.0000 0.0000
# 4 0.0000 0.0000 0.0000 39.9697 0.0000 0.0000
# 5 0.0000 0.0000 0.0000 0.0000 33.3103 0.0000
# 6 0.0000 0.0000 0.0000 0.0000 0.0000 24.5560
#
#
#
# Elastic Compliance Matrix: (Units=1/GPa)
#
#
# Indices 1 2 3 4 5 6 
#
# 1 0.036544 -0.005656 -0.007335 0.000000 0.000000 0.000000
# 2 -0.005656 0.014017 -0.004978 0.000000 0.000000 0.000000
# 3 -0.007335 -0.004978 0.010374 0.000000 0.000000 0.000000
# 4 0.000000 0.000000 0.000000 0.025019 0.000000 0.000000
# 5 0.000000 0.000000 0.000000 0.000000 0.030021 0.000000
# 6 0.000000 0.000000 0.000000 0.000000 0.000000 0.040723
#
#
# Mechanical properties :
#
#
# Convention : Reuss Voigt Hill
#
# Bulk Modulus (GPa) = 40.00476 69.70975 54.85725
# Shear Modulus (GPa) = 24.87932 30.48865 27.68398
#
# Velocity S-wave (km/s) = 3.64098 4.03058 3.84072
# Velocity P-wave (km/s) = 6.24434 7.66844 6.99274
#
# Compressibility (1/GPa) = 0.02499703
#
# Stress axis : x y z
#
# Youngs Moduli (GPa) = 27.36396 71.34076 96.39213
#
# Poissons Ratio (x) = 0.40352 0.70705
# Poissons Ratio (y) = 0.15478 0.47984
# Poissons Ratio (z) = 0.20072 0.35514
#
# Static dielectric constant tensor:
#      x y z
#    x 3.209840 0.000000 0.000000 
#    y 0.000000 3.577100 0.000000 
#    z 0.000000 0.000000 3.628540 
# 
# 
# High freq. dielectric constant tensor:
#      x y z
#    x 1.704720 0.000000 0.000000 
#    y 0.000000 1.739560 0.000000 
#    z 0.000000 0.000000 1.745520 
# 
# From -- ./inp_files/36885.got.cif
#   From: 2010.03.12/outbox.cif.g09.slc.cpg/sg51_19_cif.got.tgz:36885.got - 2010.04.16 13:43:02.
