data_PCOD8211649
_publ_section_title
;
Structure prediction by ZEFSAII (Michael W. Deem and Ramdas Pophale) SiO2 
 PCOD8211649
Probable space group: P M M A
;
_chemical_formula_sum "Si O2"
_cell_formula_units_Z 64
_cell_length_a 9.124087
_cell_length_b 15.002140
_cell_length_c 24.819467
_cell_angle_alpha 90.000000
_cell_angle_beta 90.000000
_cell_angle_gamma 90.000000
_cell_volume 3397.309257
_symmetry_space_group_name_H-M "P M M A"
_symmetry_group_IT_number 51
_symmetry_cell_setting 'orthorhombic'
loop_
_space_group_symop_operation_xyz
x,y,z
1/2-x,-y,z
1/2+x,-y,-z
-x,y,-z
-x,-y,-z
1/2+x,y,-z
1/2-x,y,z
x,-y,z
loop_
_atom_site_type_symbol
_atom_site_label
_atom_site_fract_x
_atom_site_fract_y
_atom_site_fract_z
Si Si1 0.913929 0.096569 0.641581
Si Si2 0.076648 0.727674 0.767705
Si Si3 0.424094 0.288518 0.942106
Si Si4 0.421324 0.266717 0.644068
Si Si5 0.079057 0.394879 0.149161
Si Si6 0.919279 0.094445 0.055879
Si Si7 0.914711 0.098227 0.769513
Si Si8 0.077822 0.601570 0.553113
O O1 0.750000 0.111819 0.620017
O O2 0.915163 0.097514 0.705618
O O3 0.014233 0.175569 0.619511
O O4 0.972682 0.000000 0.621370
O O5 0.250000 0.719956 0.777167
O O6 0.030139 0.714786 0.705395
O O7 0.993998 0.649507 0.798711
O O8 0.024665 0.824616 0.789903
O O9 0.250000 0.306213 0.947120
O O10 0.496341 0.361721 0.904046
O O11 0.456578 0.189435 0.915699
O O12 0.500000 0.297176 0.000000
O O13 0.250000 0.255263 0.641643
O O14 0.476472 0.346613 0.606199
O O15 0.250000 0.369384 0.146008
O O16 0.056365 0.500000 0.154074
O O17 0.750000 0.095603 0.041395
O O18 0.957765 0.000000 0.087422
O O19 0.000000 0.092715 0.000000
O O20 0.750000 0.118199 0.790624
O O21 0.966192 0.000000 0.790333
O O22 0.250000 0.611664 0.544617
O O23 0.029882 0.500000 0.562351
O O24 0.000000 0.640797 0.500000
#
# Coordination Sequence:
#
# PCOD8211649 Si02
#       8
#     8   8   8   8   8   8   8   8
#     4   8  14  25  43  69 100 134 171 209 249 294
#     4  10  20  34  54  80 108 138 172 212 261 316
#     4  10  20  36  60  86 110 138 173 214 259 309
#     4   9  18  31  50  77 105 135 170 208 254 307
#     4  11  25  43  59  75 100 136 177 223 271 316
#     4   8  14  26  47  77 110 139 165 195 236 289
#     4   8  14  27  48  73 104 141 175 208 249 299
#     4   9  18  33  51  72 100 132 167 210 259 309
#
# _framework density 18.838438
#
# number of rings (size 3 to 8) (size 9 to 14) (size 15 to 20)
#    0.000    2.875    0.000    1.875    0.000    3.750 
#    0.000    4.375    0.000    4.125    0.000    0.000 
#    0.000    0.000    0.000    0.000    0.000    0.000 
#
# Total GULP energy -792944.329149 kJ/mol
# GULP energy per Si atom -12389.755143 kJ/mol
# Density = 1.879556 g / cm^3
# Si number density = 18.838438 Si / 1000 Ang^3
#
#
#
# Elastic Constant Matrix: (Units=GPa)
#
#
# Indices 1 2 3 4 5 6 
#
# 1 74.4978 61.7847 43.5456 0.0000 0.0000 0.0000
# 2 61.7847 142.3644 60.1254 0.0000 0.0000 0.0000
# 3 43.5456 60.1254 79.5955 0.0000 0.0000 0.0000
# 4 0.0000 0.0000 0.0000 -13.8487 0.0000 0.0000
# 5 0.0000 0.0000 0.0000 0.0000 23.8097 0.0000
# 6 0.0000 0.0000 0.0000 0.0000 0.0000 31.9661
#
#
#
# Elastic Compliance Matrix: (Units=1/GPa)
#
#
# Indices 1 2 3 4 5 6 
#
# 1 0.023773 -0.007085 -0.007654 0.000000 0.000000 0.000000
# 2 -0.007085 0.012426 -0.005511 0.000000 0.000000 0.000000
# 3 -0.007654 -0.005511 0.020914 0.000000 0.000000 0.000000
# 4 0.000000 0.000000 0.000000 -0.072209 0.000000 0.000000
# 5 0.000000 0.000000 0.000000 0.000000 0.042000 0.000000
# 6 0.000000 0.000000 0.000000 0.000000 0.000000 0.031283
#
#
# Mechanical properties :
#
#
# Convention : Reuss Voigt Hill
#
# Bulk Modulus (GPa) = 60.19080 69.70767 64.94923
# Shear Modulus (GPa) = 47.97381 17.11890 32.54636
#
# Velocity S-wave (km/s) = 5.05185 3.01777 4.16102
# Velocity P-wave (km/s) = 8.12703 7.01611 7.59192
#
# Compressibility (1/GPa) = 0.01661384
#
# Stress axis : x y z
#
# Youngs Moduli (GPa) = 42.06483 80.47497 47.81530
#
# Poissons Ratio (x) = 0.57013 0.36599
# Poissons Ratio (y) = 0.29801 0.26350
# Poissons Ratio (z) = 0.32197 0.44348
#
# Static dielectric constant tensor:
#      x y z
#    x 3.435130 0.000000 0.000000 
#    y 0.000000 3.995710 0.000000 
#    z 0.000000 0.000000 3.223170 
# 
# 
# High freq. dielectric constant tensor:
#      x y z
#    x 1.732660 0.000000 0.000000 
#    y 0.000000 1.745060 0.000000 
#    z 0.000000 0.000000 1.696530 
# 
# From -- ./inp_files/35007.got.cif
#   From: 2010.03.12/outbox.cif.g09.slc.cpg/sg51_18_cif.got.tgz:35007.got - 2010.04.16 13:43:02.
