data_PCOD8211815
_publ_section_title
;
Structure prediction by ZEFSAII (Michael W. Deem and Ramdas Pophale) SiO2 
 PCOD8211815
Probable space group: P M M A
;
_chemical_formula_sum "Si O2"
_cell_formula_units_Z 48
_cell_length_a 28.000264
_cell_length_b 8.886893
_cell_length_c 10.225117
_cell_angle_alpha 90.000000
_cell_angle_beta 90.000000
_cell_angle_gamma 90.000000
_cell_volume 2544.370569
_symmetry_space_group_name_H-M "P M M A"
_symmetry_group_IT_number 51
_symmetry_cell_setting 'orthorhombic'
loop_
_space_group_symop_operation_xyz
x,y,z
1/2-x,-y,z
1/2+x,-y,-z
-x,y,-z
-x,-y,-z
1/2+x,y,-z
1/2-x,y,z
x,-y,z
loop_
_atom_site_type_symbol
_atom_site_label
_atom_site_fract_x
_atom_site_fract_y
_atom_site_fract_z
Si Si1 0.399635 0.827409 0.998596
Si Si2 0.696282 0.324135 0.604274
Si Si3 0.550476 0.676890 0.765357
Si Si4 0.449687 0.175021 0.732719
Si Si5 0.605234 0.822783 0.526593
Si Si6 0.802915 0.827854 0.876422
O O1 0.431100 0.722861 0.091880
O O2 0.343023 0.793966 0.014484
O O3 0.411568 0.000000 0.034371
O O4 0.412692 0.792375 0.849306
O O5 0.750000 0.279857 0.561452
O O6 0.687235 0.500000 0.591256
O O7 0.659194 0.238143 0.510645
O O8 0.687057 0.278889 0.754049
O O9 0.554933 0.500000 0.747477
O O10 0.495925 0.724523 0.751722
O O11 0.582241 0.755759 0.656257
O O12 0.424834 0.227189 0.599133
O O13 0.464598 0.000000 0.727286
O O14 0.606688 0.000000 0.540582
O O15 0.750000 0.796213 0.935686
O O16 0.806649 0.000000 0.827289
#
# Coordination Sequence:
#
# PCOD8211815 Si02
#       6
#     8   8   8   8   8   8
#     4  10  20  37  59  83 113 148 184 230 281 330
#     4  10  20  34  55  84 115 145 182 229 277 327
#     4  12  24  37  57  84 111 146 191 236 281 333
#     4  10  23  40  57  80 113 151 189 231 281 334
#     4  11  22  38  59  83 112 149 190 232 278 329
#     4   9  17  31  55  84 110 141 182 224 271 328
#
# _framework density 18.865175000000001
#
# number of rings (size 3 to 8) (size 9 to 14) (size 15 to 20)
#    0.000    1.667    1.667    3.500    0.000    7.000 
#    0.000    0.833    0.000    3.000    0.000    2.333 
#    0.000    0.000    0.000    0.000    0.000    0.000 
#
# Total GULP energy -595322.401418 kJ/mol
# GULP energy per Si atom -12402.550030 kJ/mol
# Density = 1.882224 g / cm^3
# Si number density = 18.865175 Si / 1000 Ang^3
#
#
#
# Elastic Constant Matrix: (Units=GPa)
#
#
# Indices 1 2 3 4 5 6 
#
# 1 125.2435 37.4891 20.2321 0.0000 0.0000 0.0000
# 2 37.4891 63.6201 16.1898 0.0000 0.0000 0.0000
# 3 20.2321 16.1898 52.3457 0.0000 0.0000 0.0000
# 4 0.0000 0.0000 0.0000 1.4038 0.0000 0.0000
# 5 0.0000 0.0000 0.0000 0.0000 -0.4551 0.0000
# 6 0.0000 0.0000 0.0000 0.0000 0.0000 28.0614
#
#
#
# Elastic Compliance Matrix: (Units=1/GPa)
#
#
# Indices 1 2 3 4 5 6 
#
# 1 0.009922 -0.005287 -0.002200 0.000000 0.000000 0.000000
# 2 -0.005287 0.019878 -0.004105 0.000000 0.000000 0.000000
# 3 -0.002200 -0.004105 0.021224 0.000000 0.000000 0.000000
# 4 0.000000 0.000000 0.000000 0.712348 0.000000 0.000000
# 5 0.000000 0.000000 0.000000 0.000000 -2.197518 0.000000
# 6 0.000000 0.000000 0.000000 0.000000 0.000000 0.035636
#
#
# Mechanical properties :
#
#
# Convention : Reuss Voigt Hill
#
# Bulk Modulus (GPa) = 35.91804 43.22568 39.57186
# Shear Modulus (GPa) = -3.66020 16.95524 6.64752
#
# Velocity S-wave (km/s) = -1.39442 3.00118 1.87919
# Velocity P-wave (km/s) = 4.06056 5.91373 5.07249
#
# Compressibility (1/GPa) = 0.02784116
#
# Stress axis : x y z
#
# Youngs Moduli (GPa) = 100.78195 50.30604 47.11753
#
# Poissons Ratio (x) = 0.26597 0.10365
# Poissons Ratio (y) = 0.53285 0.19340
# Poissons Ratio (z) = 0.22171 0.20648
#
# Static dielectric constant tensor:
#      x y z
#    x 3.853470 0.000000 0.000000 
#    y 0.000000 3.482380 0.000000 
#    z 0.000000 0.000000 3.323710 
# 
# 
# High freq. dielectric constant tensor:
#      x y z
#    x 1.753140 0.000000 0.000000 
#    y 0.000000 1.732310 0.000000 
#    z 0.000000 0.000000 1.709780 
# 
# From -- ./inp_files/12832.got.cif
#   From: 2010.03.12/outbox.cif.g09.slc.cpg/sg51_7_cif.got.tgz:12832.got - 2010.04.16 13:43:02.
