data_PCOD8211769
_publ_section_title
;
Structure prediction by ZEFSAII (Michael W. Deem and Ramdas Pophale) SiO2 
 PCOD8211769
Probable space group: P M M A
;
_chemical_formula_sum "Si O2"
_cell_formula_units_Z 40
_cell_length_a 9.689934
_cell_length_b 19.854146
_cell_length_c 10.870493
_cell_angle_alpha 90.000000
_cell_angle_beta 90.000000
_cell_angle_gamma 90.000000
_cell_volume 2091.323757
_symmetry_space_group_name_H-M "P M M A"
_symmetry_group_IT_number 51
_symmetry_cell_setting 'orthorhombic'
loop_
_space_group_symop_operation_xyz
x,y,z
1/2-x,-y,z
1/2+x,-y,-z
-x,y,-z
-x,-y,-z
1/2+x,y,-z
1/2-x,y,z
x,-y,z
loop_
_atom_site_type_symbol
_atom_site_label
_atom_site_fract_x
_atom_site_fract_y
_atom_site_fract_z
Si Si1 0.400395 0.147048 0.197181
Si Si2 0.900150 0.000000 0.890273
Si Si3 0.596050 0.789809 0.384290
Si Si4 0.598041 0.334672 0.222596
Si Si5 0.090185 0.420801 0.379711
Si Si6 0.500000 0.756930 0.000000
O O1 0.250000 0.160849 0.258668
O O2 0.531053 0.166491 0.276721
O O3 0.398318 0.191587 0.071571
O O4 0.421474 0.067429 0.186765
O O5 0.750000 0.000000 0.950358
O O6 0.000000 0.000000 0.000000
O O7 0.500000 0.797517 0.500000
O O8 0.750000 0.816441 0.413407
O O9 0.600393 0.713140 0.341259
O O10 0.750000 0.369081 0.209987
O O11 0.478776 0.388750 0.256100
O O12 0.572568 0.292803 0.097745
O O13 0.250000 0.395733 0.394400
O O14 0.088204 0.500000 0.358452
O O15 0.000000 0.401472 0.500000
#
# Coordination Sequence:
#
# PCOD8211769 Si02
#       6
#     8   4   8   8   8   4
#     4  10  20  35  56  81 110 142 180 224 272 322
#     4  10  20  34  55  82 109 142 181 225 271 323
#     4  10  21  36  55  80 110 142 180 223 272 326
#     4  10  21  35  55  83 111 143 181 222 270 321
#     4  10  21  37  58  83 110 142 180 223 269 318
#     4  10  20  35  57  80 112 144 182 222 270 316
#
# _framework density 19.126640999999999
#
# number of rings (size 3 to 8) (size 9 to 14) (size 15 to 20)
#    0.000    2.000    1.000    2.400    0.000    9.200 
#    0.000    1.000    0.000    0.000    0.000    0.000 
#    0.000    0.000    0.000    0.000    0.000    0.000 
#
# Total GULP energy -495550.346600 kJ/mol
# GULP energy per Si atom -12388.758665 kJ/mol
# Density = 1.908311 g / cm^3
# Si number density = 19.126641 Si / 1000 Ang^3
#
#
#
# Elastic Constant Matrix: (Units=GPa)
#
#
# Indices 1 2 3 4 5 6 
#
# 1 172.0243 47.7427 56.4500 0.0000 0.0000 0.0000
# 2 47.7427 72.2178 37.6114 0.0000 0.0000 0.0000
# 3 56.4500 37.6114 87.8658 0.0000 0.0000 0.0000
# 4 0.0000 0.0000 0.0000 3.8314 0.0000 0.0000
# 5 0.0000 0.0000 0.0000 0.0000 24.5812 0.0000
# 6 0.0000 0.0000 0.0000 0.0000 0.0000 26.5644
#
#
#
# Elastic Compliance Matrix: (Units=1/GPa)
#
#
# Indices 1 2 3 4 5 6 
#
# 1 0.007946 -0.003339 -0.003676 0.000000 0.000000 0.000000
# 2 -0.003339 0.019222 -0.006083 0.000000 0.000000 0.000000
# 3 -0.003676 -0.006083 0.016347 0.000000 0.000000 0.000000
# 4 0.000000 0.000000 0.000000 0.261004 0.000000 0.000000
# 5 0.000000 0.000000 0.000000 0.000000 0.040681 0.000000
# 6 0.000000 0.000000 0.000000 0.000000 0.000000 0.037644
#
#
# Mechanical properties :
#
#
# Convention : Reuss Voigt Hill
#
# Bulk Modulus (GPa) = 57.73889 68.41291 63.07590
# Shear Modulus (GPa) = 12.05360 23.68231 17.86796
#
# Velocity S-wave (km/s) = 2.51310 3.52260 3.05977
# Velocity P-wave (km/s) = 6.21885 7.23816 6.74778
#
# Compressibility (1/GPa) = 0.01731935
#
# Stress axis : x y z
#
# Youngs Moduli (GPa) = 125.85043 52.02267 61.17499
#
# Poissons Ratio (x) = 0.17368 0.22487
# Poissons Ratio (y) = 0.42017 0.37215
# Poissons Ratio (z) = 0.46260 0.31647
#
# Static dielectric constant tensor:
#      x y z
#    x 3.829990 0.000000 0.000000 
#    y 0.000000 3.505090 0.000000 
#    z 0.000000 0.000000 3.419710 
# 
# 
# High freq. dielectric constant tensor:
#      x y z
#    x 1.763160 0.000000 0.000000 
#    y 0.000000 1.735460 0.000000 
#    z 0.000000 0.000000 1.726800 
# 
# From -- ./inp_files/14251.got.cif
#   From: 2010.03.12/outbox.cif.g09.slc.cpg/sg51_8_cif.got.tgz:14251.got - 2010.04.16 13:43:02.
