data_PCOD8211508
_publ_section_title
;
Structure prediction by ZEFSAII (Michael W. Deem and Ramdas Pophale) SiO2 
 PCOD8211508
Probable space group: P M M A
;
_chemical_formula_sum "Si O2"
_cell_formula_units_Z 40
_cell_length_a 20.935610
_cell_length_b 8.747718
_cell_length_c 11.586838
_cell_angle_alpha 90.000000
_cell_angle_beta 90.000000
_cell_angle_gamma 90.000000
_cell_volume 2121.999751
_symmetry_space_group_name_H-M "P M M A"
_symmetry_group_IT_number 51
_symmetry_cell_setting 'orthorhombic'
loop_
_space_group_symop_operation_xyz
x,y,z
1/2-x,-y,z
1/2+x,-y,-z
-x,y,-z
-x,-y,-z
1/2+x,y,-z
1/2-x,y,z
x,-y,z
loop_
_atom_site_type_symbol
_atom_site_label
_atom_site_fract_x
_atom_site_fract_y
_atom_site_fract_z
Si Si1 0.822620 0.322730 0.445730
Si Si2 0.554969 0.322445 0.591268
Si Si3 0.824964 0.830558 0.210099
Si Si4 0.029983 0.179430 0.166394
Si Si5 0.088803 0.321229 0.958251
O O1 0.750000 0.275410 0.483465
O O2 0.824421 0.500000 0.412913
O O3 0.873755 0.285729 0.545112
O O4 0.846803 0.232945 0.333601
O O5 0.500000 0.277431 0.500000
O O6 0.548355 0.500000 0.624737
O O7 0.547068 0.218894 0.703156
O O8 0.750000 0.836631 0.205144
O O9 0.845969 0.721056 0.105920
O O10 0.854689 0.000000 0.195285
O O11 0.967178 0.270124 0.128044
O O12 0.018438 0.000000 0.153901
O O13 0.086509 0.232559 0.080311
O O14 0.084461 0.500000 0.982997
#
# Coordination Sequence:
#
# PCOD8211508 Si02
#       5
#     8   8   8   8   8
#     4   9  18  33  53  77 107 143 180 218 263 316
#     4  10  20  34  53  78 107 140 180 223 264 313
#     4  10  20  34  54  81 111 140 174 218 265 312
#     4  11  22  36  55  79 107 137 173 219 271 320
#     4  11  21  36  57  78 105 139 176 217 263 318
#
# _framework density 18.850142999999999
#
# number of rings (size 3 to 8) (size 9 to 14) (size 15 to 20)
#    0.000    1.800    0.000    6.600    0.000    4.000 
#    0.000    1.000    0.000    3.600    0.000    0.000 
#    0.000    0.000    0.000    0.000    0.000    0.000 
#
# Total GULP energy -496023.623289 kJ/mol
# GULP energy per Si atom -12400.590582 kJ/mol
# Density = 1.880724 g / cm^3
# Si number density = 18.850143 Si / 1000 Ang^3
#
#
#
# Elastic Constant Matrix: (Units=GPa)
#
#
# Indices 1 2 3 4 5 6 
#
# 1 51.3358 19.3103 38.5822 0.0000 0.0000 0.0000
# 2 19.3103 82.5553 37.7554 0.0000 0.0000 0.0000
# 3 38.5822 37.7554 115.4141 0.0000 0.0000 0.0000
# 4 0.0000 0.0000 0.0000 32.0397 0.0000 0.0000
# 5 0.0000 0.0000 0.0000 0.0000 30.1567 0.0000
# 6 0.0000 0.0000 0.0000 0.0000 0.0000 21.4095
#
#
#
# Elastic Compliance Matrix: (Units=1/GPa)
#
#
# Indices 1 2 3 4 5 6 
#
# 1 0.026455 -0.002521 -0.008019 0.000000 0.000000 0.000000
# 2 -0.002521 0.014484 -0.003896 0.000000 0.000000 0.000000
# 3 -0.008019 -0.003896 0.012620 0.000000 0.000000 0.000000
# 4 0.000000 0.000000 0.000000 0.031211 0.000000 0.000000
# 5 0.000000 0.000000 0.000000 0.000000 0.033160 0.000000
# 6 0.000000 0.000000 0.000000 0.000000 0.000000 0.046708
#
#
# Mechanical properties :
#
#
# Convention : Reuss Voigt Hill
#
# Bulk Modulus (GPa) = 40.50563 48.95566 44.73064
# Shear Modulus (GPa) = 24.78466 26.96501 25.87484
#
# Velocity S-wave (km/s) = 3.62999 3.78629 3.70896
# Velocity P-wave (km/s) = 6.25332 6.71878 6.49022
#
# Compressibility (1/GPa) = 0.02468793
#
# Stress axis : x y z
#
# Youngs Moduli (GPa) = 37.80073 69.04046 79.24209
#
# Poissons Ratio (x) = 0.17402 0.63545
# Poissons Ratio (y) = 0.09528 0.30870
# Poissons Ratio (z) = 0.30313 0.26896
#
# Static dielectric constant tensor:
#      x y z
#    x 3.533150 0.000000 0.000000 
#    y 0.000000 3.702290 0.000000 
#    z 0.000000 0.000000 3.501040 
# 
# 
# High freq. dielectric constant tensor:
#      x y z
#    x 1.726500 0.000000 0.000000 
#    y 0.000000 1.740410 0.000000 
#    z 0.000000 0.000000 1.727740 
# 
# From -- ./inp_files/11446.got.cif
#   From: 2010.03.12/outbox.cif.g09.slc.cpg/sg51_6_cif.got.tgz:11446.got - 2010.04.16 13:43:02.
