data_PCOD8211929
_publ_section_title
;
Structure prediction by ZEFSAII (Michael W. Deem and Ramdas Pophale) SiO2 
 PCOD8211929
Probable space group: P M M A
;
_chemical_formula_sum "Si O2"
_cell_formula_units_Z 56
_cell_length_a 18.046351
_cell_length_b 11.183897
_cell_length_c 14.019414
_cell_angle_alpha 90.000000
_cell_angle_beta 90.000000
_cell_angle_gamma 90.000000
_cell_volume 2829.517730
_symmetry_space_group_name_H-M "P M M A"
_symmetry_group_IT_number 51
_symmetry_cell_setting 'orthorhombic'
loop_
_space_group_symop_operation_xyz
x,y,z
1/2-x,-y,z
1/2+x,-y,-z
-x,y,-z
-x,-y,-z
1/2+x,y,-z
1/2-x,y,z
x,-y,z
loop_
_atom_site_type_symbol
_atom_site_label
_atom_site_fract_x
_atom_site_fract_y
_atom_site_fract_z
Si Si1 0.336348 0.136610 0.605752
Si Si2 0.539463 0.864991 0.091635
Si Si3 0.832883 0.863458 0.617129
Si Si4 0.668878 0.632800 0.898731
Si Si5 0.944808 0.251599 0.760036
Si Si6 0.165136 0.692519 0.889128
Si Si7 0.089065 0.368272 0.704084
O O1 0.250000 0.152715 0.630159
O O2 0.351034 0.147339 0.493838
O O3 0.380431 0.248624 0.651448
O O4 0.361178 0.000000 0.638156
O O5 0.493386 0.851832 0.189968
O O6 0.621924 0.817040 0.106611
O O7 0.551340 0.000000 0.064884
O O8 0.500000 0.801753 0.000000
O O9 0.750000 0.812879 0.637930
O O10 0.895078 0.790772 0.672627
O O11 0.836526 0.000000 0.650899
O O12 0.750000 0.692230 0.881026
O O13 0.668502 0.500000 0.856579
O O14 0.606660 0.705331 0.845378
O O15 0.654123 0.623801 0.011677
O O16 0.000886 0.352159 0.720556
O O17 0.250000 0.720551 0.865728
O O18 0.130263 0.614268 0.804694
O O19 0.099684 0.500000 0.652206
#
# Coordination Sequence:
#
# PCOD8211929 Si02
#       7
#     8   8   8   8   8   8   8
#     4   9  20  41  66  89 115 149 193 246 302 358
#     4  10  20  35  52  77 115 153 188 233 286 340
#     4   9  19  38  64  90 114 147 195 246 294 354
#     4  10  20  35  55  77 105 144 190 237 284 339
#     4  11  21  36  56  83 116 155 191 235 289 349
#     4  10  21  37  57  81 109 149 200 246 288 341
#     4  11  24  38  58  88 122 158 198 246 299 356
#
# _framework density 19.791360000000001
#
# number of rings (size 3 to 8) (size 9 to 14) (size 15 to 20)
#    0.000    2.000    1.429    3.000    0.000    5.429 
#    0.000    5.714    0.000    1.714    0.000    0.000 
#    0.000    0.000    0.000    0.000    0.000    0.000 
#
# Total GULP energy -693801.684591 kJ/mol
# GULP energy per Si atom -12389.315796 kJ/mol
# Density = 1.974631 g / cm^3
# Si number density = 19.791360 Si / 1000 Ang^3
#
#
#
# Elastic Constant Matrix: (Units=GPa)
#
#
# Indices 1 2 3 4 5 6 
#
# 1 137.4237 57.7249 42.6705 0.0000 0.0000 0.0000
# 2 57.7249 118.3366 37.4713 0.0000 0.0000 0.0000
# 3 42.6705 37.4713 68.3344 0.0000 0.0000 0.0000
# 4 0.0000 0.0000 0.0000 6.2868 0.0000 0.0000
# 5 0.0000 0.0000 0.0000 0.0000 34.4135 0.0000
# 6 0.0000 0.0000 0.0000 0.0000 0.0000 13.0789
#
#
#
# Elastic Compliance Matrix: (Units=1/GPa)
#
#
# Indices 1 2 3 4 5 6 
#
# 1 0.010129 -0.003555 -0.004375 0.000000 0.000000 0.000000
# 2 -0.003555 0.011474 -0.004072 0.000000 0.000000 0.000000
# 3 -0.004375 -0.004072 0.019599 0.000000 0.000000 0.000000
# 4 0.000000 0.000000 0.000000 0.159063 0.000000 0.000000
# 5 0.000000 0.000000 0.000000 0.000000 0.029058 0.000000
# 6 0.000000 0.000000 0.000000 0.000000 0.000000 0.076459
#
#
# Mechanical properties :
#
#
# Convention : Reuss Voigt Hill
#
# Bulk Modulus (GPa) = 58.14982 66.64754 62.39868
# Shear Modulus (GPa) = 14.90232 23.17105 19.03668
#
# Velocity S-wave (km/s) = 2.74701 3.42536 3.10476
# Velocity P-wave (km/s) = 6.28543 7.02796 6.66704
#
# Compressibility (1/GPa) = 0.01719696
#
# Stress axis : x y z
#
# Youngs Moduli (GPa) = 98.72920 87.15258 51.02396
#
# Poissons Ratio (x) = 0.30987 0.22324
# Poissons Ratio (y) = 0.35102 0.20776
# Poissons Ratio (z) = 0.43195 0.35486
#
# Static dielectric constant tensor:
#      x y z
#    x 3.754470 0.000000 0.000000 
#    y 0.000000 3.455910 0.000000 
#    z 0.000000 0.000000 3.556050 
# 
# 
# High freq. dielectric constant tensor:
#      x y z
#    x 1.782530 0.000000 0.000000 
#    y 0.000000 1.759930 0.000000 
#    z 0.000000 0.000000 1.764100 
# 
# From -- ./inp_files/24150.got.cif
#   From: 2010.03.12/outbox.cif.g09.slc.cpg/sg51_13_cif.got.tgz:24150.got - 2010.04.16 13:43:02.
