data_PCOD8211906
_publ_section_title
;
Structure prediction by ZEFSAII (Michael W. Deem and Ramdas Pophale) SiO2 
 PCOD8211906
Probable space group: P M M A
;
_chemical_formula_sum "Si O2"
_cell_formula_units_Z 48
_cell_length_a 16.367091
_cell_length_b 9.807301
_cell_length_c 16.293194
_cell_angle_alpha 90.000000
_cell_angle_beta 90.000000
_cell_angle_gamma 90.000000
_cell_volume 2615.334425
_symmetry_space_group_name_H-M "P M M A"
_symmetry_group_IT_number 51
_symmetry_cell_setting 'orthorhombic'
loop_
_space_group_symop_operation_xyz
x,y,z
1/2-x,-y,z
1/2+x,-y,-z
-x,y,-z
-x,-y,-z
1/2+x,y,-z
1/2-x,y,z
x,-y,z
loop_
_atom_site_type_symbol
_atom_site_label
_atom_site_fract_x
_atom_site_fract_y
_atom_site_fract_z
Si Si1 0.952167 0.158770 0.229635
Si Si2 0.250000 0.349940 0.189900
Si Si3 0.590225 0.653516 0.704155
Si Si4 0.918944 0.838872 0.046176
Si Si5 0.750000 0.162720 0.964039
Si Si6 0.154980 0.844935 0.616582
Si Si7 0.844710 0.342431 0.529045
O O1 0.920581 0.207121 0.140858
O O2 0.883169 0.192517 0.295975
O O3 0.032155 0.240728 0.252012
O O4 0.975418 0.000000 0.227970
O O5 0.250000 0.500000 0.147087
O O6 0.174375 0.335310 0.249311
O O7 0.250000 0.229384 0.124864
O O8 0.554653 0.500000 0.709392
O O9 0.603525 0.694999 0.609462
O O10 0.832757 0.785480 0.009396
O O11 0.920399 0.000000 0.037542
O O12 0.000000 0.779039 0.000000
O O13 0.750000 0.000000 0.954653
O O14 0.250000 0.818996 0.627946
O O15 0.119537 0.747410 0.545614
O O16 0.135194 0.000000 0.591268
O O17 0.750000 0.307311 0.545348
O O18 0.855482 0.500000 0.505169
#
# Coordination Sequence:
#
# PCOD8211906 Si02
#       7
#     8   4   8   8   4   8   8
#     4  10  21  35  53  78 109 141 176 221 267 313
#     4  10  20  36  56  79 108 138 170 217 272 324
#     4  10  20  35  55  78 106 140 177 217 266 319
#     4   9  18  33  53  79 109 137 174 222 266 314
#     4  10  20  34  58  83 104 140 182 221 268 322
#     4   9  19  34  52  75 106 142 178 218 266 316
#     4   9  17  33  55  76 101 138 181 220 260 311
#
# _framework density 18.353294000000002
#
# number of rings (size 3 to 8) (size 9 to 14) (size 15 to 20)
#    0.000    2.500    0.833    1.000    1.167    4.000 
#    0.000    4.167    0.000    3.000    0.000    0.000 
#    0.000    0.000    0.000    0.000    0.000    0.000 
#
# Total GULP energy -595132.577474 kJ/mol
# GULP energy per Si atom -12398.595364 kJ/mol
# Density = 1.831152 g / cm^3
# Si number density = 18.353294 Si / 1000 Ang^3
#
#
#
# Elastic Constant Matrix: (Units=GPa)
#
#
# Indices 1 2 3 4 5 6 
#
# 1 90.4551 30.8275 47.9959 0.0000 0.0000 0.0000
# 2 30.8275 50.4111 49.7345 0.0000 0.0000 0.0000
# 3 47.9959 49.7345 141.0941 0.0000 0.0000 0.0000
# 4 0.0000 0.0000 0.0000 18.6094 0.0000 0.0000
# 5 0.0000 0.0000 0.0000 0.0000 21.0413 0.0000
# 6 0.0000 0.0000 0.0000 0.0000 0.0000 121.7260
#
#
#
# Elastic Compliance Matrix: (Units=1/GPa)
#
#
# Indices 1 2 3 4 5 6 
#
# 1 0.014653 -0.006199 -0.002800 0.000000 0.000000 0.000000
# 2 -0.006199 0.033036 -0.009536 0.000000 0.000000 0.000000
# 3 -0.002800 -0.009536 0.011401 0.000000 0.000000 0.000000
# 4 0.000000 0.000000 0.000000 0.053736 0.000000 0.000000
# 5 0.000000 0.000000 0.000000 0.000000 0.047526 0.000000
# 6 0.000000 0.000000 0.000000 0.000000 0.000000 0.008215
#
#
# Mechanical properties :
#
#
# Convention : Reuss Voigt Hill
#
# Bulk Modulus (GPa) = 45.41088 59.89734 52.65411
# Shear Modulus (GPa) = 23.47675 42.50219 32.98947
#
# Velocity S-wave (km/s) = 3.58041 4.81748 4.24426
# Velocity P-wave (km/s) = 6.47216 7.97814 7.26428
#
# Compressibility (1/GPa) = 0.02202115
#
# Stress axis : x y z
#
# Youngs Moduli (GPa) = 68.24430 30.27020 87.70981
#
# Poissons Ratio (x) = 0.18764 0.24555
# Poissons Ratio (y) = 0.42303 0.83642
# Poissons Ratio (z) = 0.19105 0.28866
#
# Static dielectric constant tensor:
#      x y z
#    x 3.437360 0.000000 0.000000 
#    y 0.000000 3.296500 0.000000 
#    z 0.000000 0.000000 3.560290 
# 
# 
# High freq. dielectric constant tensor:
#      x y z
#    x 1.713310 0.000000 0.000000 
#    y 0.000000 1.689490 0.000000 
#    z 0.000000 0.000000 1.722030 
# 
# From -- ./inp_files/24982.got.cif
#   From: 2010.03.12/outbox.cif.g09.slc.cpg/sg51_13_cif.got.tgz:24982.got - 2010.04.16 13:43:02.
