data_PCOD8211040
_publ_section_title
;
Structure prediction by ZEFSAII (Michael W. Deem and Ramdas Pophale) SiO2 
 PCOD8211040
Probable space group: P M M A
;
_chemical_formula_sum "Si O2"
_cell_formula_units_Z 56
_cell_length_a 8.939191
_cell_length_b 14.402084
_cell_length_c 23.138480
_cell_angle_alpha 90.000000
_cell_angle_beta 90.000000
_cell_angle_gamma 90.000000
_cell_volume 2978.916860
_symmetry_space_group_name_H-M "P M M A"
_symmetry_group_IT_number 51
_symmetry_cell_setting 'orthorhombic'
loop_
_space_group_symop_operation_xyz
x,y,z
1/2-x,-y,z
1/2+x,-y,-z
-x,y,-z
-x,-y,-z
1/2+x,y,-z
1/2-x,y,z
x,-y,z
loop_
_atom_site_type_symbol
_atom_site_label
_atom_site_fract_x
_atom_site_fract_y
_atom_site_fract_z
Si Si1 0.573435 0.278909 0.161832
Si Si2 0.074476 0.893881 0.210504
Si Si3 0.074451 0.393626 0.060928
Si Si4 0.078609 0.607994 0.260167
Si Si5 0.581282 0.891352 0.657539
Si Si6 0.921113 0.603897 0.377880
Si Si7 0.578520 0.783495 0.441569
O O1 0.750000 0.281605 0.153241
O O2 0.518772 0.172619 0.168095
O O3 0.495394 0.324357 0.106921
O O4 0.528487 0.335178 0.218611
O O5 0.250000 0.879485 0.199783
O O6 0.034345 0.868298 0.276749
O O7 0.028760 0.000000 0.197054
O O8 0.250000 0.374964 0.056348
O O9 0.041911 0.500000 0.079515
O O10 0.000000 0.371059 0.000000
O O11 0.250000 0.640040 0.251530
O O12 0.059548 0.500000 0.245508
O O13 0.030968 0.629212 0.325532
O O14 0.750000 0.857060 0.646250
O O15 0.471987 0.840258 0.614100
O O16 0.568628 0.000000 0.646217
O O17 0.750000 0.613318 0.356037
O O18 0.953569 0.500000 0.400724
O O19 0.952922 0.674389 0.430253
O O20 0.500000 0.816351 0.500000
O O21 0.750000 0.805309 0.451263
#
# Coordination Sequence:
#
# PCOD8211040 Si02
#       7
#     8   8   8   8   8   8   8
#     4  12  23  33  52  82 115 150 185 223 267 316
#     4   9  19  37  60  84 110 141 177 220 271 324
#     4  10  21  38  59  83 114 152 193 234 273 316
#     4  10  20  33  51  77 107 139 176 218 266 320
#     4   9  19  37  59  80 103 132 166 209 264 321
#     4   9  19  36  54  73 100 132 167 211 264 319
#     4  11  23  36  52  74  99 131 170 212 258 310
#
# _framework density 18.798779
#
# number of rings (size 3 to 8) (size 9 to 14) (size 15 to 20)
#    0.000    2.000    0.000    4.714    0.000    8.571 
#    0.000    1.429    0.000    0.429    0.000    0.000 
#    0.000    0.000    0.000    0.000    0.000    0.000 
#
# Total GULP energy -694530.156692 kJ/mol
# GULP energy per Si atom -12402.324227 kJ/mol
# Density = 1.875599 g / cm^3
# Si number density = 18.798779 Si / 1000 Ang^3
#
#
#
# Elastic Constant Matrix: (Units=GPa)
#
#
# Indices 1 2 3 4 5 6 
#
# 1 105.9916 54.9493 53.2644 0.0000 0.0000 0.0000
# 2 54.9493 84.1246 61.6594 0.0000 0.0000 0.0000
# 3 53.2644 61.6594 84.2764 0.0000 0.0000 0.0000
# 4 0.0000 0.0000 0.0000 23.3302 0.0000 0.0000
# 5 0.0000 0.0000 0.0000 0.0000 32.2524 0.0000
# 6 0.0000 0.0000 0.0000 0.0000 0.0000 29.6498
#
#
#
# Elastic Compliance Matrix: (Units=1/GPa)
#
#
# Indices 1 2 3 4 5 6 
#
# 1 0.015202 -0.006226 -0.005052 0.000000 0.000000 0.000000
# 2 -0.006226 0.028183 -0.016684 0.000000 0.000000 0.000000
# 3 -0.005052 -0.016684 0.027266 0.000000 0.000000 0.000000
# 4 0.000000 0.000000 0.000000 0.042863 0.000000 0.000000
# 5 0.000000 0.000000 0.000000 0.000000 0.031005 0.000000
# 6 0.000000 0.000000 0.000000 0.000000 0.000000 0.033727
#
#
# Mechanical properties :
#
#
# Convention : Reuss Voigt Hill
#
# Bulk Modulus (GPa) = 67.91566 68.23767 68.07666
# Shear Modulus (GPa) = 20.91346 24.01442 22.46394
#
# Velocity S-wave (km/s) = 3.33902 3.57802 3.46058
# Velocity P-wave (km/s) = 7.14643 7.31077 7.22907
#
# Compressibility (1/GPa) = 0.01472415
#
# Stress axis : x y z
#
# Youngs Moduli (GPa) = 65.78238 35.48218 36.67601
#
# Poissons Ratio (x) = 0.22093 0.18530
# Poissons Ratio (y) = 0.40959 0.61192
# Poissons Ratio (z) = 0.33235 0.59200
#
# Static dielectric constant tensor:
#      x y z
#    x 3.539710 0.000000 0.000000 
#    y 0.000000 3.584010 0.000000 
#    z 0.000000 0.000000 3.387840 
# 
# 
# High freq. dielectric constant tensor:
#      x y z
#    x 1.735330 0.000000 0.000000 
#    y 0.000000 1.736280 0.000000 
#    z 0.000000 0.000000 1.712820 
# 
# From -- ./inp_files/31884.got.cif
#   From: 2010.03.12/outbox.cif.g09.slc.cpg/sg51_16_cif.got.tgz:31884.got - 2010.04.16 13:43:02.
