data_PCOD8211162
_publ_section_title
;
Structure prediction by ZEFSAII (Michael W. Deem and Ramdas Pophale) SiO2 
 PCOD8211162
Probable space group: P M M A
;
_chemical_formula_sum "Si O2"
_cell_formula_units_Z 56
_cell_length_a 18.990402
_cell_length_b 9.021683
_cell_length_c 16.125565
_cell_angle_alpha 90.000000
_cell_angle_beta 90.000000
_cell_angle_gamma 90.000000
_cell_volume 2762.718662
_symmetry_space_group_name_H-M "P M M A"
_symmetry_group_IT_number 51
_symmetry_cell_setting 'orthorhombic'
loop_
_space_group_symop_operation_xyz
x,y,z
1/2-x,-y,z
1/2+x,-y,-z
-x,y,-z
-x,-y,-z
1/2+x,y,-z
1/2-x,y,z
x,-y,z
loop_
_atom_site_type_symbol
_atom_site_label
_atom_site_fract_x
_atom_site_fract_y
_atom_site_fract_z
Si Si1 0.832433 0.331888 0.821693
Si Si2 0.593327 0.168904 0.676445
Si Si3 0.330552 0.170345 0.489717
Si Si4 0.168742 0.327011 0.658615
Si Si5 0.168088 0.172178 0.012273
Si Si6 0.550306 0.170374 0.243104
Si Si7 0.049752 0.325363 0.923620
O O1 0.750000 0.318974 0.806705
O O2 0.855488 0.500000 0.841619
O O3 0.869039 0.279096 0.738687
O O4 0.856818 0.231358 0.898332
O O5 0.616565 0.214220 0.584108
O O6 0.509159 0.185266 0.685677
O O7 0.617327 0.000000 0.695192
O O8 0.250000 0.199340 0.461272
O O9 0.351337 0.271387 0.567185
O O10 0.340880 0.000000 0.516441
O O11 0.250000 0.290640 0.678299
O O12 0.152645 0.500000 0.663527
O O13 0.122268 0.244731 0.726931
O O14 0.250000 0.203689 0.997915
O O15 0.149388 0.000000 0.007148
O O16 0.127451 0.260947 0.940849
O O17 0.521229 0.251569 0.160680
O O18 0.565791 0.000000 0.221796
O O19 0.053740 0.500000 0.911112
O O20 0.000000 0.279800 0.000000
#
# Coordination Sequence:
#
# PCOD8211162 Si02
#       7
#     8   8   8   8   8   8   8
#     4  10  20  33  52  81 117 155 192 233 283 336
#     4  10  21  36  56  84 117 153 193 235 279 334
#     4   9  18  35  60  87 116 152 191 231 277 330
#     4  10  22  41  63  86 114 149 191 239 289 341
#     4  10  21  37  58  83 110 144 188 236 286 341
#     4  11  24  40  60  86 115 150 191 235 285 340
#     4  11  24  41  61  85 115 151 190 234 286 343
#
# _framework density 20.269888000000002
#
# number of rings (size 3 to 8) (size 9 to 14) (size 15 to 20)
#    0.000    1.857    0.000    3.429    0.000    9.429 
#    0.000    4.286    0.000    0.000    0.000    0.000 
#    0.000    0.000    0.000    0.000    0.000    0.000 
#
# Total GULP energy -694701.551769 kJ/mol
# GULP energy per Si atom -12405.384853 kJ/mol
# Density = 2.022375 g / cm^3
# Si number density = 20.269888 Si / 1000 Ang^3
#
#
#
# Elastic Constant Matrix: (Units=GPa)
#
#
# Indices 1 2 3 4 5 6 
#
# 1 70.3801 55.1194 53.5026 0.0000 0.0000 0.0000
# 2 55.1194 102.8953 50.7999 0.0000 0.0000 0.0000
# 3 53.5026 50.7999 102.8090 0.0000 0.0000 0.0000
# 4 0.0000 0.0000 0.0000 33.9199 0.0000 0.0000
# 5 0.0000 0.0000 0.0000 0.0000 39.6795 0.0000
# 6 0.0000 0.0000 0.0000 0.0000 0.0000 25.0145
#
#
#
# Elastic Compliance Matrix: (Units=1/GPa)
#
#
# Indices 1 2 3 4 5 6 
#
# 1 0.031287 -0.011536 -0.010582 0.000000 0.000000 0.000000
# 2 -0.011536 0.017108 -0.002450 0.000000 0.000000 0.000000
# 3 -0.010582 -0.002450 0.016444 0.000000 0.000000 0.000000
# 4 0.000000 0.000000 0.000000 0.029481 0.000000 0.000000
# 5 0.000000 0.000000 0.000000 0.000000 0.025202 0.000000
# 6 0.000000 0.000000 0.000000 0.000000 0.000000 0.039977
#
#
# Mechanical properties :
#
#
# Convention : Reuss Voigt Hill
#
# Bulk Modulus (GPa) = 63.67893 66.10312 64.89102
# Shear Modulus (GPa) = 23.37869 27.50027 25.43948
#
# Velocity S-wave (km/s) = 3.39982 3.68734 3.54650
# Velocity P-wave (km/s) = 6.84802 7.12818 6.98950
#
# Compressibility (1/GPa) = 0.01570378
#
# Stress axis : x y z
#
# Youngs Moduli (GPa) = 31.96168 58.45332 60.81094
#
# Poissons Ratio (x) = 0.67430 0.64351
# Poissons Ratio (y) = 0.36870 0.14898
# Poissons Ratio (z) = 0.33823 0.14321
#
# Static dielectric constant tensor:
#      x y z
#    x 3.691490 0.000000 0.000000 
#    y 0.000000 3.731210 0.000000 
#    z 0.000000 0.000000 3.587050 
# 
# 
# High freq. dielectric constant tensor:
#      x y z
#    x 1.794490 0.000000 0.000000 
#    y 0.000000 1.798610 0.000000 
#    z 0.000000 0.000000 1.787270 
# 
# From -- ./inp_files/25654.got.cif
#   From: 2010.03.12/outbox.cif.g09.slc.cpg/sg51_13_cif.got.tgz:25654.got - 2010.04.16 13:43:02.
