data_PCOD8211027
_publ_section_title
;
Structure prediction by ZEFSAII (Michael W. Deem and Ramdas Pophale) SiO2 
 PCOD8211027
Probable space group: P M M A
;
_chemical_formula_sum "Si O2"
_cell_formula_units_Z 40
_cell_length_a 8.885363
_cell_length_b 9.406019
_cell_length_c 25.710583
_cell_angle_alpha 90.000000
_cell_angle_beta 90.000000
_cell_angle_gamma 90.000000
_cell_volume 2148.784939
_symmetry_space_group_name_H-M "P M M A"
_symmetry_group_IT_number 51
_symmetry_cell_setting 'orthorhombic'
loop_
_space_group_symop_operation_xyz
x,y,z
1/2-x,-y,z
1/2+x,-y,-z
-x,y,-z
-x,-y,-z
1/2+x,y,-z
1/2-x,y,z
x,-y,z
loop_
_atom_site_type_symbol
_atom_site_label
_atom_site_fract_x
_atom_site_fract_y
_atom_site_fract_z
Si Si1 0.076851 0.167977 0.156607
Si Si2 0.425593 0.663879 0.751759
Si Si3 0.576546 0.666652 0.644857
Si Si4 0.426537 0.163279 0.553157
Si Si5 0.919612 0.169088 0.051456
O O1 0.250000 0.214790 0.160914
O O2 0.979919 0.241501 0.200819
O O3 0.013357 0.220748 0.101319
O O4 0.058090 0.000000 0.162751
O O5 0.250000 0.689093 0.742289
O O6 0.461699 0.500000 0.764335
O O7 0.513003 0.714781 0.700493
O O8 0.750000 0.711133 0.641830
O O9 0.552749 0.500000 0.636564
O O10 0.485237 0.745616 0.600690
O O11 0.500000 0.220092 0.500000
O O12 0.250000 0.183836 0.548109
O O13 0.471942 0.000000 0.562852
O O14 0.750000 0.229422 0.054688
O O15 0.916431 0.000000 0.048946
O O16 0.000000 0.230716 0.000000
#
# Coordination Sequence:
#
# PCOD8211027 Si02
#       5
#     8   8   8   8   8
#     4  10  20  33  51  77 106 136 173 215 258 307
#     4  10  21  37  56  77 103 137 175 215 261 311
#     4  10  21  37  57  80 105 136 175 216 258 306
#     4  10  21  37  57  81 109 141 175 212 257 307
#     4   9  16  27  45  70 101 135 170 211 258 306
#
# _framework density 18.615169999999999
#
# number of rings (size 3 to 8) (size 9 to 14) (size 15 to 20)
#    0.000    2.200    0.000    3.000    0.000    8.400 
#    0.000    0.000    0.000    0.600    0.000    0.000 
#    0.000    0.000    0.000    0.000    0.000    0.000 
#
# Total GULP energy -496148.548289 kJ/mol
# GULP energy per Si atom -12403.713707 kJ/mol
# Density = 1.857280 g / cm^3
# Si number density = 18.615170 Si / 1000 Ang^3
#
#
#
# Elastic Constant Matrix: (Units=GPa)
#
#
# Indices 1 2 3 4 5 6 
#
# 1 74.5188 20.4815 26.8806 0.0000 0.0000 0.0000
# 2 20.4815 28.4872 36.2013 0.0000 0.0000 0.0000
# 3 26.8806 36.2013 129.3807 0.0000 0.0000 0.0000
# 4 0.0000 0.0000 0.0000 37.7074 0.0000 0.0000
# 5 0.0000 0.0000 0.0000 0.0000 45.1564 0.0000
# 6 0.0000 0.0000 0.0000 0.0000 0.0000 29.1203
#
#
#
# Elastic Compliance Matrix: (Units=1/GPa)
#
#
# Indices 1 2 3 4 5 6 
#
# 1 0.016727 -0.011809 -0.000171 0.000000 0.000000 0.000000
# 2 -0.011809 0.062809 -0.015121 0.000000 0.000000 0.000000
# 3 -0.000171 -0.015121 0.011996 0.000000 0.000000 0.000000
# 4 0.000000 0.000000 0.000000 0.026520 0.000000 0.000000
# 5 0.000000 0.000000 0.000000 0.000000 0.022145 0.000000
# 6 0.000000 0.000000 0.000000 0.000000 0.000000 0.034340
#
#
# Mechanical properties :
#
#
# Convention : Reuss Voigt Hill
#
# Bulk Modulus (GPa) = 26.78797 44.39038 35.58917
# Shear Modulus (GPa) = 20.73127 32.31837 26.52482
#
# Velocity S-wave (km/s) = 3.34080 4.17121 3.77888
# Velocity P-wave (km/s) = 5.41321 6.86271 6.18060
#
# Compressibility (1/GPa) = 0.03733019
#
# Stress axis : x y z
#
# Youngs Moduli (GPa) = 59.78440 15.92127 83.36423
#
# Poissons Ratio (x) = 0.18801 0.01426
# Poissons Ratio (y) = 0.70597 1.26054
# Poissons Ratio (z) = 0.01023 0.24074
#
# Static dielectric constant tensor:
#      x y z
#    x 2.709160 0.000000 0.000000 
#    y 0.000000 3.133160 0.000000 
#    z 0.000000 0.000000 3.602000 
# 
# 
# High freq. dielectric constant tensor:
#      x y z
#    x 1.743860 0.000000 0.000000 
#    y 0.000000 1.689020 0.000000 
#    z 0.000000 0.000000 1.738190 
# 
# From -- ./inp_files/27026.got.cif
#   From: 2010.03.12/outbox.cif.g09.slc.cpg/sg51_14_cif.got.tgz:27026.got - 2010.04.16 13:43:02.
