data_PCOD8211034
_publ_section_title
;
Structure prediction by ZEFSAII (Michael W. Deem and Ramdas Pophale) SiO2 
 PCOD8211034
Probable space group: P M M A
;
_chemical_formula_sum "Si O2"
_cell_formula_units_Z 64
_cell_length_a 18.826264
_cell_length_b 8.950235
_cell_length_c 20.550390
_cell_angle_alpha 90.000000
_cell_angle_beta 90.000000
_cell_angle_gamma 90.000000
_cell_volume 3462.730172
_symmetry_space_group_name_H-M "P M M A"
_symmetry_group_IT_number 51
_symmetry_cell_setting 'orthorhombic'
loop_
_space_group_symop_operation_xyz
x,y,z
1/2-x,-y,z
1/2+x,-y,-z
-x,y,-z
-x,-y,-z
1/2+x,y,-z
1/2-x,y,z
x,-y,z
loop_
_atom_site_type_symbol
_atom_site_label
_atom_site_fract_x
_atom_site_fract_y
_atom_site_fract_z
Si Si1 0.417422 0.673154 0.126892
Si Si2 0.833698 0.170479 0.762123
Si Si3 0.668535 0.324042 0.381831
Si Si4 0.667850 0.825674 0.247153
Si Si5 0.917271 0.674507 0.132269
Si Si6 0.584389 0.831641 0.002186
Si Si7 0.917896 0.823922 0.496294
Si Si8 0.828355 0.177164 0.617297
O O1 0.406127 0.500000 0.112623
O O2 0.373953 0.719893 0.189891
O O3 0.499620 0.709783 0.139387
O O4 0.386480 0.760835 0.064534
O O5 0.750000 0.183771 0.773354
O O6 0.853678 0.225520 0.689263
O O7 0.858815 0.000000 0.773704
O O8 0.750000 0.280663 0.397996
O O9 0.658519 0.500000 0.376646
O O10 0.644544 0.252529 0.313896
O O11 0.617748 0.260523 0.436882
O O12 0.750000 0.793582 0.231886
O O13 0.621880 0.759187 0.189541
O O14 0.651746 0.000000 0.253883
O O15 0.900276 0.500000 0.136106
O O16 0.888086 0.736487 0.063549
O O17 0.613422 0.000000 0.008494
O O18 0.500000 0.827487 0.000000
O O19 0.882935 0.764419 0.563177
O O20 0.000000 0.781066 0.500000
O O21 0.906216 0.000000 0.486706
O O22 0.750000 0.243488 0.602180
O O23 0.823609 0.000000 0.616140
#
# Coordination Sequence:
#
# PCOD8211034 Si02
#       8
#     8   8   8   8   8   8   8   8
#     4  10  20  33  51  77 107 138 171 210 261 316
#     4   9  18  33  52  73  98 133 178 222 261 304
#     4  10  21  37  56  77 104 141 180 216 261 317
#     4  10  21  37  57  80 105 136 177 222 264 310
#     4  10  20  34  53  78 108 139 171 211 261 316
#     4   9  17  31  52  76 102 136 177 216 254 301
#     4  10  20  33  52  81 111 137 171 217 265 311
#     4   8  15  30  51  71  95 132 173 210 251 301
#
# _framework density 18.482524999999999
#
# number of rings (size 3 to 8) (size 9 to 14) (size 15 to 20)
#    0.000    2.500    0.000    3.000    0.000    6.500 
#    0.000    2.500    0.000    4.500    0.000    0.000 
#    0.000    0.000    0.000    0.000    0.000    0.000 
#
# Total GULP energy -793668.524574 kJ/mol
# GULP energy per Si atom -12401.070696 kJ/mol
# Density = 1.844046 g / cm^3
# Si number density = 18.482525 Si / 1000 Ang^3
#
#
#
# Elastic Constant Matrix: (Units=GPa)
#
#
# Indices 1 2 3 4 5 6 
#
# 1 67.5350 39.2516 69.3896 0.0000 0.0000 0.0000
# 2 39.2516 67.3207 49.7894 0.0000 0.0000 0.0000
# 3 69.3896 49.7894 161.9714 0.0000 0.0000 0.0000
# 4 0.0000 0.0000 0.0000 21.9047 0.0000 0.0000
# 5 0.0000 0.0000 0.0000 0.0000 29.6245 0.0000
# 6 0.0000 0.0000 0.0000 0.0000 0.0000 21.5633
#
#
#
# Elastic Compliance Matrix: (Units=1/GPa)
#
#
# Indices 1 2 3 4 5 6 
#
# 1 0.031612 -0.010892 -0.010195 0.000000 0.000000 0.000000
# 2 -0.010892 0.022978 -0.002397 0.000000 0.000000 0.000000
# 3 -0.010195 -0.002397 0.011278 0.000000 0.000000 0.000000
# 4 0.000000 0.000000 0.000000 0.045652 0.000000 0.000000
# 5 0.000000 0.000000 0.000000 0.000000 0.033756 0.000000
# 6 0.000000 0.000000 0.000000 0.000000 0.000000 0.046375
#
#
# Mechanical properties :
#
#
# Convention : Reuss Voigt Hill
#
# Bulk Modulus (GPa) = 52.90772 68.18757 60.54765
# Shear Modulus (GPa) = 20.41493 23.84495 22.12994
#
# Velocity S-wave (km/s) = 3.32709 3.59574 3.46402
# Velocity P-wave (km/s) = 6.59146 7.36290 6.98783
#
# Compressibility (1/GPa) = 0.01890083
#
# Stress axis : x y z
#
# Youngs Moduli (GPa) = 31.63341 43.52063 88.66562
#
# Poissons Ratio (x) = 0.47401 0.90393
# Poissons Ratio (y) = 0.34454 0.21255
# Poissons Ratio (z) = 0.32250 0.10433
#
# Static dielectric constant tensor:
#      x y z
#    x 2.855300 0.000000 0.000000 
#    y 0.000000 3.340820 0.000000 
#    z 0.000000 0.000000 3.625370 
# 
# 
# High freq. dielectric constant tensor:
#      x y z
#    x 1.696960 0.000000 0.000000 
#    y 0.000000 1.711980 0.000000 
#    z 0.000000 0.000000 1.733010 
# 
# From -- ./inp_files/33868.got.cif
#   From: 2010.03.12/outbox.cif.g09.slc.cpg/sg51_17_cif.got.tgz:33868.got - 2010.04.16 13:43:02.
