data_PCOD8211878
_publ_section_title
;
Structure prediction by ZEFSAII (Michael W. Deem and Ramdas Pophale) SiO2 
 PCOD8211878
Probable space group: P M M A
;
_chemical_formula_sum "Si O2"
_cell_formula_units_Z 64
_cell_length_a 9.016272
_cell_length_b 23.770645
_cell_length_c 14.670527
_cell_angle_alpha 90.000000
_cell_angle_beta 90.000000
_cell_angle_gamma 90.000000
_cell_volume 3144.225504
_symmetry_space_group_name_H-M "P M M A"
_symmetry_group_IT_number 51
_symmetry_cell_setting 'orthorhombic'
loop_
_space_group_symop_operation_xyz
x,y,z
1/2-x,-y,z
1/2+x,-y,-z
-x,y,-z
-x,-y,-z
1/2+x,y,-z
1/2-x,y,z
x,-y,z
loop_
_atom_site_type_symbol
_atom_site_label
_atom_site_fract_x
_atom_site_fract_y
_atom_site_fract_z
Si Si1 0.410493 0.222283 0.918243
Si Si2 0.073238 0.349171 0.279093
Si Si3 0.421699 0.827847 0.233455
Si Si4 0.586934 0.936337 0.581207
Si Si5 0.586290 0.350097 0.085574
Si Si6 0.423980 0.938037 0.767055
Si Si7 0.922447 0.242672 0.598206
Si Si8 0.421263 0.566163 0.592925
O O1 0.250000 0.192400 0.906881
O O2 0.501642 0.221119 0.824129
O O3 0.385371 0.286438 0.944656
O O4 0.500000 0.191609 0.000000
O O5 0.250000 0.351535 0.272230
O O6 0.022589 0.295271 0.340083
O O7 0.008093 0.350463 0.177826
O O8 0.008622 0.404783 0.325449
O O9 0.250000 0.826529 0.211714
O O10 0.487200 0.885931 0.190108
O O11 0.452640 0.814482 0.341169
O O12 0.500000 0.904084 0.500000
O O13 0.750000 0.908452 0.603393
O O14 0.474400 0.935324 0.663589
O O15 0.618984 0.000000 0.550698
O O16 0.750000 0.378420 0.099538
O O17 0.500000 0.379688 0.000000
O O18 0.250000 0.927572 0.774432
O O19 0.465372 0.000000 0.808444
O O20 0.750000 0.249362 0.577576
O O21 0.000000 0.239359 0.500000
O O22 0.500000 0.585163 0.500000
O O23 0.250000 0.585550 0.589836
O O24 0.434901 0.500000 0.608559
#
# Coordination Sequence:
#
# PCOD8211878 Si02
#       8
#     8   8   8   8   8   8   8   8
#     4  10  20  35  58  86 114 146 182 227 280 337
#     4  11  21  36  58  85 119 157 198 244 295 350
#     4  11  22  38  57  80 112 146 184 229 278 336
#     4   9  16  27  44  65  88 117 157 205 255 304
#     4  10  20  34  56  86 119 154 192 238 289 345
#     4  10  21  36  53  74 100 133 176 224 274 330
#     4  10  23  38  54  79 113 151 188 230 279 336
#     4  10  21  37  57  84 118 158 208 259 303 348
#
# _framework density 20.354773999999999
#
# number of rings (size 3 to 8) (size 9 to 14) (size 15 to 20)
#    0.000    1.875    1.250    3.000    0.000    7.500 
#    0.000    1.250    0.000    0.750    0.000    0.000 
#    0.000    0.000    0.000    0.000    0.000    0.000 
#
# Total GULP energy -792947.276175 kJ/mol
# GULP energy per Si atom -12389.801190 kJ/mol
# Density = 2.030845 g / cm^3
# Si number density = 20.354774 Si / 1000 Ang^3
#
#
#
# Elastic Constant Matrix: (Units=GPa)
#
#
# Indices 1 2 3 4 5 6 
#
# 1 139.2562 30.3541 60.9735 0.0000 0.0000 0.0000
# 2 30.3541 44.5059 20.9846 0.0000 0.0000 0.0000
# 3 60.9735 20.9846 117.3769 0.0000 0.0000 0.0000
# 4 0.0000 0.0000 0.0000 20.3838 0.0000 0.0000
# 5 0.0000 0.0000 0.0000 0.0000 37.1186 0.0000
# 6 0.0000 0.0000 0.0000 0.0000 0.0000 25.0079
#
#
#
# Elastic Compliance Matrix: (Units=1/GPa)
#
#
# Indices 1 2 3 4 5 6 
#
# 1 0.010173 -0.004856 -0.004417 0.000000 0.000000 0.000000
# 2 -0.004856 0.026855 -0.002279 0.000000 0.000000 0.000000
# 3 -0.004417 -0.002279 0.011221 0.000000 0.000000 0.000000
# 4 0.000000 0.000000 0.000000 0.049059 0.000000 0.000000
# 5 0.000000 0.000000 0.000000 0.000000 0.026941 0.000000
# 6 0.000000 0.000000 0.000000 0.000000 0.000000 0.039987
#
#
# Mechanical properties :
#
#
# Convention : Reuss Voigt Hill
#
# Bulk Modulus (GPa) = 39.76561 58.41813 49.09187
# Shear Modulus (GPa) = 25.54655 29.09051 27.31853
#
# Velocity S-wave (km/s) = 3.54653 3.78454 3.66747
# Velocity P-wave (km/s) = 6.02903 6.91804 6.48878
#
# Compressibility (1/GPa) = 0.02514736
#
# Stress axis : x y z
#
# Youngs Moduli (GPa) = 98.29677 37.23667 89.11719
#
# Poissons Ratio (x) = 0.18082 0.39359
# Poissons Ratio (y) = 0.47733 0.20306
# Poissons Ratio (z) = 0.43413 0.08485
#
# Static dielectric constant tensor:
#      x y z
#    x 4.226980 0.000000 0.000000 
#    y 0.000000 3.772360 0.000000 
#    z 0.000000 0.000000 3.541540 
# 
# 
# High freq. dielectric constant tensor:
#      x y z
#    x 1.813840 0.000000 0.000000 
#    y 0.000000 1.768300 0.000000 
#    z 0.000000 0.000000 1.783390 
# 
# From -- ./inp_files/22366.got.cif
#   From: 2010.03.12/outbox.cif.g09.slc.cpg/sg51_12_cif.got.tgz:22366.got - 2010.04.16 13:43:02.
