data_PCOD8211052
_publ_section_title
;
Structure prediction by ZEFSAII (Michael W. Deem and Ramdas Pophale) SiO2 
 PCOD8211052
Probable space group: P M M A
;
_chemical_formula_sum "Si O2"
_cell_formula_units_Z 64
_cell_length_a 18.719834
_cell_length_b 9.238986
_cell_length_c 18.909458
_cell_angle_alpha 90.000000
_cell_angle_beta 90.000000
_cell_angle_gamma 90.000000
_cell_volume 3270.433955
_symmetry_space_group_name_H-M "P M M A"
_symmetry_group_IT_number 51
_symmetry_cell_setting 'orthorhombic'
loop_
_space_group_symop_operation_xyz
x,y,z
1/2-x,-y,z
1/2+x,-y,-z
-x,y,-z
-x,-y,-z
1/2+x,y,-z
1/2-x,y,z
x,-y,z
loop_
_atom_site_type_symbol
_atom_site_label
_atom_site_fract_x
_atom_site_fract_y
_atom_site_fract_z
Si Si1 0.668303 0.331488 0.303109
Si Si2 0.899249 0.664996 0.723385
Si Si3 0.332377 0.667704 0.423236
Si Si4 0.334859 0.837212 0.559437
Si Si5 0.043440 0.335037 0.797995
Si Si6 0.665880 0.161088 0.847276
Si Si7 0.334053 0.667113 0.016496
Si Si8 0.446086 0.169372 0.936637
O O1 0.750000 0.289574 0.284357
O O2 0.661598 0.500000 0.321918
O O3 0.638619 0.244492 0.370494
O O4 0.619482 0.291213 0.235869
O O5 0.874068 0.500000 0.737186
O O6 0.881653 0.709775 0.643275
O O7 0.854537 0.769453 0.773330
O O8 0.983381 0.683247 0.737603
O O9 0.250000 0.707143 0.405994
O O10 0.339375 0.500000 0.443012
O O11 0.363186 0.757622 0.489296
O O12 0.250000 0.834097 0.558202
O O13 0.364931 0.000000 0.560530
O O14 0.045551 0.500000 0.825863
O O15 0.023421 0.229691 0.862725
O O16 0.750000 0.150006 0.851344
O O17 0.637562 0.259701 0.911341
O O18 0.632166 0.000000 0.854720
O O19 0.250000 0.686000 0.005968
O O20 0.356545 0.500000 0.018602
O O21 0.371861 0.747335 0.951228
O O22 0.431039 0.000000 0.929659
O O23 0.500000 0.205161 0.000000
#
# Coordination Sequence:
#
# PCOD8211052 Si02
#       8
#     8   8   8   8   8   8   8   8
#     4   9  18  35  58  80 104 136 174 218 268 321
#     4  10  20  34  52  75 106 143 182 224 266 311
#     4   9  17  30  50  76 105 139 178 216 257 309
#     4   9  17  30  51  79 107 135 172 217 262 311
#     4  10  22  38  56  80 107 137 178 225 271 320
#     4  10  20  33  51  77 109 143 177 215 262 316
#     4  10  21  37  58  82 106 135 175 223 272 322
#     4  11  24  40  58  81 110 145 182 220 268 326
#
# _framework density 19.569268999999998
#
# number of rings (size 3 to 8) (size 9 to 14) (size 15 to 20)
#    0.000    2.250    0.000    2.625    0.000    8.500 
#    0.000    3.125    0.000    3.750    0.000    0.000 
#    0.000    0.000    0.000    0.000    0.000    0.000 
#
# Total GULP energy -793772.776384 kJ/mol
# GULP energy per Si atom -12402.699631 kJ/mol
# Density = 1.952473 g / cm^3
# Si number density = 19.569269 Si / 1000 Ang^3
#
#
#
# Elastic Constant Matrix: (Units=GPa)
#
#
# Indices 1 2 3 4 5 6 
#
# 1 50.1022 40.3907 44.6187 0.0000 0.0000 0.0000
# 2 40.3907 116.4736 65.2362 0.0000 0.0000 0.0000
# 3 44.6187 65.2362 120.5333 0.0000 0.0000 0.0000
# 4 0.0000 0.0000 0.0000 21.7625 0.0000 0.0000
# 5 0.0000 0.0000 0.0000 0.0000 28.2809 0.0000
# 6 0.0000 0.0000 0.0000 0.0000 0.0000 19.3625
#
#
#
# Elastic Compliance Matrix: (Units=1/GPa)
#
#
# Indices 1 2 3 4 5 6 
#
# 1 0.032965 -0.006596 -0.008633 0.000000 0.000000 0.000000
# 2 -0.006596 0.013640 -0.004941 0.000000 0.000000 0.000000
# 3 -0.008633 -0.004941 0.014166 0.000000 0.000000 0.000000
# 4 0.000000 0.000000 0.000000 0.045951 0.000000 0.000000
# 5 0.000000 0.000000 0.000000 0.000000 0.035360 0.000000
# 6 0.000000 0.000000 0.000000 0.000000 0.000000 0.051646
#
#
# Mechanical properties :
#
#
# Convention : Reuss Voigt Hill
#
# Bulk Modulus (GPa) = 48.94342 65.28894 57.11618
# Shear Modulus (GPa) = 20.75737 23.00541 21.88139
#
# Velocity S-wave (km/s) = 3.26039 3.43241 3.34750
# Velocity P-wave (km/s) = 6.26404 7.01028 6.64764
#
# Compressibility (1/GPa) = 0.02043176
#
# Stress axis : x y z
#
# Youngs Moduli (GPa) = 30.33525 73.31133 70.59070
#
# Poissons Ratio (x) = 0.48360 0.60939
# Poissons Ratio (y) = 0.20011 0.34877
# Poissons Ratio (z) = 0.26187 0.36221
#
# Static dielectric constant tensor:
#      x y z
#    x 3.414280 0.000000 0.000000 
#    y 0.000000 3.690720 0.000000 
#    z 0.000000 0.000000 3.531860 
# 
# 
# High freq. dielectric constant tensor:
#      x y z
#    x 1.746260 0.000000 0.000000 
#    y 0.000000 1.764950 0.000000 
#    z 0.000000 0.000000 1.760240 
# 
# From -- ./inp_files/30636.got.cif
#   From: 2010.03.12/outbox.cif.g09.slc.cpg/sg51_16_cif.got.tgz:30636.got - 2010.04.16 13:43:02.
