data_PCOD8211195
_publ_section_title
;
Structure prediction by ZEFSAII (Michael W. Deem and Ramdas Pophale) SiO2 
 PCOD8211195
Probable space group: P M M A
;
_chemical_formula_sum "Si O2"
_cell_formula_units_Z 64
_cell_length_a 9.067620
_cell_length_b 14.229302
_cell_length_c 25.921561
_cell_angle_alpha 90.000000
_cell_angle_beta 90.000000
_cell_angle_gamma 90.000000
_cell_volume 3344.552826
_symmetry_space_group_name_H-M "P M M A"
_symmetry_group_IT_number 51
_symmetry_cell_setting 'orthorhombic'
loop_
_space_group_symop_operation_xyz
x,y,z
1/2-x,-y,z
1/2+x,-y,-z
-x,y,-z
-x,-y,-z
1/2+x,y,-z
1/2-x,y,z
x,-y,z
loop_
_atom_site_type_symbol
_atom_site_label
_atom_site_fract_x
_atom_site_fract_y
_atom_site_fract_z
Si Si1 0.921802 0.391442 0.751427
Si Si2 0.574908 0.271059 0.448756
Si Si3 0.414556 0.888605 0.704883
Si Si4 0.576724 0.607065 0.350900
Si Si5 0.080525 0.708314 0.143840
Si Si6 0.081295 0.105280 0.194271
Si Si7 0.922480 0.890377 0.602958
Si Si8 0.922772 0.392232 0.052405
O O1 0.750000 0.376779 0.741622
O O2 0.963838 0.500000 0.759773
O O3 0.973232 0.336730 0.802433
O O4 0.004957 0.350259 0.701163
O O5 0.500000 0.314117 0.500000
O O6 0.750000 0.266737 0.455426
O O7 0.525092 0.335455 0.400872
O O8 0.509233 0.166460 0.441053
O O9 0.250000 0.845895 0.698828
O O10 0.484982 0.855472 0.758494
O O11 0.514715 0.854211 0.657691
O O12 0.408121 0.000000 0.705017
O O13 0.750000 0.613420 0.343802
O O14 0.523361 0.500000 0.358772
O O15 0.250000 0.680113 0.132485
O O16 0.061670 0.821629 0.147220
O O17 0.977818 0.672729 0.098419
O O18 0.250000 0.104648 0.213463
O O19 0.033691 0.000000 0.176487
O O20 0.750000 0.867785 0.600620
O O21 0.954740 0.000000 0.594013
O O22 0.750000 0.378465 0.045354
O O23 0.964303 0.500000 0.064903
O O24 0.000000 0.358768 0.000000
#
# Coordination Sequence:
#
# PCOD8211195 Si02
#       8
#     8   8   8   8   8   8   8   8
#     4   9  18  32  51  78 110 142 177 218 268 325
#     4  11  24  40  58  81 105 135 175 222 272 325
#     4   9  17  30  49  74 104 138 177 221 267 317
#     4   9  20  39  59  79 106 139 175 218 269 323
#     4  10  20  33  53  82 114 151 190 232 275 320
#     4   9  18  32  49  74 111 153 193 230 271 319
#     4  10  21  37  57  79 105 139 176 217 266 322
#     4  10  21  37  58  84 114 149 187 230 280 333
#
# _framework density 19.135593
#
# number of rings (size 3 to 8) (size 9 to 14) (size 15 to 20)
#    0.000    2.375    0.000    1.875    1.750    6.000 
#    0.000    1.250    0.000    0.375    0.000    0.000 
#    0.000    0.000    0.000    0.000    0.000    0.000 
#
# Total GULP energy -793689.917346 kJ/mol
# GULP energy per Si atom -12401.404959 kJ/mol
# Density = 1.909204 g / cm^3
# Si number density = 19.135593 Si / 1000 Ang^3
#
#
#
# Elastic Constant Matrix: (Units=GPa)
#
#
# Indices 1 2 3 4 5 6 
#
# 1 78.3867 32.0723 55.6168 0.0000 0.0000 0.0000
# 2 32.0723 71.0293 58.0031 0.0000 0.0000 0.0000
# 3 55.6168 58.0031 135.6421 0.0000 0.0000 0.0000
# 4 0.0000 0.0000 0.0000 27.7802 0.0000 0.0000
# 5 0.0000 0.0000 0.0000 0.0000 39.2275 0.0000
# 6 0.0000 0.0000 0.0000 0.0000 0.0000 21.8981
#
#
#
# Elastic Compliance Matrix: (Units=1/GPa)
#
#
# Indices 1 2 3 4 5 6 
#
# 1 0.018486 -0.003315 -0.006162 0.000000 0.000000 0.000000
# 2 -0.003315 0.022227 -0.008146 0.000000 0.000000 0.000000
# 3 -0.006162 -0.008146 0.013382 0.000000 0.000000 0.000000
# 4 0.000000 0.000000 0.000000 0.035997 0.000000 0.000000
# 5 0.000000 0.000000 0.000000 0.000000 0.025492 0.000000
# 6 0.000000 0.000000 0.000000 0.000000 0.000000 0.045666
#
#
# Mechanical properties :
#
#
# Convention : Reuss Voigt Hill
#
# Bulk Modulus (GPa) = 53.05071 64.04916 58.54993
# Shear Modulus (GPa) = 24.65741 27.07223 25.86482
#
# Velocity S-wave (km/s) = 3.59355 3.76541 3.68048
# Velocity P-wave (km/s) = 6.70835 7.24212 6.98034
#
# Compressibility (1/GPa) = 0.01884989
#
# Stress axis : x y z
#
# Youngs Moduli (GPa) = 54.09590 44.98985 74.72645
#
# Poissons Ratio (x) = 0.14914 0.46047
# Poissons Ratio (y) = 0.17933 0.60869
# Poissons Ratio (z) = 0.33334 0.36647
#
# Static dielectric constant tensor:
#      x y z
#    x 3.517370 0.000000 0.000000 
#    y 0.000000 3.576660 0.000000 
#    z 0.000000 0.000000 3.400170 
# 
# 
# High freq. dielectric constant tensor:
#      x y z
#    x 1.744900 0.000000 0.000000 
#    y 0.000000 1.743400 0.000000 
#    z 0.000000 0.000000 1.728290 
# 
# From -- ./inp_files/34908.got.cif
#   From: 2010.03.12/outbox.cif.g09.slc.cpg/sg51_18_cif.got.tgz:34908.got - 2010.04.16 13:43:02.
