data_PCOD8211707
_publ_section_title
;
Structure prediction by ZEFSAII (Michael W. Deem and Ramdas Pophale) SiO2 
 PCOD8211707
Probable space group: P M M A
;
_chemical_formula_sum "Si O2"
_cell_formula_units_Z 40
_cell_length_a 9.165111
_cell_length_b 12.270444
_cell_length_c 19.146552
_cell_angle_alpha 90.000000
_cell_angle_beta 90.000000
_cell_angle_gamma 90.000000
_cell_volume 2153.220879
_symmetry_space_group_name_H-M "P M M A"
_symmetry_group_IT_number 51
_symmetry_cell_setting 'orthorhombic'
loop_
_space_group_symop_operation_xyz
x,y,z
1/2-x,-y,z
1/2+x,-y,-z
-x,y,-z
-x,-y,-z
1/2+x,y,-z
1/2-x,y,z
x,-y,z
loop_
_atom_site_type_symbol
_atom_site_label
_atom_site_fract_x
_atom_site_fract_y
_atom_site_fract_z
Si Si1 0.920322 0.709126 0.338741
Si Si2 0.416601 0.000000 0.070838
Si Si3 0.078847 0.500000 0.573168
Si Si4 0.918939 0.872714 0.569989
Si Si5 0.078688 0.763604 0.074281
Si Si6 0.581737 0.626892 0.186973
O O1 0.750000 0.733611 0.349143
O O2 0.969911 0.605194 0.383425
O O3 0.957871 0.688586 0.258204
O O4 0.013116 0.812720 0.363348
O O5 0.452041 0.884590 0.109101
O O6 0.250000 0.000000 0.048720
O O7 0.500000 0.000000 0.000000
O O8 0.250000 0.500000 0.559984
O O9 0.000000 0.500000 0.500000
O O10 0.750000 0.842427 0.562016
O O11 0.000000 0.832907 0.500000
O O12 0.943199 0.000000 0.582636
O O13 0.250000 0.743419 0.063254
O O14 0.018129 0.672596 0.125692
O O15 0.000000 0.752211 0.000000
O O16 0.750000 0.645669 0.167077
O O17 0.547872 0.500000 0.197134
#
# Coordination Sequence:
#
# PCOD8211707 Si02
#       6
#     8   4   4   8   8   8
#     4  10  20  37  58  79 110 147 185 228 277 329
#     4   8  16  32  54  80 110 140 171 218 271 316
#     4  10  20  34  54  82 109 140 179 226 275 322
#     4  10  21  37  57  82 112 146 184 229 278 328
#     4  10  20  36  59  86 114 146 185 228 274 327
#     4  10  21  39  59  79 110 150 187 229 279 327
#
# _framework density 18.576820999999999
#
# number of rings (size 3 to 8) (size 9 to 14) (size 15 to 20)
#    0.000    2.200    1.000    1.800    0.000    6.000 
#    1.800    0.000    0.000    0.000    0.000    0.000 
#    0.000    0.000    0.000    0.000    0.000    0.000 
#
# Total GULP energy -495916.871908 kJ/mol
# GULP energy per Si atom -12397.921798 kJ/mol
# Density = 1.853454 g / cm^3
# Si number density = 18.576821 Si / 1000 Ang^3
#
#
#
# Elastic Constant Matrix: (Units=GPa)
#
#
# Indices 1 2 3 4 5 6 
#
# 1 90.7608 56.0806 60.8630 0.0000 0.0000 0.0000
# 2 56.0806 83.8375 53.6197 0.0000 0.0000 0.0000
# 3 60.8630 53.6197 108.3935 0.0000 0.0000 0.0000
# 4 0.0000 0.0000 0.0000 30.7622 0.0000 0.0000
# 5 0.0000 0.0000 0.0000 0.0000 33.7957 0.0000
# 6 0.0000 0.0000 0.0000 0.0000 0.0000 31.1407
#
#
#
# Elastic Compliance Matrix: (Units=1/GPa)
#
#
# Indices 1 2 3 4 5 6 
#
# 1 0.022314 -0.010112 -0.007527 0.000000 0.000000 0.000000
# 2 -0.010112 0.022031 -0.005220 0.000000 0.000000 0.000000
# 3 -0.007527 -0.005220 0.016034 0.000000 0.000000 0.000000
# 4 0.000000 0.000000 0.000000 0.032507 0.000000 0.000000
# 5 0.000000 0.000000 0.000000 0.000000 0.029590 0.000000
# 6 0.000000 0.000000 0.000000 0.000000 0.000000 0.032112
#
#
# Mechanical properties :
#
#
# Convention : Reuss Voigt Hill
#
# Bulk Modulus (GPa) = 68.21117 69.34649 68.77883
# Shear Modulus (GPa) = 24.36734 26.63494 25.50114
#
# Velocity S-wave (km/s) = 3.62568 3.79063 3.70907
# Velocity P-wave (km/s) = 7.37059 7.52124 7.44630
#
# Compressibility (1/GPa) = 0.01466035
#
# Stress axis : x y z
#
# Youngs Moduli (GPa) = 44.81572 45.39140 62.36653
#
# Poissons Ratio (x) = 0.45900 0.46943
# Poissons Ratio (y) = 0.45318 0.32556
# Poissons Ratio (z) = 0.33732 0.23695
#
# Static dielectric constant tensor:
#      x y z
#    x 3.391000 0.000000 0.000000 
#    y 0.000000 3.716090 0.000000 
#    z 0.000000 0.000000 3.105650 
# 
# 
# High freq. dielectric constant tensor:
#      x y z
#    x 1.723680 0.000000 0.000000 
#    y 0.000000 1.733090 0.000000 
#    z 0.000000 0.000000 1.706710 
# 
# From -- ./inp_files/31405.got.cif
#   From: 2010.03.12/outbox.cif.g09.slc.cpg/sg51_16_cif.got.tgz:31405.got - 2010.04.16 13:43:02.
