data_PCOD8211534
_publ_section_title
;
Structure prediction by ZEFSAII (Michael W. Deem and Ramdas Pophale) SiO2 
 PCOD8211534
Probable space group: P M M A
;
_chemical_formula_sum "Si O2"
_cell_formula_units_Z 48
_cell_length_a 14.786088
_cell_length_b 11.255151
_cell_length_c 14.911198
_cell_angle_alpha 90.000000
_cell_angle_beta 90.000000
_cell_angle_gamma 90.000000
_cell_volume 2481.516399
_symmetry_space_group_name_H-M "P M M A"
_symmetry_group_IT_number 51
_symmetry_cell_setting 'orthorhombic'
loop_
_space_group_symop_operation_xyz
x,y,z
1/2-x,-y,z
1/2+x,-y,-z
-x,y,-z
-x,-y,-z
1/2+x,y,-z
1/2-x,y,z
x,-y,z
loop_
_atom_site_type_symbol
_atom_site_label
_atom_site_fract_x
_atom_site_fract_y
_atom_site_fract_z
Si Si1 0.972586 0.000000 0.899571
Si Si2 0.851553 0.000000 0.219474
Si Si3 0.650382 0.640180 0.728306
Si Si4 0.004426 0.640981 0.600668
Si Si5 0.857562 0.365253 0.083099
Si Si6 0.144730 0.227742 0.092541
Si Si7 0.852767 0.259459 0.270865
O O1 0.912541 0.885741 0.877283
O O2 0.069087 0.000000 0.851774
O O3 0.000000 0.000000 0.000000
O O4 0.861094 0.117202 0.280157
O O5 0.750000 0.000000 0.173699
O O6 0.750000 0.685612 0.699668
O O7 0.645172 0.500000 0.725541
O O8 0.579131 0.694590 0.657744
O O9 0.628971 0.676762 0.829665
O O10 0.000941 0.500000 0.598850
O O11 0.096859 0.681551 0.646239
O O12 0.000000 0.692472 0.500000
O O13 0.750000 0.367252 0.079870
O O14 0.895419 0.500000 0.077268
O O15 0.892562 0.304192 0.175021
O O16 0.892843 0.286340 0.999557
O O17 0.250000 0.191945 0.082300
O O18 0.750000 0.302739 0.278681
#
# Coordination Sequence:
#
# PCOD8211534 Si02
#       7
#     4   4   8   8   8   8   8
#     4  12  23  33  50  74 105 145 186 219 260 314
#     4  10  22  39  57  76 102 139 182 231 277 316
#     4   9  18  34  55  77 105 142 178 213 258 313
#     4  10  21  36  55  82 113 141 174 218 267 320
#     4   9  17  30  51  80 112 145 179 216 261 314
#     4  10  20  34  53  79 111 143 177 217 260 312
#     4  10  20  36  58  81 107 140 180 225 273 320
#
# _framework density 19.343012000000002
#
# number of rings (size 3 to 8) (size 9 to 14) (size 15 to 20)
#    0.000    2.167    0.000    3.250    0.000    5.667 
#    0.000    2.083    0.000    5.000    0.000    2.333 
#    0.000    0.000    0.000    0.000    0.000    0.000 
#
# Total GULP energy -595151.244864 kJ/mol
# GULP energy per Si atom -12398.984268 kJ/mol
# Density = 1.929899 g / cm^3
# Si number density = 19.343012 Si / 1000 Ang^3
#
#
#
# Elastic Constant Matrix: (Units=GPa)
#
#
# Indices 1 2 3 4 5 6 
#
# 1 85.7290 19.3542 54.3238 0.0000 0.0000 0.0000
# 2 19.3542 56.4134 19.2189 0.0000 0.0000 0.0000
# 3 54.3238 19.2189 140.8613 0.0000 0.0000 0.0000
# 4 0.0000 0.0000 0.0000 14.8082 0.0000 0.0000
# 5 0.0000 0.0000 0.0000 0.0000 30.5031 0.0000
# 6 0.0000 0.0000 0.0000 0.0000 0.0000 22.5389
#
#
#
# Elastic Compliance Matrix: (Units=1/GPa)
#
#
# Indices 1 2 3 4 5 6 
#
# 1 0.016096 -0.003573 -0.005720 0.000000 0.000000 0.000000
# 2 -0.003573 0.019384 -0.001267 0.000000 0.000000 0.000000
# 3 -0.005720 -0.001267 0.009478 0.000000 0.000000 0.000000
# 4 0.000000 0.000000 0.000000 0.067530 0.000000 0.000000
# 5 0.000000 0.000000 0.000000 0.000000 0.032784 0.000000
# 6 0.000000 0.000000 0.000000 0.000000 0.000000 0.044368
#
#
# Mechanical properties :
#
#
# Convention : Reuss Voigt Hill
#
# Bulk Modulus (GPa) = 41.95041 52.08860 47.01950
# Shear Modulus (GPa) = 22.86188 26.24384 24.55286
#
# Velocity S-wave (km/s) = 3.44164 3.68742 3.56665
# Velocity P-wave (km/s) = 6.12600 6.71690 6.42824
#
# Compressibility (1/GPa) = 0.02383767
#
# Stress axis : x y z
#
# Youngs Moduli (GPa) = 62.12748 51.58958 105.50865
#
# Poissons Ratio (x) = 0.18436 0.60350
# Poissons Ratio (y) = 0.22201 0.13363
# Poissons Ratio (z) = 0.35536 0.06534
#
# Static dielectric constant tensor:
#      x y z
#    x 3.593050 0.000000 0.000000 
#    y 0.000000 3.430850 0.000000 
#    z 0.000000 0.000000 3.481440 
# 
# 
# High freq. dielectric constant tensor:
#      x y z
#    x 1.761100 0.000000 0.000000 
#    y 0.000000 1.744830 0.000000 
#    z 0.000000 0.000000 1.732360 
# 
# From -- ./inp_files/24104.got.cif
#   From: 2010.03.12/outbox.cif.g09.slc.cpg/sg51_13_cif.got.tgz:24104.got - 2010.04.16 13:43:02.
