data_PCOD8211115
_publ_section_title
;
Structure prediction by ZEFSAII (Michael W. Deem and Ramdas Pophale) SiO2 
 PCOD8211115
Probable space group: P M M A
;
_chemical_formula_sum "Si O2"
_cell_formula_units_Z 48
_cell_length_a 14.948152
_cell_length_b 9.005582
_cell_length_c 18.491514
_cell_angle_alpha 90.000000
_cell_angle_beta 90.000000
_cell_angle_gamma 90.000000
_cell_volume 2489.268601
_symmetry_space_group_name_H-M "P M M A"
_symmetry_group_IT_number 51
_symmetry_cell_setting 'orthorhombic'
loop_
_space_group_symop_operation_xyz
x,y,z
1/2-x,-y,z
1/2+x,-y,-z
-x,y,-z
-x,-y,-z
1/2+x,y,-z
1/2-x,y,z
x,-y,z
loop_
_atom_site_type_symbol
_atom_site_label
_atom_site_fract_x
_atom_site_fract_y
_atom_site_fract_z
Si Si1 0.507750 0.324894 0.676194
Si Si2 0.402189 0.837706 0.032476
Si Si3 0.147682 0.328642 0.446209
Si Si4 0.990582 0.824682 0.824797
Si Si5 0.649726 0.331802 0.099498
Si Si6 0.353255 0.826167 0.594285
O O1 0.496593 0.500000 0.683828
O O2 0.584353 0.280630 0.619343
O O3 0.538657 0.256916 0.752020
O O4 0.412633 0.256372 0.653799
O O5 0.414306 0.784822 0.115678
O O6 0.355142 0.000000 0.029922
O O7 0.500000 0.853581 0.000000
O O8 0.347336 0.721190 0.984441
O O9 0.250000 0.298590 0.422864
O O10 0.132777 0.500000 0.467423
O O11 0.120140 0.231205 0.514951
O O12 0.088035 0.769916 0.850497
O O13 0.997187 0.000000 0.812148
O O14 0.750000 0.322403 0.130613
O O15 0.613523 0.500000 0.101422
O O16 0.250000 0.788797 0.611075
O O17 0.372639 0.000000 0.597955
#
# Coordination Sequence:
#
# PCOD8211115 Si02
#       6
#     8   8   8   8   8   8
#     4  11  22  35  55  81 109 144 180 218 269 322
#     4   8  16  32  52  72  95 127 166 204 245 295
#     4   9  19  37  58  79 105 138 178 223 270 321
#     4  10  21  36  53  74 103 138 173 212 259 310
#     4  10  20  33  52  79 106 133 169 212 257 308
#     4  10  21  36  55  80 109 142 180 222 267 316
#
# _framework density 19.282772999999999
#
# number of rings (size 3 to 8) (size 9 to 14) (size 15 to 20)
#    0.000    2.333    0.000    3.500    0.000   10.000 
#    0.000    0.833    0.000    3.000    0.000    0.000 
#    0.000    0.000    0.000    0.000    0.000    0.000 
#
# Total GULP energy -595198.725740 kJ/mol
# GULP energy per Si atom -12399.973453 kJ/mol
# Density = 1.923889 g / cm^3
# Si number density = 19.282773 Si / 1000 Ang^3
#
#
#
# Elastic Constant Matrix: (Units=GPa)
#
#
# Indices 1 2 3 4 5 6 
#
# 1 39.9424 13.8944 9.8347 0.0000 0.0000 0.0000
# 2 13.8944 78.1632 27.8997 0.0000 0.0000 0.0000
# 3 9.8347 27.8997 91.8351 0.0000 0.0000 0.0000
# 4 0.0000 0.0000 0.0000 37.8720 0.0000 0.0000
# 5 0.0000 0.0000 0.0000 0.0000 19.3965 0.0000
# 6 0.0000 0.0000 0.0000 0.0000 0.0000 20.9676
#
#
#
# Elastic Compliance Matrix: (Units=1/GPa)
#
#
# Indices 1 2 3 4 5 6 
#
# 1 0.026895 -0.004209 -0.001601 0.000000 0.000000 0.000000
# 2 -0.004209 0.015009 -0.004109 0.000000 0.000000 0.000000
# 3 -0.001601 -0.004109 0.012309 0.000000 0.000000 0.000000
# 4 0.000000 0.000000 0.000000 0.026405 0.000000 0.000000
# 5 0.000000 0.000000 0.000000 0.000000 0.051556 0.000000
# 6 0.000000 0.000000 0.000000 0.000000 0.000000 0.047693
#
#
# Mechanical properties :
#
#
# Convention : Reuss Voigt Hill
#
# Bulk Modulus (GPa) = 29.09253 34.79981 31.94617
# Shear Modulus (GPa) = 23.67853 26.20135 24.93994
#
# Velocity S-wave (km/s) = 3.50803 3.69018 3.60026
# Velocity P-wave (km/s) = 5.61502 6.02021 5.82114
#
# Compressibility (1/GPa) = 0.03437309
#
# Stress axis : x y z
#
# Youngs Moduli (GPa) = 37.18218 66.62840 81.24232
#
# Poissons Ratio (x) = 0.28045 0.13010
# Poissons Ratio (y) = 0.15651 0.33381
# Poissons Ratio (z) = 0.05954 0.27377
#
# Static dielectric constant tensor:
#      x y z
#    x 3.412790 0.000000 0.000000 
#    y 0.000000 3.598090 0.000000 
#    z 0.000000 0.000000 3.683120 
# 
# 
# High freq. dielectric constant tensor:
#      x y z
#    x 1.736020 0.000000 0.000000 
#    y 0.000000 1.757930 0.000000 
#    z 0.000000 0.000000 1.746810 
# 
# From -- ./inp_files/29462.got.cif
#   From: 2010.03.12/outbox.cif.g09.slc.cpg/sg51_15_cif.got.tgz:29462.got - 2010.04.16 13:43:02.
