data_PCOD8211585
_publ_section_title
;
Structure prediction by ZEFSAII (Michael W. Deem and Ramdas Pophale) SiO2 
 PCOD8211585
Probable space group: P M M A
;
_chemical_formula_sum "Si O2"
_cell_formula_units_Z 48
_cell_length_a 9.209911
_cell_length_b 9.218414
_cell_length_c 30.908224
_cell_angle_alpha 90.000000
_cell_angle_beta 90.000000
_cell_angle_gamma 90.000000
_cell_volume 2624.132094
_symmetry_space_group_name_H-M "P M M A"
_symmetry_group_IT_number 51
_symmetry_cell_setting 'orthorhombic'
loop_
_space_group_symop_operation_xyz
x,y,z
1/2-x,-y,z
1/2+x,-y,-z
-x,y,-z
-x,-y,-z
1/2+x,y,-z
1/2-x,y,z
x,-y,z
loop_
_atom_site_type_symbol
_atom_site_label
_atom_site_fract_x
_atom_site_fract_y
_atom_site_fract_z
Si Si1 0.417627 0.170193 0.872629
Si Si2 0.920330 0.168823 0.295950
Si Si3 0.586181 0.827580 0.789035
Si Si4 0.080949 0.332098 0.957681
Si Si5 0.417648 0.329260 0.371489
Si Si6 0.919162 0.834103 0.542569
O O1 0.250000 0.209179 0.864084
O O2 0.508991 0.231807 0.832239
O O3 0.476493 0.246691 0.915830
O O4 0.440364 0.000000 0.878613
O O5 0.750000 0.196041 0.290872
O O6 0.997806 0.227047 0.252626
O O7 0.980752 0.260507 0.335465
O O8 0.955381 0.000000 0.304024
O O9 0.750000 0.766733 0.786780
O O10 0.584981 0.000000 0.790095
O O11 0.250000 0.303782 0.964853
O O12 0.044469 0.500000 0.950330
O O13 0.000000 0.271559 0.000000
O O14 0.250000 0.288990 0.361862
O O15 0.442298 0.500000 0.372567
O O16 0.467533 0.264491 0.417329
O O17 0.750000 0.819088 0.533315
O O18 0.000000 0.776434 0.500000
O O19 0.963096 0.000000 0.552877
#
# Coordination Sequence:
#
# PCOD8211585 Si02
#       6
#     8   8   8   8   8   8
#     4   9  17  30  48  70  96 124 156 197 243 289
#     4  10  20  34  54  78 102 132 171 211 251 299
#     4   9  17  30  50  75 100 127 161 202 247 294
#     4   9  18  32  48  66  91 124 159 194 235 284
#     4  10  21  36  53  75 105 139 173 210 254 302
#     4   9  18  33  53  76 102 133 170 211 252 296
#
# _framework density 18.291761999999999
#
# number of rings (size 3 to 8) (size 9 to 14) (size 15 to 20)
#    0.000    2.667    0.000    1.500    0.000    6.000 
#    0.000    2.500    0.000    3.000    0.000    0.000 
#    0.000    0.000    0.000    0.000    0.000    0.000 
#
# Total GULP energy -595302.133164 kJ/mol
# GULP energy per Si atom -12402.127774 kJ/mol
# Density = 1.825013 g / cm^3
# Si number density = 18.291762 Si / 1000 Ang^3
#
#
#
# Elastic Constant Matrix: (Units=GPa)
#
#
# Indices 1 2 3 4 5 6 
#
# 1 91.2047 39.1932 85.7762 0.0000 0.0000 0.0000
# 2 39.1932 51.7543 59.4898 0.0000 0.0000 0.0000
# 3 85.7762 59.4898 189.8925 0.0000 0.0000 0.0000
# 4 0.0000 0.0000 0.0000 -4.3885 0.0000 0.0000
# 5 0.0000 0.0000 0.0000 0.0000 42.3026 0.0000
# 6 0.0000 0.0000 0.0000 0.0000 0.0000 19.5800
#
#
#
# Elastic Compliance Matrix: (Units=1/GPa)
#
#
# Indices 1 2 3 4 5 6 
#
# 1 0.020888 -0.007771 -0.007001 0.000000 0.000000 0.000000
# 2 -0.007771 0.033087 -0.006855 0.000000 0.000000 0.000000
# 3 -0.007001 -0.006855 0.010576 0.000000 0.000000 0.000000
# 4 0.000000 0.000000 0.000000 -0.227870 0.000000 0.000000
# 5 0.000000 0.000000 0.000000 0.000000 0.023639 0.000000
# 6 0.000000 0.000000 0.000000 0.000000 0.000000 0.051073
#
#
# Mechanical properties :
#
#
# Convention : Reuss Voigt Hill
#
# Bulk Modulus (GPa) = 46.95571 77.97446 62.46508
# Shear Modulus (GPa) = -130.70257 21.39164 -54.65547
#
# Velocity S-wave (km/s) = -8.46224 3.42346 -5.47217
# Velocity P-wave (km/s) = 8.35183 7.63855 2.38806
#
# Compressibility (1/GPa) = 0.02129666
#
# Stress axis : x y z
#
# Youngs Moduli (GPa) = 47.87479 30.22337 94.55366
#
# Poissons Ratio (x) = 0.23487 0.66194
# Poissons Ratio (y) = 0.37205 0.64819
# Poissons Ratio (z) = 0.33515 0.20719
#
# Static dielectric constant tensor:
#      x y z
#    x 3.397470 0.000000 0.000000 
#    y 0.000000 3.140340 0.000000 
#    z 0.000000 0.000000 3.580850 
# 
# 
# High freq. dielectric constant tensor:
#      x y z
#    x 1.707990 0.000000 0.000000 
#    y 0.000000 1.682490 0.000000 
#    z 0.000000 0.000000 1.723210 
# 
# From -- ./inp_files/37061.got.cif
#   From: 2010.03.12/outbox.cif.g09.slc.cpg/sg51_19_cif.got.tgz:37061.got - 2010.04.16 13:43:02.
