data_PCOD8211413
_publ_section_title
;
Structure prediction by ZEFSAII (Michael W. Deem and Ramdas Pophale) SiO2 
 PCOD8211413
Probable space group: P M M A
;
_chemical_formula_sum "Si O2"
_cell_formula_units_Z 64
_cell_length_a 14.035608
_cell_length_b 9.158583
_cell_length_c 25.792115
_cell_angle_alpha 90.000000
_cell_angle_beta 90.000000
_cell_angle_gamma 90.000000
_cell_volume 3315.480458
_symmetry_space_group_name_H-M "P M M A"
_symmetry_group_IT_number 51
_symmetry_cell_setting 'orthorhombic'
loop_
_space_group_symop_operation_xyz
x,y,z
1/2-x,-y,z
1/2+x,-y,-z
-x,y,-z
-x,-y,-z
1/2+x,y,-z
1/2-x,y,z
x,-y,z
loop_
_atom_site_type_symbol
_atom_site_label
_atom_site_fract_x
_atom_site_fract_y
_atom_site_fract_z
Si Si1 0.394768 0.339906 0.518778
Si Si2 0.140498 0.827625 0.824962
Si Si3 0.855873 0.327087 0.973986
Si Si4 0.139958 0.832054 0.621500
Si Si5 0.855366 0.158637 0.577997
Si Si6 0.974768 0.829263 0.276520
Si Si7 0.454800 0.672961 0.920998
Si Si8 0.138417 0.670518 0.323283
O O1 0.500000 0.362047 0.500000
O O2 0.344907 0.500000 0.521570
O O3 0.396740 0.265575 0.574461
O O4 0.344142 0.236222 0.477384
O O5 0.250000 0.772911 0.823277
O O6 0.087865 0.780310 0.772374
O O7 0.082970 0.753058 0.870811
O O8 0.137136 0.000000 0.832813
O O9 0.750000 0.262177 0.961604
O O10 0.851178 0.500000 0.973861
O O11 0.935124 0.278042 0.931750
O O12 0.889322 0.276109 0.030905
O O13 0.250000 0.800952 0.631880
O O14 0.085485 0.786006 0.673141
O O15 0.121780 0.000000 0.607004
O O16 0.750000 0.127261 0.597896
O O17 0.901214 0.259480 0.622638
O O18 0.908823 0.000000 0.573690
O O19 0.075258 0.741752 0.277394
O O20 0.998647 0.000000 0.274623
O O21 0.448423 0.500000 0.912745
O O22 0.250000 0.700183 0.312283
O O23 0.117730 0.500000 0.326947
#
# Coordination Sequence:
#
# PCOD8211413 Si02
#       8
#     8   8   8   8   8   8   8   8
#     4  11  23  35  48  71 103 134 164 205 259 314
#     4  10  21  37  56  79 109 143 178 221 274 322
#     4   8  14  27  49  78 113 150 186 226 272 319
#     4  10  21  37  56  77 101 132 173 218 262 312
#     4  10  20  34  53  75  97 125 163 202 243 302
#     4  10  21  38  59  79 102 137 179 219 260 314
#     4   9  17  30  52  81 109 143 189 232 268 314
#     4  10  21  37  57  81 108 135 166 212 268 318
#
# _framework density 19.303387000000001
#
# number of rings (size 3 to 8) (size 9 to 14) (size 15 to 20)
#    0.000    2.250    0.000    3.750    0.000    9.500 
#    0.000    1.875    0.000    5.625    0.000    0.000 
#    0.000    0.000    0.000    0.000    0.000    0.000 
#
# Total GULP energy -793262.855124 kJ/mol
# GULP energy per Si atom -12394.732111 kJ/mol
# Density = 1.925945 g / cm^3
# Si number density = 19.303387 Si / 1000 Ang^3
#
#
#
# Elastic Constant Matrix: (Units=GPa)
#
#
# Indices 1 2 3 4 5 6 
#
# 1 133.9585 47.3786 80.8174 0.0000 0.0000 0.0000
# 2 47.3786 83.0074 58.7060 0.0000 0.0000 0.0000
# 3 80.8174 58.7060 133.6108 0.0000 0.0000 0.0000
# 4 0.0000 0.0000 0.0000 18.6155 0.0000 0.0000
# 5 0.0000 0.0000 0.0000 0.0000 30.5427 0.0000
# 6 0.0000 0.0000 0.0000 0.0000 0.0000 45.8317
#
#
#
# Elastic Compliance Matrix: (Units=1/GPa)
#
#
# Indices 1 2 3 4 5 6 
#
# 1 0.012105 -0.002511 -0.006218 0.000000 0.000000 0.000000
# 2 -0.002511 0.017999 -0.006390 0.000000 0.000000 0.000000
# 3 -0.006218 -0.006390 0.014053 0.000000 0.000000 0.000000
# 4 0.000000 0.000000 0.000000 0.053719 0.000000 0.000000
# 5 0.000000 0.000000 0.000000 0.000000 0.032741 0.000000
# 6 0.000000 0.000000 0.000000 0.000000 0.000000 0.021819
#
#
# Mechanical properties :
#
#
# Convention : Reuss Voigt Hill
#
# Bulk Modulus (GPa) = 71.84480 80.48675 76.16578
# Shear Modulus (GPa) = 26.69307 29.90962 28.30134
#
# Velocity S-wave (km/s) = 3.72266 3.94057 3.83317
# Velocity P-wave (km/s) = 7.46841 7.90508 7.68985
#
# Compressibility (1/GPa) = 0.01391889
#
# Stress axis : x y z
#
# Youngs Moduli (GPa) = 82.61214 55.55723 71.15764
#
# Poissons Ratio (x) = 0.13951 0.44249
# Poissons Ratio (y) = 0.20745 0.45467
# Poissons Ratio (z) = 0.51372 0.35499
#
# Static dielectric constant tensor:
#      x y z
#    x 3.863440 0.000000 0.000000 
#    y 0.000000 3.568630 0.000000 
#    z 0.000000 0.000000 3.296350 
# 
# 
# High freq. dielectric constant tensor:
#      x y z
#    x 1.767060 0.000000 0.000000 
#    y 0.000000 1.737610 0.000000 
#    z 0.000000 0.000000 1.732340 
# 
# From -- ./inp_files/35817.got.cif
#   From: 2010.03.12/outbox.cif.g09.slc.cpg/sg51_18_cif.got.tgz:35817.got - 2010.04.16 13:43:02.
