data_PCOD8211535
_publ_section_title
;
Structure prediction by ZEFSAII (Michael W. Deem and Ramdas Pophale) SiO2 
 PCOD8211535
Probable space group: P M M A
;
_chemical_formula_sum "Si O2"
_cell_formula_units_Z 56
_cell_length_a 8.634986
_cell_length_b 14.345596
_cell_length_c 23.375215
_cell_angle_alpha 90.000000
_cell_angle_beta 90.000000
_cell_angle_gamma 90.000000
_cell_volume 2895.581865
_symmetry_space_group_name_H-M "P M M A"
_symmetry_group_IT_number 51
_symmetry_cell_setting 'orthorhombic'
loop_
_space_group_symop_operation_xyz
x,y,z
1/2-x,-y,z
1/2+x,-y,-z
-x,y,-z
-x,-y,-z
1/2+x,y,-z
1/2-x,y,z
x,-y,z
loop_
_atom_site_type_symbol
_atom_site_label
_atom_site_fract_x
_atom_site_fract_y
_atom_site_fract_z
Si Si1 0.427828 0.108890 0.738714
Si Si2 0.067900 0.393754 0.779571
Si Si3 0.431015 0.774772 0.162340
Si Si4 0.568100 0.726963 0.441221
Si Si5 0.427658 0.609369 0.341461
Si Si6 0.430761 0.105910 0.381898
Si Si7 0.067185 0.893999 0.938925
O O1 0.250000 0.138744 0.748185
O O2 0.535813 0.162815 0.782466
O O3 0.477819 0.135794 0.674980
O O4 0.451685 0.000000 0.749906
O O5 0.250000 0.382728 0.771999
O O6 0.022000 0.500000 0.794741
O O7 0.006887 0.327430 0.830163
O O8 0.988441 0.360805 0.720718
O O9 0.250000 0.762578 0.153678
O O10 0.501199 0.822880 0.106892
O O11 0.500000 0.684820 0.500000
O O12 0.750000 0.738760 0.446678
O O13 0.529042 0.658259 0.389615
O O14 0.489986 0.828082 0.432380
O O15 0.250000 0.641386 0.347217
O O16 0.447424 0.500000 0.350273
O O17 0.250000 0.120037 0.370461
O O18 0.469157 0.000000 0.399357
O O19 0.250000 0.884828 0.940507
O O20 0.017381 0.000000 0.923333
O O21 0.000000 0.864873 0.000000
#
# Coordination Sequence:
#
# PCOD8211535 Si02
#       7
#     8   8   8   8   8   8   8
#     4  10  20  34  53  79 111 145 182 225 273 326
#     4  10  21  38  60  85 113 146 185 229 277 330
#     4  12  23  34  54  83 116 152 189 231 278 329
#     4  12  25  40  58  79 106 139 179 225 270 324
#     4  10  21  39  62  86 113 143 176 219 274 334
#     4  10  21  38  58  79 106 140 178 222 273 329
#     4  10  21  38  59  84 117 156 197 238 278 324
#
# _framework density 19.339808999999999
#
# number of rings (size 3 to 8) (size 9 to 14) (size 15 to 20)
#    0.000    1.429    0.000    6.000    0.000    6.571 
#    0.000    0.000    0.000    0.429    0.000    0.000 
#    0.000    0.000    0.000    0.000    0.000    0.000 
#
# Total GULP energy -694721.954719 kJ/mol
# GULP energy per Si atom -12405.749191 kJ/mol
# Density = 1.929579 g / cm^3
# Si number density = 19.339809 Si / 1000 Ang^3
#
#
#
# Elastic Constant Matrix: (Units=GPa)
#
#
# Indices 1 2 3 4 5 6 
#
# 1 86.4553 38.1716 28.0633 0.0000 0.0000 0.0000
# 2 38.1716 87.3791 65.9324 0.0000 0.0000 0.0000
# 3 28.0633 65.9324 92.1474 0.0000 0.0000 0.0000
# 4 0.0000 0.0000 0.0000 20.9830 0.0000 0.0000
# 5 0.0000 0.0000 0.0000 0.0000 37.4853 0.0000
# 6 0.0000 0.0000 0.0000 0.0000 0.0000 30.7977
#
#
#
# Elastic Compliance Matrix: (Units=1/GPa)
#
#
# Indices 1 2 3 4 5 6 
#
# 1 0.014333 -0.006450 0.000250 0.000000 0.000000 0.000000
# 2 -0.006450 0.027776 -0.017910 0.000000 0.000000 0.000000
# 3 0.000250 -0.017910 0.023590 0.000000 0.000000 0.000000
# 4 0.000000 0.000000 0.000000 0.047658 0.000000 0.000000
# 5 0.000000 0.000000 0.000000 0.000000 0.026677 0.000000
# 6 0.000000 0.000000 0.000000 0.000000 0.000000 0.032470
#
#
# Mechanical properties :
#
#
# Convention : Reuss Voigt Hill
#
# Bulk Modulus (GPa) = 57.20727 58.92404 58.06565
# Shear Modulus (GPa) = 22.07014 26.77419 24.42216
#
# Velocity S-wave (km/s) = 3.38180 3.72480 3.55743
# Velocity P-wave (km/s) = 6.70022 7.00234 6.85295
#
# Compressibility (1/GPa) = 0.01748030
#
# Stress axis : x y z
#
# Youngs Moduli (GPa) = 69.76710 36.00253 42.38995
#
# Poissons Ratio (x) = 0.23222 -0.01059
# Poissons Ratio (y) = 0.45001 0.75918
# Poissons Ratio (z) = -0.01744 0.64479
#
# Static dielectric constant tensor:
#      x y z
#    x 3.791040 0.000000 0.000000 
#    y 0.000000 3.691560 0.000000 
#    z 0.000000 0.000000 3.453130 
# 
# 
# High freq. dielectric constant tensor:
#      x y z
#    x 1.770540 0.000000 0.000000 
#    y 0.000000 1.758170 0.000000 
#    z 0.000000 0.000000 1.739010 
# 
# From -- ./inp_files/31916.got.cif
#   From: 2010.03.12/outbox.cif.g09.slc.cpg/sg51_16_cif.got.tgz:31916.got - 2010.04.16 13:43:02.
