data_PCOD8211594
_publ_section_title
;
Structure prediction by ZEFSAII (Michael W. Deem and Ramdas Pophale) SiO2 
 PCOD8211594
Probable space group: P M M A
;
_chemical_formula_sum "Si O2"
_cell_formula_units_Z 64
_cell_length_a 24.197758
_cell_length_b 8.790880
_cell_length_c 15.468426
_cell_angle_alpha 90.000000
_cell_angle_beta 90.000000
_cell_angle_gamma 90.000000
_cell_volume 3290.437188
_symmetry_space_group_name_H-M "P M M A"
_symmetry_group_IT_number 51
_symmetry_cell_setting 'orthorhombic'
loop_
_space_group_symop_operation_xyz
x,y,z
1/2-x,-y,z
1/2+x,-y,-z
-x,y,-z
-x,-y,-z
1/2+x,y,-z
1/2-x,y,z
x,-y,z
loop_
_atom_site_type_symbol
_atom_site_label
_atom_site_fract_x
_atom_site_fract_y
_atom_site_fract_z
Si Si1 0.116303 0.320070 0.271442
Si Si2 0.344183 0.331040 0.594170
Si Si3 0.500881 0.826870 0.258361
Si Si4 0.532467 0.333306 0.417438
Si Si5 0.815403 0.673239 0.077131
Si Si6 0.621535 0.177990 0.228879
Si Si7 0.689003 0.680498 0.885353
Si Si8 0.687737 0.823228 0.577433
O O1 0.120332 0.500000 0.279048
O O2 0.053339 0.275871 0.248065
O O3 0.150326 0.254252 0.190007
O O4 0.141919 0.253867 0.360200
O O5 0.317840 0.500000 0.604280
O O6 0.404657 0.343495 0.554563
O O7 0.348160 0.257686 0.689774
O O8 0.311225 0.236935 0.521735
O O9 0.520777 0.808737 0.356330
O O10 0.557302 0.771290 0.209232
O O11 0.485528 0.000000 0.235969
O O12 0.500000 0.286506 0.500000
O O13 0.513548 0.500000 0.379980
O O14 0.750000 0.688166 0.086738
O O15 0.834082 0.500000 0.095672
O O16 0.844539 0.785487 0.143373
O O17 0.833555 0.724935 0.980547
O O18 0.622390 0.000000 0.248353
O O19 0.750000 0.750061 0.871441
O O20 0.692333 0.500000 0.880098
O O21 0.750000 0.794862 0.613930
O O22 0.673085 0.000000 0.574500
#
# Coordination Sequence:
#
# PCOD8211594 Si02
#       8
#     8   8   8   8   8   8   8   8
#     4  11  21  35  58  83 108 143 185 229 276 325
#     4  10  20  34  54  78 104 138 180 223 264 310
#     4  10  21  35  51  74 107 145 182 221 268 323
#     4   9  17  30  49  73  98 126 168 220 265 306
#     4   9  18  35  60  86 109 136 175 224 275 327
#     4  10  21  37  56  80 113 150 184 223 273 326
#     4   8  16  33  57  84 110 136 174 226 278 326
#     4  11  24  39  54  77 112 149 183 224 274 328
#
# _framework density 19.450305
#
# number of rings (size 3 to 8) (size 9 to 14) (size 15 to 20)
#    0.000    2.250    0.000    3.750    0.000    5.500 
#    0.000    1.875    0.000    5.250    0.000    0.000 
#    0.000    0.000    0.000    0.000    0.000    0.000 
#
# Total GULP energy -792889.059545 kJ/mol
# GULP energy per Si atom -12388.891555 kJ/mol
# Density = 1.940603 g / cm^3
# Si number density = 19.450305 Si / 1000 Ang^3
#
#
#
# Elastic Constant Matrix: (Units=GPa)
#
#
# Indices 1 2 3 4 5 6 
#
# 1 74.1994 26.8518 44.7625 0.0000 0.0000 0.0000
# 2 26.8518 73.2151 36.1155 0.0000 0.0000 0.0000
# 3 44.7625 36.1155 98.8607 0.0000 0.0000 0.0000
# 4 0.0000 0.0000 0.0000 15.0242 0.0000 0.0000
# 5 0.0000 0.0000 0.0000 0.0000 28.3257 0.0000
# 6 0.0000 0.0000 0.0000 0.0000 0.0000 44.7232
#
#
#
# Elastic Compliance Matrix: (Units=1/GPa)
#
#
# Indices 1 2 3 4 5 6 
#
# 1 0.019196 -0.003358 -0.007465 0.000000 0.000000 0.000000
# 2 -0.003358 0.017248 -0.004781 0.000000 0.000000 0.000000
# 3 -0.007465 -0.004781 0.015242 0.000000 0.000000 0.000000
# 4 0.000000 0.000000 0.000000 0.066559 0.000000 0.000000
# 5 0.000000 0.000000 0.000000 0.000000 0.035304 0.000000
# 6 0.000000 0.000000 0.000000 0.000000 0.000000 0.022360
#
#
# Mechanical properties :
#
#
# Convention : Reuss Voigt Hill
#
# Bulk Modulus (GPa) = 48.83096 51.30387 50.06741
# Shear Modulus (GPa) = 23.37095 26.85097 25.11096
#
# Velocity S-wave (km/s) = 3.47013 3.71953 3.59699
# Velocity P-wave (km/s) = 6.41995 6.69930 6.56111
#
# Compressibility (1/GPa) = 0.02047881
#
# Stress axis : x y z
#
# Youngs Moduli (GPa) = 52.09508 57.97754 65.60973
#
# Poissons Ratio (x) = 0.19468 0.48976
# Poissons Ratio (y) = 0.17493 0.31366
# Poissons Ratio (z) = 0.38888 0.27717
#
# Static dielectric constant tensor:
#      x y z
#    x 3.704870 0.000000 0.000000 
#    y 0.000000 3.459550 0.000000 
#    z 0.000000 0.000000 3.468970 
# 
# 
# High freq. dielectric constant tensor:
#      x y z
#    x 1.761750 0.000000 0.000000 
#    y 0.000000 1.748210 0.000000 
#    z 0.000000 0.000000 1.746280 
# 
# From -- ./inp_files/26359.got.cif
#   From: 2010.03.12/outbox.cif.g09.slc.cpg/sg51_14_cif.got.tgz:26359.got - 2010.04.16 13:43:02.
