data_PCOD8211070
_publ_section_title
;
Structure prediction by ZEFSAII (Michael W. Deem and Ramdas Pophale) SiO2 
 PCOD8211070
Probable space group: P M M A
;
_chemical_formula_sum "Si O2"
_cell_formula_units_Z 52
_cell_length_a 9.280472
_cell_length_b 15.531397
_cell_length_c 20.082438
_cell_angle_alpha 90.000000
_cell_angle_beta 90.000000
_cell_angle_gamma 90.000000
_cell_volume 2894.656405
_symmetry_space_group_name_H-M "P M M A"
_symmetry_group_IT_number 51
_symmetry_cell_setting 'orthorhombic'
loop_
_space_group_symop_operation_xyz
x,y,z
1/2-x,-y,z
1/2+x,-y,-z
-x,y,-z
-x,-y,-z
1/2+x,y,-z
1/2-x,y,z
x,-y,z
loop_
_atom_site_type_symbol
_atom_site_label
_atom_site_fract_x
_atom_site_fract_y
_atom_site_fract_z
Si Si1 0.913831 0.897916 0.564018
Si Si2 0.411004 0.759114 0.882797
Si Si3 0.500000 0.648665 0.000000
Si Si4 0.904880 0.500000 0.907860
Si Si5 0.579589 0.500000 0.763429
Si Si6 0.416646 0.098270 0.177156
Si Si7 0.412840 0.338564 0.752468
Si Si8 0.416960 0.157461 0.693900
O O1 0.750000 0.861731 0.563887
O O2 0.000000 0.862421 0.500000
O O3 0.998886 0.867087 0.628189
O O4 0.910047 0.000000 0.563402
O O5 0.250000 0.792205 0.865933
O O6 0.405286 0.711290 0.953911
O O7 0.518832 0.840839 0.881388
O O8 0.461630 0.692571 0.826036
O O9 0.588786 0.585658 0.952342
O O10 0.750000 0.500000 0.874652
O O11 0.994337 0.500000 0.838930
O O12 0.750000 0.500000 0.755334
O O13 0.518071 0.414523 0.728139
O O14 0.250000 0.122821 0.190113
O O15 0.507593 0.110326 0.244253
O O16 0.430178 0.000000 0.152858
O O17 0.250000 0.373476 0.754374
O O18 0.427787 0.260153 0.701142
O O19 0.250000 0.127663 0.689887
#
# Coordination Sequence:
#
# PCOD8211070 Si02
#       8
#     8   8   4   4   4   8   8   8
#     4  10  20  33  51  79 115 151 183 216 255 297
#     4  10  21  35  53  74  97 129 167 209 257 311
#     4  11  20  36  51  72 100 132 165 204 256 319
#     4  10  21  32  48  75 102 129 162 200 252 317
#     4  11  20  32  50  76 103 131 165 208 257 307
#     4  10  21  36  54  75  99 130 169 215 263 307
#     4   9  19  35  50  71 101 135 169 208 257 307
#     4  10  20  34  54  79 106 140 178 214 256 305
#
# _framework density 17.964134999999999
#
# number of rings (size 3 to 8) (size 9 to 14) (size 15 to 20)
#    0.000    2.000    1.538    3.462    0.000    8.308 
#    0.000    0.385    0.000    0.000    0.000    0.538 
#    0.000    0.000    0.000    0.000    0.000    0.000 
#
# Total GULP energy -644510.503036 kJ/mol
# GULP energy per Si atom -12394.432751 kJ/mol
# Density = 1.792325 g / cm^3
# Si number density = 17.964135 Si / 1000 Ang^3
#
#
#
# Elastic Constant Matrix: (Units=GPa)
#
#
# Indices 1 2 3 4 5 6 
#
# 1 124.0329 45.7821 17.9485 0.0000 0.0000 0.0000
# 2 45.7821 76.3365 2.8348 0.0000 0.0000 0.0000
# 3 17.9485 2.8348 48.9504 0.0000 0.0000 0.0000
# 4 0.0000 0.0000 0.0000 17.8464 0.0000 0.0000
# 5 0.0000 0.0000 0.0000 0.0000 24.7051 0.0000
# 6 0.0000 0.0000 0.0000 0.0000 0.0000 23.1377
#
#
#
# Elastic Compliance Matrix: (Units=1/GPa)
#
#
# Indices 1 2 3 4 5 6 
#
# 1 0.010968 -0.006443 -0.003649 0.000000 0.000000 0.000000
# 2 -0.006443 0.016912 0.001383 0.000000 0.000000 0.000000
# 3 -0.003649 0.001383 0.021687 0.000000 0.000000 0.000000
# 4 0.000000 0.000000 0.000000 0.056034 0.000000 0.000000
# 5 0.000000 0.000000 0.000000 0.000000 0.040477 0.000000
# 6 0.000000 0.000000 0.000000 0.000000 0.000000 0.043219
#
#
# Mechanical properties :
#
#
# Convention : Reuss Voigt Hill
#
# Bulk Modulus (GPa) = 31.10366 42.49452 36.79909
# Shear Modulus (GPa) = 22.99571 25.32149 24.15860
#
# Velocity S-wave (km/s) = 3.58172 3.75848 3.67116
# Velocity P-wave (km/s) = 5.86999 6.52238 6.20477
#
# Compressibility (1/GPa) = 0.03215056
#
# Stress axis : x y z
#
# Youngs Moduli (GPa) = 91.17047 59.12787 46.11143
#
# Poissons Ratio (x) = 0.38095 0.16824
# Poissons Ratio (y) = 0.58739 -0.06377
# Poissons Ratio (z) = 0.33265 -0.08177
#
# Static dielectric constant tensor:
#      x y z
#    x 3.425250 0.000000 0.000000 
#    y 0.000000 3.286440 0.000000 
#    z 0.000000 0.000000 3.118710 
# 
# 
# High freq. dielectric constant tensor:
#      x y z
#    x 1.706710 0.000000 0.000000 
#    y 0.000000 1.688010 0.000000 
#    z 0.000000 0.000000 1.665800 
# 
# From -- ./inp_files/31838.got.cif
#   From: 2010.03.12/outbox.cif.g09.slc.cpg/sg51_16_cif.got.tgz:31838.got - 2010.04.16 13:43:02.
