data_PCOD8211927
_publ_section_title
;
Structure prediction by ZEFSAII (Michael W. Deem and Ramdas Pophale) SiO2 
 PCOD8211927
Probable space group: P M M A
;
_chemical_formula_sum "Si O2"
_cell_formula_units_Z 64
_cell_length_a 13.912679
_cell_length_b 22.455069
_cell_length_c 9.875419
_cell_angle_alpha 90.000000
_cell_angle_beta 90.000000
_cell_angle_gamma 90.000000
_cell_volume 3085.181298
_symmetry_space_group_name_H-M "P M M A"
_symmetry_group_IT_number 51
_symmetry_cell_setting 'orthorhombic'
loop_
_space_group_symop_operation_xyz
x,y,z
1/2-x,-y,z
1/2+x,-y,-z
-x,y,-z
-x,-y,-z
1/2+x,y,-z
1/2-x,y,z
x,-y,z
loop_
_atom_site_type_symbol
_atom_site_label
_atom_site_fract_x
_atom_site_fract_y
_atom_site_fract_z
Si Si1 0.365115 0.933304 0.204253
Si Si2 0.354333 0.568374 0.054561
Si Si3 0.363814 0.152145 0.429722
Si Si4 0.025488 0.315969 0.653741
Si Si5 0.864643 0.800452 0.290903
Si Si6 0.139973 0.745400 0.224945
Si Si7 0.360798 0.836834 0.997338
Si Si8 0.539446 0.431478 0.212010
O O1 0.250000 0.932060 0.199127
O O2 0.398640 0.907462 0.351128
O O3 0.406192 0.892156 0.081539
O O4 0.405943 0.000000 0.188078
O O5 0.250000 0.599467 0.083479
O O6 0.336651 0.500000 0.024360
O O7 0.401193 0.592846 0.916702
O O8 0.425869 0.574390 0.180783
O O9 0.250000 0.151278 0.441409
O O10 0.406394 0.160193 0.582206
O O11 0.394554 0.208109 0.339130
O O12 0.105695 0.268356 0.697618
O O13 0.000000 0.304633 0.500000
O O14 0.931786 0.309793 0.752897
O O15 0.063848 0.384006 0.669800
O O16 0.750000 0.801856 0.288460
O O17 0.907911 0.828935 0.151811
O O18 0.250000 0.725070 0.245728
O O19 0.125717 0.774933 0.077924
O O20 0.250000 0.851386 0.977855
O O21 0.564493 0.500000 0.254138
#
# Coordination Sequence:
#
# PCOD8211927 Si02
#       8
#     8   8   8   8   8   8   8   8
#     4   8  13  24  46  77 109 144 185 217 254 322
#     4   8  15  33  59  79 100 136 172 205 258 321
#     4   8  14  28  49  69 100 140 174 218 265 307
#     4  12  24  35  54  78 100 141 190 219 269 333
#     4  10  20  35  52  76 109 139 178 231 278 318
#     4   9  18  35  54  75 103 135 178 225 268 321
#     4   8  16  30  50  76 108 142 171 221 284 315
#     4   9  20  36  53  80 112 135 170 224 270 325
#
# _framework density 20.744323999999999
#
# number of rings (size 3 to 8) (size 9 to 14) (size 15 to 20)
#    0.000    3.000    1.250    2.250    0.000    3.750 
#    0.000    1.875    0.000    3.750    0.000   19.250 
#    0.000    0.000    0.000    0.000    0.000    0.125 
#
# Total GULP energy -792866.966075 kJ/mol
# GULP energy per Si atom -12388.546345 kJ/mol
# Density = 2.069711 g / cm^3
# Si number density = 20.744324 Si / 1000 Ang^3
#
#
#
# Elastic Constant Matrix: (Units=GPa)
#
#
# Indices 1 2 3 4 5 6 
#
# 1 26.6861 4.9324 5.1479 0.0000 0.0000 0.0000
# 2 4.9324 128.9837 61.2389 0.0000 0.0000 0.0000
# 3 5.1479 61.2389 143.3871 0.0000 0.0000 0.0000
# 4 0.0000 0.0000 0.0000 27.0348 0.0000 0.0000
# 5 0.0000 0.0000 0.0000 0.0000 13.1875 0.0000
# 6 0.0000 0.0000 0.0000 0.0000 0.0000 16.3696
#
#
#
# Elastic Compliance Matrix: (Units=1/GPa)
#
#
# Indices 1 2 3 4 5 6 
#
# 1 0.037838 -0.001006 -0.000929 0.000000 0.000000 0.000000
# 2 -0.001006 0.009752 -0.004129 0.000000 0.000000 0.000000
# 3 -0.000929 -0.004129 0.008771 0.000000 0.000000 0.000000
# 4 0.000000 0.000000 0.000000 0.036989 0.000000 0.000000
# 5 0.000000 0.000000 0.000000 0.000000 0.075829 0.000000
# 6 0.000000 0.000000 0.000000 0.000000 0.000000 0.061089
#
#
# Mechanical properties :
#
#
# Convention : Reuss Voigt Hill
#
# Bulk Modulus (GPa) = 22.60740 49.07727 35.84233
# Shear Modulus (GPa) = 19.44473 26.50089 22.97281
#
# Velocity S-wave (km/s) = 3.06494 3.57809 3.33141
# Velocity P-wave (km/s) = 4.84220 6.38591 5.66687
#
# Compressibility (1/GPa) = 0.04423331
#
# Stress axis : x y z
#
# Youngs Moduli (GPa) = 26.42856 102.54723 114.01484
#
# Poissons Ratio (x) = 0.10316 0.10590
# Poissons Ratio (y) = 0.02659 0.47073
# Poissons Ratio (z) = 0.02455 0.42338
#
# Static dielectric constant tensor:
#      x y z
#    x 3.904710 0.000000 0.000000 
#    y 0.000000 3.653680 0.000000 
#    z 0.000000 0.000000 3.957520 
# 
# 
# High freq. dielectric constant tensor:
#      x y z
#    x 1.801510 0.000000 0.000000 
#    y 0.000000 1.790050 0.000000 
#    z 0.000000 0.000000 1.803020 
# 
# From -- ./inp_files/8761.got.cif
#   From: 2010.03.12/outbox.cif.g09.slc.cpg/sg51_5_cif.got.tgz:8761.got - 2010.04.16 13:43:02.
