data_PCOD8211901
_publ_section_title
;
Structure prediction by ZEFSAII (Michael W. Deem and Ramdas Pophale) SiO2 
 PCOD8211901
Probable space group: P M M A
;
_chemical_formula_sum "Si O2"
_cell_formula_units_Z 64
_cell_length_a 8.880803
_cell_length_b 23.968471
_cell_length_c 14.786725
_cell_angle_alpha 90.000000
_cell_angle_beta 90.000000
_cell_angle_gamma 90.000000
_cell_volume 3147.491477
_symmetry_space_group_name_H-M "P M M A"
_symmetry_group_IT_number 51
_symmetry_cell_setting 'orthorhombic'
loop_
_space_group_symop_operation_xyz
x,y,z
1/2-x,-y,z
1/2+x,-y,-z
-x,y,-z
-x,-y,-z
1/2+x,y,-z
1/2-x,y,z
x,-y,z
loop_
_atom_site_type_symbol
_atom_site_label
_atom_site_fract_x
_atom_site_fract_y
_atom_site_fract_z
Si Si1 0.572286 0.660859 0.098229
Si Si2 0.079991 0.410756 0.409633
Si Si3 0.077797 0.278609 0.408923
Si Si4 0.428042 0.122954 0.241331
Si Si5 0.927964 0.238331 0.227862
Si Si6 0.577235 0.562371 0.225534
Si Si7 0.573931 0.936402 0.403690
Si Si8 0.582882 0.934805 0.086301
O O1 0.750000 0.657448 0.085786
O O2 0.523804 0.715739 0.153879
O O3 0.511512 0.606631 0.153141
O O4 0.500000 0.662562 0.000000
O O5 0.250000 0.432040 0.413221
O O6 0.069888 0.344657 0.405434
O O7 0.000000 0.433546 0.500000
O O8 0.006059 0.436008 0.320757
O O9 0.250000 0.257174 0.404176
O O10 0.000000 0.255856 0.500000
O O11 0.982936 0.255557 0.326309
O O12 0.250000 0.125483 0.248500
O O13 0.491938 0.180744 0.201775
O O14 0.496213 0.108267 0.338540
O O15 0.480429 0.074854 0.173520
O O16 0.750000 0.230383 0.229911
O O17 0.750000 0.577855 0.245107
O O18 0.560139 0.500000 0.184790
O O19 0.500000 0.926989 0.500000
O O20 0.750000 0.923220 0.409164
O O21 0.546147 0.000000 0.370250
O O22 0.750000 0.908218 0.097708
O O23 0.600296 0.000000 0.071119
O O24 0.500000 0.907308 0.000000
#
# Coordination Sequence:
#
# PCOD8211901 Si02
#       8
#     8   8   8   8   8   8   8   8
#     4  10  23  42  65  89 115 152 195 244 303 362
#     4  10  20  34  57  87 121 158 196 237 285 346
#     4  10  20  35  58  87 116 151 192 237 286 344
#     4  12  25  39  59  89 124 160 202 251 302 359
#     4  11  23  41  62  85 117 156 200 248 299 357
#     4  10  21  39  62  89 122 157 197 246 298 355
#     4  10  21  39  63  91 125 166 211 257 305 359
#     4  10  21  39  63  90 120 155 196 243 298 357
#
# _framework density 20.333652000000001
#
# number of rings (size 3 to 8) (size 9 to 14) (size 15 to 20)
#    0.000    1.625    1.250    3.375    0.000    7.250 
#    0.000    3.750    0.000    0.000    0.000    0.000 
#    0.000    0.000    0.000    0.000    0.000    0.000 
#
# Total GULP energy -793768.537802 kJ/mol
# GULP energy per Si atom -12402.633403 kJ/mol
# Density = 2.028737 g / cm^3
# Si number density = 20.333652 Si / 1000 Ang^3
#
#
#
# Elastic Constant Matrix: (Units=GPa)
#
#
# Indices 1 2 3 4 5 6 
#
# 1 125.2782 47.7836 49.7339 0.0000 0.0000 0.0000
# 2 47.7836 78.5548 46.6484 0.0000 0.0000 0.0000
# 3 49.7339 46.6484 124.6187 0.0000 0.0000 0.0000
# 4 0.0000 0.0000 0.0000 11.9118 0.0000 0.0000
# 5 0.0000 0.0000 0.0000 0.0000 41.8816 0.0000
# 6 0.0000 0.0000 0.0000 0.0000 0.0000 24.1832
#
#
#
# Elastic Compliance Matrix: (Units=1/GPa)
#
#
# Indices 1 2 3 4 5 6 
#
# 1 0.010928 -0.005217 -0.002408 0.000000 0.000000 0.000000
# 2 -0.005217 0.018859 -0.004977 0.000000 0.000000 0.000000
# 3 -0.002408 -0.004977 0.010849 0.000000 0.000000 0.000000
# 4 0.000000 0.000000 0.000000 0.083950 0.000000 0.000000
# 5 0.000000 0.000000 0.000000 0.000000 0.023877 0.000000
# 6 0.000000 0.000000 0.000000 0.000000 0.000000 0.041351
#
#
# Mechanical properties :
#
#
# Convention : Reuss Voigt Hill
#
# Bulk Modulus (GPa) = 64.80786 68.53151 66.66968
# Shear Modulus (GPa) = 22.71032 27.88106 25.29569
#
# Velocity S-wave (km/s) = 3.34561 3.70696 3.53091
# Velocity P-wave (km/s) = 6.84584 7.21794 7.03435
#
# Compressibility (1/GPa) = 0.01543023
#
# Stress axis : x y z
#
# Youngs Moduli (GPa) = 91.50537 53.02410 92.17593
#
# Poissons Ratio (x) = 0.27665 0.22199
# Poissons Ratio (y) = 0.47742 0.45880
# Poissons Ratio (z) = 0.22038 0.26392
#
# Static dielectric constant tensor:
#      x y z
#    x 3.723920 0.000000 0.000000 
#    y 0.000000 3.839060 0.000000 
#    z 0.000000 0.000000 3.727250 
# 
# 
# High freq. dielectric constant tensor:
#      x y z
#    x 1.803010 0.000000 0.000000 
#    y 0.000000 1.791850 0.000000 
#    z 0.000000 0.000000 1.797670 
# 
# From -- ./inp_files/22267.got.cif
#   From: 2010.03.12/outbox.cif.g09.slc.cpg/sg51_12_cif.got.tgz:22267.got - 2010.04.16 13:43:02.
