data_PCOD8211367
_publ_section_title
;
Structure prediction by ZEFSAII (Michael W. Deem and Ramdas Pophale) SiO2 
 PCOD8211367
Probable space group: P M M A
;
_chemical_formula_sum "Si O2"
_cell_formula_units_Z 44
_cell_length_a 8.798070
_cell_length_b 27.534651
_cell_length_c 9.961130
_cell_angle_alpha 90.000000
_cell_angle_beta 90.000000
_cell_angle_gamma 90.000000
_cell_volume 2413.101542
_symmetry_space_group_name_H-M "P M M A"
_symmetry_group_IT_number 51
_symmetry_cell_setting 'orthorhombic'
loop_
_space_group_symop_operation_xyz
x,y,z
1/2-x,-y,z
1/2+x,-y,-z
-x,y,-z
-x,-y,-z
1/2+x,y,-z
1/2-x,y,z
x,-y,z
loop_
_atom_site_type_symbol
_atom_site_label
_atom_site_fract_x
_atom_site_fract_y
_atom_site_fract_z
Si Si1 0.429688 0.628755 0.139170
Si Si2 0.428407 0.000000 0.851692
Si Si3 0.430957 0.185309 0.359479
Si Si4 0.430919 0.082126 0.642878
Si Si5 0.071290 0.738230 0.138701
Si Si6 0.429407 0.554772 0.360334
O O1 0.250000 0.625381 0.128112
O O2 0.482620 0.683570 0.174537
O O3 0.493719 0.591975 0.250360
O O4 0.500000 0.611381 0.000000
O O5 0.479030 0.046530 0.763890
O O6 0.250000 0.000000 0.874035
O O7 0.500000 0.000000 0.000000
O O8 0.500000 0.202487 0.500000
O O9 0.250000 0.180404 0.369775
O O10 0.501984 0.134095 0.315961
O O11 0.484417 0.225661 0.254027
O O12 0.500000 0.064555 0.500000
O O13 0.250000 0.084730 0.626074
O O14 0.250000 0.740274 0.121859
O O15 0.000000 0.756261 0.000000
O O16 0.500000 0.571295 0.500000
O O17 0.250000 0.558553 0.372654
O O18 0.480064 0.500000 0.322383
#
# Coordination Sequence:
#
# PCOD8211367 Si02
#       6
#     8   4   8   8   8   8
#     4   9  18  33  50  70  97 128 163 202 243 290
#     4  10  23  38  54  78 106 134 167 204 244 292
#     4  10  20  34  52  76 102 130 165 204 245 290
#     4  10  20  36  56  78 102 132 168 204 244 291
#     4   9  19  34  51  71  98 131 165 201 244 292
#     4   9  18  32  49  70  97 127 160 200 245 292
#
# _framework density 18.233796000000002
#
# number of rings (size 3 to 8) (size 9 to 14) (size 15 to 20)
#    0.000    2.545    0.000    2.455    0.000    5.455 
#    0.000    3.636    0.000    0.000    0.000    0.000 
#    0.000    0.000    0.000    0.000    0.000    0.000 
#
# Total GULP energy -545569.870530 kJ/mol
# GULP energy per Si atom -12399.315239 kJ/mol
# Density = 1.819230 g / cm^3
# Si number density = 18.233796 Si / 1000 Ang^3
#
#
#
# Elastic Constant Matrix: (Units=GPa)
#
#
# Indices 1 2 3 4 5 6 
#
# 1 43.2314 36.8498 44.8589 0.0000 0.0000 0.0000
# 2 36.8498 131.1673 121.1452 0.0000 0.0000 0.0000
# 3 44.8589 121.1452 182.4230 0.0000 0.0000 0.0000
# 4 0.0000 0.0000 0.0000 40.2201 0.0000 0.0000
# 5 0.0000 0.0000 0.0000 0.0000 34.8002 0.0000
# 6 0.0000 0.0000 0.0000 0.0000 0.0000 12.4084
#
#
#
# Elastic Compliance Matrix: (Units=1/GPa)
#
#
# Indices 1 2 3 4 5 6 
#
# 1 0.032033 -0.004459 -0.004916 0.000000 0.000000 0.000000
# 2 -0.004459 0.020338 -0.012410 0.000000 0.000000 0.000000
# 3 -0.004916 -0.012410 0.014932 0.000000 0.000000 0.000000
# 4 0.000000 0.000000 0.000000 0.024863 0.000000 0.000000
# 5 0.000000 0.000000 0.000000 0.000000 0.028735 0.000000
# 6 0.000000 0.000000 0.000000 0.000000 0.000000 0.080591
#
#
# Mechanical properties :
#
#
# Convention : Reuss Voigt Hill
#
# Bulk Modulus (GPa) = 42.13434 84.72549 63.42991
# Shear Modulus (GPa) = 19.76490 27.75026 23.75758
#
# Velocity S-wave (km/s) = 3.29594 3.90540 3.61354
# Velocity P-wave (km/s) = 6.13533 8.17944 7.22999
#
# Compressibility (1/GPa) = 0.02373361
#
# Stress axis : x y z
#
# Youngs Moduli (GPa) = 31.21763 49.16838 66.97043
#
# Poissons Ratio (x) = 0.21924 0.32923
# Poissons Ratio (y) = 0.13920 0.83110
# Poissons Ratio (z) = 0.15347 0.61018
#
# Static dielectric constant tensor:
#      x y z
#    x 3.282660 0.000000 0.000000 
#    y 0.000000 3.624600 0.000000 
#    z 0.000000 0.000000 3.444070 
# 
# 
# High freq. dielectric constant tensor:
#      x y z
#    x 1.704330 0.000000 0.000000 
#    y 0.000000 1.713510 0.000000 
#    z 0.000000 0.000000 1.708340 
# 
# From -- ./inp_files/5881.got.cif
#   From: 2010.03.12/outbox.cif.g09.slc.cpg/sg51_3_cif.got.tgz:5881.got - 2010.04.16 13:43:02.
