data_PCOD8211411
_publ_section_title
;
Structure prediction by ZEFSAII (Michael W. Deem and Ramdas Pophale) SiO2 
 PCOD8211411
Probable space group: P M M A
;
_chemical_formula_sum "Si O2"
_cell_formula_units_Z 64
_cell_length_a 18.881775
_cell_length_b 9.275198
_cell_length_c 20.258726
_cell_angle_alpha 90.000000
_cell_angle_beta 90.000000
_cell_angle_gamma 90.000000
_cell_volume 3547.955288
_symmetry_space_group_name_H-M "P M M A"
_symmetry_group_IT_number 51
_symmetry_cell_setting 'orthorhombic'
loop_
_space_group_symop_operation_xyz
x,y,z
1/2-x,-y,z
1/2+x,-y,-z
-x,y,-z
-x,-y,-z
1/2+x,y,-z
1/2-x,y,z
x,-y,z
loop_
_atom_site_type_symbol
_atom_site_label
_atom_site_fract_x
_atom_site_fract_y
_atom_site_fract_z
Si Si1 0.334374 0.336988 0.042238
Si Si2 0.924485 0.668841 0.471760
Si Si3 0.416391 0.829922 0.299333
Si Si4 0.667687 0.166947 0.830101
Si Si5 0.331167 0.666341 0.789628
Si Si6 0.058310 0.332901 0.678337
Si Si7 0.331601 0.169507 0.427686
Si Si8 0.834365 0.162949 0.083166
O O1 0.250000 0.335470 0.040194
O O2 0.363575 0.500000 0.040395
O O3 0.361292 0.259859 0.108672
O O4 0.364914 0.250312 0.979413
O O5 0.913127 0.500000 0.483376
O O6 0.920139 0.712383 0.395317
O O7 0.861771 0.752098 0.508075
O O8 0.000000 0.719806 0.500000
O O9 0.373598 0.782319 0.234687
O O10 0.492396 0.757352 0.296073
O O11 0.373407 0.775572 0.363199
O O12 0.426530 0.000000 0.301796
O O13 0.750000 0.196381 0.816734
O O14 0.654237 0.000000 0.846751
O O15 0.250000 0.705180 0.773644
O O16 0.338886 0.500000 0.810466
O O17 0.375107 0.702948 0.724366
O O18 0.361002 0.761181 0.849961
O O19 0.036922 0.500000 0.680743
O O20 0.250000 0.212258 0.418758
O O21 0.340949 0.000000 0.437573
O O22 0.750000 0.164436 0.080939
O O23 0.863670 0.000000 0.080997
#
# Coordination Sequence:
#
# PCOD8211411 Si02
#       8
#     8   8   8   8   8   8   8   8
#     4   9  16  26  43  70 102 135 171 210 254 304
#     4  10  20  36  56  78 105 138 177 218 261 313
#     4  10  20  34  53  75 103 140 176 212 257 310
#     4   9  17  30  48  71 101 136 174 215 256 300
#     4   9  18  33  52  74 100 131 168 211 259 309
#     4  10  21  36  55  77 103 136 173 213 257 312
#     4  10  21  36  55  81 109 138 176 220 265 313
#     4   9  16  27  46  72 101 132 166 208 257 307
#
# _framework density 18.038558999999999
#
# number of rings (size 3 to 8) (size 9 to 14) (size 15 to 20)
#    0.000    2.500    1.250    1.125    0.000    7.000 
#    0.000    1.250    0.000    4.500    0.000    5.250 
#    0.000    0.000    0.000    0.000    0.000    0.000 
#
# Total GULP energy -793757.433257 kJ/mol
# GULP energy per Si atom -12402.459895 kJ/mol
# Density = 1.799750 g / cm^3
# Si number density = 18.038559 Si / 1000 Ang^3
#
#
#
# Elastic Constant Matrix: (Units=GPa)
#
#
# Indices 1 2 3 4 5 6 
#
# 1 72.2470 36.2345 54.0739 0.0000 0.0000 0.0000
# 2 36.2345 75.9218 68.6684 0.0000 0.0000 0.0000
# 3 54.0739 68.6684 170.6925 0.0000 0.0000 0.0000
# 4 0.0000 0.0000 0.0000 33.2103 0.0000 0.0000
# 5 0.0000 0.0000 0.0000 0.0000 19.3282 0.0000
# 6 0.0000 0.0000 0.0000 0.0000 0.0000 22.5435
#
#
#
# Elastic Compliance Matrix: (Units=1/GPa)
#
#
# Indices 1 2 3 4 5 6 
#
# 1 0.019695 -0.005905 -0.003864 0.000000 0.000000 0.000000
# 2 -0.005905 0.022476 -0.007171 0.000000 0.000000 0.000000
# 3 -0.003864 -0.007171 0.009967 0.000000 0.000000 0.000000
# 4 0.000000 0.000000 0.000000 0.030111 0.000000 0.000000
# 5 0.000000 0.000000 0.000000 0.000000 0.051738 0.000000
# 6 0.000000 0.000000 0.000000 0.000000 0.000000 0.044359
#
#
# Mechanical properties :
#
#
# Convention : Reuss Voigt Hill
#
# Bulk Modulus (GPa) = 54.76980 70.75722 62.76351
# Shear Modulus (GPa) = 22.90308 25.67536 24.28922
#
# Velocity S-wave (km/s) = 3.56711 3.77684 3.67347
# Velocity P-wave (km/s) = 6.88435 7.63741 7.27064
#
# Compressibility (1/GPa) = 0.01825824
#
# Stress axis : x y z
#
# Youngs Moduli (GPa) = 50.77499 44.49240 100.32773
#
# Poissons Ratio (x) = 0.26273 0.38762
# Poissons Ratio (y) = 0.29983 0.71947
# Poissons Ratio (z) = 0.19617 0.31906
#
# Static dielectric constant tensor:
#      x y z
#    x 3.030400 0.000000 0.000000 
#    y 0.000000 3.336510 0.000000 
#    z 0.000000 0.000000 3.504930 
# 
# 
# High freq. dielectric constant tensor:
#      x y z
#    x 1.666720 0.000000 0.000000 
#    y 0.000000 1.696990 0.000000 
#    z 0.000000 0.000000 1.712890 
# 
# From -- ./inp_files/30562.got.cif
#   From: 2010.03.12/outbox.cif.g09.slc.cpg/sg51_16_cif.got.tgz:30562.got - 2010.04.16 13:43:02.
