data_PCOD8211978
_publ_section_title
;
Structure prediction by ZEFSAII (Michael W. Deem and Ramdas Pophale) SiO2 
 PCOD8211978
Probable space group: P M M A
;
_chemical_formula_sum "Si O2"
_cell_formula_units_Z 64
_cell_length_a 9.242971
_cell_length_b 14.999573
_cell_length_c 23.511522
_cell_angle_alpha 90.000000
_cell_angle_beta 90.000000
_cell_angle_gamma 90.000000
_cell_volume 3259.651946
_symmetry_space_group_name_H-M "P M M A"
_symmetry_group_IT_number 51
_symmetry_cell_setting 'orthorhombic'
loop_
_space_group_symop_operation_xyz
x,y,z
1/2-x,-y,z
1/2+x,-y,-z
-x,y,-z
-x,-y,-z
1/2+x,y,-z
1/2-x,y,z
x,-y,z
loop_
_atom_site_type_symbol
_atom_site_label
_atom_site_fract_x
_atom_site_fract_y
_atom_site_fract_z
Si Si1 0.411740 0.103780 0.053976
Si Si2 0.593909 0.659188 0.152297
Si Si3 0.413755 0.402084 0.728881
Si Si4 0.919475 0.398557 0.557917
Si Si5 0.419324 0.100166 0.705877
Si Si6 0.411666 0.140080 0.831545
Si Si7 0.920771 0.266952 0.658622
Si Si8 0.416402 0.397696 0.053030
O O1 0.250000 0.146832 0.055582
O O2 0.488845 0.118175 0.114522
O O3 0.395954 0.000000 0.042817
O O4 0.500000 0.145702 0.000000
O O5 0.750000 0.640968 0.122013
O O6 0.572755 0.589465 0.203052
O O7 0.593928 0.755619 0.180405
O O8 0.462798 0.655470 0.108500
O O9 0.250000 0.373525 0.711441
O O10 0.449768 0.500000 0.703718
O O11 0.530725 0.330007 0.709961
O O12 0.750000 0.391564 0.546633
O O13 0.958787 0.500000 0.578423
O O14 0.968932 0.322300 0.602476
O O15 0.000000 0.375386 0.500000
O O16 0.250000 0.124982 0.703764
O O17 0.472372 0.100631 0.772002
O O18 0.503823 0.170204 0.665247
O O19 0.447346 0.000000 0.682166
O O20 0.250000 0.102443 0.844137
O O21 0.750000 0.251947 0.660687
O O22 0.250000 0.384082 0.041679
O O23 0.461109 0.500000 0.061830
O O24 0.500000 0.355752 0.000000
#
# Coordination Sequence:
#
# PCOD8211978 Si02
#       8
#     8   8   8   8   8   8   8   8
#     4  10  21  36  54  76 101 130 169 219 279 349
#     4  10  20  35  54  75 102 135 175 223 272 328
#     4  10  20  35  56  81 112 152 194 233 277 335
#     4   9  19  36  58  88 126 167 206 242 285 335
#     4  10  21  39  62  85 113 153 201 249 295 349
#     4  10  20  36  57  78 104 138 179 229 284 341
#     4  11  22  36  57  87 125 159 193 242 293 344
#     4  10  21  36  53  72  95 128 173 222 274 334
#
# _framework density 19.633997999999998
#
# number of rings (size 3 to 8) (size 9 to 14) (size 15 to 20)
#    0.000    2.000    1.250    2.250    0.000    6.500 
#    0.000    1.250    0.000    0.375    0.000    0.000 
#    0.000    0.000    0.000    0.000    0.000    0.000 
#
# Total GULP energy -793248.999306 kJ/mol
# GULP energy per Si atom -12394.515614 kJ/mol
# Density = 1.958931 g / cm^3
# Si number density = 19.633998 Si / 1000 Ang^3
#
#
#
# Elastic Constant Matrix: (Units=GPa)
#
#
# Indices 1 2 3 4 5 6 
#
# 1 86.3771 41.5005 53.3027 0.0000 0.0000 0.0000
# 2 41.5005 105.5632 45.7829 0.0000 0.0000 0.0000
# 3 53.3027 45.7829 103.4807 0.0000 0.0000 0.0000
# 4 0.0000 0.0000 0.0000 30.8223 0.0000 0.0000
# 5 0.0000 0.0000 0.0000 0.0000 34.2339 0.0000
# 6 0.0000 0.0000 0.0000 0.0000 0.0000 27.2674
#
#
#
# Elastic Compliance Matrix: (Units=1/GPa)
#
#
# Indices 1 2 3 4 5 6 
#
# 1 0.018130 -0.003808 -0.007654 0.000000 0.000000 0.000000
# 2 -0.003808 0.012522 -0.003579 0.000000 0.000000 0.000000
# 3 -0.007654 -0.003579 0.015189 0.000000 0.000000 0.000000
# 4 0.000000 0.000000 0.000000 0.032444 0.000000 0.000000
# 5 0.000000 0.000000 0.000000 0.000000 0.029211 0.000000
# 6 0.000000 0.000000 0.000000 0.000000 0.000000 0.036674
#
#
# Mechanical properties :
#
#
# Convention : Reuss Voigt Hill
#
# Bulk Modulus (GPa) = 63.45034 64.06592 63.75813
# Shear Modulus (GPa) = 27.85441 28.78703 28.32072
#
# Velocity S-wave (km/s) = 3.77063 3.83323 3.80206
# Velocity P-wave (km/s) = 7.16544 7.23135 7.19847
#
# Compressibility (1/GPa) = 0.01576036
#
# Stress axis : x y z
#
# Youngs Moduli (GPa) = 55.15748 79.85871 65.83505
#
# Poissons Ratio (x) = 0.30410 0.50390
# Poissons Ratio (y) = 0.21004 0.23560
# Poissons Ratio (z) = 0.42217 0.28579
#
# Static dielectric constant tensor:
#      x y z
#    x 3.622540 0.000000 0.000000 
#    y 0.000000 3.672130 0.000000 
#    z 0.000000 0.000000 3.380270 
# 
# 
# High freq. dielectric constant tensor:
#      x y z
#    x 1.761960 0.000000 0.000000 
#    y 0.000000 1.767190 0.000000 
#    z 0.000000 0.000000 1.742310 
# 
# From -- ./inp_files/34860.got.cif
#   From: 2010.03.12/outbox.cif.g09.slc.cpg/sg51_18_cif.got.tgz:34860.got - 2010.04.16 13:43:02.
