data_PCOD8211327
_publ_section_title
;
Structure prediction by ZEFSAII (Michael W. Deem and Ramdas Pophale) SiO2 
 PCOD8211327
Probable space group: P M M A
;
_chemical_formula_sum "Si O2"
_cell_formula_units_Z 48
_cell_length_a 18.906442
_cell_length_b 9.383243
_cell_length_c 14.029427
_cell_angle_alpha 90.000000
_cell_angle_beta 90.000000
_cell_angle_gamma 90.000000
_cell_volume 2488.872814
_symmetry_space_group_name_H-M "P M M A"
_symmetry_group_IT_number 51
_symmetry_cell_setting 'orthorhombic'
loop_
_space_group_symop_operation_xyz
x,y,z
1/2-x,-y,z
1/2+x,-y,-z
-x,y,-z
-x,-y,-z
1/2+x,y,-z
1/2-x,y,z
x,-y,z
loop_
_atom_site_type_symbol
_atom_site_label
_atom_site_fract_x
_atom_site_fract_y
_atom_site_fract_z
Si Si1 0.333064 0.158001 0.805259
Si Si2 0.167056 0.664470 0.984345
Si Si3 0.544270 0.168351 0.702450
Si Si4 0.170111 0.169968 0.422850
Si Si5 0.597497 0.169059 0.386467
Si Si6 0.445149 0.833014 0.082645
O O1 0.250000 0.144773 0.808000
O O2 0.359725 0.265887 0.885692
O O3 0.355271 0.217738 0.702907
O O4 0.366842 0.000000 0.823812
O O5 0.250000 0.685762 0.000718
O O6 0.145472 0.500000 0.982861
O O7 0.127314 0.745880 0.069073
O O8 0.621012 0.222775 0.665429
O O9 0.482132 0.227397 0.632963
O O10 0.527801 0.211617 0.811953
O O11 0.543760 0.000000 0.694094
O O12 0.250000 0.231226 0.411520
O O13 0.133186 0.232700 0.518512
O O14 0.173791 0.000000 0.427849
O O15 0.596409 0.000000 0.396045
O O16 0.427768 0.000000 0.077278
O O17 0.500000 0.787805 0.000000
#
# Coordination Sequence:
#
# PCOD8211327 Si02
#       6
#     8   8   8   8   8   8
#     4   9  16  27  46  71  96 124 160 202 247 293
#     4  10  21  35  50  71 100 133 169 209 254 304
#     4   9  17  27  41  63  92 125 159 198 243 288
#     4   9  16  25  38  61  94 127 157 190 233 289
#     4   9  15  25  42  64  92 124 156 193 239 290
#     4  10  20  34  52  74 100 132 172 215 255 297
#
# _framework density 19.285837000000001
#
# number of rings (size 3 to 8) (size 9 to 14) (size 15 to 20)
#    0.000    2.667    0.000    2.500    0.000    8.667 
#    0.000    1.667    0.000    0.000    0.000    1.167 
#    0.000    8.000    0.000    0.000    0.000    0.000 
#
# Total GULP energy -594902.892067 kJ/mol
# GULP energy per Si atom -12393.810251 kJ/mol
# Density = 1.924194 g / cm^3
# Si number density = 19.285837 Si / 1000 Ang^3
#
#
#
# Elastic Constant Matrix: (Units=GPa)
#
#
# Indices 1 2 3 4 5 6 
#
# 1 93.1015 23.4373 61.1321 0.0000 0.0000 0.0000
# 2 23.4373 35.4699 15.1673 0.0000 0.0000 0.0000
# 3 61.1321 15.1673 110.7650 0.0000 0.0000 0.0000
# 4 0.0000 0.0000 0.0000 2.6636 0.0000 0.0000
# 5 0.0000 0.0000 0.0000 0.0000 39.9793 0.0000
# 6 0.0000 0.0000 0.0000 0.0000 0.0000 14.7364
#
#
#
# Elastic Compliance Matrix: (Units=1/GPa)
#
#
# Indices 1 2 3 4 5 6 
#
# 1 0.019024 -0.008583 -0.009324 0.000000 0.000000 0.000000
# 2 -0.008583 0.033819 0.000106 0.000000 0.000000 0.000000
# 3 -0.009324 0.000106 0.014160 0.000000 0.000000 0.000000
# 4 0.000000 0.000000 0.000000 0.375425 0.000000 0.000000
# 5 0.000000 0.000000 0.000000 0.000000 0.025013 0.000000
# 6 0.000000 0.000000 0.000000 0.000000 0.000000 0.067859
#
#
# Mechanical properties :
#
#
# Convention : Reuss Voigt Hill
#
# Bulk Modulus (GPa) = 31.84679 48.75662 40.30171
# Shear Modulus (GPa) = 8.60038 20.78253 14.69146
#
# Velocity S-wave (km/s) = 2.11403 3.28625 2.76302
# Velocity P-wave (km/s) = 4.74423 6.30359 5.57866
#
# Compressibility (1/GPa) = 0.03140034
#
# Stress axis : x y z
#
# Youngs Moduli (GPa) = 52.56455 29.56909 70.62295
#
# Poissons Ratio (x) = 0.25380 0.65851
# Poissons Ratio (y) = 0.45118 -0.00751
# Poissons Ratio (z) = 0.49013 -0.00314
#
# Static dielectric constant tensor:
#      x y z
#    x 3.771580 0.000000 0.000000 
#    y 0.000000 2.936360 0.000000 
#    z 0.000000 0.000000 3.720220 
# 
# 
# High freq. dielectric constant tensor:
#      x y z
#    x 1.764070 0.000000 0.000000 
#    y 0.000000 1.671910 0.000000 
#    z 0.000000 0.000000 1.756230 
# 
# From -- ./inp_files/24815.got.cif
#   From: 2010.03.12/outbox.cif.g09.slc.cpg/sg51_13_cif.got.tgz:24815.got - 2010.04.16 13:43:02.
