data_PCOD8211353
_publ_section_title
;
Structure prediction by ZEFSAII (Michael W. Deem and Ramdas Pophale) SiO2 
 PCOD8211353
Probable space group: P M M A
;
_chemical_formula_sum "Si O2"
_cell_formula_units_Z 48
_cell_length_a 8.778850
_cell_length_b 29.243168
_cell_length_c 10.217093
_cell_angle_alpha 90.000000
_cell_angle_beta 90.000000
_cell_angle_gamma 90.000000
_cell_volume 2622.946270
_symmetry_space_group_name_H-M "P M M A"
_symmetry_group_IT_number 51
_symmetry_cell_setting 'orthorhombic'
loop_
_space_group_symop_operation_xyz
x,y,z
1/2-x,-y,z
1/2+x,-y,-z
-x,y,-z
-x,-y,-z
1/2+x,y,-z
1/2-x,y,z
x,-y,z
loop_
_atom_site_type_symbol
_atom_site_label
_atom_site_fract_x
_atom_site_fract_y
_atom_site_fract_z
Si Si1 0.928933 0.715871 0.865410
Si Si2 0.429443 0.948228 0.865445
Si Si3 0.073014 0.446699 0.636239
Si Si4 0.431410 0.119247 0.637691
Si Si5 0.931443 0.783232 0.637721
Si Si6 0.070184 0.611802 0.135782
O O1 0.750000 0.719061 0.881171
O O2 0.985708 0.746977 0.745916
O O3 0.981555 0.663968 0.837656
O O4 0.000000 0.734476 0.000000
O O5 0.250000 0.945974 0.879867
O O6 0.485295 0.917008 0.745972
O O7 0.485549 0.000000 0.838554
O O8 0.500000 0.929267 0.000000
O O9 0.250000 0.434470 0.633366
O O10 0.043846 0.500000 0.661374
O O11 0.000000 0.430947 0.500000
O O12 0.991665 0.419428 0.749909
O O13 0.500000 0.102585 0.500000
O O14 0.250000 0.122923 0.626508
O O15 0.500116 0.167989 0.677964
O O16 0.750000 0.786783 0.626631
O O17 0.000000 0.766594 0.500000
O O18 0.250000 0.607030 0.128034
O O19 0.000000 0.594074 0.000000
#
# Coordination Sequence:
#
# PCOD8211353 Si02
#       6
#     8   8   8   8   8   8
#     4   9  20  36  54  77 104 135 171 211 254 303
#     4   9  19  35  53  74 101 132 167 207 250 298
#     4  10  21  37  56  79 107 139 175 215 260 309
#     4  10  20  34  52  75 102 132 168 208 251 299
#     4  10  20  35  53  75 103 134 170 209 252 301
#     4  10  20  36  56  79 107 138 175 216 259 307
#
# _framework density 18.300032999999999
#
# number of rings (size 3 to 8) (size 9 to 14) (size 15 to 20)
#    0.000    2.333    0.000    3.000    0.000    6.333 
#    0.000    5.000    0.000    0.000    0.000    0.000 
#    0.000    0.000    0.000    0.000    0.000    0.000 
#
# Total GULP energy -595322.671526 kJ/mol
# GULP energy per Si atom -12402.555657 kJ/mol
# Density = 1.825838 g / cm^3
# Si number density = 18.300033 Si / 1000 Ang^3
#
#
#
# Elastic Constant Matrix: (Units=GPa)
#
#
# Indices 1 2 3 4 5 6 
#
# 1 72.3763 41.1097 60.2523 0.0000 0.0000 0.0000
# 2 41.1097 82.0666 93.0463 0.0000 0.0000 0.0000
# 3 60.2523 93.0463 178.3601 0.0000 0.0000 0.0000
# 4 0.0000 0.0000 0.0000 46.2428 0.0000 0.0000
# 5 0.0000 0.0000 0.0000 0.0000 36.8985 0.0000
# 6 0.0000 0.0000 0.0000 0.0000 0.0000 23.8542
#
#
#
# Elastic Compliance Matrix: (Units=1/GPa)
#
#
# Indices 1 2 3 4 5 6 
#
# 1 0.020313 -0.005863 -0.003803 0.000000 0.000000 0.000000
# 2 -0.005863 0.031520 -0.014462 0.000000 0.000000 0.000000
# 3 -0.003803 -0.014462 0.014436 0.000000 0.000000 0.000000
# 4 0.000000 0.000000 0.000000 0.021625 0.000000 0.000000
# 5 0.000000 0.000000 0.000000 0.000000 0.027101 0.000000
# 6 0.000000 0.000000 0.000000 0.000000 0.000000 0.041921
#
#
# Mechanical properties :
#
#
# Convention : Reuss Voigt Hill
#
# Bulk Modulus (GPa) = 55.52177 80.17996 67.85086
# Shear Modulus (GPa) = 23.67664 30.62539 27.15102
#
# Velocity S-wave (km/s) = 3.60085 4.09530 3.85601
# Velocity P-wave (km/s) = 6.90606 8.14071 7.54867
#
# Compressibility (1/GPa) = 0.01801095
#
# Stress axis : x y z
#
# Youngs Moduli (GPa) = 49.22883 31.72618 69.27080
#
# Poissons Ratio (x) = 0.18603 0.26345
# Poissons Ratio (y) = 0.28865 1.00182
# Poissons Ratio (z) = 0.18723 0.45884
#
# Static dielectric constant tensor:
#      x y z
#    x 3.331830 0.000000 0.000000 
#    y 0.000000 3.468460 0.000000 
#    z 0.000000 0.000000 3.521880 
# 
# 
# High freq. dielectric constant tensor:
#      x y z
#    x 1.718240 0.000000 0.000000 
#    y 0.000000 1.705850 0.000000 
#    z 0.000000 0.000000 1.719350 
# 
# From -- ./inp_files/5990.got.cif
#   From: 2010.03.12/outbox.cif.g09.slc.cpg/sg51_3_cif.got.tgz:5990.got - 2010.04.16 13:43:02.
