data_PCOD8211427
_publ_section_title
;
Structure prediction by ZEFSAII (Michael W. Deem and Ramdas Pophale) SiO2 
 PCOD8211427
Probable space group: P M M A
;
_chemical_formula_sum "Si O2"
_cell_formula_units_Z 52
_cell_length_a 9.242298
_cell_length_b 10.366291
_cell_length_c 29.799305
_cell_angle_alpha 90.000000
_cell_angle_beta 90.000000
_cell_angle_gamma 90.000000
_cell_volume 2855.022260
_symmetry_space_group_name_H-M "P M M A"
_symmetry_group_IT_number 51
_symmetry_cell_setting 'orthorhombic'
loop_
_space_group_symop_operation_xyz
x,y,z
1/2-x,-y,z
1/2+x,-y,-z
-x,y,-z
-x,-y,-z
1/2+x,y,-z
1/2-x,y,z
x,-y,z
loop_
_atom_site_type_symbol
_atom_site_label
_atom_site_fract_x
_atom_site_fract_y
_atom_site_fract_z
Si Si1 0.414358 0.500000 0.545200
Si Si2 0.919601 0.729255 0.388348
Si Si3 0.087486 0.846082 0.957027
Si Si4 0.419158 0.649245 0.299141
Si Si5 0.589485 0.152221 0.873243
Si Si6 0.590084 0.147614 0.541184
Si Si7 0.421785 0.144151 0.225850
O O1 0.250000 0.500000 0.530991
O O2 0.500000 0.500000 0.500000
O O3 0.454205 0.379091 0.575432
O O4 0.750000 0.758908 0.382104
O O5 0.985379 0.687435 0.341371
O O6 0.005020 0.848278 0.410919
O O7 0.250000 0.791871 0.959644
O O8 0.014024 0.790365 0.911756
O O9 0.088220 0.000000 0.956468
O O10 0.000000 0.794365 0.000000
O O11 0.250000 0.671175 0.309820
O O12 0.447901 0.500000 0.285631
O O13 0.473852 0.744665 0.259800
O O14 0.750000 0.213275 0.878496
O O15 0.522655 0.182437 0.823983
O O16 0.602326 0.000000 0.879304
O O17 0.500000 0.213391 0.500000
O O18 0.750000 0.213294 0.544488
O O19 0.613047 0.000000 0.528779
O O20 0.250000 0.138439 0.224038
O O21 0.479157 0.000000 0.239751
#
# Coordination Sequence:
#
# PCOD8211427 Si02
#       7
#     4   8   8   8   8   8   8
#     4  10  22  36  52  74  98 124 154 192 233 280
#     4  11  22  37  54  74 101 132 165 199 242 292
#     4   9  15  21  31  51  82 119 156 193 235 286
#     4  10  20  34  53  76 101 131 168 211 256 302
#     4   8  13  23  39  57  80 114 155 197 240 287
#     4  10  21  37  56  79 106 134 164 198 238 286
#     4   8  15  29  49  71  95 126 165 207 251 299
#
# _framework density 18.213519000000002
#
# number of rings (size 3 to 8) (size 9 to 14) (size 15 to 20)
#    0.000    2.615    0.769    2.769    0.000    5.846 
#    0.000    2.308    0.000    0.923    0.000    0.000 
#    0.000    0.615    0.000    1.077    0.000    1.538 
#
# Total GULP energy -644435.070274 kJ/mol
# GULP energy per Si atom -12392.982121 kJ/mol
# Density = 1.817206 g / cm^3
# Si number density = 18.213519 Si / 1000 Ang^3
#
#
#
# Elastic Constant Matrix: (Units=GPa)
#
#
# Indices 1 2 3 4 5 6 
#
# 1 115.0748 28.3085 76.2289 0.0000 0.0000 0.0000
# 2 28.3085 47.8837 49.0528 0.0000 0.0000 0.0000
# 3 76.2289 49.0528 167.1508 0.0000 0.0000 0.0000
# 4 0.0000 0.0000 0.0000 18.8337 0.0000 0.0000
# 5 0.0000 0.0000 0.0000 0.0000 32.0218 0.0000
# 6 0.0000 0.0000 0.0000 0.0000 0.0000 8.6499
#
#
#
# Elastic Compliance Matrix: (Units=1/GPa)
#
#
# Indices 1 2 3 4 5 6 
#
# 1 0.012617 -0.002237 -0.005097 0.000000 0.000000 0.000000
# 2 -0.002237 0.030258 -0.007859 0.000000 0.000000 0.000000
# 3 -0.005097 -0.007859 0.010614 0.000000 0.000000 0.000000
# 4 0.000000 0.000000 0.000000 0.053096 0.000000 0.000000
# 5 0.000000 0.000000 0.000000 0.000000 0.031229 0.000000
# 6 0.000000 0.000000 0.000000 0.000000 0.000000 0.115608
#
#
# Mechanical properties :
#
#
# Convention : Reuss Voigt Hill
#
# Bulk Modulus (GPa) = 43.28888 70.80995 57.04942
# Shear Modulus (GPa) = 17.15211 23.66904 20.41057
#
# Velocity S-wave (km/s) = 3.07208 3.60881 3.35121
# Velocity P-wave (km/s) = 6.03346 7.50512 6.80916
#
# Compressibility (1/GPa) = 0.02310062
#
# Stress axis : x y z
#
# Youngs Moduli (GPa) = 79.25788 33.04942 94.21764
#
# Poissons Ratio (x) = 0.07394 0.48027
# Poissons Ratio (y) = 0.17732 0.74048
# Poissons Ratio (z) = 0.40401 0.25974
#
# Static dielectric constant tensor:
#      x y z
#    x 3.451280 0.000000 0.000000 
#    y 0.000000 3.132310 0.000000 
#    z 0.000000 0.000000 3.570920 
# 
# 
# High freq. dielectric constant tensor:
#      x y z
#    x 1.697840 0.000000 0.000000 
#    y 0.000000 1.660860 0.000000 
#    z 0.000000 0.000000 1.711870 
# 
# From -- ./inp_files/36246.got.cif
#   From: 2010.03.12/outbox.cif.g09.slc.cpg/sg51_19_cif.got.tgz:36246.got - 2010.04.16 13:43:02.
