data_PCOD8211864
_publ_section_title
;
Structure prediction by ZEFSAII (Michael W. Deem and Ramdas Pophale) SiO2 
 PCOD8211864
Probable space group: P M M A
;
_chemical_formula_sum "Si O2"
_cell_formula_units_Z 56
_cell_length_a 14.175832
_cell_length_b 8.854356
_cell_length_c 22.022852
_cell_angle_alpha 90.000000
_cell_angle_beta 90.000000
_cell_angle_gamma 90.000000
_cell_volume 2764.261323
_symmetry_space_group_name_H-M "P M M A"
_symmetry_group_IT_number 51
_symmetry_cell_setting 'orthorhombic'
loop_
_space_group_symop_operation_xyz
x,y,z
1/2-x,-y,z
1/2+x,-y,-z
-x,y,-z
-x,-y,-z
1/2+x,y,-z
1/2-x,y,z
x,-y,z
loop_
_atom_site_type_symbol
_atom_site_label
_atom_site_fract_x
_atom_site_fract_y
_atom_site_fract_z
Si Si1 0.354713 0.331108 0.369393
Si Si2 0.350991 0.831361 0.247683
Si Si3 0.446403 0.173126 0.787232
Si Si4 0.016078 0.175665 0.567992
Si Si5 0.858812 0.321787 0.332070
Si Si6 0.644540 0.679121 0.968920
Si Si7 0.954995 0.321547 0.091099
O O1 0.250000 0.321967 0.397261
O O2 0.396610 0.500000 0.378734
O O3 0.353171 0.296976 0.298400
O O4 0.416513 0.203128 0.400365
O O5 0.250000 0.814992 0.212302
O O6 0.440592 0.807675 0.204885
O O7 0.357321 0.000000 0.276922
O O8 0.411042 0.251883 0.725962
O O9 0.408437 0.249026 0.848593
O O10 0.413983 0.000000 0.784188
O O11 0.097620 0.263227 0.604558
O O12 0.000000 0.237903 0.500000
O O13 0.042306 0.000000 0.568124
O O14 0.750000 0.273208 0.330380
O O15 0.871414 0.500000 0.329151
O O16 0.750000 0.744839 0.954331
O O17 0.648245 0.500000 0.966678
O O18 0.563254 0.734431 0.921890
O O19 0.612779 0.729683 0.036284
O O20 0.954136 0.500000 0.099493
#
# Coordination Sequence:
#
# PCOD8211864 Si02
#       7
#     8   8   8   8   8   8   8
#     4  10  20  34  56  85 113 143 183 231 281 334
#     4   9  18  33  53  77 108 147 186 225 279 346
#     4  11  22  36  57  85 120 158 193 236 292 354
#     4  11  24  41  62  88 118 154 193 235 289 351
#     4  11  25  44  65  88 116 153 198 248 296 342
#     4   8  15  31  54  78 107 146 192 242 293 341
#     4   9  18  32  53  81 110 145 193 243 287 340
#
# _framework density 20.258575
#
# number of rings (size 3 to 8) (size 9 to 14) (size 15 to 20)
#    0.000    2.143    1.429    2.571    0.000    5.429 
#    0.000    5.714    0.000    0.857    0.000    0.000 
#    0.000    0.000    0.000    0.000    0.000    0.000 
#
# Total GULP energy -693934.270064 kJ/mol
# GULP energy per Si atom -12391.683394 kJ/mol
# Density = 2.021247 g / cm^3
# Si number density = 20.258575 Si / 1000 Ang^3
#
#
#
# Elastic Constant Matrix: (Units=GPa)
#
#
# Indices 1 2 3 4 5 6 
#
# 1 97.3050 25.5442 22.1004 0.0000 0.0000 0.0000
# 2 25.5442 64.5507 32.2102 0.0000 0.0000 0.0000
# 3 22.1004 32.2102 102.7588 0.0000 0.0000 0.0000
# 4 0.0000 0.0000 0.0000 28.7769 0.0000 0.0000
# 5 0.0000 0.0000 0.0000 0.0000 13.4161 0.0000
# 6 0.0000 0.0000 0.0000 0.0000 0.0000 20.1304
#
#
#
# Elastic Compliance Matrix: (Units=1/GPa)
#
#
# Indices 1 2 3 4 5 6 
#
# 1 0.011603 -0.003967 -0.001252 0.000000 0.000000 0.000000
# 2 -0.003967 0.019720 -0.005328 0.000000 0.000000 0.000000
# 3 -0.001252 -0.005328 0.011671 0.000000 0.000000 0.000000
# 4 0.000000 0.000000 0.000000 0.034750 0.000000 0.000000
# 5 0.000000 0.000000 0.000000 0.000000 0.074537 0.000000
# 6 0.000000 0.000000 0.000000 0.000000 0.000000 0.049676
#
#
# Mechanical properties :
#
#
# Convention : Reuss Voigt Hill
#
# Bulk Modulus (GPa) = 45.66241 47.14713 46.40477
# Shear Modulus (GPa) = 21.70599 24.78199 23.24399
#
# Velocity S-wave (km/s) = 3.27685 3.50134 3.39095
# Velocity P-wave (km/s) = 6.07501 6.29834 6.18768
#
# Compressibility (1/GPa) = 0.02189985
#
# Stress axis : x y z
#
# Youngs Moduli (GPa) = 86.18717 50.70954 85.68280
#
# Poissons Ratio (x) = 0.20115 0.10728
# Poissons Ratio (y) = 0.34188 0.45654
# Poissons Ratio (z) = 0.10791 0.27019
#
# Static dielectric constant tensor:
#      x y z
#    x 4.076280 0.000000 0.000000 
#    y 0.000000 3.497090 0.000000 
#    z 0.000000 0.000000 3.567430 
# 
# 
# High freq. dielectric constant tensor:
#      x y z
#    x 1.798720 0.000000 0.000000 
#    y 0.000000 1.778260 0.000000 
#    z 0.000000 0.000000 1.776460 
# 
# From -- ./inp_files/33463.got.cif
#   From: 2010.03.12/outbox.cif.g09.slc.cpg/sg51_17_cif.got.tgz:33463.got - 2010.04.16 13:43:02.
