data_PCOD8211816
_publ_section_title
;
Structure prediction by ZEFSAII (Michael W. Deem and Ramdas Pophale) SiO2 
 PCOD8211816
Probable space group: P M M A
;
_chemical_formula_sum "Si O2"
_cell_formula_units_Z 56
_cell_length_a 15.720120
_cell_length_b 8.483008
_cell_length_c 20.984741
_cell_angle_alpha 90.000000
_cell_angle_beta 90.000000
_cell_angle_gamma 90.000000
_cell_volume 2798.397131
_symmetry_space_group_name_H-M "P M M A"
_symmetry_group_IT_number 51
_symmetry_cell_setting 'orthorhombic'
loop_
_space_group_symop_operation_xyz
x,y,z
1/2-x,-y,z
1/2+x,-y,-z
-x,y,-z
-x,-y,-z
1/2+x,y,-z
1/2-x,y,z
x,-y,z
loop_
_atom_site_type_symbol
_atom_site_label
_atom_site_fract_x
_atom_site_fract_y
_atom_site_fract_z
Si Si1 0.943640 0.179493 0.739897
Si Si2 0.595581 0.681824 0.491849
Si Si3 0.659453 0.180490 0.858568
Si Si4 0.345217 0.180808 0.382665
Si Si5 0.095883 0.318381 0.811714
Si Si6 0.250000 0.313686 0.594567
Si Si7 0.250000 0.818321 0.735880
Si Si8 0.496976 0.188024 0.927500
O O1 0.860186 0.191678 0.783750
O O2 0.914759 0.230759 0.669828
O O3 0.014520 0.297141 0.766196
O O4 0.979079 0.000000 0.741416
O O5 0.500000 0.760071 0.500000
O O6 0.581953 0.500000 0.475480
O O7 0.643311 0.703629 0.558348
O O8 0.661568 0.753307 0.438180
O O9 0.750000 0.265273 0.871950
O O10 0.584329 0.258773 0.899113
O O11 0.666053 0.000000 0.880293
O O12 0.250000 0.201756 0.355421
O O13 0.360395 0.000000 0.403727
O O14 0.122290 0.500000 0.814136
O O15 0.169924 0.219037 0.779789
O O16 0.079096 0.259074 0.884417
O O17 0.250000 0.500000 0.584067
O O18 0.250000 0.276510 0.669505
O O19 0.250000 0.000000 0.716831
O O20 0.490165 0.000000 0.922380
O O21 0.500000 0.246970 0.000000
#
# Coordination Sequence:
#
# PCOD8211816 Si02
#       8
#     8   8   8   8   8   4   4   8
#     4   9  18  33  54  81 112 147 187 234 290 347
#     4  10  22  39  58  81 112 153 194 236 294 366
#     4   8  13  25  48  76 107 143 186 231 276 327
#     4  10  20  34  55  84 115 145 185 239 294 345
#     4  11  23  40  61  87 119 155 197 242 297 357
#     4  10  22  42  62  86 122 159 200 249 304 366
#     4  12  26  44  66  88 116 153 202 257 306 354
#     4   9  18  35  58  86 121 158 198 241 287 340
#
# _framework density 20.011455000000002
#
# number of rings (size 3 to 8) (size 9 to 14) (size 15 to 20)
#    0.000    2.286    0.714    3.214    2.000    3.429 
#    1.286    0.000    0.000   10.286    0.000    0.000 
#    0.000    0.000    0.000    0.000    0.000    0.000 
#
# Total GULP energy -693900.845063 kJ/mol
# GULP energy per Si atom -12391.086519 kJ/mol
# Density = 1.996591 g / cm^3
# Si number density = 20.011455 Si / 1000 Ang^3
#
#
#
# Elastic Constant Matrix: (Units=GPa)
#
#
# Indices 1 2 3 4 5 6 
#
# 1 117.6275 10.6613 45.5332 0.0000 0.0000 0.0000
# 2 10.6613 32.2718 8.6081 0.0000 0.0000 0.0000
# 3 45.5332 8.6081 131.6507 0.0000 0.0000 0.0000
# 4 0.0000 0.0000 0.0000 25.4600 0.0000 0.0000
# 5 0.0000 0.0000 0.0000 0.0000 24.4449 0.0000
# 6 0.0000 0.0000 0.0000 0.0000 0.0000 11.2594
#
#
#
# Elastic Compliance Matrix: (Units=1/GPa)
#
#
# Indices 1 2 3 4 5 6 
#
# 1 0.009998 -0.002423 -0.003300 0.000000 0.000000 0.000000
# 2 -0.002423 0.032124 -0.001262 0.000000 0.000000 0.000000
# 3 -0.003300 -0.001262 0.008820 0.000000 0.000000 0.000000
# 4 0.000000 0.000000 0.000000 0.039277 0.000000 0.000000
# 5 0.000000 0.000000 0.000000 0.000000 0.040908 0.000000
# 6 0.000000 0.000000 0.000000 0.000000 0.000000 0.088814
#
#
# Mechanical properties :
#
#
# Convention : Reuss Voigt Hill
#
# Bulk Modulus (GPa) = 27.04755 45.68392 36.36574
# Shear Modulus (GPa) = 20.30574 26.68270 23.49422
#
# Velocity S-wave (km/s) = 3.18890 3.65550 3.43014
# Velocity P-wave (km/s) = 5.20617 6.37929 5.82235
#
# Compressibility (1/GPa) = 0.03697192
#
# Stress axis : x y z
#
# Youngs Moduli (GPa) = 100.01707 31.12940 113.38351
#
# Poissons Ratio (x) = 0.07542 0.37412
# Poissons Ratio (y) = 0.24233 0.14314
# Poissons Ratio (z) = 0.33002 0.03930
#
# Static dielectric constant tensor:
#      x y z
#    x 4.032230 0.000000 0.000000 
#    y 0.000000 3.243860 0.000000 
#    z 0.000000 0.000000 3.627200 
# 
# 
# High freq. dielectric constant tensor:
#      x y z
#    x 1.789250 0.000000 0.000000 
#    y 0.000000 1.745010 0.000000 
#    z 0.000000 0.000000 1.778450 
# 
# From -- ./inp_files/33578.got.cif
#   From: 2010.03.12/outbox.cif.g09.slc.cpg/sg51_17_cif.got.tgz:33578.got - 2010.04.16 13:43:02.
