data_PCOD8211008
_publ_section_title
;
Structure prediction by ZEFSAII (Michael W. Deem and Ramdas Pophale) SiO2 
 PCOD8211008
Probable space group: P M M A
;
_chemical_formula_sum "Si O2"
_cell_formula_units_Z 48
_cell_length_a 31.442630
_cell_length_b 9.109105
_cell_length_c 9.109804
_cell_angle_alpha 90.000000
_cell_angle_beta 90.000000
_cell_angle_gamma 90.000000
_cell_volume 2609.177390
_symmetry_space_group_name_H-M "P M M A"
_symmetry_group_IT_number 51
_symmetry_cell_setting 'orthorhombic'
loop_
_space_group_symop_operation_xyz
x,y,z
1/2-x,-y,z
1/2+x,-y,-z
-x,y,-z
-x,-y,-z
1/2+x,y,-z
1/2-x,y,z
x,-y,z
loop_
_atom_site_type_symbol
_atom_site_label
_atom_site_fract_x
_atom_site_fract_y
_atom_site_fract_z
Si Si1 0.796785 0.170891 0.092035
Si Si2 0.620252 0.670218 0.076743
Si Si3 0.040793 0.173510 0.415045
Si Si4 0.543045 0.826805 0.919083
Si Si5 0.795282 0.334029 0.389116
Si Si6 0.386121 0.334380 0.576976
O O1 0.750000 0.202694 0.019896
O O2 0.835053 0.262458 0.017394
O O3 0.794254 0.215133 0.261582
O O4 0.808088 0.000000 0.080467
O O5 0.619793 0.500000 0.037154
O O6 0.614445 0.699487 0.249708
O O7 0.582183 0.747339 0.993379
O O8 0.039491 0.228394 0.248119
O O9 0.083591 0.224031 0.493453
O O10 0.000000 0.239527 0.500000
O O11 0.039792 0.000000 0.422139
O O12 0.550487 0.000000 0.929791
O O13 0.500000 0.779209 0.000000
O O14 0.750000 0.321067 0.477583
O O15 0.799314 0.500000 0.321477
O O16 0.837836 0.308533 0.486069
O O17 0.401638 0.500000 0.546668
#
# Coordination Sequence:
#
# PCOD8211008 Si02
#       6
#     8   8   8   8   8   8
#     4   9  16  26  44  72 103 134 169 209 251 293
#     4  10  20  33  51  76 105 137 172 208 249 299
#     4  10  21  36  54  75  98 128 165 204 252 306
#     4  10  21  37  56  76  99 129 167 212 259 305
#     4   8  14  26  44  68 100 134 167 204 244 288
#     4   9  18  31  49  75 103 132 166 204 247 292
#
# _framework density 18.396604
#
# number of rings (size 3 to 8) (size 9 to 14) (size 15 to 20)
#    0.000    2.667    0.000    3.000    0.000    7.000 
#    0.000    0.000    0.000    1.000    0.000    4.667 
#    0.000    0.000    0.000    0.000    0.000    0.000 
#
# Total GULP energy -594781.628451 kJ/mol
# GULP energy per Si atom -12391.283926 kJ/mol
# Density = 1.835473 g / cm^3
# Si number density = 18.396604 Si / 1000 Ang^3
#
#
#
# Elastic Constant Matrix: (Units=GPa)
#
#
# Indices 1 2 3 4 5 6 
#
# 1 186.2609 42.4970 53.8724 0.0000 0.0000 0.0000
# 2 42.4970 32.2700 18.9229 0.0000 0.0000 0.0000
# 3 53.8724 18.9229 61.2719 0.0000 0.0000 0.0000
# 4 0.0000 0.0000 0.0000 20.1676 0.0000 0.0000
# 5 0.0000 0.0000 0.0000 0.0000 21.8830 0.0000
# 6 0.0000 0.0000 0.0000 0.0000 0.0000 30.1516
#
#
#
# Elastic Compliance Matrix: (Units=1/GPa)
#
#
# Indices 1 2 3 4 5 6 
#
# 1 0.008804 -0.008615 -0.005080 0.000000 0.000000 0.000000
# 2 -0.008615 0.046272 -0.006716 0.000000 0.000000 0.000000
# 3 -0.005080 -0.006716 0.022861 0.000000 0.000000 0.000000
# 4 0.000000 0.000000 0.000000 0.049584 0.000000 0.000000
# 5 0.000000 0.000000 0.000000 0.000000 0.045698 0.000000
# 6 0.000000 0.000000 0.000000 0.000000 0.000000 0.033166
#
#
# Mechanical properties :
#
#
# Convention : Reuss Voigt Hill
#
# Bulk Modulus (GPa) = 26.94305 56.70973 41.82639
# Shear Modulus (GPa) = 19.26210 25.40782 22.33496
#
# Velocity S-wave (km/s) = 3.23932 3.72037 3.48815
# Velocity P-wave (km/s) = 5.35429 7.02481 6.24565
#
# Compressibility (1/GPa) = 0.03711532
#
# Stress axis : x y z
#
# Youngs Moduli (GPa) = 113.58966 21.61150 43.74224
#
# Poissons Ratio (x) = 0.18618 0.22221
# Poissons Ratio (y) = 0.97856 0.29377
# Poissons Ratio (z) = 0.57702 0.14514
#
# Static dielectric constant tensor:
#      x y z
#    x 3.911300 0.000000 0.000000 
#    y 0.000000 3.338260 0.000000 
#    z 0.000000 0.000000 3.030670 
# 
# 
# High freq. dielectric constant tensor:
#      x y z
#    x 1.744700 0.000000 0.000000 
#    y 0.000000 1.713160 0.000000 
#    z 0.000000 0.000000 1.657460 
# 
# From -- ./inp_files/12809.got.cif
#   From: 2010.03.12/outbox.cif.g09.slc.cpg/sg51_7_cif.got.tgz:12809.got - 2010.04.16 13:43:02.
