data_PCOD8211217
_publ_section_title
;
Structure prediction by ZEFSAII (Michael W. Deem and Ramdas Pophale) SiO2 
 PCOD8211217
Probable space group: P M M A
;
_chemical_formula_sum "Si O2"
_cell_formula_units_Z 52
_cell_length_a 26.606698
_cell_length_b 7.693286
_cell_length_c 13.240434
_cell_angle_alpha 90.000000
_cell_angle_beta 90.000000
_cell_angle_gamma 90.000000
_cell_volume 2710.223326
_symmetry_space_group_name_H-M "P M M A"
_symmetry_group_IT_number 51
_symmetry_cell_setting 'orthorhombic'
loop_
_space_group_symop_operation_xyz
x,y,z
1/2-x,-y,z
1/2+x,-y,-z
-x,y,-z
-x,-y,-z
1/2+x,y,-z
1/2-x,y,z
x,-y,z
loop_
_atom_site_type_symbol
_atom_site_label
_atom_site_fract_x
_atom_site_fract_y
_atom_site_fract_z
Si Si1 0.946385 0.500000 0.953710
Si Si2 0.578691 0.195261 0.244371
Si Si3 0.109478 0.804985 0.354913
Si Si4 0.808027 0.500000 0.955574
Si Si5 0.371213 0.500000 0.863842
Si Si6 0.553169 0.695802 0.459947
Si Si7 0.532185 0.194475 0.817548
Si Si8 0.808942 0.202438 0.805077
O O1 0.938715 0.674177 0.889587
O O2 0.905324 0.500000 0.037983
O O3 0.000000 0.500000 0.000000
O O4 0.620956 0.328947 0.204600
O O5 0.573437 0.196367 0.365031
O O6 0.525806 0.250575 0.194275
O O7 0.594054 0.000000 0.212106
O O8 0.097009 0.695296 0.455063
O O9 0.058643 0.795923 0.290090
O O10 0.158226 0.738182 0.292676
O O11 0.120229 0.000000 0.390816
O O12 0.750000 0.500000 0.942186
O O13 0.827019 0.324273 0.898257
O O14 0.818093 0.500000 0.077165
O O15 0.500000 0.774866 0.500000
O O16 0.543626 0.500000 0.422833
O O17 0.536159 0.000000 0.862948
O O18 0.750000 0.226583 0.779056
O O19 0.821031 0.000000 0.832034
#
# Coordination Sequence:
#
# PCOD8211217 Si02
#       8
#     4   8   8   4   4   8   8   8
#     4  12  22  32  51  71 109 144 174 220 272 320
#     4  11  22  37  54  75 112 151 185 231 272 315
#     4  10  20  33  54  82 112 148 184 223 275 330
#     4  10  22  40  65  85 107 145 186 234 286 336
#     4  12  24  40  53  81 109 142 188 234 279 334
#     4  11  22  33  54  82 114 154 193 229 268 322
#     4  10  21  34  50  75 108 146 186 218 262 328
#     4   9  19  37  60  89 118 141 177 229 284 342
#
# _framework density 19.186610000000002
#
# number of rings (size 3 to 8) (size 9 to 14) (size 15 to 20)
#    0.000    1.538    3.846    1.385    2.154    2.154 
#    0.000    0.000    0.000    0.923    0.000    0.000 
#    0.000    0.000    0.000    0.000    0.000    0.000 
#
# Total GULP energy -644571.257229 kJ/mol
# GULP energy per Si atom -12395.601101 kJ/mol
# Density = 1.914294 g / cm^3
# Si number density = 19.186610 Si / 1000 Ang^3
#
#
#
# Elastic Constant Matrix: (Units=GPa)
#
#
# Indices 1 2 3 4 5 6 
#
# 1 41.8433 18.9249 18.4228 0.0000 0.0000 0.0000
# 2 18.9249 104.8825 42.5840 0.0000 0.0000 0.0000
# 3 18.4228 42.5840 94.5396 0.0000 0.0000 0.0000
# 4 0.0000 0.0000 0.0000 31.7291 0.0000 0.0000
# 5 0.0000 0.0000 0.0000 0.0000 29.1925 0.0000
# 6 0.0000 0.0000 0.0000 0.0000 0.0000 18.7747
#
#
#
# Elastic Compliance Matrix: (Units=1/GPa)
#
#
# Indices 1 2 3 4 5 6 
#
# 1 0.027074 -0.003357 -0.003764 0.000000 0.000000 0.000000
# 2 -0.003357 0.012085 -0.004789 0.000000 0.000000 0.000000
# 3 -0.003764 -0.004789 0.013468 0.000000 0.000000 0.000000
# 4 0.000000 0.000000 0.000000 0.031517 0.000000 0.000000
# 5 0.000000 0.000000 0.000000 0.000000 0.034255 0.000000
# 6 0.000000 0.000000 0.000000 0.000000 0.000000 0.053263
#
#
# Mechanical properties :
#
#
# Convention : Reuss Voigt Hill
#
# Bulk Modulus (GPa) = 34.71372 44.56985 39.64178
# Shear Modulus (GPa) = 24.38015 26.69484 25.53750
#
# Velocity S-wave (km/s) = 3.56854 3.73410 3.65225
# Velocity P-wave (km/s) = 5.92547 6.47081 6.20414
#
# Compressibility (1/GPa) = 0.02880706
#
# Stress axis : x y z
#
# Youngs Moduli (GPa) = 36.93557 82.74914 74.24875
#
# Poissons Ratio (x) = 0.27780 0.27945
# Poissons Ratio (y) = 0.12400 0.35559
# Poissons Ratio (z) = 0.13902 0.39630
#
# Static dielectric constant tensor:
#      x y z
#    x 3.187740 0.000000 0.000000 
#    y 0.000000 3.734110 0.000000 
#    z 0.000000 0.000000 3.429150 
# 
# 
# High freq. dielectric constant tensor:
#      x y z
#    x 1.716820 0.000000 0.000000 
#    y 0.000000 1.758640 0.000000 
#    z 0.000000 0.000000 1.734910 
# 
# From -- ./inp_files/19101.got.cif
#   From: 2010.03.12/outbox.cif.g09.slc.cpg/sg51_10_cif.got.tgz:19101.got - 2010.04.16 13:43:02.
