data_PCOD8211472
_publ_section_title
;
Structure prediction by ZEFSAII (Michael W. Deem and Ramdas Pophale) SiO2 
 PCOD8211472
Probable space group: P M M A
;
_chemical_formula_sum "Si O2"
_cell_formula_units_Z 64
_cell_length_a 33.325571
_cell_length_b 9.147813
_cell_length_c 11.310972
_cell_angle_alpha 90.000000
_cell_angle_beta 90.000000
_cell_angle_gamma 90.000000
_cell_volume 3448.218716
_symmetry_space_group_name_H-M "P M M A"
_symmetry_group_IT_number 51
_symmetry_cell_setting 'orthorhombic'
loop_
_space_group_symop_operation_xyz
x,y,z
1/2-x,-y,z
1/2+x,-y,-z
-x,y,-z
-x,-y,-z
1/2+x,y,-z
1/2-x,y,z
x,-y,z
loop_
_atom_site_type_symbol
_atom_site_label
_atom_site_fract_x
_atom_site_fract_y
_atom_site_fract_z
Si Si1 0.641935 0.163737 0.342418
Si Si2 0.095117 0.171941 0.887338
Si Si3 0.630988 0.170962 0.861706
Si Si4 0.705329 0.327928 0.486090
Si Si5 0.295868 0.327455 0.248539
Si Si6 0.975764 0.673673 0.231914
Si Si7 0.441437 0.165166 0.549157
Si Si8 0.446742 0.170588 0.277667
O O1 0.626755 0.215679 0.214239
O O2 0.677146 0.267146 0.384518
O O3 0.606273 0.174113 0.437211
O O4 0.658932 0.000000 0.335481
O O5 0.054014 0.260313 0.866541
O O6 0.084909 0.000000 0.880511
O O7 0.114232 0.218562 0.010914
O O8 0.672945 0.251769 0.839732
O O9 0.597616 0.216715 0.765165
O O10 0.640055 0.000000 0.857631
O O11 0.750000 0.275761 0.454711
O O12 0.702101 0.500000 0.483992
O O13 0.694289 0.273177 0.618118
O O14 0.250000 0.284142 0.215092
O O15 0.301273 0.500000 0.238142
O O16 0.975582 0.500000 0.223055
O O17 0.963044 0.722916 0.363468
O O18 0.020321 0.735436 0.206397
O O19 0.451889 0.207348 0.415689
O O20 0.456230 0.000000 0.579196
O O21 0.453691 0.000000 0.250428
#
# Coordination Sequence:
#
# PCOD8211472 Si02
#       8
#     8   8   8   8   8   8   8   8
#     4   9  17  31  52  75  98 128 168 212 255 297
#     4   9  20  39  56  71  99 137 174 214 259 303
#     4  10  21  37  58  80 100 132 180 222 253 297
#     4   9  18  32  50  75 107 138 165 197 246 309
#     4   9  19  36  56  79 110 142 165 197 255 313
#     4  11  22  34  51  76 104 136 175 214 254 305
#     4   9  18  33  52  74 103 135 166 208 263 316
#     4  10  20  34  53  77 105 136 170 212 264 313
#
# _framework density 18.560307999999999
#
# number of rings (size 3 to 8) (size 9 to 14) (size 15 to 20)
#    0.000    2.500    0.000    3.750    0.000    7.500 
#    0.000    4.375    0.000    3.750    0.000    0.000 
#    0.000    0.000    0.000    0.000    0.000    0.000 
#
# Total GULP energy -793582.077847 kJ/mol
# GULP energy per Si atom -12399.719966 kJ/mol
# Density = 1.851806 g / cm^3
# Si number density = 18.560308 Si / 1000 Ang^3
#
#
#
# Elastic Constant Matrix: (Units=GPa)
#
#
# Indices 1 2 3 4 5 6 
#
# 1 114.0995 47.4478 38.3255 0.0000 0.0000 0.0000
# 2 47.4478 62.7251 30.3928 0.0000 0.0000 0.0000
# 3 38.3255 30.3928 55.8434 0.0000 0.0000 0.0000
# 4 0.0000 0.0000 0.0000 21.8803 0.0000 0.0000
# 5 0.0000 0.0000 0.0000 0.0000 23.3722 0.0000
# 6 0.0000 0.0000 0.0000 0.0000 0.0000 16.0954
#
#
#
# Elastic Compliance Matrix: (Units=1/GPa)
#
#
# Indices 1 2 3 4 5 6 
#
# 1 0.013795 -0.007942 -0.005145 0.000000 0.000000 0.000000
# 2 -0.007942 0.026225 -0.008822 0.000000 0.000000 0.000000
# 3 -0.005145 -0.008822 0.026240 0.000000 0.000000 0.000000
# 4 0.000000 0.000000 0.000000 0.045703 0.000000 0.000000
# 5 0.000000 0.000000 0.000000 0.000000 0.042786 0.000000
# 6 0.000000 0.000000 0.000000 0.000000 0.000000 0.062130
#
#
# Mechanical properties :
#
#
# Convention : Reuss Voigt Hill
#
# Bulk Modulus (GPa) = 44.56140 51.66670 48.11405
# Shear Modulus (GPa) = 18.64427 20.03636 19.34031
#
# Velocity S-wave (km/s) = 3.17286 3.28918 3.23154
# Velocity P-wave (km/s) = 6.12240 6.50558 6.31690
#
# Compressibility (1/GPa) = 0.02244095
#
# Stress axis : x y z
#
# Youngs Moduli (GPa) = 72.48856 38.13125 38.10987
#
# Poissons Ratio (x) = 0.30285 0.19608
# Poissons Ratio (y) = 0.57572 0.33622
# Poissons Ratio (z) = 0.37296 0.33641
#
# Static dielectric constant tensor:
#      x y z
#    x 3.441440 0.000000 0.000000 
#    y 0.000000 3.194800 0.000000 
#    z 0.000000 0.000000 3.380610 
# 
# 
# High freq. dielectric constant tensor:
#      x y z
#    x 1.724910 0.000000 0.000000 
#    y 0.000000 1.704590 0.000000 
#    z 0.000000 0.000000 1.711570 
# 
# From -- ./inp_files/19615.got.cif
#   From: 2010.03.12/outbox.cif.g09.slc.cpg/sg51_10_cif.got.tgz:19615.got - 2010.04.16 13:43:02.
