data_PCOD8211067
_publ_section_title
;
Structure prediction by ZEFSAII (Michael W. Deem and Ramdas Pophale) SiO2 
 PCOD8211067
Probable space group: P M M A
;
_chemical_formula_sum "Si O2"
_cell_formula_units_Z 40
_cell_length_a 17.650311
_cell_length_b 9.067999
_cell_length_c 13.814656
_cell_angle_alpha 90.000000
_cell_angle_beta 90.000000
_cell_angle_gamma 90.000000
_cell_volume 2211.077171
_symmetry_space_group_name_H-M "P M M A"
_symmetry_group_IT_number 51
_symmetry_cell_setting 'orthorhombic'
loop_
_space_group_symop_operation_xyz
x,y,z
1/2-x,-y,z
1/2+x,-y,-z
-x,y,-z
-x,-y,-z
1/2+x,y,-z
1/2-x,y,z
x,-y,z
loop_
_atom_site_type_symbol
_atom_site_label
_atom_site_fract_x
_atom_site_fract_y
_atom_site_fract_z
Si Si1 0.891391 0.829099 0.114379
Si Si2 0.664172 0.330985 0.298931
Si Si3 0.661769 0.671506 0.922885
Si Si4 0.051216 0.831615 0.205453
Si Si5 0.966913 0.172667 0.397865
O O1 0.842374 0.748631 0.195878
O O2 0.980324 0.807800 0.133993
O O3 0.868878 0.000000 0.115750
O O4 0.871996 0.762502 0.011263
O O5 0.750000 0.317164 0.336273
O O6 0.639991 0.500000 0.284598
O O7 0.611295 0.257658 0.379942
O O8 0.750000 0.705154 0.909907
O O9 0.646279 0.500000 0.940594
O O10 0.619332 0.724820 0.825822
O O11 0.027516 0.788746 0.314528
O O12 0.079489 0.000000 0.200595
O O13 0.000000 0.225157 0.500000
O O14 0.947866 0.000000 0.396620
#
# Coordination Sequence:
#
# PCOD8211067 Si02
#       5
#     8   8   8   8   8
#     4  10  20  34  54  78 103 134 173 214 255 302
#     4  10  20  33  51  79 111 138 168 209 257 309
#     4  11  23  35  48  72 106 141 175 209 248 299
#     4   9  19  35  54  76 100 129 169 212 254 305
#     4   9  19  37  59  80 102 131 171 217 262 309
#
# _framework density 18.090731000000002
#
# number of rings (size 3 to 8) (size 9 to 14) (size 15 to 20)
#    0.000    2.200    0.000    4.200    0.000   12.400 
#    0.000    1.000    0.000    6.000    0.000    0.000 
#    0.000    0.000    0.000    0.000    0.000    0.000 
#
# Total GULP energy -496143.194190 kJ/mol
# GULP energy per Si atom -12403.579855 kJ/mol
# Density = 1.804956 g / cm^3
# Si number density = 18.090731 Si / 1000 Ang^3
#
#
#
# Elastic Constant Matrix: (Units=GPa)
#
#
# Indices 1 2 3 4 5 6 
#
# 1 88.9473 55.6715 68.1002 0.0000 0.0000 0.0000
# 2 55.6715 99.9775 57.5717 0.0000 0.0000 0.0000
# 3 68.1002 57.5717 120.3295 0.0000 0.0000 0.0000
# 4 0.0000 0.0000 0.0000 15.9286 0.0000 0.0000
# 5 0.0000 0.0000 0.0000 0.0000 17.8605 0.0000
# 6 0.0000 0.0000 0.0000 0.0000 0.0000 28.8626
#
#
#
# Elastic Compliance Matrix: (Units=1/GPa)
#
#
# Indices 1 2 3 4 5 6 
#
# 1 0.023231 -0.007405 -0.009604 0.000000 0.000000 0.000000
# 2 -0.007405 0.016167 -0.003544 0.000000 0.000000 0.000000
# 3 -0.009604 -0.003544 0.015442 0.000000 0.000000 0.000000
# 4 0.000000 0.000000 0.000000 0.062780 0.000000 0.000000
# 5 0.000000 0.000000 0.000000 0.000000 0.055990 0.000000
# 6 0.000000 0.000000 0.000000 0.000000 0.000000 0.034647
#
#
# Mechanical properties :
#
#
# Convention : Reuss Voigt Hill
#
# Bulk Modulus (GPa) = 72.82267 74.66010 73.74138
# Shear Modulus (GPa) = 19.68968 21.05773 20.37370
#
# Velocity S-wave (km/s) = 3.30265 3.41546 3.35952
# Velocity P-wave (km/s) = 7.40843 7.54408 7.47656
#
# Compressibility (1/GPa) = 0.01373199
#
# Stress axis : x y z
#
# Youngs Moduli (GPa) = 43.04625 61.85624 64.75968
#
# Poissons Ratio (x) = 0.45806 0.62198
# Poissons Ratio (y) = 0.31877 0.22950
# Poissons Ratio (z) = 0.41343 0.21921
#
# Static dielectric constant tensor:
#      x y z
#    x 3.291560 0.000000 0.000000 
#    y 0.000000 3.432670 0.000000 
#    z 0.000000 0.000000 3.289730 
# 
# 
# High freq. dielectric constant tensor:
#      x y z
#    x 1.697160 0.000000 0.000000 
#    y 0.000000 1.710260 0.000000 
#    z 0.000000 0.000000 1.689350 
# 
# From -- ./inp_files/23684.got.cif
#   From: 2010.03.12/outbox.cif.g09.slc.cpg/sg51_12_cif.got.tgz:23684.got - 2010.04.16 13:43:02.
