data_PCOD8211106
_publ_section_title
;
Structure prediction by ZEFSAII (Michael W. Deem and Ramdas Pophale) SiO2 
 PCOD8211106
Probable space group: P M M A
;
_chemical_formula_sum "Si O2"
_cell_formula_units_Z 64
_cell_length_a 8.953900
_cell_length_b 18.272669
_cell_length_c 20.637219
_cell_angle_alpha 90.000000
_cell_angle_beta 90.000000
_cell_angle_gamma 90.000000
_cell_volume 3376.489472
_symmetry_space_group_name_H-M "P M M A"
_symmetry_group_IT_number 51
_symmetry_cell_setting 'orthorhombic'
loop_
_space_group_symop_operation_xyz
x,y,z
1/2-x,-y,z
1/2+x,-y,-z
-x,y,-z
-x,-y,-z
1/2+x,y,-z
1/2-x,y,z
x,-y,z
loop_
_atom_site_type_symbol
_atom_site_label
_atom_site_fract_x
_atom_site_fract_y
_atom_site_fract_z
Si Si1 0.076245 0.161797 0.797328
Si Si2 0.574297 0.649603 0.566698
Si Si3 0.422728 0.915873 0.316024
Si Si4 0.424554 0.817555 0.434192
Si Si5 0.076996 0.685024 0.060206
Si Si6 0.578564 0.415309 0.310821
Si Si7 0.422412 0.841416 0.939908
Si Si8 0.576369 0.681774 0.795724
O O1 0.250000 0.180182 0.786432
O O2 0.052027 0.124594 0.868468
O O3 0.020052 0.101822 0.746877
O O4 0.983271 0.235998 0.788769
O O5 0.500000 0.623145 0.500000
O O6 0.750000 0.637971 0.561025
O O7 0.532139 0.733855 0.581172
O O8 0.511701 0.600343 0.624010
O O9 0.250000 0.898202 0.301248
O O10 0.483245 0.866975 0.375280
O O11 0.446103 0.000000 0.334952
O O12 0.500000 0.845230 0.500000
O O13 0.250000 0.827428 0.443904
O O14 0.250000 0.695691 0.044386
O O15 0.055431 0.649299 0.131264
O O16 0.994739 0.762001 0.063040
O O17 0.000000 0.639966 0.000000
O O18 0.750000 0.392653 0.321489
O O19 0.562024 0.500000 0.293342
O O20 0.513008 0.370808 0.251131
O O21 0.250000 0.834988 0.956889
O O22 0.500000 0.885797 0.000000
O O23 0.750000 0.682776 0.775800
#
# Coordination Sequence:
#
# PCOD8211106 Si02
#       8
#     8   8   8   8   8   8   8   8
#     4  10  20  33  52  78 106 137 175 219 264 312
#     4  10  20  36  59  83 108 139 175 217 263 313
#     4  10  21  36  53  75 106 142 178 217 261 311
#     4   9  19  35  55  80 106 133 169 211 255 304
#     4   9  16  26  44  72 103 133 167 210 259 310
#     4  11  24  39  55  78 108 141 178 221 267 314
#     4   9  16  26  43  70 101 131 165 209 260 310
#     4  10  20  34  54  79 106 139 178 218 263 317
#
# _framework density 18.954597
#
# number of rings (size 3 to 8) (size 9 to 14) (size 15 to 20)
#    0.000    2.250    0.000    3.750    0.000    6.750 
#    0.000    0.000    0.000    0.750    0.000    0.000 
#    0.000    0.000    0.000    0.000    0.000    0.000 
#
# Total GULP energy -793374.726236 kJ/mol
# GULP energy per Si atom -12396.480097 kJ/mol
# Density = 1.891146 g / cm^3
# Si number density = 18.954597 Si / 1000 Ang^3
#
#
#
# Elastic Constant Matrix: (Units=GPa)
#
#
# Indices 1 2 3 4 5 6 
#
# 1 93.4578 19.5106 48.4518 0.0000 0.0000 0.0000
# 2 19.5106 38.1235 21.5159 0.0000 0.0000 0.0000
# 3 48.4518 21.5159 121.0793 0.0000 0.0000 0.0000
# 4 0.0000 0.0000 0.0000 2.4599 0.0000 0.0000
# 5 0.0000 0.0000 0.0000 0.0000 40.1641 0.0000
# 6 0.0000 0.0000 0.0000 0.0000 0.0000 20.7627
#
#
#
# Elastic Compliance Matrix: (Units=1/GPa)
#
#
# Indices 1 2 3 4 5 6 
#
# 1 0.014163 -0.004501 -0.004868 0.000000 0.000000 0.000000
# 2 -0.004501 0.030585 -0.003634 0.000000 0.000000 0.000000
# 3 -0.004868 -0.003634 0.010853 0.000000 0.000000 0.000000
# 4 0.000000 0.000000 0.000000 0.406514 0.000000 0.000000
# 5 0.000000 0.000000 0.000000 0.000000 0.024898 0.000000
# 6 0.000000 0.000000 0.000000 0.000000 0.000000 0.048163
#
#
# Mechanical properties :
#
#
# Convention : Reuss Voigt Hill
#
# Bulk Modulus (GPa) = 33.78896 47.95748 40.87322
# Shear Modulus (GPa) = 8.75586 23.55618 16.15602
#
# Velocity S-wave (km/s) = 2.15161 3.52912 2.92268
# Velocity P-wave (km/s) = 4.90281 6.47784 5.74456
#
# Compressibility (1/GPa) = 0.02959546
#
# Stress axis : x y z
#
# Youngs Moduli (GPa) = 70.60473 32.69590 92.14289
#
# Poissons Ratio (x) = 0.14717 0.44854
# Poissons Ratio (y) = 0.31780 0.33482
# Poissons Ratio (z) = 0.34369 0.11881
#
# Static dielectric constant tensor:
#      x y z
#    x 3.586030 0.000000 0.000000 
#    y 0.000000 3.061110 0.000000 
#    z 0.000000 0.000000 4.300380 
# 
# 
# High freq. dielectric constant tensor:
#      x y z
#    x 1.749420 0.000000 0.000000 
#    y 0.000000 1.689160 0.000000 
#    z 0.000000 0.000000 1.761290 
# 
# From -- ./inp_files/32370.got.cif
#   From: 2010.03.12/outbox.cif.g09.slc.cpg/sg51_17_cif.got.tgz:32370.got - 2010.04.16 13:43:02.
