data_PCOD8211254
_publ_section_title
;
Structure prediction by ZEFSAII (Michael W. Deem and Ramdas Pophale) SiO2 
 PCOD8211254
Probable space group: P M M A
;
_chemical_formula_sum "Si O2"
_cell_formula_units_Z 40
_cell_length_a 9.547041
_cell_length_b 14.013918
_cell_length_c 15.547074
_cell_angle_alpha 90.000000
_cell_angle_beta 90.000000
_cell_angle_gamma 90.000000
_cell_volume 2080.065569
_symmetry_space_group_name_H-M "P M M A"
_symmetry_group_IT_number 51
_symmetry_cell_setting 'orthorhombic'
loop_
_space_group_symop_operation_xyz
x,y,z
1/2-x,-y,z
1/2+x,-y,-z
-x,y,-z
-x,-y,-z
1/2+x,y,-z
1/2-x,y,z
x,-y,z
loop_
_atom_site_type_symbol
_atom_site_label
_atom_site_fract_x
_atom_site_fract_y
_atom_site_fract_z
Si Si1 0.750000 0.609775 0.134398
Si Si2 0.591878 0.112929 0.577797
Si Si3 0.250000 0.609242 0.049807
Si Si4 0.092309 0.807185 0.243238
Si Si5 0.455155 0.390296 0.197103
Si Si6 0.084636 0.112043 0.913601
O O1 0.750000 0.500000 0.110670
O O2 0.617968 0.633343 0.192348
O O3 0.750000 0.665530 0.041827
O O4 0.500000 0.155856 0.500000
O O5 0.750000 0.149989 0.565353
O O6 0.531847 0.148086 0.669186
O O7 0.584565 0.000000 0.576840
O O8 0.250000 0.500000 0.026261
O O9 0.110635 0.631914 0.103661
O O10 0.250000 0.846346 0.224095
O O11 0.103619 0.691886 0.259426
O O12 0.987441 0.832593 0.165719
O O13 0.421173 0.500000 0.226962
O O14 0.250000 0.139915 0.920735
O O15 0.068860 0.000000 0.895724
O O16 0.000000 0.140307 0.000000
#
# Coordination Sequence:
#
# PCOD8211254 Si02
#       6
#     4   8   4   8   8   8
#     4   9  18  30  46  68  98 139 188 240 282 311
#     4   9  19  37  61  87 112 137 171 222 284 343
#     4   9  16  30  48  66  94 137 188 234 274 317
#     4  11  22  36  56  84 113 149 187 229 279 333
#     4  10  20  34  50  73 106 146 188 230 279 326
#     4  10  22  39  57  79 111 151 192 233 276 329
#
# _framework density 19.230163000000001
#
# number of rings (size 3 to 8) (size 9 to 14) (size 15 to 20)
#    0.000    2.200    1.000    1.800    1.400    6.800 
#    0.000    2.000    0.000    0.600    0.000    0.000 
#    0.000    0.000    0.000    0.000    0.000    0.000 
#
# Total GULP energy -495582.897431 kJ/mol
# GULP energy per Si atom -12389.572436 kJ/mol
# Density = 1.918639 g / cm^3
# Si number density = 19.230163 Si / 1000 Ang^3
#
#
#
# Elastic Constant Matrix: (Units=GPa)
#
#
# Indices 1 2 3 4 5 6 
#
# 1 121.0294 23.2550 53.0053 0.0000 0.0000 0.0000
# 2 23.2550 46.3773 26.8824 0.0000 0.0000 0.0000
# 3 53.0053 26.8824 111.1838 0.0000 0.0000 0.0000
# 4 0.0000 0.0000 0.0000 14.4043 0.0000 0.0000
# 5 0.0000 0.0000 0.0000 0.0000 31.5989 0.0000
# 6 0.0000 0.0000 0.0000 0.0000 0.0000 18.8395
#
#
#
# Elastic Compliance Matrix: (Units=1/GPa)
#
#
# Indices 1 2 3 4 5 6 
#
# 1 0.010750 -0.002814 -0.004444 0.000000 0.000000 0.000000
# 2 -0.002814 0.025813 -0.004900 0.000000 0.000000 0.000000
# 3 -0.004444 -0.004900 0.012298 0.000000 0.000000 0.000000
# 4 0.000000 0.000000 0.000000 0.069424 0.000000 0.000000
# 5 0.000000 0.000000 0.000000 0.000000 0.031647 0.000000
# 6 0.000000 0.000000 0.000000 0.000000 0.000000 0.053080
#
#
# Mechanical properties :
#
#
# Convention : Reuss Voigt Hill
#
# Bulk Modulus (GPa) = 40.74246 53.87510 47.30878
# Shear Modulus (GPa) = 21.23067 24.66505 22.94786
#
# Velocity S-wave (km/s) = 3.32630 3.58526 3.45820
# Velocity P-wave (km/s) = 5.99876 6.72425 6.37184
#
# Compressibility (1/GPa) = 0.02454442
#
# Stress axis : x y z
#
# Youngs Moduli (GPa) = 93.02703 38.73950 81.31703
#
# Poissons Ratio (x) = 0.10901 0.36140
# Poissons Ratio (y) = 0.26178 0.39843
# Poissons Ratio (z) = 0.41344 0.18981
#
# Static dielectric constant tensor:
#      x y z
#    x 3.605170 0.000000 0.000000 
#    y 0.000000 3.580330 0.000000 
#    z 0.000000 0.000000 3.279230 
# 
# 
# High freq. dielectric constant tensor:
#      x y z
#    x 1.761900 0.000000 0.000000 
#    y 0.000000 1.746280 0.000000 
#    z 0.000000 0.000000 1.705300 
# 
# From -- ./inp_files/20588.got.cif
#   From: 2010.03.12/outbox.cif.g09.slc.cpg/sg51_11_cif.got.tgz:20588.got - 2010.04.16 13:43:02.
