data_PCOD8211702
_publ_section_title
;
Structure prediction by ZEFSAII (Michael W. Deem and Ramdas Pophale) SiO2 
 PCOD8211702
Probable space group: P M M A
;
_chemical_formula_sum "Si O2"
_cell_formula_units_Z 48
_cell_length_a 18.513423
_cell_length_b 14.506046
_cell_length_c 8.627920
_cell_angle_alpha 90.000000
_cell_angle_beta 90.000000
_cell_angle_gamma 90.000000
_cell_volume 2317.084564
_symmetry_space_group_name_H-M "P M M A"
_symmetry_group_IT_number 51
_symmetry_cell_setting 'orthorhombic'
loop_
_space_group_symop_operation_xyz
x,y,z
1/2-x,-y,z
1/2+x,-y,-z
-x,y,-z
-x,-y,-z
1/2+x,y,-z
1/2-x,y,z
x,-y,z
loop_
_atom_site_type_symbol
_atom_site_label
_atom_site_fract_x
_atom_site_fract_y
_atom_site_fract_z
Si Si1 0.166534 0.891171 0.209336
Si Si2 0.164350 0.727165 0.671223
Si Si3 0.829299 0.394931 0.051968
Si Si4 0.456126 0.394968 0.155609
Si Si5 0.066541 0.756375 0.400743
Si Si6 0.164941 0.100133 0.860400
O O1 0.250000 0.862886 0.246464
O O2 0.109242 0.837874 0.315299
O O3 0.157413 0.000000 0.237318
O O4 0.144941 0.865021 0.032986
O O5 0.250000 0.718011 0.646144
O O6 0.135578 0.657284 0.802199
O O7 0.124026 0.705036 0.511830
O O8 0.140003 0.828868 0.728966
O O9 0.750000 0.353676 0.018234
O O10 0.826271 0.500000 0.105136
O O11 0.872420 0.383759 0.892502
O O12 0.472997 0.500000 0.211913
O O13 0.469718 0.320468 0.289217
O O14 0.500000 0.372290 0.000000
O O15 0.000000 0.798363 0.500000
O O16 0.250000 0.088942 0.855434
O O17 0.129155 0.000000 0.826469
#
# Coordination Sequence:
#
# PCOD8211702 Si02
#       6
#     8   8   8   8   8   8
#     4   9  19  38  62  84 110 150 196 236 278 337
#     4  10  20  34  54  81 114 148 177 218 284 351
#     4   9  18  34  57  82 106 137 182 234 282 331
#     4  10  22  41  62  80 106 152 203 241 279 336
#     4  12  25  36  53  84 119 150 187 238 293 341
#     4   8  15  31  57  83 103 134 184 228 260 313
#
# _framework density 20.715688
#
# number of rings (size 3 to 8) (size 9 to 14) (size 15 to 20)
#    0.000    2.333    0.000    3.500    0.000    4.667 
#    0.000    1.667    0.000    2.500    0.000    0.000 
#    0.000    0.000    0.000    0.000    0.000    0.000 
#
# Total GULP energy -594976.597632 kJ/mol
# GULP energy per Si atom -12395.345784 kJ/mol
# Density = 2.066854 g / cm^3
# Si number density = 20.715688 Si / 1000 Ang^3
#
#
#
# Elastic Constant Matrix: (Units=GPa)
#
#
# Indices 1 2 3 4 5 6 
#
# 1 60.8759 23.0407 30.0630 0.0000 0.0000 0.0000
# 2 23.0407 68.8328 36.1833 0.0000 0.0000 0.0000
# 3 30.0630 36.1833 83.9935 0.0000 0.0000 0.0000
# 4 0.0000 0.0000 0.0000 21.9098 0.0000 0.0000
# 5 0.0000 0.0000 0.0000 0.0000 32.9344 0.0000
# 6 0.0000 0.0000 0.0000 0.0000 0.0000 22.7183
#
#
#
# Elastic Compliance Matrix: (Units=1/GPa)
#
#
# Indices 1 2 3 4 5 6 
#
# 1 0.020745 -0.003931 -0.005732 0.000000 0.000000 0.000000
# 2 -0.003931 0.019526 -0.007004 0.000000 0.000000 0.000000
# 3 -0.005732 -0.007004 0.016975 0.000000 0.000000 0.000000
# 4 0.000000 0.000000 0.000000 0.045642 0.000000 0.000000
# 5 0.000000 0.000000 0.000000 0.000000 0.030363 0.000000
# 6 0.000000 0.000000 0.000000 0.000000 0.000000 0.044017
#
#
# Mechanical properties :
#
#
# Convention : Reuss Voigt Hill
#
# Bulk Modulus (GPa) = 41.82145 43.58622 42.70384
# Shear Modulus (GPa) = 22.87566 23.80687 23.34127
#
# Velocity S-wave (km/s) = 3.32666 3.39369 3.36034
# Velocity P-wave (km/s) = 5.91504 6.03673 5.97619
#
# Compressibility (1/GPa) = 0.02391117
#
# Stress axis : x y z
#
# Youngs Moduli (GPa) = 48.20375 51.21414 58.91169
#
# Poissons Ratio (x) = 0.20133 0.33766
# Poissons Ratio (y) = 0.18950 0.41264
# Poissons Ratio (z) = 0.27629 0.35873
#
# Static dielectric constant tensor:
#      x y z
#    x 3.760980 0.000000 0.000000 
#    y 0.000000 5.177610 0.000000 
#    z 0.000000 0.000000 3.756170 
# 
# 
# High freq. dielectric constant tensor:
#      x y z
#    x 1.802930 0.000000 0.000000 
#    y 0.000000 1.809710 0.000000 
#    z 0.000000 0.000000 1.800640 
# 
# From -- ./inp_files/9625.got.cif
#   From: 2010.03.12/outbox.cif.g09.slc.cpg/sg51_5_cif.got.tgz:9625.got - 2010.04.16 13:43:02.
