data_PCOD8211232
_publ_section_title
;
Structure prediction by ZEFSAII (Michael W. Deem and Ramdas Pophale) SiO2 
 PCOD8211232
Probable space group: P M M A
;
_chemical_formula_sum "Si O2"
_cell_formula_units_Z 56
_cell_length_a 21.887238
_cell_length_b 9.205362
_cell_length_c 17.649960
_cell_angle_alpha 90.000000
_cell_angle_beta 90.000000
_cell_angle_gamma 90.000000
_cell_volume 3556.113040
_symmetry_space_group_name_H-M "P M M A"
_symmetry_group_IT_number 51
_symmetry_cell_setting 'orthorhombic'
loop_
_space_group_symop_operation_xyz
x,y,z
1/2-x,-y,z
1/2+x,-y,-z
-x,y,-z
-x,-y,-z
1/2+x,y,-z
1/2-x,y,z
x,-y,z
loop_
_atom_site_type_symbol
_atom_site_label
_atom_site_fract_x
_atom_site_fract_y
_atom_site_fract_z
Si Si1 0.403653 0.172624 0.874459
Si Si2 0.900919 0.667574 0.381118
Si Si3 0.821492 0.668034 0.239846
Si Si4 0.070501 0.835808 0.477697
Si Si5 0.461289 0.333709 0.338855
Si Si6 0.025784 0.330410 0.171270
Si Si7 0.428508 0.339560 0.016850
O O1 0.346353 0.232242 0.827644
O O2 0.465592 0.233619 0.838224
O O3 0.404645 0.000000 0.872423
O O4 0.395541 0.224843 0.961842
O O5 0.893828 0.500000 0.402740
O O6 0.851388 0.716516 0.319248
O O7 0.889274 0.757103 0.458148
O O8 0.967153 0.701656 0.346636
O O9 0.750000 0.694609 0.246695
O O10 0.837606 0.500000 0.222728
O O11 0.079621 0.761965 0.395630
O O12 0.000000 0.822813 0.500000
O O13 0.093185 0.000000 0.471687
O O14 0.447944 0.500000 0.359459
O O15 0.443047 0.296892 0.252211
O O16 0.005605 0.500000 0.166839
O O17 0.076022 0.294615 0.105879
O O18 0.399997 0.500000 0.003416
O O19 0.500000 0.343660 0.000000
#
# Coordination Sequence:
#
# PCOD8211232 Si02
#       7
#     8   8   8   8   8   8   8
#     4  11  20  28  41  60  87 115 141 177 219 259
#     4   9  16  28  44  59  78 107 142 178 214 250
#     4  10  20  34  50  64  80 109 151 190 219 252
#     4   9  17  26  37  57  84 111 139 168 205 255
#     4   9  15  25  42  61  83 110 142 175 207 247
#     4   9  16  28  44  62  84 114 148 178 209 250
#     4   8  15  27  43  59  80 111 146 177 207 251
#
# _framework density 15.747531
#
# number of rings (size 3 to 8) (size 9 to 14) (size 15 to 20)
#    0.000    2.714    1.429    2.571    0.000    5.714 
#    0.000    0.000    0.000    0.000    0.000    0.000 
#    0.000    1.143    0.000    9.143    0.000    4.143 
#
# Total GULP energy -694196.502196 kJ/mol
# GULP energy per Si atom -12396.366111 kJ/mol
# Density = 1.571169 g / cm^3
# Si number density = 15.747531 Si / 1000 Ang^3
#
#
#
# Elastic Constant Matrix: (Units=GPa)
#
#
# Indices 1 2 3 4 5 6 
#
# 1 36.8972 30.3949 36.3306 0.0000 0.0000 0.0000
# 2 30.3949 98.1152 72.6722 0.0000 0.0000 0.0000
# 3 36.3306 72.6722 161.4400 0.0000 0.0000 0.0000
# 4 0.0000 0.0000 0.0000 12.8676 0.0000 0.0000
# 5 0.0000 0.0000 0.0000 0.0000 14.8650 0.0000
# 6 0.0000 0.0000 0.0000 0.0000 0.0000 9.0350
#
#
#
# Elastic Compliance Matrix: (Units=1/GPa)
#
#
# Indices 1 2 3 4 5 6 
#
# 1 0.038900 -0.008351 -0.004995 0.000000 0.000000 0.000000
# 2 -0.008351 0.017083 -0.005811 0.000000 0.000000 0.000000
# 3 -0.004995 -0.005811 0.009934 0.000000 0.000000 0.000000
# 4 0.000000 0.000000 0.000000 0.077715 0.000000 0.000000
# 5 0.000000 0.000000 0.000000 0.000000 0.067272 0.000000
# 6 0.000000 0.000000 0.000000 0.000000 0.000000 0.110680
#
#
# Mechanical properties :
#
#
# Convention : Reuss Voigt Hill
#
# Bulk Modulus (GPa) = 36.22694 63.91643 50.07169
# Shear Modulus (GPa) = 13.54654 17.82384 15.68519
#
# Velocity S-wave (km/s) = 2.93615 3.36795 3.15944
# Velocity P-wave (km/s) = 5.87788 7.46997 6.72123
#
# Compressibility (1/GPa) = 0.02760376
#
# Stress axis : x y z
#
# Youngs Moduli (GPa) = 25.70700 58.53787 100.66543
#
# Poissons Ratio (x) = 0.48886 0.50280
# Poissons Ratio (y) = 0.21468 0.58492
# Poissons Ratio (z) = 0.12840 0.34014
#
# Static dielectric constant tensor:
#      x y z
#    x 2.442790 0.000000 0.000000 
#    y 0.000000 2.973050 0.000000 
#    z 0.000000 0.000000 3.469220 
# 
# 
# High freq. dielectric constant tensor:
#      x y z
#    x 1.528310 0.000000 0.000000 
#    y 0.000000 1.602310 0.000000 
#    z 0.000000 0.000000 1.623300 
# 
# From -- ./inp_files/30462.got.cif
#   From: 2010.03.12/outbox.cif.g09.slc.cpg/sg51_16_cif.got.tgz:30462.got - 2010.04.16 13:43:02.
