data_PCOD8211885
_publ_section_title
;
Structure prediction by ZEFSAII (Michael W. Deem and Ramdas Pophale) SiO2 
 PCOD8211885
Probable space group: P M M A
;
_chemical_formula_sum "Si O2"
_cell_formula_units_Z 48
_cell_length_a 9.771039
_cell_length_b 7.827563
_cell_length_c 32.128343
_cell_angle_alpha 90.000000
_cell_angle_beta 90.000000
_cell_angle_gamma 90.000000
_cell_volume 2457.285659
_symmetry_space_group_name_H-M "P M M A"
_symmetry_group_IT_number 51
_symmetry_cell_setting 'orthorhombic'
loop_
_space_group_symop_operation_xyz
x,y,z
1/2-x,-y,z
1/2+x,-y,-z
-x,y,-z
-x,-y,-z
1/2+x,y,-z
1/2-x,y,z
x,-y,z
loop_
_atom_site_type_symbol
_atom_site_label
_atom_site_fract_x
_atom_site_fract_y
_atom_site_fract_z
Si Si1 0.093086 0.000000 0.324338
Si Si2 0.591661 0.310699 0.186320
Si Si3 0.409342 0.201688 0.539365
Si Si4 0.405124 0.307198 0.386060
Si Si5 0.514428 0.807244 0.099920
Si Si6 0.750000 0.295881 0.946505
Si Si7 0.087312 0.000000 0.756868
Si Si8 0.750000 0.698598 0.039823
O O1 0.061658 0.829241 0.350403
O O2 0.989036 0.000000 0.286571
O O3 0.250000 0.000000 0.308677
O O4 0.750000 0.275646 0.177265
O O5 0.566754 0.500000 0.205412
O O6 0.518061 0.304466 0.141744
O O7 0.537535 0.168628 0.218385
O O8 0.500000 0.259388 0.500000
O O9 0.250000 0.260869 0.534847
O O10 0.480821 0.290398 0.578454
O O11 0.416445 0.000000 0.545498
O O12 0.250000 0.273095 0.403275
O O13 0.415006 0.500000 0.367896
O O14 0.372155 0.785450 0.078311
O O15 0.618772 0.752309 0.064871
O O16 0.543580 0.000000 0.113919
O O17 0.750000 0.500000 0.944758
O O18 0.750000 0.222172 0.993509
O O19 0.250000 0.000000 0.748980
O O20 0.750000 0.500000 0.033152
#
# Coordination Sequence:
#
# PCOD8211885 Si02
#       8
#     4   8   8   8   8   4   4   4
#     4  10  22  42  63  89 124 155 190 245 307 373
#     4  10  20  38  63  89 117 152 195 239 290 352
#     4  10  20  34  56  87 124 167 216 265 312 359
#     4  10  21  38  62  88 119 164 209 250 303 363
#     4  12  23  38  61  87 118 155 200 246 290 347
#     4  11  25  41  55  83 123 159 199 244 295 345
#     4  10  22  40  64  91 114 146 193 243 295 358
#     4  11  23  39  61  85 115 161 205 242 287 347
#
# _framework density 19.533747000000002
#
# number of rings (size 3 to 8) (size 9 to 14) (size 15 to 20)
#    0.000    1.500    2.500    3.000    0.000    6.000 
#    1.500    0.000    0.000    0.000    0.000    0.000 
#    0.000    0.000    0.000    0.000    0.000    0.000 
#
# Total GULP energy -595152.959674 kJ/mol
# GULP energy per Si atom -12399.019993 kJ/mol
# Density = 1.948929 g / cm^3
# Si number density = 19.533747 Si / 1000 Ang^3
#
#
#
# Elastic Constant Matrix: (Units=GPa)
#
#
# Indices 1 2 3 4 5 6 
#
# 1 116.4056 28.1934 68.2506 0.0000 0.0000 0.0000
# 2 28.1934 113.6984 63.1559 0.0000 0.0000 0.0000
# 3 68.2506 63.1559 129.5411 0.0000 0.0000 0.0000
# 4 0.0000 0.0000 0.0000 11.3460 0.0000 0.0000
# 5 0.0000 0.0000 0.0000 0.0000 -8.2737 0.0000
# 6 0.0000 0.0000 0.0000 0.0000 0.0000 30.0592
#
#
#
# Elastic Compliance Matrix: (Units=1/GPa)
#
#
# Indices 1 2 3 4 5 6 
#
# 1 0.012479 0.000765 -0.006948 0.000000 0.000000 0.000000
# 2 0.000765 0.012108 -0.006306 0.000000 0.000000 0.000000
# 3 -0.006948 -0.006306 0.014455 0.000000 0.000000 0.000000
# 4 0.000000 0.000000 0.000000 0.088137 0.000000 0.000000
# 5 0.000000 0.000000 0.000000 0.000000 -0.120865 0.000000
# 6 0.000000 0.000000 0.000000 0.000000 0.000000 0.033268
#
#
# Mechanical properties :
#
#
# Convention : Reuss Voigt Hill
#
# Bulk Modulus (GPa) = 71.10430 75.42720 73.26575
# Shear Modulus (GPa) = 72.20487 19.96265 46.08376
#
# Velocity S-wave (km/s) = 6.08641 3.20027 4.86242
# Velocity P-wave (km/s) = 9.26673 7.23556 8.31341
#
# Compressibility (1/GPa) = 0.01406385
#
# Stress axis : x y z
#
# Youngs Moduli (GPa) = 80.13534 82.58674 69.18259
#
# Poissons Ratio (x) = -0.06316 0.48065
# Poissons Ratio (y) = -0.06129 0.43628
# Poissons Ratio (z) = 0.55674 0.52081
#
# Static dielectric constant tensor:
#      x y z
#    x 3.505090 0.000000 0.000000 
#    y 0.000000 3.789670 0.000000 
#    z 0.000000 0.000000 3.510200 
# 
# 
# High freq. dielectric constant tensor:
#      x y z
#    x 1.758930 0.000000 0.000000 
#    y 0.000000 1.775990 0.000000 
#    z 0.000000 0.000000 1.749130 
# 
# From -- ./inp_files/37284.got.cif
#   From: 2010.03.12/outbox.cif.g09.slc.cpg/sg51_19_cif.got.tgz:37284.got - 2010.04.16 13:43:02.
