data_PCOD8211303
_publ_section_title
;
Structure prediction by ZEFSAII (Michael W. Deem and Ramdas Pophale) SiO2 
 PCOD8211303
Probable space group: P M M A
;
_chemical_formula_sum "Si O2"
_cell_formula_units_Z 48
_cell_length_a 20.957952
_cell_length_b 8.930919
_cell_length_c 14.145987
_cell_angle_alpha 90.000000
_cell_angle_beta 90.000000
_cell_angle_gamma 90.000000
_cell_volume 2647.757741
_symmetry_space_group_name_H-M "P M M A"
_symmetry_group_IT_number 51
_symmetry_cell_setting 'orthorhombic'
loop_
_space_group_symop_operation_xyz
x,y,z
1/2-x,-y,z
1/2+x,-y,-z
-x,y,-z
-x,-y,-z
1/2+x,y,-z
1/2-x,y,z
x,-y,z
loop_
_atom_site_type_symbol
_atom_site_label
_atom_site_fract_x
_atom_site_fract_y
_atom_site_fract_z
Si Si1 0.902709 0.172422 0.141166
Si Si2 0.324275 0.336675 0.723203
Si Si3 0.676743 0.676013 0.487631
Si Si4 0.055073 0.822597 0.427302
Si Si5 0.522918 0.675918 0.769566
Si Si6 0.927790 0.665078 0.964697
O O1 0.839263 0.207919 0.200411
O O2 0.954178 0.275728 0.192850
O O3 0.922201 0.000000 0.146493
O O4 0.890624 0.217462 0.031411
O O5 0.250000 0.357119 0.717607
O O6 0.354178 0.500000 0.749949
O O7 0.346621 0.287511 0.618771
O O8 0.750000 0.731314 0.506597
O O9 0.672837 0.500000 0.508444
O O10 0.625783 0.760665 0.552500
O O11 0.038704 0.770088 0.322307
O O12 0.000000 0.764553 0.500000
O O13 0.057891 0.000000 0.430140
O O14 0.522443 0.500000 0.746034
O O15 0.573858 0.711743 0.853952
O O16 0.897325 0.500000 0.976817
O O17 0.000000 0.662600 0.000000
#
# Coordination Sequence:
#
# PCOD8211303 Si02
#       6
#     8   8   8   8   8   8
#     4  11  20  29  47  75 105 132 158 198 253 305
#     4   9  18  33  52  72  96 130 170 207 243 291
#     4   9  19  36  56  76  99 134 179 216 250 302
#     4  11  23  35  50  78 111 138 168 211 264 313
#     4  10  20  34  52  72  97 132 171 209 247 292
#     4   8  16  31  49  69  93 125 164 199 237 292
#
# _framework density 18.128547000000001
#
# number of rings (size 3 to 8) (size 9 to 14) (size 15 to 20)
#    0.000    2.333    0.000    5.500    0.000    9.000 
#    0.000    1.667    0.000    1.000    0.000    7.000 
#    0.000    0.000    0.000    0.000    0.000    0.000 
#
# Total GULP energy -594826.368156 kJ/mol
# GULP energy per Si atom -12392.216003 kJ/mol
# Density = 1.808729 g / cm^3
# Si number density = 18.128547 Si / 1000 Ang^3
#
#
#
# Elastic Constant Matrix: (Units=GPa)
#
#
# Indices 1 2 3 4 5 6 
#
# 1 39.2139 20.4738 29.2351 0.0000 0.0000 0.0000
# 2 20.4738 56.7927 30.0546 0.0000 0.0000 0.0000
# 3 29.2351 30.0546 113.3537 0.0000 0.0000 0.0000
# 4 0.0000 0.0000 0.0000 25.5639 0.0000 0.0000
# 5 0.0000 0.0000 0.0000 0.0000 22.1750 0.0000
# 6 0.0000 0.0000 0.0000 0.0000 0.0000 21.2403
#
#
#
# Elastic Compliance Matrix: (Units=1/GPa)
#
#
# Indices 1 2 3 4 5 6 
#
# 1 0.035263 -0.009189 -0.006658 0.000000 0.000000 0.000000
# 2 -0.009189 0.022876 -0.003696 0.000000 0.000000 0.000000
# 3 -0.006658 -0.003696 0.011519 0.000000 0.000000 0.000000
# 4 0.000000 0.000000 0.000000 0.039118 0.000000 0.000000
# 5 0.000000 0.000000 0.000000 0.000000 0.045096 0.000000
# 6 0.000000 0.000000 0.000000 0.000000 0.000000 0.047080
#
#
# Mechanical properties :
#
#
# Convention : Reuss Voigt Hill
#
# Bulk Modulus (GPa) = 32.70885 40.98747 36.84816
# Shear Modulus (GPa) = 19.98183 22.43562 21.20872
#
# Velocity S-wave (km/s) = 3.32359 3.52175 3.42410
# Velocity P-wave (km/s) = 5.72802 6.26062 6.00023
#
# Compressibility (1/GPa) = 0.03057277
#
# Stress axis : x y z
#
# Youngs Moduli (GPa) = 28.35867 43.71382 86.81297
#
# Poissons Ratio (x) = 0.40167 0.57803
# Poissons Ratio (y) = 0.26058 0.32082
# Poissons Ratio (z) = 0.18882 0.16155
#
# Static dielectric constant tensor:
#      x y z
#    x 3.099230 0.000000 0.000000 
#    y 0.000000 3.269600 0.000000 
#    z 0.000000 0.000000 4.049530 
# 
# 
# High freq. dielectric constant tensor:
#      x y z
#    x 1.668030 0.000000 0.000000 
#    y 0.000000 1.700670 0.000000 
#    z 0.000000 0.000000 1.708130 
# 
# From -- ./inp_files/24758.got.cif
#   From: 2010.03.12/outbox.cif.g09.slc.cpg/sg51_13_cif.got.tgz:24758.got - 2010.04.16 13:43:02.
