data_PCOD8211812
_publ_section_title
;
Structure prediction by ZEFSAII (Michael W. Deem and Ramdas Pophale) SiO2 
 PCOD8211812
Probable space group: P M M A
;
_chemical_formula_sum "Si O2"
_cell_formula_units_Z 48
_cell_length_a 17.821420
_cell_length_b 9.163495
_cell_length_c 15.350035
_cell_angle_alpha 90.000000
_cell_angle_beta 90.000000
_cell_angle_gamma 90.000000
_cell_volume 2506.760384
_symmetry_space_group_name_H-M "P M M A"
_symmetry_group_IT_number 51
_symmetry_cell_setting 'orthorhombic'
loop_
_space_group_symop_operation_xyz
x,y,z
1/2-x,-y,z
1/2+x,-y,-z
-x,y,-z
-x,-y,-z
1/2+x,y,-z
1/2-x,y,z
x,-y,z
loop_
_atom_site_type_symbol
_atom_site_label
_atom_site_fract_x
_atom_site_fract_y
_atom_site_fract_z
Si Si1 0.925342 0.330785 0.824908
Si Si2 0.581110 0.171807 0.152120
Si Si3 0.335933 0.171430 0.672171
Si Si4 0.336828 0.332745 0.000175
Si Si5 0.166146 0.673597 0.340479
Si Si6 0.414314 0.671923 0.514339
O O1 0.947443 0.500000 0.814549
O O2 0.885111 0.269141 0.738378
O O3 0.999658 0.239984 0.839759
O O4 0.868270 0.306838 0.903692
O O5 0.632134 0.216569 0.233977
O O6 0.620045 0.228824 0.065422
O O7 0.572029 0.000000 0.144253
O O8 0.250000 0.224077 0.667031
O O9 0.384552 0.251891 0.600273
O O10 0.342703 0.000000 0.656404
O O11 0.250000 0.289498 0.001093
O O12 0.348771 0.500000 0.971127
O O13 0.250000 0.737404 0.330952
O O14 0.168110 0.500000 0.337747
O O15 0.132418 0.729065 0.431582
O O16 0.500000 0.716992 0.500000
O O17 0.405430 0.500000 0.527166
#
# Coordination Sequence:
#
# PCOD8211812 Si02
#       6
#     8   8   8   8   8   8
#     4  10  20  36  58  82 109 141 179 223 269 320
#     4  11  23  38  56  79 110 147 183 221 270 323
#     4  10  22  39  56  76 106 145 186 226 270 319
#     4  10  21  37  58  84 111 141 180 224 269 318
#     4   9  17  31  53  80 109 141 177 220 271 323
#     4  10  20  34  55  84 113 141 177 221 269 322
#
# _framework density 19.148220999999999
#
# number of rings (size 3 to 8) (size 9 to 14) (size 15 to 20)
#    0.000    2.000    0.000    3.500    0.000    9.667 
#    0.000    0.833    0.000    2.500    0.000    0.000 
#    0.000    0.000    0.000    0.000    0.000    0.000 
#
# Total GULP energy -595396.623401 kJ/mol
# GULP energy per Si atom -12404.096321 kJ/mol
# Density = 1.910464 g / cm^3
# Si number density = 19.148221 Si / 1000 Ang^3
#
#
#
# Elastic Constant Matrix: (Units=GPa)
#
#
# Indices 1 2 3 4 5 6 
#
# 1 95.8276 22.6892 -4.2076 0.0000 0.0000 0.0000
# 2 22.6892 36.5696 21.1948 0.0000 0.0000 0.0000
# 3 -4.2076 21.1948 59.4060 0.0000 0.0000 0.0000
# 4 0.0000 0.0000 0.0000 25.9402 0.0000 0.0000
# 5 0.0000 0.0000 0.0000 0.0000 42.3116 0.0000
# 6 0.0000 0.0000 0.0000 0.0000 0.0000 9.5456
#
#
#
# Elastic Compliance Matrix: (Units=1/GPa)
#
#
# Indices 1 2 3 4 5 6 
#
# 1 0.013270 -0.011066 0.004888 0.000000 0.000000 0.000000
# 2 -0.011066 0.043702 -0.016376 0.000000 0.000000 0.000000
# 3 0.004888 -0.016376 0.023022 0.000000 0.000000 0.000000
# 4 0.000000 0.000000 0.000000 0.038550 0.000000 0.000000
# 5 0.000000 0.000000 0.000000 0.000000 0.023634 0.000000
# 6 0.000000 0.000000 0.000000 0.000000 0.000000 0.104760
#
#
# Mechanical properties :
#
#
# Convention : Reuss Voigt Hill
#
# Bulk Modulus (GPa) = 28.66455 30.12848 29.39651
# Shear Modulus (GPa) = 16.46493 25.70129 21.08311
#
# Velocity S-wave (km/s) = 2.93553 3.66762 3.32180
# Velocity P-wave (km/s) = 5.14705 5.80549 5.48616
#
# Compressibility (1/GPa) = 0.03488630
#
# Stress axis : x y z
#
# Youngs Moduli (GPa) = 75.35654 22.88216 43.43658
#
# Poissons Ratio (x) = 0.25322 -0.21233
# Poissons Ratio (y) = 0.83393 0.71131
# Poissons Ratio (z) = -0.36836 0.37471
#
# Static dielectric constant tensor:
#      x y z
#    x 3.783020 0.000000 0.000000 
#    y 0.000000 3.308030 0.000000 
#    z 0.000000 0.000000 3.693860 
# 
# 
# High freq. dielectric constant tensor:
#      x y z
#    x 1.764870 0.000000 0.000000 
#    y 0.000000 1.717510 0.000000 
#    z 0.000000 0.000000 1.762410 
# 
# From -- ./inp_files/24676.got.cif
#   From: 2010.03.12/outbox.cif.g09.slc.cpg/sg51_13_cif.got.tgz:24676.got - 2010.04.16 13:43:02.
