data_PCOD8211449
_publ_section_title
;
Structure prediction by ZEFSAII (Michael W. Deem and Ramdas Pophale) SiO2 
 PCOD8211449
Probable space group: P M M A
;
_chemical_formula_sum "Si O2"
_cell_formula_units_Z 48
_cell_length_a 15.362781
_cell_length_b 8.974446
_cell_length_c 19.020960
_cell_angle_alpha 90.000000
_cell_angle_beta 90.000000
_cell_angle_gamma 90.000000
_cell_volume 2622.466328
_symmetry_space_group_name_H-M "P M M A"
_symmetry_group_IT_number 51
_symmetry_cell_setting 'orthorhombic'
loop_
_space_group_symop_operation_xyz
x,y,z
1/2-x,-y,z
1/2+x,-y,-z
-x,y,-z
-x,-y,-z
1/2+x,y,-z
1/2-x,y,z
x,-y,z
loop_
_atom_site_type_symbol
_atom_site_label
_atom_site_fract_x
_atom_site_fract_y
_atom_site_fract_z
Si Si1 0.577733 0.175048 0.049099
Si Si2 0.150988 0.827851 0.580862
Si Si3 0.074767 0.176030 0.790108
Si Si4 0.250000 0.666045 0.953926
Si Si5 0.849493 0.170390 0.583373
Si Si6 0.250000 0.668405 0.786958
Si Si7 0.000539 0.324675 0.335016
O O1 0.557395 0.222674 0.129262
O O2 0.664430 0.250416 0.018741
O O3 0.591970 0.000000 0.043831
O O4 0.500000 0.231282 0.000000
O O5 0.250000 0.786105 0.602270
O O6 0.137031 0.799028 0.498654
O O7 0.084060 0.724270 0.621549
O O8 0.131811 0.000000 0.599148
O O9 0.165335 0.243178 0.760844
O O10 0.999407 0.245994 0.741657
O O11 0.077873 0.000000 0.781209
O O12 0.250000 0.500000 0.984822
O O13 0.250000 0.666513 0.870501
O O14 0.750000 0.202707 0.605084
O O15 0.910915 0.280226 0.626377
O O16 0.874385 0.000000 0.600849
O O17 0.250000 0.500000 0.756880
O O18 0.998502 0.500000 0.324398
#
# Coordination Sequence:
#
# PCOD8211449 Si02
#       7
#     8   8   8   4   8   4   8
#     4   9  18  34  57  81 105 135 178 226 264 303
#     4   9  19  36  57  80 106 138 178 220 263 316
#     4  10  20  34  53  76 105 142 179 214 262 319
#     4   9  17  29  49  79 109 139 168 199 254 321
#     4   9  19  38  61  79  98 133 182 229 267 314
#     4   9  17  31  49  73 107 137 166 207 258 315
#     4  12  24  34  50  78 113 144 174 218 267 316
#
# _framework density 18.303381000000002
#
# number of rings (size 3 to 8) (size 9 to 14) (size 15 to 20)
#    0.000    2.333    0.000    4.000    1.167    6.333 
#    0.000    1.667    1.833    0.000    0.000    0.000 
#    0.000    0.000    0.000    0.000    0.000    0.000 
#
# Total GULP energy -595256.388744 kJ/mol
# GULP energy per Si atom -12401.174765 kJ/mol
# Density = 1.826172 g / cm^3
# Si number density = 18.303381 Si / 1000 Ang^3
#
#
#
# Elastic Constant Matrix: (Units=GPa)
#
#
# Indices 1 2 3 4 5 6 
#
# 1 114.1775 50.9868 54.4261 0.0000 0.0000 0.0000
# 2 50.9868 97.7810 39.1762 0.0000 0.0000 0.0000
# 3 54.4261 39.1762 70.5914 0.0000 0.0000 0.0000
# 4 0.0000 0.0000 0.0000 19.7651 0.0000 0.0000
# 5 0.0000 0.0000 0.0000 0.0000 27.5358 0.0000
# 6 0.0000 0.0000 0.0000 0.0000 0.0000 16.2687
#
#
#
# Elastic Compliance Matrix: (Units=1/GPa)
#
#
# Indices 1 2 3 4 5 6 
#
# 1 0.015030 -0.004108 -0.009308 0.000000 0.000000 0.000000
# 2 -0.004108 0.014274 -0.004754 0.000000 0.000000 0.000000
# 3 -0.009308 -0.004754 0.023981 0.000000 0.000000 0.000000
# 4 0.000000 0.000000 0.000000 0.050594 0.000000 0.000000
# 5 0.000000 0.000000 0.000000 0.000000 0.036316 0.000000
# 6 0.000000 0.000000 0.000000 0.000000 0.000000 0.061468
#
#
# Mechanical properties :
#
#
# Convention : Reuss Voigt Hill
#
# Bulk Modulus (GPa) = 59.01836 63.52533 61.27184
# Shear Modulus (GPa) = 20.52109 21.91131 21.21620
#
# Velocity S-wave (km/s) = 3.35201 3.46369 3.40831
# Velocity P-wave (km/s) = 6.87720 7.12590 7.00265
#
# Compressibility (1/GPa) = 0.01694388
#
# Stress axis : x y z
#
# Youngs Moduli (GPa) = 66.53508 70.05875 41.69919
#
# Poissons Ratio (x) = 0.28778 0.38815
# Poissons Ratio (y) = 0.27331 0.19826
# Poissons Ratio (z) = 0.61932 0.33309
#
# Static dielectric constant tensor:
#      x y z
#    x 3.411980 0.000000 0.000000 
#    y 0.000000 3.333010 0.000000 
#    z 0.000000 0.000000 3.316410 
# 
# 
# High freq. dielectric constant tensor:
#      x y z
#    x 1.705510 0.000000 0.000000 
#    y 0.000000 1.709510 0.000000 
#    z 0.000000 0.000000 1.695570 
# 
# From -- ./inp_files/29546.got.cif
#   From: 2010.03.12/outbox.cif.g09.slc.cpg/sg51_15_cif.got.tgz:29546.got - 2010.04.16 13:43:02.
