data_PCOD8211505
_publ_section_title
;
Structure prediction by ZEFSAII (Michael W. Deem and Ramdas Pophale) SiO2 
 PCOD8211505
Probable space group: P M M A
;
_chemical_formula_sum "Si O2"
_cell_formula_units_Z 64
_cell_length_a 19.770619
_cell_length_b 9.242889
_cell_length_c 19.776305
_cell_angle_alpha 90.000000
_cell_angle_beta 90.000000
_cell_angle_gamma 90.000000
_cell_volume 3613.875242
_symmetry_space_group_name_H-M "P M M A"
_symmetry_group_IT_number 51
_symmetry_cell_setting 'orthorhombic'
loop_
_space_group_symop_operation_xyz
x,y,z
1/2-x,-y,z
1/2+x,-y,-z
-x,y,-z
-x,-y,-z
1/2+x,y,-z
1/2-x,y,z
x,-y,z
loop_
_atom_site_type_symbol
_atom_site_label
_atom_site_fract_x
_atom_site_fract_y
_atom_site_fract_z
Si Si1 0.826772 0.168561 0.388710
Si Si2 0.579142 0.340700 0.015433
Si Si3 0.103214 0.171566 0.110597
Si Si4 0.913301 0.329694 0.651948
Si Si5 0.030673 0.331017 0.845514
Si Si6 0.326675 0.169655 0.456408
Si Si7 0.326656 0.664975 0.220716
Si Si8 0.938371 0.669053 0.305323
O O1 0.750000 0.209904 0.369522
O O2 0.841137 0.211531 0.466130
O O3 0.876320 0.252572 0.339784
O O4 0.839284 0.000000 0.378164
O O5 0.610373 0.500000 0.001691
O O6 0.586021 0.300048 0.095169
O O7 0.500000 0.343384 0.000000
O O8 0.615048 0.224506 0.966794
O O9 0.164313 0.231909 0.155912
O O10 0.034892 0.233977 0.142490
O O11 0.101814 0.000000 0.111269
O O12 0.905361 0.500000 0.641649
O O13 0.881921 0.252670 0.587250
O O14 0.874141 0.279155 0.719014
O O15 0.991264 0.282755 0.659991
O O16 0.008457 0.500000 0.846469
O O17 0.062575 0.288693 0.773804
O O18 0.250000 0.215618 0.436731
O O19 0.335866 0.000000 0.444684
O O20 0.250000 0.677108 0.246108
O O21 0.345191 0.500000 0.200904
O O22 0.927747 0.500000 0.314824
#
# Coordination Sequence:
#
# PCOD8211505 Si02
#       8
#     8   8   8   8   8   8   8   8
#     4   9  20  39  58  76 102 137 174 210 257 320
#     4   8  15  28  49  70  93 131 172 207 246 299
#     4  11  20  29  46  73 105 134 167 217 263 302
#     4  10  20  34  53  78 107 135 170 218 265 308
#     4   9  17  33  52  72 102 137 171 208 254 307
#     4   9  19  36  55  74 102 141 180 216 253 303
#     4  10  20  35  53  70  98 144 186 216 255 312
#     4  10  20  34  55  81 109 135 167 218 265 306
#
# _framework density 17.709520999999999
#
# number of rings (size 3 to 8) (size 9 to 14) (size 15 to 20)
#    0.000    2.500    1.250    3.000    0.000    6.000 
#    0.000    3.750    0.000    0.750    0.000    1.750 
#    0.000    0.000    0.000    0.000    0.000    0.000 
#
# Total GULP energy -793467.015550 kJ/mol
# GULP energy per Si atom -12397.922118 kJ/mol
# Density = 1.766921 g / cm^3
# Si number density = 17.709521 Si / 1000 Ang^3
#
#
#
# Elastic Constant Matrix: (Units=GPa)
#
#
# Indices 1 2 3 4 5 6 
#
# 1 89.7421 41.4760 68.3102 0.0000 0.0000 0.0000
# 2 41.4760 75.6517 56.1552 0.0000 0.0000 0.0000
# 3 68.3102 56.1552 136.6515 0.0000 0.0000 0.0000
# 4 0.0000 0.0000 0.0000 13.1468 0.0000 0.0000
# 5 0.0000 0.0000 0.0000 0.0000 21.1554 0.0000
# 6 0.0000 0.0000 0.0000 0.0000 0.0000 26.5585
#
#
#
# Elastic Compliance Matrix: (Units=1/GPa)
#
#
# Indices 1 2 3 4 5 6 
#
# 1 0.019166 -0.004886 -0.007573 0.000000 0.000000 0.000000
# 2 -0.004886 0.020266 -0.005885 0.000000 0.000000 0.000000
# 3 -0.007573 -0.005885 0.013522 0.000000 0.000000 0.000000
# 4 0.000000 0.000000 0.000000 0.076064 0.000000 0.000000
# 5 0.000000 0.000000 0.000000 0.000000 0.047269 0.000000
# 6 0.000000 0.000000 0.000000 0.000000 0.000000 0.037653
#
#
# Mechanical properties :
#
#
# Convention : Reuss Voigt Hill
#
# Bulk Modulus (GPa) = 61.48324 70.43645 65.95985
# Shear Modulus (GPa) = 19.52742 21.24573 20.38658
#
# Velocity S-wave (km/s) = 3.32422 3.46739 3.39656
# Velocity P-wave (km/s) = 7.03754 7.47596 7.26006
#
# Compressibility (1/GPa) = 0.01626459
#
# Stress axis : x y z
#
# Youngs Moduli (GPa) = 52.17707 49.34333 73.95451
#
# Poissons Ratio (x) = 0.24112 0.56002
# Poissons Ratio (y) = 0.25496 0.43525
# Poissons Ratio (z) = 0.39511 0.29041
#
# Static dielectric constant tensor:
#      x y z
#    x 3.052540 0.000000 0.000000 
#    y 0.000000 3.139520 0.000000 
#    z 0.000000 0.000000 3.566080 
# 
# 
# High freq. dielectric constant tensor:
#      x y z
#    x 1.657570 0.000000 0.000000 
#    y 0.000000 1.674530 0.000000 
#    z 0.000000 0.000000 1.695200 
# 
# From -- ./inp_files/30544.got.cif
#   From: 2010.03.12/outbox.cif.g09.slc.cpg/sg51_16_cif.got.tgz:30544.got - 2010.04.16 13:43:02.
