data_PCOD8211463
_publ_section_title
;
Structure prediction by ZEFSAII (Michael W. Deem and Ramdas Pophale) SiO2 
 PCOD8211463
Probable space group: P M M A
;
_chemical_formula_sum "Si O2"
_cell_formula_units_Z 64
_cell_length_a 9.218193
_cell_length_b 23.722087
_cell_length_c 15.197055
_cell_angle_alpha 90.000000
_cell_angle_beta 90.000000
_cell_angle_gamma 90.000000
_cell_volume 3323.212603
_symmetry_space_group_name_H-M "P M M A"
_symmetry_group_IT_number 51
_symmetry_cell_setting 'orthorhombic'
loop_
_space_group_symop_operation_xyz
x,y,z
1/2-x,-y,z
1/2+x,-y,-z
-x,y,-z
-x,-y,-z
1/2+x,y,-z
1/2-x,y,z
x,-y,z
loop_
_atom_site_type_symbol
_atom_site_label
_atom_site_fract_x
_atom_site_fract_y
_atom_site_fract_z
Si Si1 0.084146 0.064337 0.253227
Si Si2 0.094274 0.436223 0.425468
Si Si3 0.419001 0.857662 0.411909
Si Si4 0.581454 0.683319 0.242234
Si Si5 0.079975 0.107348 0.911557
Si Si6 0.413882 0.439435 0.748045
Si Si7 0.918606 0.237779 0.086863
Si Si8 0.078363 0.271844 0.409378
O O1 0.250000 0.080391 0.228822
O O2 0.025853 0.103707 0.331750
O O3 0.983190 0.071959 0.168726
O O4 0.073272 0.000000 0.285115
O O5 0.250000 0.405141 0.418302
O O6 0.119697 0.500000 0.456955
O O7 0.000000 0.404188 0.500000
O O8 0.019487 0.435191 0.332767
O O9 0.500000 0.876919 0.500000
O O10 0.250000 0.866787 0.429320
O O11 0.455778 0.793281 0.387349
O O12 0.750000 0.695655 0.264302
O O13 0.562662 0.619650 0.200345
O O14 0.522477 0.726404 0.169195
O O15 0.487735 0.689984 0.331124
O O16 0.250000 0.095081 0.921643
O O17 0.047342 0.172844 0.893214
O O18 0.000000 0.087264 0.000000
O O19 0.250000 0.440831 0.712209
O O20 0.444484 0.500000 0.798930
O O21 0.750000 0.248973 0.071205
O O22 0.000000 0.258765 0.000000
O O23 0.250000 0.282397 0.417289
O O24 0.000000 0.288899 0.500000
#
# Coordination Sequence:
#
# PCOD8211463 Si02
#       8
#     8   8   8   8   8   8   8   8
#     4  10  21  36  53  76 108 143 178 216 256 300
#     4   9  16  26  41  60  83 114 154 198 238 278
#     4   9  19  35  54  76 103 137 176 218 262 305
#     4  10  20  34  53  77 104 132 166 211 257 302
#     4  10  20  35  56  80 106 136 170 209 256 310
#     4   9  18  32  48  66  91 126 164 199 241 295
#     4   9  19  35  56  82 107 131 163 208 260 310
#     4  10  20  34  53  77 105 137 173 213 259 309
#
# _framework density 19.258472000000001
#
# number of rings (size 3 to 8) (size 9 to 14) (size 15 to 20)
#    0.000    2.500    0.000    1.875    0.000    5.250 
#    0.000    0.000    0.000    0.375    0.000    0.000 
#    0.000    0.000    0.000    0.000    0.000    0.000 
#
# Total GULP energy -793230.542482 kJ/mol
# GULP energy per Si atom -12394.227226 kJ/mol
# Density = 1.921464 g / cm^3
# Si number density = 19.258472 Si / 1000 Ang^3
#
#
#
# Elastic Constant Matrix: (Units=GPa)
#
#
# Indices 1 2 3 4 5 6 
#
# 1 72.1427 22.2306 29.7043 0.0000 0.0000 0.0000
# 2 22.2306 96.7343 40.5282 0.0000 0.0000 0.0000
# 3 29.7043 40.5282 84.4904 0.0000 0.0000 0.0000
# 4 0.0000 0.0000 0.0000 9.4432 0.0000 0.0000
# 5 0.0000 0.0000 0.0000 0.0000 32.1324 0.0000
# 6 0.0000 0.0000 0.0000 0.0000 0.0000 15.2338
#
#
#
# Elastic Compliance Matrix: (Units=1/GPa)
#
#
# Indices 1 2 3 4 5 6 
#
# 1 0.016427 -0.001696 -0.004962 0.000000 0.000000 0.000000
# 2 -0.001696 0.013113 -0.005694 0.000000 0.000000 0.000000
# 3 -0.004962 -0.005694 0.016311 0.000000 0.000000 0.000000
# 4 0.000000 0.000000 0.000000 0.105897 0.000000 0.000000
# 5 0.000000 0.000000 0.000000 0.000000 0.031121 0.000000
# 6 0.000000 0.000000 0.000000 0.000000 0.000000 0.065643
#
#
# Mechanical properties :
#
#
# Convention : Reuss Voigt Hill
#
# Bulk Modulus (GPa) = 47.28582 48.69928 47.99255
# Shear Modulus (GPa) = 17.84028 22.08883 19.96456
#
# Velocity S-wave (km/s) = 3.04692 3.39036 3.22322
# Velocity P-wave (km/s) = 6.08152 6.37716 6.23109
#
# Compressibility (1/GPa) = 0.02114799
#
# Stress axis : x y z
#
# Youngs Moduli (GPa) = 60.87532 76.26117 61.30822
#
# Poissons Ratio (x) = 0.12937 0.30418
# Poissons Ratio (y) = 0.10327 0.34906
# Poissons Ratio (z) = 0.30203 0.43419
#
# Static dielectric constant tensor:
#      x y z
#    x 3.615180 0.000000 0.000000 
#    y 0.000000 3.823450 0.000000 
#    z 0.000000 0.000000 3.293630 
# 
# 
# High freq. dielectric constant tensor:
#      x y z
#    x 1.753400 0.000000 0.000000 
#    y 0.000000 1.760010 0.000000 
#    z 0.000000 0.000000 1.717570 
# 
# From -- ./inp_files/22275.got.cif
#   From: 2010.03.12/outbox.cif.g09.slc.cpg/sg51_12_cif.got.tgz:22275.got - 2010.04.16 13:43:02.
