data_PCOD8211540
_publ_section_title
;
Structure prediction by ZEFSAII (Michael W. Deem and Ramdas Pophale) SiO2 
 PCOD8211540
Probable space group: P M M A
;
_chemical_formula_sum "Si O2"
_cell_formula_units_Z 48
_cell_length_a 9.629931
_cell_length_b 8.945916
_cell_length_c 29.310980
_cell_angle_alpha 90.000000
_cell_angle_beta 90.000000
_cell_angle_gamma 90.000000
_cell_volume 2525.098538
_symmetry_space_group_name_H-M "P M M A"
_symmetry_group_IT_number 51
_symmetry_cell_setting 'orthorhombic'
loop_
_space_group_symop_operation_xyz
x,y,z
1/2-x,-y,z
1/2+x,-y,-z
-x,y,-z
-x,-y,-z
1/2+x,y,-z
1/2-x,y,z
x,-y,z
loop_
_atom_site_type_symbol
_atom_site_label
_atom_site_fract_x
_atom_site_fract_y
_atom_site_fract_z
Si Si1 0.492880 0.176791 0.102932
Si Si2 0.911519 0.831962 0.798015
Si Si3 0.750000 0.324816 0.951042
Si Si4 0.090896 0.675720 0.294248
Si Si5 0.910825 0.177309 0.371137
Si Si6 0.250000 0.323788 0.942562
Si Si7 0.409890 0.177709 0.457376
O O1 0.487900 0.222131 0.156248
O O2 0.379645 0.253542 0.072481
O O3 0.628469 0.242425 0.082388
O O4 0.480611 0.000000 0.097844
O O5 0.750000 0.827669 0.809645
O O6 0.949519 0.720265 0.757148
O O7 0.956772 0.000000 0.783948
O O8 0.750000 0.500000 0.942713
O O9 0.750000 0.286306 0.004264
O O10 0.250000 0.727334 0.305198
O O11 0.076104 0.500000 0.300202
O O12 0.979544 0.755276 0.326248
O O13 0.750000 0.230714 0.376629
O O14 0.005759 0.233860 0.413143
O O15 0.915378 0.000000 0.367690
O O16 0.250000 0.500000 0.933681
O O17 0.500000 0.238466 0.500000
O O18 0.250000 0.239842 0.457759
O O19 0.403364 0.000000 0.458922
#
# Coordination Sequence:
#
# PCOD8211540 Si02
#       7
#     8   8   4   8   8   4   8
#     4  11  22  39  62  88 114 147 192 240 287 339
#     4   9  18  36  60  85 111 140 180 230 282 337
#     4  11  23  39  61  85 117 155 191 233 282 343
#     4  10  21  36  56  82 108 139 182 229 278 335
#     4  10  20  34  53  79 111 149 190 231 280 334
#     4  11  25  41  55  83 121 157 191 229 286 345
#     4   9  16  27  47  77 112 148 188 236 285 333
#
# _framework density 19.009160000000001
#
# number of rings (size 3 to 8) (size 9 to 14) (size 15 to 20)
#    0.000    2.000    0.833    3.000    0.000    8.667 
#    1.500    0.000    0.000    0.500    0.000    0.000 
#    0.000    0.000    0.000    0.000    0.000    0.000 
#
# Total GULP energy -595030.954757 kJ/mol
# GULP energy per Si atom -12396.478224 kJ/mol
# Density = 1.896589 g / cm^3
# Si number density = 19.009160 Si / 1000 Ang^3
#
#
#
# Elastic Constant Matrix: (Units=GPa)
#
#
# Indices 1 2 3 4 5 6 
#
# 1 163.2121 37.7886 90.0727 0.0000 0.0000 0.0000
# 2 37.7886 25.0262 47.1794 0.0000 0.0000 0.0000
# 3 90.0727 47.1794 144.3189 0.0000 0.0000 0.0000
# 4 0.0000 0.0000 0.0000 -5.3090 0.0000 0.0000
# 5 0.0000 0.0000 0.0000 0.0000 41.0938 0.0000
# 6 0.0000 0.0000 0.0000 0.0000 0.0000 33.7734
#
#
#
# Elastic Compliance Matrix: (Units=1/GPa)
#
#
# Indices 1 2 3 4 5 6 
#
# 1 0.010025 -0.008710 -0.003410 0.000000 0.000000 0.000000
# 2 -0.008710 0.111704 -0.031081 0.000000 0.000000 0.000000
# 3 -0.003410 -0.031081 0.019218 0.000000 0.000000 0.000000
# 4 0.000000 0.000000 0.000000 -0.188359 0.000000 0.000000
# 5 0.000000 0.000000 0.000000 0.000000 0.024335 0.000000
# 6 0.000000 0.000000 0.000000 0.000000 0.000000 0.029609
#
#
# Mechanical properties :
#
#
# Convention : Reuss Voigt Hill
#
# Bulk Modulus (GPa) = 18.33331 75.84873 47.09102
# Shear Modulus (GPa) = 44.99858 24.41273 34.70565
#
# Velocity S-wave (km/s) = 4.87067 3.58755 4.27750
# Velocity P-wave (km/s) = 6.42625 7.55966 7.01588
#
# Compressibility (1/GPa) = 0.05454552
#
# Stress axis : x y z
#
# Youngs Moduli (GPa) = 99.74741 8.95226 52.03486
#
# Poissons Ratio (x) = 0.07797 0.17742
# Poissons Ratio (y) = 0.86879 1.61730
# Poissons Ratio (z) = 0.34010 0.27825
#
# Static dielectric constant tensor:
#      x y z
#    x 0.820640 0.000000 0.000000 
#    y 0.000000 3.358560 0.000000 
#    z 0.000000 0.000000 3.671900 
# 
# 
# High freq. dielectric constant tensor:
#      x y z
#    x 1.744490 0.000000 0.000000 
#    y 0.000000 1.719910 0.000000 
#    z 0.000000 0.000000 1.753780 
# 
# From -- ./inp_files/37109.got.cif
#   From: 2010.03.12/outbox.cif.g09.slc.cpg/sg51_19_cif.got.tgz:37109.got - 2010.04.16 13:43:02.
