data_PCOD8211803
_publ_section_title
;
Structure prediction by ZEFSAII (Michael W. Deem and Ramdas Pophale) SiO2 
 PCOD8211803
Probable space group: P M M A
;
_chemical_formula_sum "Si O2"
_cell_formula_units_Z 56
_cell_length_a 18.024287
_cell_length_b 9.188004
_cell_length_c 17.427241
_cell_angle_alpha 90.000000
_cell_angle_beta 90.000000
_cell_angle_gamma 90.000000
_cell_volume 2886.076953
_symmetry_space_group_name_H-M "P M M A"
_symmetry_group_IT_number 51
_symmetry_cell_setting 'orthorhombic'
loop_
_space_group_symop_operation_xyz
x,y,z
1/2-x,-y,z
1/2+x,-y,-z
-x,y,-z
-x,-y,-z
1/2+x,y,-z
1/2-x,y,z
x,-y,z
loop_
_atom_site_type_symbol
_atom_site_label
_atom_site_fract_x
_atom_site_fract_y
_atom_site_fract_z
Si Si1 0.082043 0.827237 0.483132
Si Si2 0.834514 0.166023 0.102396
Si Si3 0.164090 0.169248 0.332192
Si Si4 0.573585 0.833793 0.956595
Si Si5 0.665080 0.828483 0.366456
Si Si6 0.585822 0.331636 0.800118
Si Si7 0.583090 0.668038 0.231370
O O1 0.114699 0.768618 0.402730
O O2 0.136677 0.776205 0.550718
O O3 0.000000 0.763300 0.500000
O O4 0.078945 0.000000 0.479450
O O5 0.750000 0.217171 0.111907
O O6 0.886788 0.268807 0.151955
O O7 0.844411 0.000000 0.130934
O O8 0.856781 0.179282 0.013589
O O9 0.250000 0.193707 0.352877
O O10 0.144796 0.255249 0.255192
O O11 0.147061 0.000000 0.317910
O O12 0.591768 0.735186 0.884316
O O13 0.561139 0.000000 0.929193
O O14 0.500000 0.777259 0.000000
O O15 0.750000 0.781069 0.357343
O O16 0.617193 0.751218 0.302478
O O17 0.654984 0.000000 0.356208
O O18 0.606595 0.500000 0.806611
O O19 0.504575 0.307943 0.765193
O O20 0.605212 0.500000 0.235934
#
# Coordination Sequence:
#
# PCOD8211803 Si02
#       7
#     8   8   8   8   8   8   8
#     4   9  17  32  57  87 115 146 188 238 290 342
#     4  10  21  37  58  84 112 143 184 235 288 341
#     4  10  21  38  61  88 118 153 195 243 292 344
#     4  10  20  37  61  86 111 145 190 238 289 344
#     4  10  20  34  55  83 114 147 185 232 284 337
#     4  11  24  39  58  84 116 153 193 236 284 342
#     4  11  23  37  54  80 115 152 190 230 277 338
#
# _framework density 19.403500999999999
#
# number of rings (size 3 to 8) (size 9 to 14) (size 15 to 20)
#    0.000    1.857    1.429    2.571    0.000    8.571 
#    0.000    2.143    0.000    4.286    0.000    0.000 
#    0.000    0.000    0.000    0.000    0.000    0.000 
#
# Total GULP energy -694621.107224 kJ/mol
# GULP energy per Si atom -12403.948343 kJ/mol
# Density = 1.935934 g / cm^3
# Si number density = 19.403501 Si / 1000 Ang^3
#
#
#
# Elastic Constant Matrix: (Units=GPa)
#
#
# Indices 1 2 3 4 5 6 
#
# 1 71.4700 31.9834 31.8337 0.0000 0.0000 0.0000
# 2 31.9834 54.9720 44.9953 0.0000 0.0000 0.0000
# 3 31.8337 44.9953 127.5669 0.0000 0.0000 0.0000
# 4 0.0000 0.0000 0.0000 -10.5690 0.0000 0.0000
# 5 0.0000 0.0000 0.0000 0.0000 31.1170 0.0000
# 6 0.0000 0.0000 0.0000 0.0000 0.0000 23.6888
#
#
#
# Elastic Compliance Matrix: (Units=1/GPa)
#
#
# Indices 1 2 3 4 5 6 
#
# 1 0.019044 -0.010109 -0.001187 0.000000 0.000000 0.000000
# 2 -0.010109 0.030940 -0.008391 0.000000 0.000000 0.000000
# 3 -0.001187 -0.008391 0.011095 0.000000 0.000000 0.000000
# 4 0.000000 0.000000 0.000000 -0.094616 0.000000 0.000000
# 5 0.000000 0.000000 0.000000 0.000000 0.032137 0.000000
# 6 0.000000 0.000000 0.000000 0.000000 0.000000 0.042214
#
#
# Mechanical properties :
#
#
# Convention : Reuss Voigt Hill
#
# Bulk Modulus (GPa) = 46.06842 52.40374 49.23608
# Shear Modulus (GPa) = 57.19363 18.52712 37.86038
#
# Velocity S-wave (km/s) = 5.43506 3.09339 4.42205
# Velocity P-wave (km/s) = 7.94861 6.31069 7.17653
#
# Compressibility (1/GPa) = 0.02170684
#
# Stress axis : x y z
#
# Youngs Moduli (GPa) = 52.50925 32.32027 90.13267
#
# Poissons Ratio (x) = 0.32672 0.10698
# Poissons Ratio (y) = 0.53080 0.75627
# Poissons Ratio (z) = 0.06232 0.27119
#
# Static dielectric constant tensor:
#      x y z
#    x 3.671210 0.000000 0.000000 
#    y 0.000000 3.357430 0.000000 
#    z 0.000000 0.000000 3.611980 
# 
# 
# High freq. dielectric constant tensor:
#      x y z
#    x 1.764720 0.000000 0.000000 
#    y 0.000000 1.730610 0.000000 
#    z 0.000000 0.000000 1.765980 
# 
# From -- ./inp_files/25671.got.cif
#   From: 2010.03.12/outbox.cif.g09.slc.cpg/sg51_13_cif.got.tgz:25671.got - 2010.04.16 13:43:02.
