data_PCOD8211201
_publ_section_title
;
Structure prediction by ZEFSAII (Michael W. Deem and Ramdas Pophale) SiO2 
 PCOD8211201
Probable space group: P M M A
;
_chemical_formula_sum "Si O2"
_cell_formula_units_Z 64
_cell_length_a 8.904198
_cell_length_b 19.444627
_cell_length_c 20.831670
_cell_angle_alpha 90.000000
_cell_angle_beta 90.000000
_cell_angle_gamma 90.000000
_cell_volume 3606.770530
_symmetry_space_group_name_H-M "P M M A"
_symmetry_group_IT_number 51
_symmetry_cell_setting 'orthorhombic'
loop_
_space_group_symop_operation_xyz
x,y,z
1/2-x,-y,z
1/2+x,-y,-z
-x,y,-z
-x,-y,-z
1/2+x,y,-z
1/2-x,y,z
x,-y,z
loop_
_atom_site_type_symbol
_atom_site_label
_atom_site_fract_x
_atom_site_fract_y
_atom_site_fract_z
Si Si1 0.571276 0.283859 0.566156
Si Si2 0.427674 0.792321 0.684608
Si Si3 0.071873 0.425457 0.379054
Si Si4 0.424436 0.921744 0.264384
Si Si5 0.924445 0.787494 0.065285
Si Si6 0.925028 0.577373 0.765729
Si Si7 0.078701 0.076511 0.868795
Si Si8 0.572503 0.291274 0.190016
O O1 0.500000 0.257478 0.500000
O O2 0.750000 0.278453 0.563109
O O3 0.511346 0.236805 0.622878
O O4 0.515409 0.362769 0.577021
O O5 0.250000 0.787354 0.674677
O O6 0.476914 0.871622 0.691371
O O7 0.483204 0.750304 0.747248
O O8 0.250000 0.426564 0.376171
O O9 0.013606 0.500000 0.405305
O O10 0.012418 0.414676 0.306697
O O11 0.250000 0.903389 0.272036
O O12 0.468832 0.911547 0.190490
O O13 0.457690 0.000000 0.286191
O O14 0.750000 0.772895 0.057870
O O15 0.959306 0.868429 0.076100
O O16 0.989830 0.745581 0.126055
O O17 0.000000 0.761957 0.000000
O O18 0.750000 0.594908 0.768468
O O19 0.955947 0.500000 0.790838
O O20 0.011950 0.631022 0.810404
O O21 0.250000 0.087963 0.844217
O O22 0.057785 0.000000 0.897765
O O23 0.750000 0.292300 0.189171
#
# Coordination Sequence:
#
# PCOD8211201 Si02
#       8
#     8   8   8   8   8   8   8   8
#     4  11  22  36  54  78 110 147 184 224 267 316
#     4  11  21  36  57  80 107 142 181 223 268 318
#     4   8  15  29  49  74 106 142 177 214 257 308
#     4  10  20  33  53  83 112 137 174 222 267 314
#     4  10  21  36  50  74 106 142 181 222 267 318
#     4   9  17  31  53  80 106 134 173 218 266 318
#     4   9  17  32  52  73 105 146 180 213 259 313
#     4  10  20  34  53  78 108 137 175 222 269 316
#
# _framework density 17.744406000000001
#
# number of rings (size 3 to 8) (size 9 to 14) (size 15 to 20)
#    0.000    2.250    2.500    1.875    0.000    3.000 
#    0.000    0.000    0.000    1.875    0.000    0.000 
#    0.000    0.000    0.000    0.000    0.000    0.000 
#
# Total GULP energy -793494.043383 kJ/mol
# GULP energy per Si atom -12398.344428 kJ/mol
# Density = 1.770402 g / cm^3
# Si number density = 17.744406 Si / 1000 Ang^3
#
#
#
# Elastic Constant Matrix: (Units=GPa)
#
#
# Indices 1 2 3 4 5 6 
#
# 1 44.0358 32.2753 34.4241 0.0000 0.0000 0.0000
# 2 32.2753 100.0033 56.1764 0.0000 0.0000 0.0000
# 3 34.4241 56.1764 117.3191 0.0000 0.0000 0.0000
# 4 0.0000 0.0000 0.0000 23.0421 0.0000 0.0000
# 5 0.0000 0.0000 0.0000 0.0000 26.0520 0.0000
# 6 0.0000 0.0000 0.0000 0.0000 0.0000 28.1214
#
#
#
# Elastic Compliance Matrix: (Units=1/GPa)
#
#
# Indices 1 2 3 4 5 6 
#
# 1 0.032762 -0.007077 -0.006224 0.000000 0.000000 0.000000
# 2 -0.007077 0.015208 -0.005205 0.000000 0.000000 0.000000
# 3 -0.006224 -0.005205 0.012843 0.000000 0.000000 0.000000
# 4 0.000000 0.000000 0.000000 0.043399 0.000000 0.000000
# 5 0.000000 0.000000 0.000000 0.000000 0.038385 0.000000
# 6 0.000000 0.000000 0.000000 0.000000 0.000000 0.035560
#
#
# Mechanical properties :
#
#
# Convention : Reuss Voigt Hill
#
# Bulk Modulus (GPa) = 42.01952 56.34553 49.18252
# Shear Modulus (GPa) = 22.41126 24.67527 23.54326
#
# Velocity S-wave (km/s) = 3.55773 3.73311 3.64648
# Velocity P-wave (km/s) = 6.37248 7.09961 6.74585
#
# Compressibility (1/GPa) = 0.02379847
#
# Stress axis : x y z
#
# Youngs Moduli (GPa) = 30.52361 65.75528 77.86558
#
# Poissons Ratio (x) = 0.46536 0.48465
# Poissons Ratio (y) = 0.21602 0.40533
# Poissons Ratio (z) = 0.18999 0.34229
#
# Static dielectric constant tensor:
#      x y z
#    x 3.118190 0.000000 0.000000 
#    y 0.000000 3.554390 0.000000 
#    z 0.000000 0.000000 3.084190 
# 
# 
# High freq. dielectric constant tensor:
#      x y z
#    x 1.676270 0.000000 0.000000 
#    y 0.000000 1.692800 0.000000 
#    z 0.000000 0.000000 1.658550 
# 
# From -- ./inp_files/32441.got.cif
#   From: 2010.03.12/outbox.cif.g09.slc.cpg/sg51_17_cif.got.tgz:32441.got - 2010.04.16 13:43:02.
