data_PCOD8211250
_publ_section_title
;
Structure prediction by ZEFSAII (Michael W. Deem and Ramdas Pophale) SiO2 
 PCOD8211250
Probable space group: P M M A
;
_chemical_formula_sum "Si O2"
_cell_formula_units_Z 56
_cell_length_a 18.344123
_cell_length_b 9.128170
_cell_length_c 19.312821
_cell_angle_alpha 90.000000
_cell_angle_beta 90.000000
_cell_angle_gamma 90.000000
_cell_volume 3233.898528
_symmetry_space_group_name_H-M "P M M A"
_symmetry_group_IT_number 51
_symmetry_cell_setting 'orthorhombic'
loop_
_space_group_symop_operation_xyz
x,y,z
1/2-x,-y,z
1/2+x,-y,-z
-x,y,-z
-x,-y,-z
1/2+x,y,-z
1/2-x,y,z
x,-y,z
loop_
_atom_site_type_symbol
_atom_site_label
_atom_site_fract_x
_atom_site_fract_y
_atom_site_fract_z
Si Si1 0.536430 0.672586 0.070568
Si Si2 0.833515 0.162672 0.867780
Si Si3 0.165051 0.828476 0.448331
Si Si4 0.432992 0.664284 0.551357
Si Si5 0.332090 0.830516 0.975061
Si Si6 0.466809 0.172835 0.347869
Si Si7 0.447706 0.671963 0.205194
O O1 0.540275 0.500000 0.067052
O O2 0.617504 0.736767 0.075644
O O3 0.495537 0.723984 0.139601
O O4 0.500000 0.735374 0.000000
O O5 0.750000 0.151450 0.848116
O O6 0.866321 0.279111 0.814228
O O7 0.868487 0.000000 0.859251
O O8 0.843760 0.220989 0.945831
O O9 0.250000 0.787408 0.431591
O O10 0.137429 0.739345 0.515582
O O11 0.111106 0.787781 0.384250
O O12 0.158291 0.000000 0.465276
O O13 0.500000 0.653083 0.500000
O O14 0.411062 0.500000 0.576097
O O15 0.461880 0.763787 0.613947
O O16 0.250000 0.800374 0.951151
O O17 0.351875 0.000000 0.968272
O O18 0.472076 0.242824 0.272712
O O19 0.475945 0.000000 0.342839
O O20 0.451757 0.500000 0.219393
#
# Coordination Sequence:
#
# PCOD8211250 Si02
#       7
#     8   8   8   8   8   8   8
#     4  10  20  34  50  72 100 132 172 218 265 316
#     4   9  18  32  48  68  96 129 165 204 251 310
#     4   9  18  33  54  80 108 138 171 206 245 295
#     4   9  17  31  52  77 104 134 169 208 247 290
#     4   9  18  32  51  74  96 121 160 211 262 311
#     4  10  20  34  52  74 104 142 179 211 253 306
#     4  11  22  34  49  72 103 136 174 218 263 311
#
# _framework density 17.316562000000001
#
# number of rings (size 3 to 8) (size 9 to 14) (size 15 to 20)
#    0.000    2.429    1.429    2.143    0.000    5.143 
#    0.000    2.857    0.000    0.857    0.000    4.000 
#    0.000    0.000    0.000    0.000    0.000    0.000 
#
# Total GULP energy -694157.011004 kJ/mol
# GULP energy per Si atom -12395.660911 kJ/mol
# Density = 1.727715 g / cm^3
# Si number density = 17.316562 Si / 1000 Ang^3
#
#
#
# Elastic Constant Matrix: (Units=GPa)
#
#
# Indices 1 2 3 4 5 6 
#
# 1 65.8543 34.6007 54.3482 0.0000 0.0000 0.0000
# 2 34.6007 65.0233 56.4151 0.0000 0.0000 0.0000
# 3 54.3482 56.4151 110.4000 0.0000 0.0000 0.0000
# 4 0.0000 0.0000 0.0000 30.9226 0.0000 0.0000
# 5 0.0000 0.0000 0.0000 0.0000 21.0662 0.0000
# 6 0.0000 0.0000 0.0000 0.0000 0.0000 19.9740
#
#
#
# Elastic Compliance Matrix: (Units=1/GPa)
#
#
# Indices 1 2 3 4 5 6 
#
# 1 0.026447 -0.004989 -0.010470 0.000000 0.000000 0.000000
# 2 -0.004989 0.028570 -0.012143 0.000000 0.000000 0.000000
# 3 -0.010470 -0.012143 0.020417 0.000000 0.000000 0.000000
# 4 0.000000 0.000000 0.000000 0.032339 0.000000 0.000000
# 5 0.000000 0.000000 0.000000 0.000000 0.047469 0.000000
# 6 0.000000 0.000000 0.000000 0.000000 0.000000 0.050065
#
#
# Mechanical properties :
#
#
# Convention : Reuss Voigt Hill
#
# Bulk Modulus (GPa) = 49.43319 59.11176 54.27247
# Shear Modulus (GPa) = 18.70871 20.78678 19.74774
#
# Velocity S-wave (km/s) = 3.29050 3.46844 3.38064
# Velocity P-wave (km/s) = 6.56089 7.08873 6.82991
#
# Compressibility (1/GPa) = 0.02022933
#
# Stress axis : x y z
#
# Youngs Moduli (GPa) = 37.81125 35.00226 48.97814
#
# Poissons Ratio (x) = 0.17464 0.51279
# Poissons Ratio (y) = 0.18866 0.59474
# Poissons Ratio (z) = 0.39588 0.42503
#
# Static dielectric constant tensor:
#      x y z
#    x 3.217050 0.000000 0.000000 
#    y 0.000000 3.348410 0.000000 
#    z 0.000000 0.000000 3.136150 
# 
# 
# High freq. dielectric constant tensor:
#      x y z
#    x 1.658750 0.000000 0.000000 
#    y 0.000000 1.674730 0.000000 
#    z 0.000000 0.000000 1.647010 
# 
# From -- ./inp_files/33710.got.cif
#   From: 2010.03.12/outbox.cif.g09.slc.cpg/sg51_17_cif.got.tgz:33710.got - 2010.04.16 13:43:02.
