data_PCOD8211440
_publ_section_title
;
Structure prediction by ZEFSAII (Michael W. Deem and Ramdas Pophale) SiO2 
 PCOD8211440
Probable space group: P M M A
;
_chemical_formula_sum "Si O2"
_cell_formula_units_Z 40
_cell_length_a 25.754505
_cell_length_b 9.078823
_cell_length_c 9.442364
_cell_angle_alpha 90.000000
_cell_angle_beta 90.000000
_cell_angle_gamma 90.000000
_cell_volume 2207.819144
_symmetry_space_group_name_H-M "P M M A"
_symmetry_group_IT_number 51
_symmetry_cell_setting 'orthorhombic'
loop_
_space_group_symop_operation_xyz
x,y,z
1/2-x,-y,z
1/2+x,-y,-z
-x,y,-z
-x,-y,-z
1/2+x,y,-z
1/2-x,y,z
x,-y,z
loop_
_atom_site_type_symbol
_atom_site_label
_atom_site_fract_x
_atom_site_fract_y
_atom_site_fract_z
Si Si1 0.884436 0.832052 0.025039
Si Si2 0.030529 0.829585 0.742116
Si Si3 0.077285 0.669250 0.233382
Si Si4 0.809501 0.827654 0.272108
Si Si5 0.608475 0.669719 0.452284
O O1 0.936480 0.807909 0.115664
O O2 0.834760 0.789678 0.120445
O O3 0.880621 0.000000 0.972045
O O4 0.884631 0.724989 0.890368
O O5 0.057594 0.747388 0.611298
O O6 0.974225 0.765722 0.770016
O O7 0.026100 0.000000 0.700700
O O8 0.062123 0.500000 0.207773
O O9 0.108008 0.689464 0.379409
O O10 0.750000 0.777476 0.269028
O O11 0.838414 0.741039 0.396708
O O12 0.816102 0.000000 0.304335
O O13 0.606720 0.500000 0.406677
#
# Coordination Sequence:
#
# PCOD8211440 Si02
#       5
#     8   8   8   8   8
#     4   9  19  34  52  76 104 133 169 212 255 301
#     4  10  20  34  53  76 103 139 179 213 249 298
#     4  11  22  33  48  75 110 142 171 207 251 301
#     4   9  19  38  61  80  98 126 169 217 261 307
#     4  10  21  35  51  76 108 138 171 210 252 301
#
# _framework density 18.117425999999998
#
# number of rings (size 3 to 8) (size 9 to 14) (size 15 to 20)
#    0.000    2.200    0.000    4.200    0.000   12.400 
#    0.000    1.000    0.000    3.600    0.000    0.000 
#    0.000    0.000    0.000    0.000    0.000    0.000 
#
# Total GULP energy -496163.246196 kJ/mol
# GULP energy per Si atom -12404.081155 kJ/mol
# Density = 1.807619 g / cm^3
# Si number density = 18.117426 Si / 1000 Ang^3
#
#
#
# Elastic Constant Matrix: (Units=GPa)
#
#
# Indices 1 2 3 4 5 6 
#
# 1 114.6070 52.2127 43.7283 0.0000 0.0000 0.0000
# 2 52.2127 109.7104 64.5261 0.0000 0.0000 0.0000
# 3 43.7283 64.5261 105.9155 0.0000 0.0000 0.0000
# 4 0.0000 0.0000 0.0000 32.8686 0.0000 0.0000
# 5 0.0000 0.0000 0.0000 0.0000 9.4075 0.0000
# 6 0.0000 0.0000 0.0000 0.0000 0.0000 18.3153
#
#
#
# Elastic Compliance Matrix: (Units=1/GPa)
#
#
# Indices 1 2 3 4 5 6 
#
# 1 0.011459 -0.004163 -0.002195 0.000000 0.000000 0.000000
# 2 -0.004163 0.015717 -0.007856 0.000000 0.000000 0.000000
# 3 -0.002195 -0.007856 0.015134 0.000000 0.000000 0.000000
# 4 0.000000 0.000000 0.000000 0.030424 0.000000 0.000000
# 5 0.000000 0.000000 0.000000 0.000000 0.106298 0.000000
# 6 0.000000 0.000000 0.000000 0.000000 0.000000 0.054599
#
#
# Mechanical properties :
#
#
# Convention : Reuss Voigt Hill
#
# Bulk Modulus (GPa) = 72.03652 72.35187 72.19420
# Shear Modulus (GPa) = 18.74855 23.43600 21.09228
#
# Velocity S-wave (km/s) = 3.22038 3.60051 3.41574
# Velocity P-wave (km/s) = 7.32632 7.57011 7.44921
#
# Compressibility (1/GPa) = 0.01388185
#
# Stress axis : x y z
#
# Youngs Moduli (GPa) = 87.26420 63.62672 66.07608
#
# Poissons Ratio (x) = 0.26485 0.14505
# Poissons Ratio (y) = 0.36325 0.51912
# Poissons Ratio (z) = 0.19156 0.49987
#
# Static dielectric constant tensor:
#      x y z
#    x 3.222250 0.000000 0.000000 
#    y 0.000000 3.456720 0.000000 
#    z 0.000000 0.000000 3.326960 
# 
# 
# High freq. dielectric constant tensor:
#      x y z
#    x 1.685700 0.000000 0.000000 
#    y 0.000000 1.711680 0.000000 
#    z 0.000000 0.000000 1.702540 
# 
# From -- ./inp_files/11412.got.cif
#   From: 2010.03.12/outbox.cif.g09.slc.cpg/sg51_6_cif.got.tgz:11412.got - 2010.04.16 13:43:02.
