data_PCOD8211400
_publ_section_title
;
Structure prediction by ZEFSAII (Michael W. Deem and Ramdas Pophale) SiO2 
 PCOD8211400
Probable space group: P M M A
;
_chemical_formula_sum "Si O2"
_cell_formula_units_Z 56
_cell_length_a 8.817924
_cell_length_b 14.547607
_cell_length_c 24.287887
_cell_angle_alpha 90.000000
_cell_angle_beta 90.000000
_cell_angle_gamma 90.000000
_cell_volume 3115.642686
_symmetry_space_group_name_H-M "P M M A"
_symmetry_group_IT_number 51
_symmetry_cell_setting 'orthorhombic'
loop_
_space_group_symop_operation_xyz
x,y,z
1/2-x,-y,z
1/2+x,-y,-z
-x,y,-z
-x,-y,-z
1/2+x,y,-z
1/2-x,y,z
x,-y,z
loop_
_atom_site_type_symbol
_atom_site_label
_atom_site_fract_x
_atom_site_fract_y
_atom_site_fract_z
Si Si1 0.078044 0.148132 0.056453
Si Si2 0.576188 0.104236 0.171741
Si Si3 0.419404 0.608928 0.554075
Si Si4 0.926183 0.262671 0.763502
Si Si5 0.077178 0.634364 0.054900
Si Si6 0.930019 0.395067 0.667235
Si Si7 0.578991 0.399638 0.162232
O O1 0.250000 0.112013 0.055930
O O2 0.070131 0.256683 0.058766
O O3 0.000394 0.111551 0.111937
O O4 0.000000 0.111402 0.000000
O O5 0.750000 0.133079 0.164102
O O6 0.506942 0.167084 0.220838
O O7 0.558958 0.000000 0.192851
O O8 0.500000 0.650996 0.500000
O O9 0.250000 0.649458 0.558030
O O10 0.414081 0.500000 0.548867
O O11 0.512020 0.638171 0.607992
O O12 0.750000 0.241352 0.756591
O O13 0.991579 0.317979 0.710182
O O14 0.953756 0.331993 0.813377
O O15 0.250000 0.599187 0.059662
O O16 0.969439 0.588537 0.099708
O O17 0.000000 0.598135 0.000000
O O18 0.750000 0.395065 0.667442
O O19 0.987451 0.500000 0.680610
O O20 0.750000 0.359341 0.167360
O O21 0.572094 0.500000 0.190833
#
# Coordination Sequence:
#
# PCOD8211400 Si02
#       7
#     8   8   8   8   8   8   8
#     4  10  20  35  57  81 102 127 157 197 252 313
#     4  11  24  40  58  79 103 132 165 206 258 315
#     4   9  16  26  43  69 103 143 184 222 258 294
#     4  11  22  37  56  77 102 135 171 214 260 301
#     4  10  20  34  53  74  96 125 159 199 247 298
#     4   9  18  32  50  74 106 143 181 217 254 298
#     4  11  23  36  52  74 100 132 167 204 247 297
#
# _framework density 17.97382
#
# number of rings (size 3 to 8) (size 9 to 14) (size 15 to 20)
#    0.000    1.857    1.429    3.000    0.000    7.429 
#    0.000    1.429    0.000    0.000    0.000    0.000 
#    0.000    0.571    0.000    1.857    0.000    2.714 
#
# Total GULP energy -694085.535179 kJ/mol
# GULP energy per Si atom -12394.384557 kJ/mol
# Density = 1.793291 g / cm^3
# Si number density = 17.973820 Si / 1000 Ang^3
#
#
#
# Elastic Constant Matrix: (Units=GPa)
#
#
# Indices 1 2 3 4 5 6 
#
# 1 84.9145 28.9882 34.0113 0.0000 0.0000 0.0000
# 2 28.9882 79.4993 40.6247 0.0000 0.0000 0.0000
# 3 34.0113 40.6247 119.2877 0.0000 0.0000 0.0000
# 4 0.0000 0.0000 0.0000 10.6488 0.0000 0.0000
# 5 0.0000 0.0000 0.0000 0.0000 31.0353 0.0000
# 6 0.0000 0.0000 0.0000 0.0000 0.0000 5.4891
#
#
#
# Elastic Compliance Matrix: (Units=1/GPa)
#
#
# Indices 1 2 3 4 5 6 
#
# 1 0.014164 -0.003754 -0.002760 0.000000 0.000000 0.000000
# 2 -0.003754 0.016224 -0.004455 0.000000 0.000000 0.000000
# 3 -0.002760 -0.004455 0.010687 0.000000 0.000000 0.000000
# 4 0.000000 0.000000 0.000000 0.093907 0.000000 0.000000
# 5 0.000000 0.000000 0.000000 0.000000 0.032221 0.000000
# 6 0.000000 0.000000 0.000000 0.000000 0.000000 0.182180
#
#
# Mechanical properties :
#
#
# Convention : Reuss Voigt Hill
#
# Bulk Modulus (GPa) = 52.25480 54.54998 53.40239
# Shear Modulus (GPa) = 13.23801 21.43980 17.33891
#
# Velocity S-wave (km/s) = 2.71683 3.45749 3.10929
# Velocity P-wave (km/s) = 6.24319 6.80842 6.53192
#
# Compressibility (1/GPa) = 0.01913700
#
# Stress axis : x y z
#
# Youngs Moduli (GPa) = 70.60363 61.63661 93.57064
#
# Poissons Ratio (x) = 0.23140 0.25823
# Poissons Ratio (y) = 0.26506 0.41685
# Poissons Ratio (z) = 0.19485 0.27458
#
# Static dielectric constant tensor:
#      x y z
#    x 3.470100 0.000000 0.000000 
#    y 0.000000 3.170130 0.000000 
#    z 0.000000 0.000000 3.356910 
# 
# 
# High freq. dielectric constant tensor:
#      x y z
#    x 1.708120 0.000000 0.000000 
#    y 0.000000 1.668130 0.000000 
#    z 0.000000 0.000000 1.680280 
# 
# From -- ./inp_files/31981.got.cif
#   From: 2010.03.12/outbox.cif.g09.slc.cpg/sg51_16_cif.got.tgz:31981.got - 2010.04.16 13:43:02.
