data_PCOD8211590
_publ_section_title
;
Structure prediction by ZEFSAII (Michael W. Deem and Ramdas Pophale) SiO2 
 PCOD8211590
Probable space group: P M M A
;
_chemical_formula_sum "Si O2"
_cell_formula_units_Z 44
_cell_length_a 9.553872
_cell_length_b 7.960779
_cell_length_c 30.132690
_cell_angle_alpha 90.000000
_cell_angle_beta 90.000000
_cell_angle_gamma 90.000000
_cell_volume 2291.779813
_symmetry_space_group_name_H-M "P M M A"
_symmetry_group_IT_number 51
_symmetry_cell_setting 'orthorhombic'
loop_
_space_group_symop_operation_xyz
x,y,z
1/2-x,-y,z
1/2+x,-y,-z
-x,y,-z
-x,-y,-z
1/2+x,y,-z
1/2-x,y,z
x,-y,z
loop_
_atom_site_type_symbol
_atom_site_label
_atom_site_fract_x
_atom_site_fract_y
_atom_site_fract_z
Si Si1 0.416327 0.687039 0.895388
Si Si2 0.416839 0.000000 0.954658
Si Si3 0.095053 0.695953 0.797258
Si Si4 0.408834 0.799617 0.541390
Si Si5 0.091196 0.199438 0.378172
Si Si6 0.401875 0.195084 0.281064
O O1 0.250000 0.682020 0.892885
O O2 0.470185 0.500000 0.910264
O O3 0.466441 0.832170 0.928806
O O4 0.472012 0.731333 0.845932
O O5 0.250000 0.000000 0.962658
O O6 0.500000 0.000000 0.000000
O O7 0.250000 0.775543 0.794892
O O8 0.102747 0.500000 0.788673
O O9 0.006115 0.777436 0.758905
O O10 0.500000 0.733578 0.500000
O O11 0.250000 0.729798 0.538545
O O12 0.482831 0.726821 0.585831
O O13 0.405993 0.000000 0.541653
O O14 0.250000 0.259334 0.388547
O O15 0.045781 0.265611 0.328877
O O16 0.084693 0.000000 0.380876
O O17 0.250000 0.275205 0.269293
O O18 0.381561 0.000000 0.288110
#
# Coordination Sequence:
#
# PCOD8211590 Si02
#       6
#     8   4   8   8   8   8
#     4   8  16  32  52  74 101 133 170 211 253 301
#     4  10  20  34  54  78 104 136 172 210 257 304
#     4   9  18  32  50  72  95 122 162 205 239 281
#     4   9  15  21  31  48  71 103 144 186 230 280
#     4   8  14  25  37  50  76 111 145 182 226 278
#     4   9  18  30  44  66  95 126 156 191 241 295
#
# _framework density 19.199051999999998
#
# number of rings (size 3 to 8) (size 9 to 14) (size 15 to 20)
#    0.000    3.273    0.000    2.727    1.273    4.000 
#    0.000    2.727    0.000    1.091    0.000    0.000 
#    0.000    0.727    0.000    2.364    0.000    5.273 
#
# Total GULP energy -545131.044245 kJ/mol
# GULP energy per Si atom -12389.341915 kJ/mol
# Density = 1.915535 g / cm^3
# Si number density = 19.199052 Si / 1000 Ang^3
#
#
#
# Elastic Constant Matrix: (Units=GPa)
#
#
# Indices 1 2 3 4 5 6 
#
# 1 90.7347 24.6146 69.7226 0.0000 0.0000 0.0000
# 2 24.6146 52.2651 51.2550 0.0000 0.0000 0.0000
# 3 69.7226 51.2550 162.5941 0.0000 0.0000 0.0000
# 4 0.0000 0.0000 0.0000 -9.0843 0.0000 0.0000
# 5 0.0000 0.0000 0.0000 0.0000 33.1001 0.0000
# 6 0.0000 0.0000 0.0000 0.0000 0.0000 4.3471
#
#
#
# Elastic Compliance Matrix: (Units=1/GPa)
#
#
# Indices 1 2 3 4 5 6 
#
# 1 0.016490 -0.001204 -0.006692 0.000000 0.000000 0.000000
# 2 -0.001204 0.027783 -0.008242 0.000000 0.000000 0.000000
# 3 -0.006692 -0.008242 0.011618 0.000000 0.000000 0.000000
# 4 0.000000 0.000000 0.000000 -0.110080 0.000000 0.000000
# 5 0.000000 0.000000 0.000000 0.000000 0.030211 0.000000
# 6 0.000000 0.000000 0.000000 0.000000 0.000000 0.230040
#
#
# Mechanical properties :
#
#
# Convention : Reuss Voigt Hill
#
# Bulk Modulus (GPa) = 42.34429 66.30871 54.32650
# Shear Modulus (GPa) = 20.30811 16.33936 18.32373
#
# Velocity S-wave (km/s) = 3.25586 2.92044 3.09270
# Velocity P-wave (km/s) = 6.01976 6.78118 6.41178
#
# Compressibility (1/GPa) = 0.02361594
#
# Stress axis : x y z
#
# Youngs Moduli (GPa) = 60.64426 35.99367 86.07481
#
# Poissons Ratio (x) = 0.04333 0.57597
# Poissons Ratio (y) = 0.07300 0.70942
# Poissons Ratio (z) = 0.40580 0.29665
#
# Static dielectric constant tensor:
#      x y z
#    x -0.413120 0.000000 0.000000 
#    y 0.000000 3.329760 0.000000 
#    z 0.000000 0.000000 3.836520 
# 
# 
# High freq. dielectric constant tensor:
#      x y z
#    x 1.720670 0.000000 0.000000 
#    y 0.000000 1.715610 0.000000 
#    z 0.000000 0.000000 1.755300 
# 
# From -- ./inp_files/36722.got.cif
#   From: 2010.03.12/outbox.cif.g09.slc.cpg/sg51_19_cif.got.tgz:36722.got - 2010.04.16 13:43:02.
