data_PCOD8211479
_publ_section_title
;
Structure prediction by ZEFSAII (Michael W. Deem and Ramdas Pophale) SiO2 
 PCOD8211479
Probable space group: P M M A
;
_chemical_formula_sum "Si O2"
_cell_formula_units_Z 40
_cell_length_a 9.199815
_cell_length_b 7.785432
_cell_length_c 29.317928
_cell_angle_alpha 90.000000
_cell_angle_beta 90.000000
_cell_angle_gamma 90.000000
_cell_volume 2099.882934
_symmetry_space_group_name_H-M "P M M A"
_symmetry_group_IT_number 51
_symmetry_cell_setting 'orthorhombic'
loop_
_space_group_symop_operation_xyz
x,y,z
1/2-x,-y,z
1/2+x,-y,-z
-x,y,-z
-x,-y,-z
1/2+x,y,-z
1/2-x,y,z
x,-y,z
loop_
_atom_site_type_symbol
_atom_site_label
_atom_site_fract_x
_atom_site_fract_y
_atom_site_fract_z
Si Si1 0.416904 0.807835 0.632765
Si Si2 0.918695 0.298972 0.545400
Si Si3 0.085335 0.703542 0.956353
Si Si4 0.422309 0.190542 0.858893
Si Si5 0.576116 0.500000 0.202180
Si Si6 0.577839 0.500000 0.304240
O O1 0.250000 0.764256 0.619914
O O2 0.513526 0.801380 0.587653
O O3 0.476333 0.671124 0.669657
O O4 0.429256 0.000000 0.653526
O O5 0.750000 0.251743 0.540789
O O6 0.943784 0.500000 0.553463
O O7 0.000000 0.236255 0.500000
O O8 0.250000 0.766410 0.961903
O O9 0.074703 0.500000 0.953367
O O10 0.015789 0.778796 0.909847
O O11 0.000000 0.776151 0.000000
O O12 0.250000 0.212993 0.861336
O O13 0.484630 0.330714 0.823532
O O14 0.466695 0.000000 0.841999
O O15 0.750000 0.500000 0.203005
O O16 0.511741 0.500000 0.253369
O O17 0.750000 0.500000 0.300802
#
# Coordination Sequence:
#
# PCOD8211479 Si02
#       6
#     8   8   8   8   4   4
#     4  10  20  34  53  77 106 139 171 206 252 301
#     4  10  20  34  55  81 108 141 177 211 251 298
#     4   9  16  27  43  64  92 125 159 195 237 286
#     4   9  16  26  42  65  94 126 159 196 241 293
#     4   9  16  28  45  67  95 126 158 199 250 295
#     4   9  18  32  50  71 100 132 165 209 254 299
#
# _framework density 19.048680000000001
#
# number of rings (size 3 to 8) (size 9 to 14) (size 15 to 20)
#    0.000    2.600    2.000    0.600    0.000    2.800 
#    0.000    4.000    0.000    0.000    0.000    2.800 
#    0.000    0.000    0.000    0.000    0.000    0.000 
#
# Total GULP energy -495932.775972 kJ/mol
# GULP energy per Si atom -12398.319399 kJ/mol
# Density = 1.900532 g / cm^3
# Si number density = 19.048680 Si / 1000 Ang^3
#
#
#
# Elastic Constant Matrix: (Units=GPa)
#
#
# Indices 1 2 3 4 5 6 
#
# 1 47.2363 23.8539 34.2546 0.0000 0.0000 0.0000
# 2 23.8539 123.0665 78.5906 0.0000 0.0000 0.0000
# 3 34.2546 78.5906 167.5266 0.0000 0.0000 0.0000
# 4 0.0000 0.0000 0.0000 12.6921 0.0000 0.0000
# 5 0.0000 0.0000 0.0000 0.0000 19.6093 0.0000
# 6 0.0000 0.0000 0.0000 0.0000 0.0000 11.8500
#
#
#
# Elastic Compliance Matrix: (Units=1/GPa)
#
#
# Indices 1 2 3 4 5 6 
#
# 1 0.025298 -0.002285 -0.004101 0.000000 0.000000 0.000000
# 2 -0.002285 0.011808 -0.005072 0.000000 0.000000 0.000000
# 3 -0.004101 -0.005072 0.009187 0.000000 0.000000 0.000000
# 4 0.000000 0.000000 0.000000 0.078789 0.000000 0.000000
# 5 0.000000 0.000000 0.000000 0.000000 0.050996 0.000000
# 6 0.000000 0.000000 0.000000 0.000000 0.000000 0.084388
#
#
# Mechanical properties :
#
#
# Convention : Reuss Voigt Hill
#
# Bulk Modulus (GPa) = 42.77659 67.91419 55.34539
# Shear Modulus (GPa) = 17.17191 22.23899 19.70545
#
# Velocity S-wave (km/s) = 3.00571 3.42055 3.21982
# Velocity P-wave (km/s) = 5.87801 7.16454 6.55292
#
# Compressibility (1/GPa) = 0.02337727
#
# Stress axis : x y z
#
# Youngs Moduli (GPa) = 39.52921 84.69178 108.84774
#
# Poissons Ratio (x) = 0.19348 0.44638
# Poissons Ratio (y) = 0.09031 0.55208
# Poissons Ratio (z) = 0.16211 0.42956
#
# Static dielectric constant tensor:
#      x y z
#    x 3.089850 0.000000 0.000000 
#    y 0.000000 3.530420 0.000000 
#    z 0.000000 0.000000 3.625710 
# 
# 
# High freq. dielectric constant tensor:
#      x y z
#    x 1.683530 0.000000 0.000000 
#    y 0.000000 1.747880 0.000000 
#    z 0.000000 0.000000 1.740170 
# 
# From -- ./inp_files/36038.got.cif
#   From: 2010.03.12/outbox.cif.g09.slc.cpg/sg51_19_cif.got.tgz:36038.got - 2010.04.16 13:43:02.
