data_PCOD8211958
_publ_section_title
;
Structure prediction by ZEFSAII (Michael W. Deem and Ramdas Pophale) SiO2 
 PCOD8211958
Probable space group: P M M A
;
_chemical_formula_sum "Si O2"
_cell_formula_units_Z 48
_cell_length_a 18.092195
_cell_length_b 13.873882
_cell_length_c 9.786623
_cell_angle_alpha 90.000000
_cell_angle_beta 90.000000
_cell_angle_gamma 90.000000
_cell_volume 2456.530243
_symmetry_space_group_name_H-M "P M M A"
_symmetry_group_IT_number 51
_symmetry_cell_setting 'orthorhombic'
loop_
_space_group_symop_operation_xyz
x,y,z
1/2-x,-y,z
1/2+x,-y,-z
-x,y,-z
-x,-y,-z
1/2+x,y,-z
1/2-x,y,z
x,-y,z
loop_
_atom_site_type_symbol
_atom_site_label
_atom_site_fract_x
_atom_site_fract_y
_atom_site_fract_z
Si Si1 0.667825 0.892603 0.995375
Si Si2 0.563206 0.389078 0.608930
Si Si3 0.483375 0.291260 0.839534
Si Si4 0.668666 0.250002 0.238067
Si Si5 0.065389 0.113877 0.248172
Si Si6 0.665380 0.219679 0.548527
O O1 0.750000 0.887386 0.934063
O O2 0.660760 0.837827 0.135507
O O3 0.643277 0.000000 0.030034
O O4 0.614419 0.851585 0.879928
O O5 0.500000 0.360307 0.500000
O O6 0.585865 0.500000 0.595167
O O7 0.535237 0.367845 0.762636
O O8 0.636670 0.327085 0.582432
O O9 0.398355 0.321601 0.803687
O O10 0.494552 0.183654 0.771884
O O11 0.500000 0.295373 0.000000
O O12 0.750000 0.300491 0.223232
O O13 0.660429 0.204374 0.387114
O O14 0.112241 0.139059 0.383803
O O15 0.044725 0.000000 0.249116
O O16 0.750000 0.209028 0.600236
#
# Coordination Sequence:
#
# PCOD8211958 Si02
#       6
#     8   8   8   8   8   8
#     4   9  17  30  48  73 107 147 189 229 275 329
#     4  10  21  39  62  85 114 145 184 236 291 351
#     4  11  21  37  59  86 114 151 195 239 285 341
#     4  10  20  35  53  78 112 148 189 237 286 339
#     4  10  21  34  54  83 115 153 194 236 279 332
#     4  10  21  37  59  84 115 151 190 237 288 344
#
# _framework density 19.539756000000001
#
# number of rings (size 3 to 8) (size 9 to 14) (size 15 to 20)
#    0.000    2.000    3.333    0.500    0.000    3.333 
#    0.000    2.500    0.000    0.500    0.000    0.000 
#    0.000    0.000    0.000    0.000    0.000    0.000 
#
# Total GULP energy -594896.775962 kJ/mol
# GULP energy per Si atom -12393.682833 kJ/mol
# Density = 1.949528 g / cm^3
# Si number density = 19.539756 Si / 1000 Ang^3
#
#
#
# Elastic Constant Matrix: (Units=GPa)
#
#
# Indices 1 2 3 4 5 6 
#
# 1 83.9711 4.5561 27.6478 0.0000 0.0000 0.0000
# 2 4.5561 60.2539 10.1793 0.0000 0.0000 0.0000
# 3 27.6478 10.1793 100.5160 0.0000 0.0000 0.0000
# 4 0.0000 0.0000 0.0000 16.0659 0.0000 0.0000
# 5 0.0000 0.0000 0.0000 0.0000 27.8189 0.0000
# 6 0.0000 0.0000 0.0000 0.0000 0.0000 29.2641
#
#
#
# Elastic Compliance Matrix: (Units=1/GPa)
#
#
# Indices 1 2 3 4 5 6 
#
# 1 0.013104 -0.000389 -0.003565 0.000000 0.000000 0.000000
# 2 -0.000389 0.016897 -0.001604 0.000000 0.000000 0.000000
# 3 -0.003565 -0.001604 0.011092 0.000000 0.000000 0.000000
# 4 0.000000 0.000000 0.000000 0.062244 0.000000 0.000000
# 5 0.000000 0.000000 0.000000 0.000000 0.035947 0.000000
# 6 0.000000 0.000000 0.000000 0.000000 0.000000 0.034172
#
#
# Mechanical properties :
#
#
# Convention : Reuss Voigt Hill
#
# Bulk Modulus (GPa) = 33.35929 36.61196 34.98562
# Shear Modulus (GPa) = 25.69874 28.12029 26.90951
#
# Velocity S-wave (km/s) = 3.63051 3.79770 3.71505
# Velocity P-wave (km/s) = 5.88929 6.16506 6.02875
#
# Compressibility (1/GPa) = 0.02997666
#
# Stress axis : x y z
#
# Youngs Moduli (GPa) = 76.31421 59.18266 90.15746
#
# Poissons Ratio (x) = 0.02300 0.32141
# Poissons Ratio (y) = 0.02965 0.14464
# Poissons Ratio (z) = 0.27206 0.09495
#
# Static dielectric constant tensor:
#      x y z
#    x 4.013010 0.000000 0.000000 
#    y 0.000000 3.196230 0.000000 
#    z 0.000000 0.000000 3.674870 
# 
# 
# High freq. dielectric constant tensor:
#      x y z
#    x 1.772260 0.000000 0.000000 
#    y 0.000000 1.721510 0.000000 
#    z 0.000000 0.000000 1.774440 
# 
# From -- ./inp_files/10831.got.cif
#   From: 2010.03.12/outbox.cif.g09.slc.cpg/sg51_6_cif.got.tgz:10831.got - 2010.04.16 13:43:02.
