data_PCOD8211338
_publ_section_title
;
Structure prediction by ZEFSAII (Michael W. Deem and Ramdas Pophale) SiO2 
 PCOD8211338
Probable space group: P M M A
;
_chemical_formula_sum "Si O2"
_cell_formula_units_Z 48
_cell_length_a 18.391662
_cell_length_b 8.645678
_cell_length_c 16.372604
_cell_angle_alpha 90.000000
_cell_angle_beta 90.000000
_cell_angle_gamma 90.000000
_cell_volume 2603.381362
_symmetry_space_group_name_H-M "P M M A"
_symmetry_group_IT_number 51
_symmetry_cell_setting 'orthorhombic'
loop_
_space_group_symop_operation_xyz
x,y,z
1/2-x,-y,z
1/2+x,-y,-z
-x,y,-z
-x,-y,-z
1/2+x,y,-z
1/2-x,y,z
x,-y,z
loop_
_atom_site_type_symbol
_atom_site_label
_atom_site_fract_x
_atom_site_fract_y
_atom_site_fract_z
Si Si1 0.961058 0.319862 0.248393
Si Si2 0.833347 0.819374 0.157868
Si Si3 0.098934 0.819124 0.169964
Si Si4 0.529222 0.681024 0.583635
Si Si5 0.166642 0.320134 0.012913
Si Si6 0.831577 0.681540 0.675137
O O1 0.975335 0.500000 0.232136
O O2 0.879614 0.272690 0.225168
O O3 0.016764 0.221825 0.194000
O O4 0.973068 0.280114 0.343783
O O5 0.750000 0.770723 0.172023
O O6 0.845622 0.000000 0.170268
O O7 0.858404 0.772683 0.067204
O O8 0.116140 0.730579 0.086874
O O9 0.155393 0.767456 0.239610
O O10 0.106933 0.000000 0.154806
O O11 0.500000 0.760840 0.500000
O O12 0.535418 0.500000 0.568422
O O13 0.610170 0.741906 0.607886
O O14 0.250000 0.281132 0.034906
O O15 0.155552 0.500000 0.994714
O O16 0.750000 0.716968 0.643786
O O17 0.843444 0.500000 0.691839
#
# Coordination Sequence:
#
# PCOD8211338 Si02
#       6
#     8   8   8   8   8   8
#     4  10  20  35  55  77 101 131 169 210 254 304
#     4  10  21  37  55  75 102 135 171 211 253 297
#     4  11  21  32  49  74 104 136 170 208 254 306
#     4   8  15  30  52  77 103 130 164 211 261 304
#     4  10  20  34  52  74 102 136 174 214 254 296
#     4   9  17  30  49  73 102 136 172 210 255 306
#
# _framework density 18.437560000000001
#
# number of rings (size 3 to 8) (size 9 to 14) (size 15 to 20)
#    0.000    2.333    0.000    4.500    0.000    5.000 
#    0.000    4.167    0.000   15.500    0.000    0.000 
#    0.000    0.000    0.000    0.000    0.000    0.000 
#
# Total GULP energy -595230.314497 kJ/mol
# GULP energy per Si atom -12400.631552 kJ/mol
# Density = 1.839559 g / cm^3
# Si number density = 18.437560 Si / 1000 Ang^3
#
#
#
# Elastic Constant Matrix: (Units=GPa)
#
#
# Indices 1 2 3 4 5 6 
#
# 1 102.8571 16.4727 66.4761 0.0000 0.0000 0.0000
# 2 16.4727 40.2205 13.4934 0.0000 0.0000 0.0000
# 3 66.4761 13.4934 111.8498 0.0000 0.0000 0.0000
# 4 0.0000 0.0000 0.0000 5.5842 0.0000 0.0000
# 5 0.0000 0.0000 0.0000 0.0000 25.2567 0.0000
# 6 0.0000 0.0000 0.0000 0.0000 0.0000 25.9456
#
#
#
# Elastic Compliance Matrix: (Units=1/GPa)
#
#
# Indices 1 2 3 4 5 6 
#
# 1 0.016261 -0.003562 -0.009235 0.000000 0.000000 0.000000
# 2 -0.003562 0.026692 -0.001103 0.000000 0.000000 0.000000
# 3 -0.009235 -0.001103 0.014562 0.000000 0.000000 0.000000
# 4 0.000000 0.000000 0.000000 0.179077 0.000000 0.000000
# 5 0.000000 0.000000 0.000000 0.000000 0.039594 0.000000
# 6 0.000000 0.000000 0.000000 0.000000 0.000000 0.038542
#
#
# Mechanical properties :
#
#
# Convention : Reuss Voigt Hill
#
# Bulk Modulus (GPa) = 33.65241 49.75689 41.70465
# Shear Modulus (GPa) = 14.18712 21.92296 18.05504
#
# Velocity S-wave (km/s) = 2.77694 3.45198 3.13270
# Velocity P-wave (km/s) = 5.34543 6.55237 5.97943
#
# Compressibility (1/GPa) = 0.02971555
#
# Stress axis : x y z
#
# Youngs Moduli (GPa) = 61.49662 37.46469 68.67090
#
# Poissons Ratio (x) = 0.13344 0.63416
# Poissons Ratio (y) = 0.21903 0.07576
# Poissons Ratio (z) = 0.56791 0.04133
#
# Static dielectric constant tensor:
#      x y z
#    x 3.483750 0.000000 0.000000 
#    y 0.000000 3.248550 0.000000 
#    z 0.000000 0.000000 3.456140 
# 
# 
# High freq. dielectric constant tensor:
#      x y z
#    x 1.715500 0.000000 0.000000 
#    y 0.000000 1.705680 0.000000 
#    z 0.000000 0.000000 1.703200 
# 
# From -- ./inp_files/24729.got.cif
#   From: 2010.03.12/outbox.cif.g09.slc.cpg/sg51_13_cif.got.tgz:24729.got - 2010.04.16 13:43:02.
