data_PCOD8211623
_publ_section_title
;
Structure prediction by ZEFSAII (Michael W. Deem and Ramdas Pophale) SiO2 
 PCOD8211623
Probable space group: P M M A
;
_chemical_formula_sum "Si O2"
_cell_formula_units_Z 48
_cell_length_a 9.188413
_cell_length_b 9.207776
_cell_length_c 30.925226
_cell_angle_alpha 90.000000
_cell_angle_beta 90.000000
_cell_angle_gamma 90.000000
_cell_volume 2616.424067
_symmetry_space_group_name_H-M "P M M A"
_symmetry_group_IT_number 51
_symmetry_cell_setting 'orthorhombic'
loop_
_space_group_symop_operation_xyz
x,y,z
1/2-x,-y,z
1/2+x,-y,-z
-x,y,-z
-x,-y,-z
1/2+x,y,-z
1/2-x,y,z
x,-y,z
loop_
_atom_site_type_symbol
_atom_site_label
_atom_site_fract_x
_atom_site_fract_y
_atom_site_fract_z
Si Si1 0.080787 0.668703 0.542301
Si Si2 0.581386 0.169028 0.373214
Si Si3 0.418769 0.170730 0.119385
Si Si4 0.077063 0.663734 0.204480
Si Si5 0.420898 0.167513 0.287940
Si Si6 0.079702 0.666929 0.955644
O O1 0.250000 0.701184 0.535883
O O2 0.047039 0.500000 0.548714
O O3 0.020044 0.749721 0.584599
O O4 0.000000 0.729950 0.500000
O O5 0.750000 0.205002 0.366109
O O6 0.496671 0.226747 0.331233
O O7 0.552335 0.000000 0.380351
O O8 0.250000 0.208944 0.110541
O O9 0.476769 0.247704 0.162780
O O10 0.515631 0.227826 0.080362
O O11 0.441740 0.000000 0.124881
O O12 0.250000 0.664493 0.205765
O O13 0.015709 0.500000 0.202160
O O14 0.017080 0.741004 0.247607
O O15 0.250000 0.189422 0.293643
O O16 0.461003 0.000000 0.279525
O O17 0.250000 0.697937 0.961441
O O18 0.050044 0.500000 0.942462
O O19 0.000000 0.705796 0.000000
#
# Coordination Sequence:
#
# PCOD8211623 Si02
#       6
#     8   8   8   8   8   8
#     4   9  18  32  48  66  90 120 153 190 233 280
#     4   9  18  32  48  67  93 124 155 189 234 286
#     4  10  20  34  54  79 106 138 174 211 254 303
#     4   9  17  30  50  75 101 130 166 207 248 291
#     4   9  17  30  48  70  96 125 159 199 240 284
#     4  10  21  37  57  80 106 137 173 213 257 304
#
# _framework density 18.345649999999999
#
# number of rings (size 3 to 8) (size 9 to 14) (size 15 to 20)
#    0.000    2.667    0.000    1.500    0.000    6.000 
#    0.000    0.833    0.000    3.000    0.000    0.000 
#    0.000    0.000    0.000    0.000    0.000    0.000 
#
# Total GULP energy -595295.385059 kJ/mol
# GULP energy per Si atom -12401.987189 kJ/mol
# Density = 1.830389 g / cm^3
# Si number density = 18.345650 Si / 1000 Ang^3
#
#
#
# Elastic Constant Matrix: (Units=GPa)
#
#
# Indices 1 2 3 4 5 6 
#
# 1 52.0499 37.7423 58.4116 0.0000 0.0000 0.0000
# 2 37.7423 90.9525 82.8653 0.0000 0.0000 0.0000
# 3 58.4116 82.8653 185.4522 0.0000 0.0000 0.0000
# 4 0.0000 0.0000 0.0000 41.4415 0.0000 0.0000
# 5 0.0000 0.0000 0.0000 0.0000 31.7772 0.0000
# 6 0.0000 0.0000 0.0000 0.0000 0.0000 21.0539
#
#
#
# Elastic Compliance Matrix: (Units=1/GPa)
#
#
# Indices 1 2 3 4 5 6 
#
# 1 0.032115 -0.006933 -0.007017 0.000000 0.000000 0.000000
# 2 -0.006933 0.020041 -0.006771 0.000000 0.000000 0.000000
# 3 -0.007017 -0.006771 0.010628 0.000000 0.000000 0.000000
# 4 0.000000 0.000000 0.000000 0.024130 0.000000 0.000000
# 5 0.000000 0.000000 0.000000 0.000000 0.031469 0.000000
# 6 0.000000 0.000000 0.000000 0.000000 0.000000 0.047497
#
#
# Mechanical properties :
#
#
# Convention : Reuss Voigt Hill
#
# Bulk Modulus (GPa) = 46.85956 76.27699 61.56827
# Shear Modulus (GPa) = 23.31698 28.81690 26.06694
#
# Velocity S-wave (km/s) = 3.56895 3.96760 3.77354
# Velocity P-wave (km/s) = 6.52543 7.91562 7.25391
#
# Compressibility (1/GPa) = 0.02134036
#
# Stress axis : x y z
#
# Youngs Moduli (GPa) = 31.13855 49.89808 94.09238
#
# Poissons Ratio (x) = 0.34596 0.66025
# Poissons Ratio (y) = 0.21590 0.63710
# Poissons Ratio (z) = 0.21850 0.33786
#
# Static dielectric constant tensor:
#      x y z
#    x 3.100250 0.000000 0.000000 
#    y 0.000000 3.389320 0.000000 
#    z 0.000000 0.000000 3.618710 
# 
# 
# High freq. dielectric constant tensor:
#      x y z
#    x 1.686050 0.000000 0.000000 
#    y 0.000000 1.709490 0.000000 
#    z 0.000000 0.000000 1.725690 
# 
# From -- ./inp_files/36934.got.cif
#   From: 2010.03.12/outbox.cif.g09.slc.cpg/sg51_19_cif.got.tgz:36934.got - 2010.04.16 13:43:02.
