data_PCOD8211293
_publ_section_title
;
Structure prediction by ZEFSAII (Michael W. Deem and Ramdas Pophale) SiO2 
 PCOD8211293
Probable space group: P M M A
;
_chemical_formula_sum "Si O2"
_cell_formula_units_Z 56
_cell_length_a 19.127183
_cell_length_b 9.032182
_cell_length_c 18.148973
_cell_angle_alpha 90.000000
_cell_angle_beta 90.000000
_cell_angle_gamma 90.000000
_cell_volume 3135.420169
_symmetry_space_group_name_H-M "P M M A"
_symmetry_group_IT_number 51
_symmetry_cell_setting 'orthorhombic'
loop_
_space_group_symop_operation_xyz
x,y,z
1/2-x,-y,z
1/2+x,-y,-z
-x,y,-z
-x,-y,-z
1/2+x,y,-z
1/2-x,y,z
x,-y,z
loop_
_atom_site_type_symbol
_atom_site_label
_atom_site_fract_x
_atom_site_fract_y
_atom_site_fract_z
Si Si1 0.167088 0.331254 0.268970
Si Si2 0.666837 0.335323 0.445076
Si Si3 0.833270 0.165774 0.586013
Si Si4 0.827886 0.323610 0.283119
Si Si5 0.919835 0.175006 0.853339
Si Si6 0.431903 0.675592 0.841919
Si Si7 0.082886 0.662812 0.002400
O O1 0.250000 0.321995 0.263931
O O2 0.140682 0.500000 0.262265
O O3 0.140045 0.266539 0.346672
O O4 0.136995 0.232303 0.203839
O O5 0.750000 0.343223 0.449412
O O6 0.635957 0.500000 0.456878
O O7 0.636592 0.230599 0.509317
O O8 0.645788 0.272301 0.364305
O O9 0.750000 0.165230 0.583804
O O10 0.862465 0.000000 0.596152
O O11 0.750000 0.261008 0.266831
O O12 0.825188 0.500000 0.281554
O O13 0.881198 0.263284 0.221863
O O14 0.893428 0.222280 0.935000
O O15 0.994528 0.243264 0.833209
O O16 0.924743 0.000000 0.850028
O O17 0.445330 0.500000 0.836231
O O18 0.394347 0.714029 0.920208
O O19 0.114190 0.500000 0.021022
O O20 0.000000 0.651721 0.000000
#
# Coordination Sequence:
#
# PCOD8211293 Si02
#       7
#     8   8   8   8   8   8   8
#     4  10  20  34  52  72  94 121 155 195 238 283
#     4   8  13  23  41  65  92 122 157 192 225 267
#     4   9  16  26  42  66  95 124 154 188 228 274
#     4   8  14  26  47  74  99 124 158 199 237 272
#     4  11  21  32  49  71  96 125 157 194 238 288
#     4   9  17  31  51  72  96 126 162 202 238 276
#     4   8  15  29  48  69  92 121 161 202 234 271
#
# _framework density 17.860444999999999
#
# number of rings (size 3 to 8) (size 9 to 14) (size 15 to 20)
#    0.000    3.000    0.000    3.857    0.000    5.143 
#    0.000    1.429    0.000    4.714    0.000    6.000 
#    0.000    0.000    0.000    0.000    0.000    0.000 
#
# Total GULP energy -694081.607092 kJ/mol
# GULP energy per Si atom -12394.314412 kJ/mol
# Density = 1.781979 g / cm^3
# Si number density = 17.860445 Si / 1000 Ang^3
#
#
#
# Elastic Constant Matrix: (Units=GPa)
#
#
# Indices 1 2 3 4 5 6 
#
# 1 25.4937 24.3262 34.2560 0.0000 0.0000 0.0000
# 2 24.3262 95.2256 58.1865 0.0000 0.0000 0.0000
# 3 34.2560 58.1865 157.1212 0.0000 0.0000 0.0000
# 4 0.0000 0.0000 0.0000 10.1519 0.0000 0.0000
# 5 0.0000 0.0000 0.0000 0.0000 10.9688 0.0000
# 6 0.0000 0.0000 0.0000 0.0000 0.0000 13.5370
#
#
#
# Elastic Compliance Matrix: (Units=1/GPa)
#
#
# Indices 1 2 3 4 5 6 
#
# 1 0.061782 -0.009761 -0.009855 0.000000 0.000000 0.000000
# 2 -0.009761 0.015115 -0.003469 0.000000 0.000000 0.000000
# 3 -0.009855 -0.003469 0.009798 0.000000 0.000000 0.000000
# 4 0.000000 0.000000 0.000000 0.098504 0.000000 0.000000
# 5 0.000000 0.000000 0.000000 0.000000 0.091168 0.000000
# 6 0.000000 0.000000 0.000000 0.000000 0.000000 0.073871
#
#
# Mechanical properties :
#
#
# Convention : Reuss Voigt Hill
#
# Bulk Modulus (GPa) = 24.67685 56.81976 40.74830
# Shear Modulus (GPa) = 12.19762 17.66966 14.93364
#
# Velocity S-wave (km/s) = 2.61615 3.14875 2.89473
# Velocity P-wave (km/s) = 4.79292 6.71579 5.83412
#
# Compressibility (1/GPa) = 0.04052382
#
# Stress axis : x y z
#
# Youngs Moduli (GPa) = 16.18604 66.16043 102.06224
#
# Poissons Ratio (x) = 0.64578 1.00583
# Poissons Ratio (y) = 0.15799 0.35409
# Poissons Ratio (z) = 0.15951 0.22953
#
# Static dielectric constant tensor:
#      x y z
#    x 2.871410 0.000000 0.000000 
#    y 0.000000 3.253330 0.000000 
#    z 0.000000 0.000000 3.870060 
# 
# 
# High freq. dielectric constant tensor:
#      x y z
#    x 1.633580 0.000000 0.000000 
#    y 0.000000 1.675930 0.000000 
#    z 0.000000 0.000000 1.712580 
# 
# From -- ./inp_files/30425.got.cif
#   From: 2010.03.12/outbox.cif.g09.slc.cpg/sg51_16_cif.got.tgz:30425.got - 2010.04.16 13:43:02.
