data_PCOD8211653
_publ_section_title
;
Structure prediction by ZEFSAII (Michael W. Deem and Ramdas Pophale) SiO2 
 PCOD8211653
Probable space group: P M M A
;
_chemical_formula_sum "Si O2"
_cell_formula_units_Z 48
_cell_length_a 7.615804
_cell_length_b 9.195038
_cell_length_c 34.424737
_cell_angle_alpha 90.000000
_cell_angle_beta 90.000000
_cell_angle_gamma 90.000000
_cell_volume 2410.681960
_symmetry_space_group_name_H-M "P M M A"
_symmetry_group_IT_number 51
_symmetry_cell_setting 'orthorhombic'
loop_
_space_group_symop_operation_xyz
x,y,z
1/2-x,-y,z
1/2+x,-y,-z
-x,y,-z
-x,-y,-z
1/2+x,y,-z
1/2-x,y,z
x,-y,z
loop_
_atom_site_type_symbol
_atom_site_label
_atom_site_fract_x
_atom_site_fract_y
_atom_site_fract_z
Si Si1 0.546477 0.831245 0.456019
Si Si2 0.450723 0.670844 0.735751
Si Si3 0.450381 0.659404 0.884153
Si Si4 0.250000 0.328227 0.321481
Si Si5 0.541460 0.837609 0.187375
Si Si6 0.750000 0.673614 0.590848
Si Si7 0.545167 0.836173 0.957448
O O1 0.500000 0.790667 0.500000
O O2 0.750000 0.795798 0.447578
O O3 0.426856 0.732966 0.428603
O O4 0.503913 0.000000 0.448150
O O5 0.250000 0.711376 0.725103
O O6 0.471036 0.500000 0.743548
O O7 0.574179 0.724940 0.700606
O O8 0.516628 0.751364 0.774341
O O9 0.250000 0.637812 0.872168
O O10 0.541572 0.500000 0.886127
O O11 0.539793 0.757306 0.850535
O O12 0.455383 0.735018 0.925870
O O13 0.250000 0.500000 0.323282
O O14 0.250000 0.267031 0.365051
O O15 0.750000 0.844796 0.184562
O O16 0.462347 0.000000 0.188864
O O17 0.750000 0.500000 0.588081
O O18 0.750000 0.834494 0.949820
O O19 0.469177 0.000000 0.953754
O O20 0.500000 0.773595 0.000000
#
# Coordination Sequence:
#
# PCOD8211653 Si02
#       7
#     8   8   8   4   8   4   8
#     4  10  20  38  62  84 113 159 207 248 297 361
#     4   9  17  33  57  79 104 144 190 229 272 335
#     4  10  20  34  54  80 108 139 176 216 261 319
#     4   9  20  37  55  81 115 153 191 231 287 351
#     4   9  17  31  53  80 108 137 172 219 273 322
#     4  11  23  37  57  89 127 157 195 253 307 359
#     4  10  21  37  56  77 102 135 174 215 263 318
#
# _framework density 19.911377999999999
#
# number of rings (size 3 to 8) (size 9 to 14) (size 15 to 20)
#    0.000    2.333    0.833    1.750    0.000    5.667 
#    1.500    3.750    0.000    2.000    0.000    0.000 
#    0.000    0.000    0.000    0.000    0.000    0.000 
#
# Total GULP energy -595171.597892 kJ/mol
# GULP energy per Si atom -12399.408289 kJ/mol
# Density = 1.986606 g / cm^3
# Si number density = 19.911378 Si / 1000 Ang^3
#
#
#
# Elastic Constant Matrix: (Units=GPa)
#
#
# Indices 1 2 3 4 5 6 
#
# 1 83.1845 35.4131 53.3435 0.0000 0.0000 0.0000
# 2 35.4131 108.5728 79.5867 0.0000 0.0000 0.0000
# 3 53.3435 79.5867 181.1058 0.0000 0.0000 0.0000
# 4 0.0000 0.0000 0.0000 25.0814 0.0000 0.0000
# 5 0.0000 0.0000 0.0000 0.0000 25.2471 0.0000
# 6 0.0000 0.0000 0.0000 0.0000 0.0000 18.1824
#
#
#
# Elastic Compliance Matrix: (Units=1/GPa)
#
#
# Indices 1 2 3 4 5 6 
#
# 1 0.015261 -0.002482 -0.003404 0.000000 0.000000 0.000000
# 2 -0.002482 0.013991 -0.005417 0.000000 0.000000 0.000000
# 3 -0.003404 -0.005417 0.008905 0.000000 0.000000 0.000000
# 4 0.000000 0.000000 0.000000 0.039870 0.000000 0.000000
# 5 0.000000 0.000000 0.000000 0.000000 0.039608 0.000000
# 6 0.000000 0.000000 0.000000 0.000000 0.000000 0.054998
#
#
# Mechanical properties :
#
#
# Convention : Reuss Voigt Hill
#
# Bulk Modulus (GPa) = 64.31013 78.83886 71.57450
# Shear Modulus (GPa) = 24.94700 27.33683 26.14192
#
# Velocity S-wave (km/s) = 3.54348 3.70932 3.62735
# Velocity P-wave (km/s) = 7.00785 7.61750 7.31902
#
# Compressibility (1/GPa) = 0.01554965
#
# Stress axis : x y z
#
# Youngs Moduli (GPa) = 65.52530 71.47445 112.29773
#
# Poissons Ratio (x) = 0.17743 0.38229
# Poissons Ratio (y) = 0.16266 0.60834
# Poissons Ratio (z) = 0.22306 0.38719
#
# Static dielectric constant tensor:
#      x y z
#    x 3.430830 0.000000 0.000000 
#    y 0.000000 3.681020 0.000000 
#    z 0.000000 0.000000 3.708140 
# 
# 
# High freq. dielectric constant tensor:
#      x y z
#    x 1.771570 0.000000 0.000000 
#    y 0.000000 1.768250 0.000000 
#    z 0.000000 0.000000 1.775910 
# 
# From -- ./inp_files/37078.got.cif
#   From: 2010.03.12/outbox.cif.g09.slc.cpg/sg51_19_cif.got.tgz:37078.got - 2010.04.16 13:43:02.
