data_PCOD8211264
_publ_section_title
;
Structure prediction by ZEFSAII (Michael W. Deem and Ramdas Pophale) SiO2 
 PCOD8211264
Probable space group: P M M A
;
_chemical_formula_sum "Si O2"
_cell_formula_units_Z 64
_cell_length_a 23.019145
_cell_length_b 9.367931
_cell_length_c 17.777848
_cell_angle_alpha 90.000000
_cell_angle_beta 90.000000
_cell_angle_gamma 90.000000
_cell_volume 3833.646468
_symmetry_space_group_name_H-M "P M M A"
_symmetry_group_IT_number 51
_symmetry_cell_setting 'orthorhombic'
loop_
_space_group_symop_operation_xyz
x,y,z
1/2-x,-y,z
1/2+x,-y,-z
-x,y,-z
-x,-y,-z
1/2+x,y,-z
1/2-x,y,z
x,-y,z
loop_
_atom_site_type_symbol
_atom_site_label
_atom_site_fract_x
_atom_site_fract_y
_atom_site_fract_z
Si Si1 0.180791 0.660302 0.584319
Si Si2 0.680989 0.158395 0.553659
Si Si3 0.683081 0.834643 0.271990
Si Si4 0.182767 0.663595 0.996367
Si Si5 0.184199 0.168835 0.278790
Si Si6 0.998917 0.665872 0.087382
Si Si7 0.111467 0.831418 0.875240
Si Si8 0.624821 0.663962 0.849883
O O1 0.250000 0.661272 0.581744
O O2 0.156228 0.500000 0.587616
O O3 0.155446 0.735171 0.509299
O O4 0.159118 0.744507 0.657777
O O5 0.750000 0.150964 0.548100
O O6 0.663822 0.212284 0.637029
O O7 0.655570 0.000000 0.538894
O O8 0.750000 0.797801 0.254144
O O9 0.645971 0.790831 0.199875
O O10 0.675791 0.000000 0.292772
O O11 0.250000 0.691199 0.980017
O O12 0.164826 0.500000 0.978252
O O13 0.145521 0.769144 0.946078
O O14 0.169849 0.697342 0.083252
O O15 0.250000 0.222582 0.264029
O O16 0.140151 0.240899 0.221432
O O17 0.181119 0.000000 0.268978
O O18 0.982854 0.500000 0.096958
O O19 0.060501 0.703665 0.123382
O O20 0.951780 0.761204 0.130536
O O21 0.000000 0.708124 0.000000
O O22 0.105679 0.000000 0.885834
O O23 0.628995 0.500000 0.825272
#
# Coordination Sequence:
#
# PCOD8211264 Si02
#       8
#     8   8   8   8   8   8   8   8
#     4   9  16  25  41  68  97 125 161 200 232 270
#     4   8  14  26  43  63  93 133 165 187 226 285
#     4   9  18  32  47  66  98 134 160 189 237 294
#     4  10  20  34  51  70  96 131 165 195 238 297
#     4   9  18  31  47  71 103 134 162 196 240 290
#     4  10  20  38  57  69  90 125 166 209 250 295
#     4  11  22  34  51  74  98 124 162 208 250 290
#     4  10  20  34  52  71  92 125 166 205 244 287
#
# _framework density 16.694288
#
# number of rings (size 3 to 8) (size 9 to 14) (size 15 to 20)
#    0.000    2.500    1.250    2.250    0.000    5.750 
#    0.000    2.500    0.000    0.000    0.000    0.875 
#    0.000    7.000    0.000    0.000    0.000    0.000 
#
# Total GULP energy -793632.370510 kJ/mol
# GULP energy per Si atom -12400.505789 kJ/mol
# Density = 1.665629 g / cm^3
# Si number density = 16.694288 Si / 1000 Ang^3
#
#
#
# Elastic Constant Matrix: (Units=GPa)
#
#
# Indices 1 2 3 4 5 6 
#
# 1 59.5009 33.5533 36.9549 0.0000 0.0000 0.0000
# 2 33.5533 77.2199 60.3854 0.0000 0.0000 0.0000
# 3 36.9549 60.3854 113.8550 0.0000 0.0000 0.0000
# 4 0.0000 0.0000 0.0000 25.4568 0.0000 0.0000
# 5 0.0000 0.0000 0.0000 0.0000 8.0782 0.0000
# 6 0.0000 0.0000 0.0000 0.0000 0.0000 24.1250
#
#
#
# Elastic Compliance Matrix: (Units=1/GPa)
#
#
# Indices 1 2 3 4 5 6 
#
# 1 0.023149 -0.007147 -0.003723 0.000000 0.000000 0.000000
# 2 -0.007147 0.024334 -0.010586 0.000000 0.000000 0.000000
# 3 -0.003723 -0.010586 0.015606 0.000000 0.000000 0.000000
# 4 0.000000 0.000000 0.000000 0.039282 0.000000 0.000000
# 5 0.000000 0.000000 0.000000 0.000000 0.123789 0.000000
# 6 0.000000 0.000000 0.000000 0.000000 0.000000 0.041451
#
#
# Mechanical properties :
#
#
# Convention : Reuss Voigt Hill
#
# Bulk Modulus (GPa) = 49.56314 56.92921 53.24617
# Shear Modulus (GPa) = 15.76044 19.51082 17.63563
#
# Velocity S-wave (km/s) = 3.07589 3.42235 3.25374
# Velocity P-wave (km/s) = 6.50907 7.05632 6.78821
#
# Compressibility (1/GPa) = 0.02017628
#
# Stress axis : x y z
#
# Youngs Moduli (GPa) = 43.19794 41.09481 64.07754
#
# Poissons Ratio (x) = 0.29372 0.23856
# Poissons Ratio (y) = 0.30875 0.67833
# Poissons Ratio (z) = 0.16083 0.43504
#
# Static dielectric constant tensor:
#      x y z
#    x 2.910260 0.000000 0.000000 
#    y 0.000000 3.196650 0.000000 
#    z 0.000000 0.000000 3.210390 
# 
# 
# High freq. dielectric constant tensor:
#      x y z
#    x 1.606740 0.000000 0.000000 
#    y 0.000000 1.645540 0.000000 
#    z 0.000000 0.000000 1.647950 
# 
# From -- ./inp_files/30835.got.cif
#   From: 2010.03.12/outbox.cif.g09.slc.cpg/sg51_16_cif.got.tgz:30835.got - 2010.04.16 13:43:02.
