data_PCOD8211835
_publ_section_title
;
Structure prediction by ZEFSAII (Michael W. Deem and Ramdas Pophale) SiO2 
 PCOD8211835
Probable space group: P M M A
;
_chemical_formula_sum "Si O2"
_cell_formula_units_Z 64
_cell_length_a 23.668404
_cell_length_b 8.813951
_cell_length_c 14.667860
_cell_angle_alpha 90.000000
_cell_angle_beta 90.000000
_cell_angle_gamma 90.000000
_cell_volume 3059.893856
_symmetry_space_group_name_H-M "P M M A"
_symmetry_group_IT_number 51
_symmetry_cell_setting 'orthorhombic'
loop_
_space_group_symop_operation_xyz
x,y,z
1/2-x,-y,z
1/2+x,-y,-z
-x,y,-z
-x,-y,-z
1/2+x,y,-z
1/2-x,y,z
x,-y,z
loop_
_atom_site_type_symbol
_atom_site_label
_atom_site_fract_x
_atom_site_fract_y
_atom_site_fract_z
Si Si1 0.315204 0.176336 0.359242
Si Si2 0.025613 0.324777 0.594596
Si Si3 0.688131 0.670613 0.268792
Si Si4 0.651663 0.670603 0.460185
Si Si5 0.624732 0.678915 0.806281
Si Si6 0.006910 0.819779 0.217255
Si Si7 0.314855 0.820488 0.027461
Si Si8 0.109049 0.176928 0.863483
O O1 0.250000 0.222320 0.346264
O O2 0.334652 0.209107 0.461982
O O3 0.354127 0.275728 0.293729
O O4 0.324831 0.000000 0.337935
O O5 0.008728 0.500000 0.610325
O O6 0.091973 0.300263 0.587976
O O7 0.000000 0.263562 0.500000
O O8 0.000488 0.230211 0.678211
O O9 0.750000 0.696595 0.225741
O O10 0.666165 0.500000 0.248123
O O11 0.694980 0.694225 0.377374
O O12 0.645012 0.789483 0.226506
O O13 0.655188 0.500000 0.501240
O O14 0.620490 0.500000 0.814104
O O15 0.563216 0.749108 0.825725
O O16 0.669993 0.741854 0.877779
O O17 0.954615 0.761696 0.153658
O O18 0.011563 0.000000 0.214840
O O19 0.250000 0.779750 0.001897
O O20 0.321768 0.000000 0.038823
O O21 0.358140 0.753467 0.951005
O O22 0.106033 0.000000 0.878235
#
# Coordination Sequence:
#
# PCOD8211835 Si02
#       8
#     8   8   8   8   8   8   8   8
#     4  11  24  41  62  90 124 162 207 261 317 372
#     4  10  20  35  57  85 119 163 212 258 305 358
#     4  10  20  34  55  85 122 164 205 247 298 357
#     4  10  20  35  56  85 124 166 207 252 304 366
#     4  12  26  43  65  91 122 161 206 258 314 375
#     4  11  23  40  63  92 126 163 206 256 310 370
#     4  10  22  43  69  95 125 161 203 253 310 371
#     4  10  22  40  64  93 125 163 204 250 306 364
#
# _framework density 20.915756999999999
#
# number of rings (size 3 to 8) (size 9 to 14) (size 15 to 20)
#    0.000    1.500    1.250    3.750    0.000    7.750 
#    0.000    2.500    0.000    0.000    0.000    0.000 
#    0.000    0.000    0.000    0.000    0.000    0.000 
#
# Total GULP energy -793672.971441 kJ/mol
# GULP energy per Si atom -12401.140179 kJ/mol
# Density = 2.086815 g / cm^3
# Si number density = 20.915757 Si / 1000 Ang^3
#
#
#
# Elastic Constant Matrix: (Units=GPa)
#
#
# Indices 1 2 3 4 5 6 
#
# 1 108.2525 37.5196 34.2784 0.0000 0.0000 0.0000
# 2 37.5196 54.0144 27.3341 0.0000 0.0000 0.0000
# 3 34.2784 27.3341 80.7378 0.0000 0.0000 0.0000
# 4 0.0000 0.0000 0.0000 27.4707 0.0000 0.0000
# 5 0.0000 0.0000 0.0000 0.0000 36.1956 0.0000
# 6 0.0000 0.0000 0.0000 0.0000 0.0000 23.3097
#
#
#
# Elastic Compliance Matrix: (Units=1/GPa)
#
#
# Indices 1 2 3 4 5 6 
#
# 1 0.012707 -0.007357 -0.002904 0.000000 0.000000 0.000000
# 2 -0.007357 0.026601 -0.005882 0.000000 0.000000 0.000000
# 3 -0.002904 -0.005882 0.015610 0.000000 0.000000 0.000000
# 4 0.000000 0.000000 0.000000 0.036402 0.000000 0.000000
# 5 0.000000 0.000000 0.000000 0.000000 0.027628 0.000000
# 6 0.000000 0.000000 0.000000 0.000000 0.000000 0.042901
#
#
# Mechanical properties :
#
#
# Convention : Reuss Voigt Hill
#
# Bulk Modulus (GPa) = 44.18698 49.02988 46.60843
# Shear Modulus (GPa) = 24.79183 26.98673 25.88928
#
# Velocity S-wave (km/s) = 3.44658 3.59591 3.52204
# Velocity P-wave (km/s) = 6.08363 6.38226 6.23474
#
# Compressibility (1/GPa) = 0.02263110
#
# Stress axis : x y z
#
# Youngs Moduli (GPa) = 78.69566 37.59307 64.06036
#
# Poissons Ratio (x) = 0.27657 0.18605
# Poissons Ratio (y) = 0.57896 0.37682
# Poissons Ratio (z) = 0.22855 0.22113
#
# Static dielectric constant tensor:
#      x y z
#    x 4.085010 0.000000 0.000000 
#    y 0.000000 3.626010 0.000000 
#    z 0.000000 0.000000 3.735830 
# 
# 
# High freq. dielectric constant tensor:
#      x y z
#    x 1.836600 0.000000 0.000000 
#    y 0.000000 1.803330 0.000000 
#    z 0.000000 0.000000 1.817470 
# 
# From -- ./inp_files/26189.got.cif
#   From: 2010.03.12/outbox.cif.g09.slc.cpg/sg51_14_cif.got.tgz:26189.got - 2010.04.16 13:43:02.
