data_PCOD8211743
_publ_section_title
;
Structure prediction by ZEFSAII (Michael W. Deem and Ramdas Pophale) SiO2 
 PCOD8211743
Probable space group: P M M A
;
_chemical_formula_sum "Si O2"
_cell_formula_units_Z 48
_cell_length_a 8.921323
_cell_length_b 20.146377
_cell_length_c 14.437624
_cell_angle_alpha 90.000000
_cell_angle_beta 90.000000
_cell_angle_gamma 90.000000
_cell_volume 2594.907895
_symmetry_space_group_name_H-M "P M M A"
_symmetry_group_IT_number 51
_symmetry_cell_setting 'orthorhombic'
loop_
_space_group_symop_operation_xyz
x,y,z
1/2-x,-y,z
1/2+x,-y,-z
-x,y,-z
-x,-y,-z
1/2+x,y,-z
1/2-x,y,z
x,-y,z
loop_
_atom_site_type_symbol
_atom_site_label
_atom_site_fract_x
_atom_site_fract_y
_atom_site_fract_z
Si Si1 0.573695 0.226514 0.905139
Si Si2 0.072402 0.181251 0.722081
Si Si3 0.426363 0.306550 0.599287
Si Si4 0.422076 0.574368 0.725675
Si Si5 0.923439 0.922305 0.595539
Si Si6 0.075243 0.619716 0.093937
O O1 0.750000 0.213272 0.908087
O O2 0.499344 0.185405 0.823021
O O3 0.534793 0.303543 0.889764
O O4 0.500000 0.200921 0.000000
O O5 0.250000 0.176595 0.730982
O O6 0.022389 0.244344 0.661079
O O7 0.007871 0.114523 0.677915
O O8 0.500000 0.300496 0.500000
O O9 0.250000 0.307644 0.584745
O O10 0.483139 0.373850 0.649404
O O11 0.250000 0.591494 0.749244
O O12 0.439141 0.500000 0.685137
O O13 0.514849 0.578278 0.819920
O O14 0.750000 0.901300 0.591625
O O15 0.000000 0.900418 0.500000
O O16 0.943102 0.000000 0.613676
O O17 0.250000 0.607468 0.084304
O O18 0.000000 0.593155 0.000000
#
# Coordination Sequence:
#
# PCOD8211743 Si02
#       6
#     8   8   8   8   8   8
#     4  10  20  34  55  83 113 145 181 226 276 329
#     4  11  21  35  58  85 114 148 185 229 275 326
#     4  10  22  37  54  78 106 138 180 227 275 324
#     4  10  21  38  56  74 103 142 182 227 278 331
#     4  10  21  37  57  84 119 155 191 230 273 326
#     4  10  20  34  55  80 107 139 176 223 275 331
#
# _framework density 18.497767
#
# number of rings (size 3 to 8) (size 9 to 14) (size 15 to 20)
#    0.000    1.833    1.667    2.500    0.000    6.667 
#    0.000    0.000    0.000    0.500    0.000    0.000 
#    0.000    0.000    0.000    0.000    0.000    0.000 
#
# Total GULP energy -595451.179652 kJ/mol
# GULP energy per Si atom -12405.232909 kJ/mol
# Density = 1.845566 g / cm^3
# Si number density = 18.497767 Si / 1000 Ang^3
#
#
#
# Elastic Constant Matrix: (Units=GPa)
#
#
# Indices 1 2 3 4 5 6 
#
# 1 81.6701 35.9894 53.0624 0.0000 0.0000 0.0000
# 2 35.9894 67.5500 49.3965 0.0000 0.0000 0.0000
# 3 53.0624 49.3965 143.2592 0.0000 0.0000 0.0000
# 4 0.0000 0.0000 0.0000 30.3304 0.0000 0.0000
# 5 0.0000 0.0000 0.0000 0.0000 39.4485 0.0000
# 6 0.0000 0.0000 0.0000 0.0000 0.0000 19.5238
#
#
#
# Elastic Compliance Matrix: (Units=1/GPa)
#
#
# Indices 1 2 3 4 5 6 
#
# 1 0.017915 -0.006274 -0.004472 0.000000 0.000000 0.000000
# 2 -0.006274 0.021993 -0.005259 0.000000 0.000000 0.000000
# 3 -0.004472 -0.005259 0.010450 0.000000 0.000000 0.000000
# 4 0.000000 0.000000 0.000000 0.032970 0.000000 0.000000
# 5 0.000000 0.000000 0.000000 0.000000 0.025350 0.000000
# 6 0.000000 0.000000 0.000000 0.000000 0.000000 0.051220
#
#
# Mechanical properties :
#
#
# Convention : Reuss Voigt Hill
#
# Bulk Modulus (GPa) = 54.50705 63.26400 58.88553
# Shear Modulus (GPa) = 25.24948 28.12926 26.68937
#
# Velocity S-wave (km/s) = 3.69860 3.90383 3.80260
# Velocity P-wave (km/s) = 6.91161 7.38884 7.15420
#
# Compressibility (1/GPa) = 0.01834625
#
# Stress axis : x y z
#
# Youngs Moduli (GPa) = 55.81934 45.46995 95.69215
#
# Poissons Ratio (x) = 0.28530 0.42795
# Poissons Ratio (y) = 0.35024 0.50326
# Poissons Ratio (z) = 0.24963 0.23913
#
# Static dielectric constant tensor:
#      x y z
#    x 3.418750 0.000000 0.000000 
#    y 0.000000 3.321770 0.000000 
#    z 0.000000 0.000000 3.371630 
# 
# 
# High freq. dielectric constant tensor:
#      x y z
#    x 1.726250 0.000000 0.000000 
#    y 0.000000 1.704190 0.000000 
#    z 0.000000 0.000000 1.720450 
# 
# From -- ./inp_files/21052.got.cif
#   From: 2010.03.12/outbox.cif.g09.slc.cpg/sg51_11_cif.got.tgz:21052.got - 2010.04.16 13:43:02.
