data_PCOD8211730
_publ_section_title
;
Structure prediction by ZEFSAII (Michael W. Deem and Ramdas Pophale) SiO2 
 PCOD8211730
Probable space group: P M M A
;
_chemical_formula_sum "Si O2"
_cell_formula_units_Z 48
_cell_length_a 8.901568
_cell_length_b 9.902626
_cell_length_c 29.149927
_cell_angle_alpha 90.000000
_cell_angle_beta 90.000000
_cell_angle_gamma 90.000000
_cell_volume 2569.533963
_symmetry_space_group_name_H-M "P M M A"
_symmetry_group_IT_number 51
_symmetry_cell_setting 'orthorhombic'
loop_
_space_group_symop_operation_xyz
x,y,z
1/2-x,-y,z
1/2+x,-y,-z
-x,y,-z
-x,-y,-z
1/2+x,y,-z
1/2-x,y,z
x,-y,z
loop_
_atom_site_type_symbol
_atom_site_label
_atom_site_fract_x
_atom_site_fract_y
_atom_site_fract_z
Si Si1 0.072588 0.342291 0.196357
Si Si2 0.073315 0.265692 0.895954
Si Si3 0.424028 0.843639 0.379903
Si Si4 0.576388 0.000000 0.049361
Si Si5 0.573682 0.653863 0.452804
Si Si6 0.572090 0.148906 0.723190
Si Si7 0.426321 0.500000 0.048903
O O1 0.250000 0.324925 0.187611
O O2 0.029385 0.500000 0.200054
O O3 0.018067 0.266134 0.242364
O O4 0.980235 0.268930 0.156371
O O5 0.250000 0.298232 0.898894
O O6 0.975918 0.371277 0.923349
O O7 0.030606 0.125441 0.919339
O O8 0.250000 0.803928 0.385168
O O9 0.522166 0.749846 0.412118
O O10 0.482228 0.816226 0.328134
O O11 0.448758 0.000000 0.392995
O O12 0.750000 0.000000 0.037771
O O13 0.500000 0.000000 0.000000
O O14 0.500000 0.703876 0.500000
O O15 0.750000 0.666422 0.458763
O O16 0.524830 0.500000 0.441722
O O17 0.750000 0.141689 0.722742
O O18 0.510332 0.000000 0.737970
O O19 0.250000 0.500000 0.042472
O O20 0.500000 0.500000 0.000000
#
# Coordination Sequence:
#
# PCOD8211730 Si02
#       7
#     8   8   8   4   8   8   4
#     4  10  20  34  54  83 114 144 186 230 271 324
#     4  11  23  40  59  83 116 150 184 227 276 328
#     4   9  18  34  56  82 112 146 186 231 279 333
#     4  10  24  42  60  84 112 144 184 226 271 328
#     4  10  21  36  54  78 109 146 189 235 282 336
#     4   8  16  32  54  80 110 145 186 231 277 326
#     4  12  24  40  62  88 114 146 186 226 273 330
#
# _framework density 18.680430000000001
#
# number of rings (size 3 to 8) (size 9 to 14) (size 15 to 20)
#    0.000    2.167    0.833    3.250    1.167    5.000 
#    0.000    2.500    0.000    1.000    0.000    0.000 
#    0.000    0.000    0.000    0.000    0.000    0.000 
#
# Total GULP energy -595171.945375 kJ/mol
# GULP energy per Si atom -12399.415529 kJ/mol
# Density = 1.863791 g / cm^3
# Si number density = 18.680430 Si / 1000 Ang^3
#
#
#
# Elastic Constant Matrix: (Units=GPa)
#
#
# Indices 1 2 3 4 5 6 
#
# 1 71.7819 46.5415 47.1004 0.0000 0.0000 0.0000
# 2 46.5415 130.5475 85.2045 0.0000 0.0000 0.0000
# 3 47.1004 85.2045 153.4272 0.0000 0.0000 0.0000
# 4 0.0000 0.0000 0.0000 38.0411 0.0000 0.0000
# 5 0.0000 0.0000 0.0000 0.0000 33.2142 0.0000
# 6 0.0000 0.0000 0.0000 0.0000 0.0000 30.5005
#
#
#
# Elastic Compliance Matrix: (Units=1/GPa)
#
#
# Indices 1 2 3 4 5 6 
#
# 1 0.019110 -0.004680 -0.003267 0.000000 0.000000 0.000000
# 2 -0.004680 0.013161 -0.005872 0.000000 0.000000 0.000000
# 3 -0.003267 -0.005872 0.010782 0.000000 0.000000 0.000000
# 4 0.000000 0.000000 0.000000 0.026287 0.000000 0.000000
# 5 0.000000 0.000000 0.000000 0.000000 0.030108 0.000000
# 6 0.000000 0.000000 0.000000 0.000000 0.000000 0.032786
#
#
# Mechanical properties :
#
#
# Convention : Reuss Voigt Hill
#
# Bulk Modulus (GPa) = 64.87981 79.27218 72.07600
# Shear Modulus (GPa) = 30.30101 32.14517 31.22309
#
# Velocity S-wave (km/s) = 4.03187 4.15275 4.09275
# Velocity P-wave (km/s) = 7.51541 8.09455 7.81035
#
# Compressibility (1/GPa) = 0.01541312
#
# Stress axis : x y z
#
# Youngs Moduli (GPa) = 52.32993 75.98083 92.74878
#
# Poissons Ratio (x) = 0.35561 0.30303
# Poissons Ratio (y) = 0.24492 0.54464
# Poissons Ratio (z) = 0.17097 0.44617
#
# Static dielectric constant tensor:
#      x y z
#    x 3.257600 0.000000 0.000000 
#    y 0.000000 3.562910 0.000000 
#    z 0.000000 0.000000 3.537230 
# 
# 
# High freq. dielectric constant tensor:
#      x y z
#    x 1.709640 0.000000 0.000000 
#    y 0.000000 1.733670 0.000000 
#    z 0.000000 0.000000 1.736180 
# 
# From -- ./inp_files/37211.got.cif
#   From: 2010.03.12/outbox.cif.g09.slc.cpg/sg51_19_cif.got.tgz:37211.got - 2010.04.16 13:43:02.
