data_PCOD8211666
_publ_section_title
;
Structure prediction by ZEFSAII (Michael W. Deem and Ramdas Pophale) SiO2 
 PCOD8211666
Probable space group: P M M A
;
_chemical_formula_sum "Si O2"
_cell_formula_units_Z 64
_cell_length_a 27.954113
_cell_length_b 9.363868
_cell_length_c 12.914178
_cell_angle_alpha 90.000000
_cell_angle_beta 90.000000
_cell_angle_gamma 90.000000
_cell_volume 3380.397466
_symmetry_space_group_name_H-M "P M M A"
_symmetry_group_IT_number 51
_symmetry_cell_setting 'orthorhombic'
loop_
_space_group_symop_operation_xyz
x,y,z
1/2-x,-y,z
1/2+x,-y,-z
-x,y,-z
-x,-y,-z
1/2+x,y,-z
1/2-x,y,z
x,-y,z
loop_
_atom_site_type_symbol
_atom_site_label
_atom_site_fract_x
_atom_site_fract_y
_atom_site_fract_z
Si Si1 0.048172 0.164246 0.556892
Si Si2 0.350146 0.834911 0.473304
Si Si3 0.804016 0.830258 0.737786
Si Si4 0.805904 0.664542 0.339210
Si Si5 0.471767 0.834266 0.103721
Si Si6 0.040075 0.664541 0.760469
Si Si7 0.862759 0.831835 0.934433
Si Si8 0.138967 0.663850 0.862595
O O1 0.092679 0.185837 0.479231
O O2 0.057410 0.263890 0.654745
O O3 0.000000 0.213528 0.500000
O O4 0.044208 0.000000 0.593565
O O5 0.332590 0.774319 0.362769
O O6 0.322767 0.752120 0.562431
O O7 0.335966 0.000000 0.485412
O O8 0.750000 0.770415 0.735087
O O9 0.830001 0.774052 0.841029
O O10 0.804383 0.000000 0.738923
O O11 0.750000 0.686084 0.322606
O O12 0.819804 0.500000 0.357916
O O13 0.832247 0.722348 0.236650
O O14 0.492913 0.742657 0.197794
O O15 0.417005 0.789840 0.091292
O O16 0.477404 0.000000 0.132734
O O17 0.500000 0.796052 0.000000
O O18 0.027935 0.500000 0.739173
O O19 0.082407 0.681323 0.843641
O O20 0.857455 0.000000 0.951723
O O21 0.845405 0.755790 0.038795
O O22 0.152636 0.500000 0.884193
#
# Coordination Sequence:
#
# PCOD8211666 Si02
#       8
#     8   8   8   8   8   8   8   8
#     4  10  22  37  57  85 116 149 184 226 279 339
#     4  10  20  36  60  86 112 145 186 231 279 337
#     4   9  19  36  57  82 112 144 183 236 288 328
#     4  10  21  38  59  82 111 148 187 231 286 340
#     4  10  20  34  54  80 109 144 186 229 271 327
#     4  11  22  36  56  80 113 151 185 227 280 337
#     4  10  21  36  58  83 110 148 192 234 279 334
#     4  10  21  37  55  80 115 149 183 229 283 337
#
# _framework density 18.932683999999998
#
# number of rings (size 3 to 8) (size 9 to 14) (size 15 to 20)
#    0.000    2.000    2.500    0.750    1.750    3.250 
#    0.000    0.625    0.000    0.750    0.000    0.000 
#    0.000    0.000    0.000    0.000    0.000    0.000 
#
# Total GULP energy -793850.352164 kJ/mol
# GULP energy per Si atom -12403.911753 kJ/mol
# Density = 1.888959 g / cm^3
# Si number density = 18.932684 Si / 1000 Ang^3
#
#
#
# Elastic Constant Matrix: (Units=GPa)
#
#
# Indices 1 2 3 4 5 6 
#
# 1 103.3786 30.7753 59.3005 0.0000 0.0000 0.0000
# 2 30.7753 55.2040 52.1011 0.0000 0.0000 0.0000
# 3 59.3005 52.1011 152.3321 0.0000 0.0000 0.0000
# 4 0.0000 0.0000 0.0000 2.6192 0.0000 0.0000
# 5 0.0000 0.0000 0.0000 0.0000 33.2699 0.0000
# 6 0.0000 0.0000 0.0000 0.0000 0.0000 16.5932
#
#
#
# Elastic Compliance Matrix: (Units=1/GPa)
#
#
# Indices 1 2 3 4 5 6 
#
# 1 0.012928 -0.003629 -0.003792 0.000000 0.000000 0.000000
# 2 -0.003629 0.027768 -0.008085 0.000000 0.000000 0.000000
# 3 -0.003792 -0.008085 0.010806 0.000000 0.000000 0.000000
# 4 0.000000 0.000000 0.000000 0.381800 0.000000 0.000000
# 5 0.000000 0.000000 0.000000 0.000000 0.030057 0.000000
# 6 0.000000 0.000000 0.000000 0.000000 0.000000 0.060266
#
#
# Mechanical properties :
#
#
# Convention : Reuss Voigt Hill
#
# Bulk Modulus (GPa) = 48.79995 66.14094 57.47045
# Shear Modulus (GPa) = 8.90526 21.74564 15.32545
#
# Velocity S-wave (km/s) = 2.17114 3.39274 2.84821
# Velocity P-wave (km/s) = 5.66715 7.09635 6.42164
#
# Compressibility (1/GPa) = 0.02049182
#
# Stress axis : x y z
#
# Youngs Moduli (GPa) = 77.34865 36.01293 92.54303
#
# Poissons Ratio (x) = 0.13068 0.35090
# Poissons Ratio (y) = 0.28068 0.74817
# Poissons Ratio (z) = 0.29328 0.29115
#
# Static dielectric constant tensor:
#      x y z
#    x 3.589440 0.000000 0.000000 
#    y 0.000000 3.273390 0.000000 
#    z 0.000000 0.000000 3.473850 
# 
# 
# High freq. dielectric constant tensor:
#      x y z
#    x 1.743060 0.000000 0.000000 
#    y 0.000000 1.714180 0.000000 
#    z 0.000000 0.000000 1.740000 
# 
# From -- ./inp_files/19537.got.cif
#   From: 2010.03.12/outbox.cif.g09.slc.cpg/sg51_10_cif.got.tgz:19537.got - 2010.04.16 13:43:02.
