data_PCOD8211343
_publ_section_title
;
Structure prediction by ZEFSAII (Michael W. Deem and Ramdas Pophale) SiO2 
 PCOD8211343
Probable space group: P M M A
;
_chemical_formula_sum "Si O2"
_cell_formula_units_Z 56
_cell_length_a 14.536560
_cell_length_b 9.402044
_cell_length_c 21.193160
_cell_angle_alpha 90.000000
_cell_angle_beta 90.000000
_cell_angle_gamma 90.000000
_cell_volume 2896.540741
_symmetry_space_group_name_H-M "P M M A"
_symmetry_group_IT_number 51
_symmetry_cell_setting 'orthorhombic'
loop_
_space_group_symop_operation_xyz
x,y,z
1/2-x,-y,z
1/2+x,-y,-z
-x,y,-z
-x,-y,-z
1/2+x,y,-z
1/2-x,y,z
x,-y,z
loop_
_atom_site_type_symbol
_atom_site_label
_atom_site_fract_x
_atom_site_fract_y
_atom_site_fract_z
Si Si1 0.472498 0.333203 0.222611
Si Si2 0.903714 0.160301 0.535370
Si Si3 0.146568 0.831775 0.979431
Si Si4 0.642535 0.335006 0.654739
Si Si5 0.973000 0.831711 0.902317
Si Si6 0.147890 0.330565 0.706272
Si Si7 0.148120 0.347565 0.572236
O O1 0.471818 0.500000 0.207194
O O2 0.399734 0.297224 0.277529
O O3 0.443317 0.247285 0.161084
O O4 0.574406 0.278085 0.242189
O O5 0.907983 0.241301 0.601564
O O6 0.839479 0.242594 0.486510
O O7 0.000000 0.164698 0.500000
O O8 0.868380 0.000000 0.546164
O O9 0.250000 0.766343 0.970600
O O10 0.075648 0.782387 0.924530
O O11 0.153237 0.000000 0.977713
O O12 0.103090 0.785308 0.046247
O O13 0.750000 0.296357 0.655685
O O14 0.626384 0.500000 0.638125
O O15 0.970970 0.000000 0.891271
O O16 0.250000 0.268087 0.721992
O O17 0.149294 0.500000 0.706178
O O18 0.106250 0.281771 0.637223
O O19 0.250000 0.383137 0.595709
O O20 0.100867 0.500000 0.552908
#
# Coordination Sequence:
#
# PCOD8211343 Si02
#       7
#     8   8   8   8   8   8   8
#     4  10  20  34  52  74 104 138 168 207 256 298
#     4  11  23  35  49  73 102 129 162 212 272 321
#     4   8  15  31  54  77 103 135 169 205 244 289
#     4  10  22  39  56  74  99 137 183 219 251 305
#     4   9  18  32  52  78 103 131 171 210 243 292
#     4   8  15  29  49  72  97 129 170 209 249 307
#     4   9  17  31  52  73  91 119 164 211 253 305
#
# _framework density 19.333407000000001
#
# number of rings (size 3 to 8) (size 9 to 14) (size 15 to 20)
#    0.000    2.714    0.000    3.429    0.000    6.286 
#    0.000    2.143    0.000    1.714    0.000    0.000 
#    0.000    0.000    0.000    0.000    0.000    0.000 
#
# Total GULP energy -693780.393266 kJ/mol
# GULP energy per Si atom -12388.935594 kJ/mol
# Density = 1.928940 g / cm^3
# Si number density = 19.333407 Si / 1000 Ang^3
#
#
#
# Elastic Constant Matrix: (Units=GPa)
#
#
# Indices 1 2 3 4 5 6 
#
# 1 77.1137 16.8503 18.3359 0.0000 0.0000 0.0000
# 2 16.8503 60.4443 44.9159 0.0000 0.0000 0.0000
# 3 18.3359 44.9159 113.6574 0.0000 0.0000 0.0000
# 4 0.0000 0.0000 0.0000 30.5792 0.0000 0.0000
# 5 0.0000 0.0000 0.0000 0.0000 23.3599 0.0000
# 6 0.0000 0.0000 0.0000 0.0000 0.0000 3.4129
#
#
#
# Elastic Compliance Matrix: (Units=1/GPa)
#
#
# Indices 1 2 3 4 5 6 
#
# 1 0.013890 -0.003125 -0.001006 0.000000 0.000000 0.000000
# 2 -0.003125 0.024125 -0.009030 0.000000 0.000000 0.000000
# 3 -0.001006 -0.009030 0.012529 0.000000 0.000000 0.000000
# 4 0.000000 0.000000 0.000000 0.032702 0.000000 0.000000
# 5 0.000000 0.000000 0.000000 0.000000 0.042808 0.000000
# 6 0.000000 0.000000 0.000000 0.000000 0.000000 0.293005
#
#
# Mechanical properties :
#
#
# Convention : Reuss Voigt Hill
#
# Bulk Modulus (GPa) = 41.28252 45.71329 43.49791
# Shear Modulus (GPa) = 11.02645 22.87795 16.95220
#
# Velocity S-wave (km/s) = 2.39075 3.44370 2.96435
# Velocity P-wave (km/s) = 5.38704 6.28555 5.85356
#
# Compressibility (1/GPa) = 0.02422333
#
# Stress axis : x y z
#
# Youngs Moduli (GPa) = 71.99511 41.45025 79.81373
#
# Poissons Ratio (x) = 0.12951 0.08029
# Poissons Ratio (y) = 0.22495 0.72071
# Poissons Ratio (z) = 0.07243 0.37429
#
# Static dielectric constant tensor:
#      x y z
#    x 3.830750 0.000000 0.000000 
#    y 0.000000 3.190060 0.000000 
#    z 0.000000 0.000000 3.478900 
# 
# 
# High freq. dielectric constant tensor:
#      x y z
#    x 1.760920 0.000000 0.000000 
#    y 0.000000 1.710560 0.000000 
#    z 0.000000 0.000000 1.749930 
# 
# From -- ./inp_files/33284.got.cif
#   From: 2010.03.12/outbox.cif.g09.slc.cpg/sg51_17_cif.got.tgz:33284.got - 2010.04.16 13:43:02.
