data_PCOD8211191
_publ_section_title
;
Structure prediction by ZEFSAII (Michael W. Deem and Ramdas Pophale) SiO2 
 PCOD8211191
Probable space group: P M M A
;
_chemical_formula_sum "Si O2"
_cell_formula_units_Z 64
_cell_length_a 14.584335
_cell_length_b 9.466317
_cell_length_c 24.360925
_cell_angle_alpha 90.000000
_cell_angle_beta 90.000000
_cell_angle_gamma 90.000000
_cell_volume 3363.267804
_symmetry_space_group_name_H-M "P M M A"
_symmetry_group_IT_number 51
_symmetry_cell_setting 'orthorhombic'
loop_
_space_group_symop_operation_xyz
x,y,z
1/2-x,-y,z
1/2+x,-y,-z
-x,y,-z
-x,-y,-z
1/2+x,y,-z
1/2-x,y,z
x,-y,z
loop_
_atom_site_type_symbol
_atom_site_label
_atom_site_fract_x
_atom_site_fract_y
_atom_site_fract_z
Si Si1 0.350872 0.846078 0.891489
Si Si2 0.010768 0.662205 0.372969
Si Si3 0.494469 0.333052 0.061608
Si Si4 0.646725 0.668096 0.847880
Si Si5 0.144992 0.662321 0.469920
Si Si6 0.475480 0.661650 0.251988
Si Si7 0.350552 0.156238 0.762223
Si Si8 0.856126 0.834104 0.421948
O O1 0.250000 0.815549 0.916132
O O2 0.415671 0.719154 0.908113
O O3 0.345323 0.850886 0.826951
O O4 0.385975 0.000000 0.912836
O O5 0.979243 0.500000 0.380994
O O6 0.920899 0.762491 0.376061
O O7 0.083975 0.708734 0.418444
O O8 0.062366 0.678814 0.314034
O O9 0.497556 0.500000 0.060275
O O10 0.405144 0.282462 0.096258
O O11 0.500000 0.270699 0.000000
O O12 0.750000 0.730695 0.848716
O O13 0.651135 0.500000 0.844924
O O14 0.593435 0.727735 0.793710
O O15 0.250000 0.684523 0.452522
O O16 0.126147 0.500000 0.486972
O O17 0.118007 0.761907 0.520349
O O18 0.491406 0.500000 0.235535
O O19 0.574325 0.732208 0.254984
O O20 0.250000 0.201277 0.739269
O O21 0.375545 0.000000 0.739088
O O22 0.750000 0.805469 0.406687
O O23 0.876670 0.000000 0.425930
#
# Coordination Sequence:
#
# PCOD8211191 Si02
#       8
#     8   8   8   8   8   8   8   8
#     4   9  18  33  53  76 103 136 172 211 260 316
#     4  10  21  34  51  78 107 134 172 220 265 313
#     4  10  20  33  53  82 111 140 177 220 266 315
#     4   9  18  34  54  75 104 141 178 217 262 311
#     4   9  18  34  55  77 104 137 172 215 266 314
#     4  10  20  34  53  77 103 136 179 221 261 310
#     4   9  18  33  53  75 100 133 170 210 261 317
#     4  10  21  36  54  77 105 139 177 213 256 315
#
# _framework density 19.029112999999999
#
# number of rings (size 3 to 8) (size 9 to 14) (size 15 to 20)
#    0.000    2.500    1.250    1.500    0.000    5.500 
#    0.000    7.500    0.000    1.500    0.000    1.750 
#    0.000    0.000    0.000    0.000    0.000    0.000 
#
# Total GULP energy -793250.304998 kJ/mol
# GULP energy per Si atom -12394.536016 kJ/mol
# Density = 1.898580 g / cm^3
# Si number density = 19.029113 Si / 1000 Ang^3
#
#
#
# Elastic Constant Matrix: (Units=GPa)
#
#
# Indices 1 2 3 4 5 6 
#
# 1 108.1764 31.9568 51.1254 0.0000 0.0000 0.0000
# 2 31.9568 44.0719 28.5065 0.0000 0.0000 0.0000
# 3 51.1254 28.5065 99.5940 0.0000 0.0000 0.0000
# 4 0.0000 0.0000 0.0000 11.5303 0.0000 0.0000
# 5 0.0000 0.0000 0.0000 0.0000 13.6030 0.0000
# 6 0.0000 0.0000 0.0000 0.0000 0.0000 57.3385
#
#
#
# Elastic Compliance Matrix: (Units=1/GPa)
#
#
# Indices 1 2 3 4 5 6 
#
# 1 0.013591 -0.006556 -0.005100 0.000000 0.000000 0.000000
# 2 -0.006556 0.031008 -0.005510 0.000000 0.000000 0.000000
# 3 -0.005100 -0.005510 0.014236 0.000000 0.000000 0.000000
# 4 0.000000 0.000000 0.000000 0.086728 0.000000 0.000000
# 5 0.000000 0.000000 0.000000 0.000000 0.073513 0.000000
# 6 0.000000 0.000000 0.000000 0.000000 0.000000 0.017440
#
#
# Mechanical properties :
#
#
# Convention : Reuss Voigt Hill
#
# Bulk Modulus (GPa) = 40.81191 52.77997 46.79594
# Shear Modulus (GPa) = 17.92003 25.84460 21.88232
#
# Velocity S-wave (km/s) = 3.07207 3.68932 3.39475
# Velocity P-wave (km/s) = 5.83756 6.77826 6.32542
#
# Compressibility (1/GPa) = 0.02450265
#
# Stress axis : x y z
#
# Youngs Moduli (GPa) = 73.57540 32.24977 70.24403
#
# Poissons Ratio (x) = 0.21144 0.35828
# Poissons Ratio (y) = 0.48238 0.38703
# Poissons Ratio (z) = 0.37527 0.17769
#
# Static dielectric constant tensor:
#      x y z
#    x 4.241970 0.000000 0.000000 
#    y 0.000000 3.380400 0.000000 
#    z 0.000000 0.000000 3.673300 
# 
# 
# High freq. dielectric constant tensor:
#      x y z
#    x 1.737720 0.000000 0.000000 
#    y 0.000000 1.717600 0.000000 
#    z 0.000000 0.000000 1.740810 
# 
# From -- ./inp_files/35866.got.cif
#   From: 2010.03.12/outbox.cif.g09.slc.cpg/sg51_18_cif.got.tgz:35866.got - 2010.04.16 13:43:02.
