data_PCOD8211839
_publ_section_title
;
Structure prediction by ZEFSAII (Michael W. Deem and Ramdas Pophale) SiO2 
 PCOD8211839
Probable space group: P M M A
;
_chemical_formula_sum "Si O2"
_cell_formula_units_Z 56
_cell_length_a 13.485277
_cell_length_b 8.800958
_cell_length_c 23.571621
_cell_angle_alpha 90.000000
_cell_angle_beta 90.000000
_cell_angle_gamma 90.000000
_cell_volume 2797.559098
_symmetry_space_group_name_H-M "P M M A"
_symmetry_group_IT_number 51
_symmetry_cell_setting 'orthorhombic'
loop_
_space_group_symop_operation_xyz
x,y,z
1/2-x,-y,z
1/2+x,-y,-z
-x,y,-z
-x,-y,-z
1/2+x,y,-z
1/2-x,y,z
x,-y,z
loop_
_atom_site_type_symbol
_atom_site_label
_atom_site_fract_x
_atom_site_fract_y
_atom_site_fract_z
Si Si1 0.363009 0.322306 0.026362
Si Si2 0.543669 0.178479 0.080533
Si Si3 0.367373 0.170759 0.583126
Si Si4 0.138273 0.179286 0.354929
Si Si5 0.134852 0.825320 0.799933
Si Si6 0.631851 0.671730 0.529464
Si Si7 0.956434 0.321773 0.307925
O O1 0.250000 0.287693 0.042541
O O2 0.387346 0.500000 0.029326
O O3 0.430862 0.233336 0.071546
O O4 0.384277 0.264594 0.962914
O O5 0.575334 0.220429 0.143878
O O6 0.552574 0.000000 0.068820
O O7 0.250000 0.165336 0.576778
O O8 0.413359 0.257737 0.528430
O O9 0.392617 0.257114 0.640514
O O10 0.410879 0.000000 0.585608
O O11 0.250000 0.240125 0.345070
O O12 0.095982 0.230963 0.416278
O O13 0.067090 0.250626 0.307288
O O14 0.135196 0.000000 0.351065
O O15 0.250000 0.795822 0.811530
O O16 0.097982 0.717609 0.750131
O O17 0.115337 0.000000 0.782892
O O18 0.750000 0.677127 0.526436
O O19 0.593173 0.500000 0.536155
O O20 0.965038 0.500000 0.314525
#
# Coordination Sequence:
#
# PCOD8211839 Si02
#       7
#     8   8   8   8   8   8   8
#     4  10  20  34  55  86 125 163 195 233 283 334
#     4  10  20  35  59  88 117 153 198 242 282 329
#     4  10  20  35  55  79 110 146 182 223 273 330
#     4  10  21  39  61  81 104 138 180 225 276 336
#     4  10  22  41  62  84 113 149 189 232 277 328
#     4   9  17  31  53  81 111 139 172 220 277 335
#     4  12  25  38  56  82 110 142 183 229 278 332
#
# _framework density 20.01745
#
# number of rings (size 3 to 8) (size 9 to 14) (size 15 to 20)
#    0.000    1.857    0.000    5.143    0.000    8.857 
#    0.000    3.571    0.000    0.857    0.000    0.000 
#    0.000    0.000    0.000    0.000    0.000    0.000 
#
# Total GULP energy -694644.603945 kJ/mol
# GULP energy per Si atom -12404.367928 kJ/mol
# Density = 1.997189 g / cm^3
# Si number density = 20.017450 Si / 1000 Ang^3
#
#
#
# Elastic Constant Matrix: (Units=GPa)
#
#
# Indices 1 2 3 4 5 6 
#
# 1 69.6624 24.9825 34.3227 0.0000 0.0000 0.0000
# 2 24.9825 108.4048 39.4605 0.0000 0.0000 0.0000
# 3 34.3227 39.4605 101.8162 0.0000 0.0000 0.0000
# 4 0.0000 0.0000 0.0000 23.1532 0.0000 0.0000
# 5 0.0000 0.0000 0.0000 0.0000 28.8836 0.0000
# 6 0.0000 0.0000 0.0000 0.0000 0.0000 29.1233
#
#
#
# Elastic Compliance Matrix: (Units=1/GPa)
#
#
# Indices 1 2 3 4 5 6 
#
# 1 0.017659 -0.002215 -0.005095 0.000000 0.000000 0.000000
# 2 -0.002215 0.011018 -0.003523 0.000000 0.000000 0.000000
# 3 -0.005095 -0.003523 0.012905 0.000000 0.000000 0.000000
# 4 0.000000 0.000000 0.000000 0.043191 0.000000 0.000000
# 5 0.000000 0.000000 0.000000 0.000000 0.034622 0.000000
# 6 0.000000 0.000000 0.000000 0.000000 0.000000 0.034337
#
#
# Mechanical properties :
#
#
# Convention : Reuss Voigt Hill
#
# Bulk Modulus (GPa) = 50.21213 53.04608 51.62910
# Shear Modulus (GPa) = 27.46717 28.30654 27.88686
#
# Velocity S-wave (km/s) = 3.70829 3.76452 3.73651
# Velocity P-wave (km/s) = 6.59347 6.74188 6.66809
#
# Compressibility (1/GPa) = 0.01991551
#
# Stress axis : x y z
#
# Youngs Moduli (GPa) = 56.62690 90.76279 77.49226
#
# Poissons Ratio (x) = 0.20106 0.39479
# Poissons Ratio (y) = 0.12544 0.27303
# Poissons Ratio (z) = 0.28849 0.31979
#
# Static dielectric constant tensor:
#      x y z
#    x 3.805710 0.000000 0.000000 
#    y 0.000000 3.746030 0.000000 
#    z 0.000000 0.000000 3.488950 
# 
# 
# High freq. dielectric constant tensor:
#      x y z
#    x 1.796100 0.000000 0.000000 
#    y 0.000000 1.792120 0.000000 
#    z 0.000000 0.000000 1.763090 
# 
# From -- ./inp_files/33477.got.cif
#   From: 2010.03.12/outbox.cif.g09.slc.cpg/sg51_17_cif.got.tgz:33477.got - 2010.04.16 13:43:02.
