data_PCOD8211029
_publ_section_title
;
Structure prediction by ZEFSAII (Michael W. Deem and Ramdas Pophale) SiO2 
 PCOD8211029
Probable space group: P M M A
;
_chemical_formula_sum "Si O2"
_cell_formula_units_Z 48
_cell_length_a 13.749835
_cell_length_b 8.879450
_cell_length_c 20.986382
_cell_angle_alpha 90.000000
_cell_angle_beta 90.000000
_cell_angle_gamma 90.000000
_cell_volume 2562.247785
_symmetry_space_group_name_H-M "P M M A"
_symmetry_group_IT_number 51
_symmetry_cell_setting 'orthorhombic'
loop_
_space_group_symop_operation_xyz
x,y,z
1/2-x,-y,z
1/2+x,-y,-z
-x,y,-z
-x,-y,-z
1/2+x,y,-z
1/2-x,y,z
x,-y,z
loop_
_atom_site_type_symbol
_atom_site_label
_atom_site_fract_x
_atom_site_fract_y
_atom_site_fract_z
Si Si1 0.356835 0.321378 0.468677
Si Si2 0.952664 0.321769 0.401593
Si Si3 0.640472 0.673142 0.912022
Si Si4 0.860447 0.177706 0.278744
Si Si5 0.046113 0.673079 0.841419
Si Si6 0.134794 0.830580 0.960314
O O1 0.250000 0.255829 0.451398
O O2 0.355119 0.500000 0.469953
O O3 0.386408 0.267108 0.539380
O O4 0.436107 0.270093 0.416345
O O5 0.945804 0.500000 0.391514
O O6 0.917531 0.241140 0.338681
O O7 0.750000 0.720557 0.892027
O O8 0.637785 0.500000 0.934469
O O9 0.569928 0.697654 0.851335
O O10 0.599757 0.773044 0.970449
O O11 0.750000 0.240576 0.277169
O O12 0.917204 0.224320 0.215623
O O13 0.859512 0.000000 0.282916
O O14 0.070269 0.500000 0.825656
O O15 0.098809 0.718271 0.906283
O O16 0.250000 0.827412 0.958736
O O17 0.095383 0.000000 0.949213
#
# Coordination Sequence:
#
# PCOD8211029 Si02
#       6
#     8   8   8   8   8   8
#     4   8  14  27  51  83 113 137 167 210 253 292
#     4   9  17  31  54  81 106 137 175 210 247 293
#     4   9  19  36  55  75 100 129 165 210 256 302
#     4  11  24  39  53  72 102 137 169 206 256 308
#     4  11  22  35  54  77  99 130 172 213 253 298
#     4  10  20  33  51  77 107 136 165 202 253 307
#
# _framework density 18.733552
#
# number of rings (size 3 to 8) (size 9 to 14) (size 15 to 20)
#    0.000    2.333    0.000    4.000    0.000    8.333 
#    0.000    2.500    0.000    6.500    0.000    0.000 
#    0.000    0.000    0.000    0.000    0.000    0.000 
#
# Total GULP energy -595128.609526 kJ/mol
# GULP energy per Si atom -12398.512698 kJ/mol
# Density = 1.869091 g / cm^3
# Si number density = 18.733552 Si / 1000 Ang^3
#
#
#
# Elastic Constant Matrix: (Units=GPa)
#
#
# Indices 1 2 3 4 5 6 
#
# 1 120.5436 35.4441 79.7214 0.0000 0.0000 0.0000
# 2 35.4441 40.1228 16.1415 0.0000 0.0000 0.0000
# 3 79.7214 16.1415 96.9353 0.0000 0.0000 0.0000
# 4 0.0000 0.0000 0.0000 -69.3369 0.0000 0.0000
# 5 0.0000 0.0000 0.0000 0.0000 26.2563 0.0000
# 6 0.0000 0.0000 0.0000 0.0000 0.0000 19.5135
#
#
#
# Elastic Compliance Matrix: (Units=1/GPa)
#
#
# Indices 1 2 3 4 5 6 
#
# 1 0.023895 -0.014150 -0.017295 0.000000 0.000000 0.000000
# 2 -0.014150 0.035093 0.005794 0.000000 0.000000 0.000000
# 3 -0.017295 0.005794 0.023575 0.000000 0.000000 0.000000
# 4 0.000000 0.000000 0.000000 -0.014422 0.000000 0.000000
# 5 0.000000 0.000000 0.000000 0.000000 0.038086 0.000000
# 6 0.000000 0.000000 0.000000 0.000000 0.000000 0.051247
#
#
# Mechanical properties :
#
#
# Convention : Reuss Voigt Hill
#
# Bulk Modulus (GPa) = 31.99016 57.80175 44.89596
# Shear Modulus (GPa) = 22.81068 3.70624 13.25846
#
# Velocity S-wave (km/s) = 3.49325 1.40808 2.66322
# Velocity P-wave (km/s) = 5.77788 5.79355 5.78572
#
# Compressibility (1/GPa) = 0.03125961
#
# Stress axis : x y z
#
# Youngs Moduli (GPa) = 41.85061 28.49581 42.41764
#
# Poissons Ratio (x) = 0.40323 0.73361
# Poissons Ratio (y) = 0.59220 -0.24577
# Poissons Ratio (z) = 0.72381 -0.16510
#
# Static dielectric constant tensor:
#      x y z
#    x 3.974330 0.000000 0.000000 
#    y 0.000000 3.329280 0.000000 
#    z 0.000000 0.000000 3.270380 
# 
# 
# High freq. dielectric constant tensor:
#      x y z
#    x 1.744850 0.000000 0.000000 
#    y 0.000000 1.712150 0.000000 
#    z 0.000000 0.000000 1.709460 
# 
# From -- ./inp_files/29480.got.cif
#   From: 2010.03.12/outbox.cif.g09.slc.cpg/sg51_15_cif.got.tgz:29480.got - 2010.04.16 13:43:02.
