data_PCOD8211599
_publ_section_title
;
Structure prediction by ZEFSAII (Michael W. Deem and Ramdas Pophale) SiO2 
 PCOD8211599
Probable space group: P M M A
;
_chemical_formula_sum "Si O2"
_cell_formula_units_Z 48
_cell_length_a 16.088327
_cell_length_b 9.450725
_cell_length_c 15.933748
_cell_angle_alpha 90.000000
_cell_angle_beta 90.000000
_cell_angle_gamma 90.000000
_cell_volume 2422.668292
_symmetry_space_group_name_H-M "P M M A"
_symmetry_group_IT_number 51
_symmetry_cell_setting 'orthorhombic'
loop_
_space_group_symop_operation_xyz
x,y,z
1/2-x,-y,z
1/2+x,-y,-z
-x,y,-z
-x,-y,-z
1/2+x,y,-z
1/2-x,y,z
x,-y,z
loop_
_atom_site_type_symbol
_atom_site_label
_atom_site_fract_x
_atom_site_fract_y
_atom_site_fract_z
Si Si1 0.435913 0.836213 0.928173
Si Si2 0.402669 0.842612 0.483546
Si Si3 0.750000 0.158972 0.081085
Si Si4 0.890246 0.338003 0.360849
Si Si5 0.347058 0.165103 0.300048
Si Si6 0.484691 0.333681 0.222338
Si Si7 0.750000 0.334132 0.241901
O O1 0.340224 0.816154 0.964386
O O2 0.455701 0.739203 0.847035
O O3 0.450355 0.000000 0.903164
O O4 0.500000 0.788882 0.000000
O O5 0.500000 0.841655 0.500000
O O6 0.366480 0.742704 0.554770
O O7 0.375653 0.785215 0.392724
O O8 0.366087 0.000000 0.494638
O O9 0.750000 0.272953 0.151484
O O10 0.750000 0.000000 0.117133
O O11 0.873906 0.500000 0.383307
O O12 0.829854 0.278915 0.290080
O O13 0.979789 0.315524 0.317533
O O14 0.250000 0.195580 0.287776
O O15 0.395472 0.255435 0.228666
O O16 0.368365 0.000000 0.286928
O O17 0.475441 0.500000 0.199656
O O18 0.750000 0.500000 0.231393
#
# Coordination Sequence:
#
# PCOD8211599 Si02
#       7
#     8   8   4   8   8   8   4
#     4  10  22  41  64  91 123 156 194 242 295 354
#     4  10  20  34  54  78 107 146 194 247 293 338
#     4  10  20  36  62  92 117 150 195 240 289 350
#     4  10  21  34  52  80 113 151 189 233 292 349
#     4  10  22  40  58  80 115 159 203 247 297 351
#     4  11  22  38  62  87 115 152 195 243 296 355
#     4  10  20  36  54  80 117 150 183 230 291 352
#
# _framework density 19.812864000000001
#
# number of rings (size 3 to 8) (size 9 to 14) (size 15 to 20)
#    0.000    1.833    3.333    0.500    1.167    3.000 
#    1.500    0.000    0.000    0.000    0.000    0.000 
#    0.000    0.000    0.000    0.000    0.000    0.000 
#
# Total GULP energy -594688.404805 kJ/mol
# GULP energy per Si atom -12389.341767 kJ/mol
# Density = 1.976777 g / cm^3
# Si number density = 19.812864 Si / 1000 Ang^3
#
#
#
# Elastic Constant Matrix: (Units=GPa)
#
#
# Indices 1 2 3 4 5 6 
#
# 1 129.2678 37.5192 35.1616 0.0000 0.0000 0.0000
# 2 37.5192 68.5310 35.9351 0.0000 0.0000 0.0000
# 3 35.1616 35.9351 61.7269 0.0000 0.0000 0.0000
# 4 0.0000 0.0000 0.0000 34.9323 0.0000 0.0000
# 5 0.0000 0.0000 0.0000 0.0000 38.7993 0.0000
# 6 0.0000 0.0000 0.0000 0.0000 0.0000 25.5765
#
#
#
# Elastic Compliance Matrix: (Units=1/GPa)
#
#
# Indices 1 2 3 4 5 6 
#
# 1 0.009696 -0.003472 -0.003502 0.000000 0.000000 0.000000
# 2 -0.003472 0.022247 -0.010973 0.000000 0.000000 0.000000
# 3 -0.003502 -0.010973 0.024583 0.000000 0.000000 0.000000
# 4 0.000000 0.000000 0.000000 0.028627 0.000000 0.000000
# 5 0.000000 0.000000 0.000000 0.000000 0.025774 0.000000
# 6 0.000000 0.000000 0.000000 0.000000 0.000000 0.039098
#
#
# Mechanical properties :
#
#
# Convention : Reuss Voigt Hill
#
# Bulk Modulus (GPa) = 48.46941 52.97307 50.72124
# Shear Modulus (GPa) = 25.93391 29.92228 27.92809
#
# Velocity S-wave (km/s) = 3.62186 3.89040 3.75853
# Velocity P-wave (km/s) = 6.48129 6.85384 6.67017
#
# Compressibility (1/GPa) = 0.02063157
#
# Stress axis : x y z
#
# Youngs Moduli (GPa) = 103.13322 44.94994 40.67770
#
# Poissons Ratio (x) = 0.15608 0.14245
# Poissons Ratio (y) = 0.35810 0.44638
# Poissons Ratio (z) = 0.36116 0.49326
#
# Static dielectric constant tensor:
#      x y z
#    x 4.152620 0.000000 0.000000 
#    y 0.000000 3.563260 0.000000 
#    z 0.000000 0.000000 3.394820 
# 
# 
# High freq. dielectric constant tensor:
#      x y z
#    x 1.785050 0.000000 0.000000 
#    y 0.000000 1.767730 0.000000 
#    z 0.000000 0.000000 1.747430 
# 
# From -- ./inp_files/29633.got.cif
#   From: 2010.03.12/outbox.cif.g09.slc.cpg/sg51_15_cif.got.tgz:29633.got - 2010.04.16 13:43:02.
