data_PCOD8211321
_publ_section_title
;
Structure prediction by ZEFSAII (Michael W. Deem and Ramdas Pophale) SiO2 
 PCOD8211321
Probable space group: P M M A
;
_chemical_formula_sum "Si O2"
_cell_formula_units_Z 44
_cell_length_a 9.578875
_cell_length_b 7.676354
_cell_length_c 30.357834
_cell_angle_alpha 90.000000
_cell_angle_beta 90.000000
_cell_angle_gamma 90.000000
_cell_volume 2232.236896
_symmetry_space_group_name_H-M "P M M A"
_symmetry_group_IT_number 51
_symmetry_cell_setting 'orthorhombic'
loop_
_space_group_symop_operation_xyz
x,y,z
1/2-x,-y,z
1/2+x,-y,-z
-x,y,-z
-x,-y,-z
1/2+x,y,-z
1/2-x,y,z
x,-y,z
loop_
_atom_site_type_symbol
_atom_site_label
_atom_site_fract_x
_atom_site_fract_y
_atom_site_fract_z
Si Si1 0.584304 0.193047 0.607994
Si Si2 0.094429 0.206429 0.294739
Si Si3 0.083613 0.500000 0.455116
Si Si4 0.093908 0.207195 0.038649
Si Si5 0.092487 0.208072 0.784534
Si Si6 0.406962 0.207041 0.135980
O O1 0.750000 0.184095 0.608960
O O2 0.535928 0.255573 0.656670
O O3 0.533425 0.329654 0.571573
O O4 0.524078 0.000000 0.596723
O O5 0.250000 0.284901 0.287090
O O6 0.988324 0.281419 0.258340
O O7 0.104123 0.000000 0.290799
O O8 0.250000 0.500000 0.463361
O O9 0.000000 0.500000 0.500000
O O10 0.250000 0.274900 0.030662
O O11 0.043178 0.268200 0.087255
O O12 0.088902 0.000000 0.036317
O O13 0.000000 0.290368 0.000000
O O14 0.250000 0.281146 0.784227
O O15 0.013793 0.281678 0.827802
O O16 0.093174 0.000000 0.784475
O O17 0.250000 0.275989 0.145555
O O18 0.405127 0.000000 0.138203
#
# Coordination Sequence:
#
# PCOD8211321 Si02
#       6
#     8   8   4   8   8   8
#     4   8  15  29  49  71  94 123 159 195 231 274
#     4   8  13  23  39  55  72  99 133 165 201 250
#     4  10  20  34  52  74 100 128 160 198 235 274
#     4   8  13  19  25  32  43  64  99 144 193 244
#     4   9  15  20  28  46  69  89 113 152 202 251
#     4   8  13  20  27  35  51  78 111 147 192 249
#
# _framework density 19.711169999999999
#
# number of rings (size 3 to 8) (size 9 to 14) (size 15 to 20)
#    0.000    3.636    0.000    2.727    0.000    3.273 
#    0.000    4.545    0.000    1.091    0.000    0.000 
#    0.000    0.000    0.000    0.000    0.000    0.000 
#
# Total GULP energy -545203.481291 kJ/mol
# GULP energy per Si atom -12390.988211 kJ/mol
# Density = 1.966631 g / cm^3
# Si number density = 19.711170 Si / 1000 Ang^3
#
#
#
# Elastic Constant Matrix: (Units=GPa)
#
#
# Indices 1 2 3 4 5 6 
#
# 1 109.0848 19.1170 97.9147 0.0000 0.0000 0.0000
# 2 19.1170 42.8044 40.4642 0.0000 0.0000 0.0000
# 3 97.9147 40.4642 212.6461 0.0000 0.0000 0.0000
# 4 0.0000 0.0000 0.0000 -9.7771 0.0000 0.0000
# 5 0.0000 0.0000 0.0000 0.0000 38.1420 0.0000
# 6 0.0000 0.0000 0.0000 0.0000 0.0000 0.4823
#
#
#
# Elastic Compliance Matrix: (Units=1/GPa)
#
#
# Indices 1 2 3 4 5 6 
#
# 1 0.015627 -0.000216 -0.007154 0.000000 0.000000 0.000000
# 2 -0.000216 0.028489 -0.005322 0.000000 0.000000 0.000000
# 3 -0.007154 -0.005322 0.009010 0.000000 0.000000 0.000000
# 4 0.000000 0.000000 0.000000 -0.102279 0.000000 0.000000
# 5 0.000000 0.000000 0.000000 0.000000 0.026218 0.000000
# 6 0.000000 0.000000 0.000000 0.000000 0.000000 2.073453
#
#
# Mechanical properties :
#
#
# Convention : Reuss Voigt Hill
#
# Bulk Modulus (GPa) = 36.04693 75.50302 55.77498
# Shear Modulus (GPa) = 2.39791 19.57206 10.98498
#
# Velocity S-wave (km/s) = 1.10416 3.15452 2.36328
# Velocity P-wave (km/s) = 4.46686 7.18720 5.98367
#
# Compressibility (1/GPa) = 0.02774161
#
# Stress axis : x y z
#
# Youngs Moduli (GPa) = 63.99249 35.10084 110.99213
#
# Poissons Ratio (x) = 0.00758 0.79409
# Poissons Ratio (y) = 0.01381 0.59068
# Poissons Ratio (z) = 0.45783 0.18680
#
# Static dielectric constant tensor:
#      x y z
#    x 3.565810 0.000000 0.000000 
#    y 0.000000 3.218340 0.000000 
#    z 0.000000 0.000000 3.944890 
# 
# 
# High freq. dielectric constant tensor:
#      x y z
#    x 1.735970 0.000000 0.000000 
#    y 0.000000 1.725180 0.000000 
#    z 0.000000 0.000000 1.776930 
# 
# From -- ./inp_files/36813.got.cif
#   From: 2010.03.12/outbox.cif.g09.slc.cpg/sg51_19_cif.got.tgz:36813.got - 2010.04.16 13:43:02.
