data_PCOD8211527
_publ_section_title
;
Structure prediction by ZEFSAII (Michael W. Deem and Ramdas Pophale) SiO2 
 PCOD8211527
Probable space group: P M M A
;
_chemical_formula_sum "Si O2"
_cell_formula_units_Z 56
_cell_length_a 8.928708
_cell_length_b 14.314964
_cell_length_c 23.661022
_cell_angle_alpha 90.000000
_cell_angle_beta 90.000000
_cell_angle_gamma 90.000000
_cell_volume 3024.213027
_symmetry_space_group_name_H-M "P M M A"
_symmetry_group_IT_number 51
_symmetry_cell_setting 'orthorhombic'
loop_
_space_group_symop_operation_xyz
x,y,z
1/2-x,-y,z
1/2+x,-y,-z
-x,y,-z
-x,-y,-z
1/2+x,y,-z
1/2-x,y,z
x,-y,z
loop_
_atom_site_type_symbol
_atom_site_label
_atom_site_fract_x
_atom_site_fract_y
_atom_site_fract_z
Si Si1 0.072517 0.748764 0.137993
Si Si2 0.076144 0.108847 0.942004
Si Si3 0.426652 0.256676 0.560239
Si Si4 0.422466 0.390620 0.942416
Si Si5 0.573669 0.894438 0.348542
Si Si6 0.574455 0.606998 0.642464
Si Si7 0.924942 0.241374 0.732882
O O1 0.250000 0.750179 0.130904
O O2 0.022465 0.745544 0.203023
O O3 0.002568 0.840680 0.110140
O O4 0.005873 0.656295 0.109817
O O5 0.250000 0.135822 0.944698
O O6 0.050623 0.000000 0.932194
O O7 0.000000 0.142597 0.000000
O O8 0.500000 0.242021 0.500000
O O9 0.250000 0.265263 0.553556
O O10 0.474438 0.166876 0.597370
O O11 0.487285 0.351373 0.588772
O O12 0.250000 0.359399 0.944393
O O13 0.440713 0.500000 0.933880
O O14 0.500000 0.356625 0.000000
O O15 0.750000 0.893827 0.340818
O O16 0.504625 0.849932 0.292174
O O17 0.513364 0.000000 0.356613
O O18 0.750000 0.614476 0.629691
O O19 0.524739 0.500000 0.651792
O O20 0.530304 0.665057 0.698539
O O21 0.750000 0.222418 0.728969
#
# Coordination Sequence:
#
# PCOD8211527 Si02
#       7
#     8   8   8   8   8   8   8
#     4  11  22  35  54  79 108 140 173 214 263 315
#     4  10  21  37  56  77 103 136 174 217 265 317
#     4  10  20  34  53  79 110 139 171 212 254 302
#     4  10  21  37  56  78 105 137 174 216 262 315
#     4   9  19  36  56  77 104 139 175 213 259 305
#     4   9  18  35  57  77 101 136 175 214 256 301
#     4   9  20  36  53  77 105 135 174 216 257 303
#
# _framework density 18.517215
#
# number of rings (size 3 to 8) (size 9 to 14) (size 15 to 20)
#    0.000    2.286    0.000    2.143    0.000    5.714 
#    0.000    4.286    0.000    0.000    0.000    0.000 
#    0.000    0.000    0.000    0.000    0.000    0.000 
#
# Total GULP energy -694576.749069 kJ/mol
# GULP energy per Si atom -12403.156233 kJ/mol
# Density = 1.847507 g / cm^3
# Si number density = 18.517215 Si / 1000 Ang^3
#
#
#
# Elastic Constant Matrix: (Units=GPa)
#
#
# Indices 1 2 3 4 5 6 
#
# 1 80.4881 43.1128 61.2583 0.0000 0.0000 0.0000
# 2 43.1128 130.5646 67.1003 0.0000 0.0000 0.0000
# 3 61.2583 67.1003 159.9249 0.0000 0.0000 0.0000
# 4 0.0000 0.0000 0.0000 6.1904 0.0000 0.0000
# 5 0.0000 0.0000 0.0000 0.0000 31.4554 0.0000
# 6 0.0000 0.0000 0.0000 0.0000 0.0000 30.6011
#
#
#
# Elastic Compliance Matrix: (Units=1/GPa)
#
#
# Indices 1 2 3 4 5 6 
#
# 1 0.018497 -0.003145 -0.005766 0.000000 0.000000 0.000000
# 2 -0.003145 0.010299 -0.003117 0.000000 0.000000 0.000000
# 3 -0.005766 -0.003117 0.009769 0.000000 0.000000 0.000000
# 4 0.000000 0.000000 0.000000 0.161540 0.000000 0.000000
# 5 0.000000 0.000000 0.000000 0.000000 0.031791 0.000000
# 6 0.000000 0.000000 0.000000 0.000000 0.000000 0.032679
#
#
# Mechanical properties :
#
#
# Convention : Reuss Voigt Hill
#
# Bulk Modulus (GPa) = 68.91297 79.32451 74.11874
# Shear Modulus (GPa) = 17.03775 26.94979 21.99377
#
# Velocity S-wave (km/s) = 3.03661 3.81910 3.45011
# Velocity P-wave (km/s) = 7.04209 7.89801 7.48230
#
# Compressibility (1/GPa) = 0.01451106
#
# Stress axis : x y z
#
# Youngs Moduli (GPa) = 54.06353 97.09530 102.36289
#
# Poissons Ratio (x) = 0.30532 0.59019
# Poissons Ratio (y) = 0.17001 0.31904
# Poissons Ratio (z) = 0.31171 0.30262
#
# Static dielectric constant tensor:
#      x y z
#    x 3.459730 0.000000 0.000000 
#    y 0.000000 3.526860 0.000000 
#    z 0.000000 0.000000 3.443090 
# 
# 
# High freq. dielectric constant tensor:
#      x y z
#    x 1.724170 0.000000 0.000000 
#    y 0.000000 1.726390 0.000000 
#    z 0.000000 0.000000 1.717290 
# 
# From -- ./inp_files/31903.got.cif
#   From: 2010.03.12/outbox.cif.g09.slc.cpg/sg51_16_cif.got.tgz:31903.got - 2010.04.16 13:43:02.
