data_PCOD8211698
_publ_section_title
;
Structure prediction by ZEFSAII (Michael W. Deem and Ramdas Pophale) SiO2 
 PCOD8211698
Probable space group: P M M A
;
_chemical_formula_sum "Si O2"
_cell_formula_units_Z 52
_cell_length_a 8.873411
_cell_length_b 10.521428
_cell_length_c 29.688743
_cell_angle_alpha 90.000000
_cell_angle_beta 90.000000
_cell_angle_gamma 90.000000
_cell_volume 2771.769398
_symmetry_space_group_name_H-M "P M M A"
_symmetry_group_IT_number 51
_symmetry_cell_setting 'orthorhombic'
loop_
_space_group_symop_operation_xyz
x,y,z
1/2-x,-y,z
1/2+x,-y,-z
-x,y,-z
-x,-y,-z
1/2+x,y,-z
1/2-x,y,z
x,-y,z
loop_
_atom_site_type_symbol
_atom_site_label
_atom_site_fract_x
_atom_site_fract_y
_atom_site_fract_z
Si Si1 0.081119 0.647581 0.206944
Si Si2 0.571658 0.854165 0.636686
Si Si3 0.581791 0.849835 0.456089
Si Si4 0.073097 0.715435 0.109253
Si Si5 0.915469 0.144990 0.042273
Si Si6 0.426824 0.646264 0.701290
Si Si7 0.572039 0.500000 0.049135
O O1 0.250000 0.692110 0.220644
O O2 0.081496 0.500000 0.195160
O O3 0.024305 0.716424 0.161638
O O4 0.967708 0.679474 0.247305
O O5 0.750000 0.846130 0.636320
O O6 0.512142 0.812643 0.587895
O O7 0.509238 0.750802 0.671235
O O8 0.520414 0.000000 0.648479
O O9 0.500000 0.791045 0.500000
O O10 0.750000 0.792174 0.452318
O O11 0.591417 0.000000 0.461400
O O12 0.250000 0.687716 0.105679
O O13 0.020002 0.848088 0.087378
O O14 0.979951 0.619927 0.078173
O O15 0.750000 0.208857 0.048656
O O16 0.890726 0.000000 0.030177
O O17 0.000000 0.212469 0.000000
O O18 0.250000 0.661121 0.694199
O O19 0.477575 0.500000 0.689986
O O20 0.750000 0.500000 0.043792
O O21 0.500000 0.500000 0.000000
#
# Coordination Sequence:
#
# PCOD8211698 Si02
#       7
#     8   8   8   8   8   8   4
#     4   9  18  35  56  77 103 136 173 212 257 312
#     4  10  20  34  54  81 112 147 188 233 281 330
#     4   9  16  27  46  74 109 147 186 229 277 330
#     4  11  21  36  56  79 105 131 166 208 254 305
#     4  10  21  37  55  75 100 133 172 209 249 301
#     4  10  21  36  56  82 109 141 184 229 276 332
#     4  12  24  36  52  76 108 138 164 198 249 304
#
# _framework density 18.760580000000001
#
# number of rings (size 3 to 8) (size 9 to 14) (size 15 to 20)
#    0.000    2.000    0.769    3.462    0.000    5.846 
#    0.000    0.769    0.000    1.385    0.000    0.000 
#    0.000    0.000    0.000    0.000    0.000    0.000 
#
# Total GULP energy -644489.493713 kJ/mol
# GULP energy per Si atom -12394.028725 kJ/mol
# Density = 1.871788 g / cm^3
# Si number density = 18.760580 Si / 1000 Ang^3
#
#
#
# Elastic Constant Matrix: (Units=GPa)
#
#
# Indices 1 2 3 4 5 6 
#
# 1 116.0993 37.0910 67.7882 0.0000 0.0000 0.0000
# 2 37.0910 58.0814 51.5726 0.0000 0.0000 0.0000
# 3 67.7882 51.5726 147.6825 0.0000 0.0000 0.0000
# 4 0.0000 0.0000 0.0000 24.2977 0.0000 0.0000
# 5 0.0000 0.0000 0.0000 0.0000 38.1568 0.0000
# 6 0.0000 0.0000 0.0000 0.0000 0.0000 24.3988
#
#
#
# Elastic Compliance Matrix: (Units=1/GPa)
#
#
# Indices 1 2 3 4 5 6 
#
# 1 0.012424 -0.004160 -0.004250 0.000000 0.000000 0.000000
# 2 -0.004160 0.026348 -0.007292 0.000000 0.000000 0.000000
# 3 -0.004250 -0.007292 0.011268 0.000000 0.000000 0.000000
# 4 0.000000 0.000000 0.000000 0.041156 0.000000 0.000000
# 5 0.000000 0.000000 0.000000 0.000000 0.026208 0.000000
# 6 0.000000 0.000000 0.000000 0.000000 0.000000 0.040986
#
#
# Mechanical properties :
#
#
# Convention : Reuss Voigt Hill
#
# Bulk Modulus (GPa) = 53.65629 70.52963 62.09296
# Shear Modulus (GPa) = 25.50942 28.39809 26.95375
#
# Velocity S-wave (km/s) = 3.69146 3.89486 3.79452
# Velocity P-wave (km/s) = 6.84338 7.60939 7.23653
#
# Compressibility (1/GPa) = 0.01863714
#
# Stress axis : x y z
#
# Youngs Moduli (GPa) = 80.49027 37.95286 88.74409
#
# Poissons Ratio (x) = 0.15790 0.37715
# Poissons Ratio (y) = 0.33486 0.64709
# Poissons Ratio (z) = 0.34207 0.27674
#
# Static dielectric constant tensor:
#      x y z
#    x 3.747990 0.000000 0.000000 
#    y 0.000000 3.762960 0.000000 
#    z 0.000000 0.000000 3.525440 
# 
# 
# High freq. dielectric constant tensor:
#      x y z
#    x 1.744090 0.000000 0.000000 
#    y 0.000000 1.698140 0.000000 
#    z 0.000000 0.000000 1.731450 
# 
# From -- ./inp_files/36222.got.cif
#   From: 2010.03.12/outbox.cif.g09.slc.cpg/sg51_19_cif.got.tgz:36222.got - 2010.04.16 13:43:02.
