data_PCOD8211196
_publ_section_title
;
Structure prediction by ZEFSAII (Michael W. Deem and Ramdas Pophale) SiO2 
 PCOD8211196
Probable space group: P M M A
;
_chemical_formula_sum "Si O2"
_cell_formula_units_Z 40
_cell_length_a 14.315337
_cell_length_b 9.379978
_cell_length_c 14.499462
_cell_angle_alpha 90.000000
_cell_angle_beta 90.000000
_cell_angle_gamma 90.000000
_cell_volume 1946.952177
_symmetry_space_group_name_H-M "P M M A"
_symmetry_group_IT_number 51
_symmetry_cell_setting 'orthorhombic'
loop_
_space_group_symop_operation_xyz
x,y,z
1/2-x,-y,z
1/2+x,-y,-z
-x,y,-z
-x,-y,-z
1/2+x,y,-z
1/2-x,y,z
x,-y,z
loop_
_atom_site_type_symbol
_atom_site_label
_atom_site_fract_x
_atom_site_fract_y
_atom_site_fract_z
Si Si1 0.391689 0.167047 0.486647
Si Si2 0.890510 0.837709 0.991922
Si Si3 0.250000 0.673021 0.359407
Si Si4 0.250000 0.164561 0.168175
Si Si5 0.145542 0.846318 0.687828
Si Si6 0.354124 0.347317 0.839802
O O1 0.500000 0.202357 0.500000
O O2 0.343087 0.264670 0.408947
O O3 0.347649 0.212227 0.584294
O O4 0.373919 0.000000 0.463188
O O5 0.843983 0.805615 0.892384
O O6 0.868234 0.000000 0.019779
O O7 0.843747 0.734659 0.064905
O O8 0.000000 0.806652 0.000000
O O9 0.250000 0.500000 0.361842
O O10 0.250000 0.727740 0.254048
O O11 0.250000 0.000000 0.202289
O O12 0.250000 0.868255 0.725691
O O13 0.091869 0.742106 0.759512
O O14 0.092554 0.000000 0.687801
O O15 0.250000 0.376963 0.803455
O O16 0.405756 0.500000 0.853025
#
# Coordination Sequence:
#
# PCOD8211196 Si02
#       6
#     8   8   4   4   8   8
#     4  10  21  40  66  92 120 159 211 264 311 367
#     4  10  21  38  62  89 114 150 203 255 303 357
#     4  12  26  42  63  90 129 172 211 260 316 384
#     4  10  22  42  65  86 119 164 209 258 310 372
#     4   9  17  32  56  83 111 145 187 237 290 348
#     4  10  20  33  53  82 115 149 182 226 290 358
#
# _framework density 20.544931999999999
#
# number of rings (size 3 to 8) (size 9 to 14) (size 15 to 20)
#    0.000    2.000    2.000    1.500    0.000    4.800 
#    0.000    8.000    0.000    0.000    0.000    0.000 
#    0.000    0.000    0.000    0.000    0.000    0.000 
#
# Total GULP energy -495547.701708 kJ/mol
# GULP energy per Si atom -12388.692543 kJ/mol
# Density = 2.049817 g / cm^3
# Si number density = 20.544932 Si / 1000 Ang^3
#
#
#
# Elastic Constant Matrix: (Units=GPa)
#
#
# Indices 1 2 3 4 5 6 
#
# 1 99.0603 35.7578 32.7709 0.0000 0.0000 0.0000
# 2 35.7578 146.0746 94.8761 0.0000 0.0000 0.0000
# 3 32.7709 94.8761 147.9559 0.0000 0.0000 0.0000
# 4 0.0000 0.0000 0.0000 13.2851 0.0000 0.0000
# 5 0.0000 0.0000 0.0000 0.0000 3.5263 0.0000
# 6 0.0000 0.0000 0.0000 0.0000 0.0000 15.2898
#
#
#
# Elastic Compliance Matrix: (Units=1/GPa)
#
#
# Indices 1 2 3 4 5 6 
#
# 1 0.011204 -0.001938 -0.001239 0.000000 0.000000 0.000000
# 2 -0.001938 0.012067 -0.007309 0.000000 0.000000 0.000000
# 3 -0.001239 -0.007309 0.011720 0.000000 0.000000 0.000000
# 4 0.000000 0.000000 0.000000 0.075272 0.000000 0.000000
# 5 0.000000 0.000000 0.000000 0.000000 0.283587 0.000000
# 6 0.000000 0.000000 0.000000 0.000000 0.000000 0.065403
#
#
# Mechanical properties :
#
#
# Convention : Reuss Voigt Hill
#
# Bulk Modulus (GPa) = 71.32676 79.98892 75.65784
# Shear Modulus (GPa) = 10.31143 21.73263 16.02203
#
# Velocity S-wave (km/s) = 2.24274 3.25593 2.79561
# Velocity P-wave (km/s) = 6.44199 7.29061 6.87940
#
# Compressibility (1/GPa) = 0.01401998
#
# Stress axis : x y z
#
# Youngs Moduli (GPa) = 89.25155 82.86783 85.32440
#
# Poissons Ratio (x) = 0.16060 0.10571
# Poissons Ratio (y) = 0.17297 0.62363
# Poissons Ratio (z) = 0.11057 0.60567
#
# Static dielectric constant tensor:
#      x y z
#    x 3.445670 0.000000 0.000000 
#    y 0.000000 4.106020 0.000000 
#    z 0.000000 0.000000 3.641640 
# 
# 
# High freq. dielectric constant tensor:
#      x y z
#    x 1.779510 0.000000 0.000000 
#    y 0.000000 1.797980 0.000000 
#    z 0.000000 0.000000 1.805430 
# 
# From -- ./inp_files/23830.got.cif
#   From: 2010.03.12/outbox.cif.g09.slc.cpg/sg51_12_cif.got.tgz:23830.got - 2010.04.16 13:43:02.
