data_PCOD8211076
_publ_section_title
;
Structure prediction by ZEFSAII (Michael W. Deem and Ramdas Pophale) SiO2 
 PCOD8211076
Probable space group: P M M A
;
_chemical_formula_sum "Si O2"
_cell_formula_units_Z 44
_cell_length_a 9.433993
_cell_length_b 13.174475
_cell_length_c 18.727390
_cell_angle_alpha 90.000000
_cell_angle_beta 90.000000
_cell_angle_gamma 90.000000
_cell_volume 2327.588068
_symmetry_space_group_name_H-M "P M M A"
_symmetry_group_IT_number 51
_symmetry_cell_setting 'orthorhombic'
loop_
_space_group_symop_operation_xyz
x,y,z
1/2-x,-y,z
1/2+x,-y,-z
-x,y,-z
-x,-y,-z
1/2+x,y,-z
1/2-x,y,z
x,-y,z
loop_
_atom_site_type_symbol
_atom_site_label
_atom_site_fract_x
_atom_site_fract_y
_atom_site_fract_z
Si Si1 0.082506 0.699073 0.837717
Si Si2 0.414274 0.887012 0.928230
Si Si3 0.919419 0.500000 0.075369
Si Si4 0.416084 0.708861 0.676112
Si Si5 0.586648 0.885164 0.430785
Si Si6 0.093976 0.383544 0.437655
O O1 0.250000 0.698853 0.836113
O O2 0.026359 0.801809 0.874758
O O3 0.030363 0.598790 0.879759
O O4 0.026570 0.704872 0.756880
O O5 0.250000 0.867928 0.945900
O O6 0.436484 0.000000 0.895255
O O7 0.500000 0.874921 0.000000
O O8 0.750000 0.500000 0.062293
O O9 0.000000 0.500000 0.000000
O O10 0.250000 0.681093 0.671477
O O11 0.448756 0.816888 0.638571
O O12 0.508704 0.624495 0.636134
O O13 0.500000 0.849075 0.500000
O O14 0.750000 0.875546 0.451796
O O15 0.545949 0.000000 0.409326
O O16 0.250000 0.331369 0.433947
O O17 0.116292 0.500000 0.456590
O O18 0.000000 0.330760 0.500000
#
# Coordination Sequence:
#
# PCOD8211076 Si02
#       6
#     8   8   4   8   8   8
#     4   9  19  33  51  77 104 135 171 209 260 313
#     4   9  17  31  52  76 102 132 169 212 256 308
#     4  10  20  36  56  76 101 134 173 214 253 308
#     4  10  20  33  52  76 102 135 171 211 259 308
#     4   9  18  32  50  73 101 134 173 213 252 299
#     4  10  21  36  53  74 100 132 170 212 256 303
#
# _framework density 18.903689
#
# number of rings (size 3 to 8) (size 9 to 14) (size 15 to 20)
#    0.000    2.545    0.000    1.636    1.273    4.000 
#    0.000    5.455    0.000    0.000    0.000    5.091 
#    0.000    0.000    0.000    0.000    0.000    0.000 
#
# Total GULP energy -545412.740842 kJ/mol
# GULP energy per Si atom -12395.744110 kJ/mol
# Density = 1.886066 g / cm^3
# Si number density = 18.903689 Si / 1000 Ang^3
#
#
#
# Elastic Constant Matrix: (Units=GPa)
#
#
# Indices 1 2 3 4 5 6 
#
# 1 70.2248 34.1917 51.2832 0.0000 0.0000 0.0000
# 2 34.1917 112.6975 71.9076 0.0000 0.0000 0.0000
# 3 51.2832 71.9076 164.0120 0.0000 0.0000 0.0000
# 4 0.0000 0.0000 0.0000 30.1955 0.0000 0.0000
# 5 0.0000 0.0000 0.0000 0.0000 27.5222 0.0000
# 6 0.0000 0.0000 0.0000 0.0000 0.0000 17.2661
#
#
#
# Elastic Compliance Matrix: (Units=1/GPa)
#
#
# Indices 1 2 3 4 5 6 
#
# 1 0.019047 -0.002747 -0.004751 0.000000 0.000000 0.000000
# 2 -0.002747 0.012716 -0.004716 0.000000 0.000000 0.000000
# 3 -0.004751 -0.004716 0.009650 0.000000 0.000000 0.000000
# 4 0.000000 0.000000 0.000000 0.033118 0.000000 0.000000
# 5 0.000000 0.000000 0.000000 0.000000 0.036334 0.000000
# 6 0.000000 0.000000 0.000000 0.000000 0.000000 0.057917
#
#
# Mechanical properties :
#
#
# Convention : Reuss Voigt Hill
#
# Bulk Modulus (GPa) = 58.87698 73.52213 66.19956
# Shear Modulus (GPa) = 25.14168 27.63353 26.38761
#
# Velocity S-wave (km/s) = 3.65086 3.82751 3.74022
# Velocity P-wave (km/s) = 6.99893 7.64922 7.33129
#
# Compressibility (1/GPa) = 0.01698457
#
# Stress axis : x y z
#
# Youngs Moduli (GPa) = 52.50090 78.64169 103.62322
#
# Poissons Ratio (x) = 0.21605 0.49234
# Poissons Ratio (y) = 0.14423 0.48869
# Poissons Ratio (z) = 0.24944 0.37087
#
# Static dielectric constant tensor:
#      x y z
#    x 3.404360 0.000000 0.000000 
#    y 0.000000 3.725300 0.000000 
#    z 0.000000 0.000000 3.557170 
# 
# 
# High freq. dielectric constant tensor:
#      x y z
#    x 1.713990 0.000000 0.000000 
#    y 0.000000 1.747500 0.000000 
#    z 0.000000 0.000000 1.726190 
# 
# From -- ./inp_files/27384.got.cif
#   From: 2010.03.12/outbox.cif.g09.slc.cpg/sg51_14_cif.got.tgz:27384.got - 2010.04.16 13:43:02.
