data_PCOD8211406
_publ_section_title
;
Structure prediction by ZEFSAII (Michael W. Deem and Ramdas Pophale) SiO2 
 PCOD8211406
Probable space group: P M M A
;
_chemical_formula_sum "Si O2"
_cell_formula_units_Z 64
_cell_length_a 18.557059
_cell_length_b 9.189855
_cell_length_c 20.548376
_cell_angle_alpha 90.000000
_cell_angle_beta 90.000000
_cell_angle_gamma 90.000000
_cell_volume 3504.251852
_symmetry_space_group_name_H-M "P M M A"
_symmetry_group_IT_number 51
_symmetry_cell_setting 'orthorhombic'
loop_
_space_group_symop_operation_xyz
x,y,z
1/2-x,-y,z
1/2+x,-y,-z
-x,y,-z
-x,-y,-z
1/2+x,y,-z
1/2-x,y,z
x,-y,z
loop_
_atom_site_type_symbol
_atom_site_label
_atom_site_fract_x
_atom_site_fract_y
_atom_site_fract_z
Si Si1 0.170480 0.671827 0.431237
Si Si2 0.833148 0.830905 0.187046
Si Si3 0.421566 0.171835 0.686377
Si Si4 0.667204 0.668118 0.809191
Si Si5 0.164147 0.835833 0.064361
Si Si6 0.335866 0.664275 0.939810
Si Si7 0.834273 0.667578 0.421888
Si Si8 0.072254 0.671167 0.315298
O O1 0.250000 0.738927 0.417689
O O2 0.176703 0.500000 0.423185
O O3 0.145267 0.710398 0.504177
O O4 0.112936 0.731711 0.379455
O O5 0.750000 0.793455 0.200786
O O6 0.877118 0.781742 0.250057
O O7 0.863609 0.741508 0.125723
O O8 0.843340 0.000000 0.170914
O O9 0.380362 0.228312 0.623281
O O10 0.499080 0.242631 0.691960
O O11 0.429331 0.000000 0.680665
O O12 0.750000 0.707247 0.793794
O O13 0.659461 0.500000 0.828377
O O14 0.636670 0.760598 0.869584
O O15 0.621582 0.708489 0.746168
O O16 0.250000 0.832645 0.062417
O O17 0.134588 0.000000 0.062064
O O18 0.132876 0.749332 0.002278
O O19 0.250000 0.667402 0.941516
O O20 0.365370 0.500000 0.941236
O O21 0.750000 0.693878 0.409277
O O22 0.854475 0.500000 0.407878
O O23 0.056028 0.500000 0.320630
#
# Coordination Sequence:
#
# PCOD8211406 Si02
#       8
#     8   8   8   8   8   8   8   8
#     4   8  15  31  56  82 103 127 165 211 256 301
#     4   9  18  33  51  69  92 127 168 205 245 296
#     4  11  23  36  50  71 104 141 172 205 248 301
#     4   9  17  30  50  75 100 128 166 212 257 298
#     4   9  16  26  43  69 101 134 164 197 242 298
#     4   9  16  26  44  72 101 125 155 202 253 295
#     4   9  18  34  57  81 102 127 165 212 255 298
#     4  10  20  34  53  75 101 134 171 211 253 298
#
# _framework density 18.263527
#
# number of rings (size 3 to 8) (size 9 to 14) (size 15 to 20)
#    0.000    2.750    0.000    2.625    0.000    7.250 
#    0.000    4.375    0.000    2.625    0.000    5.250 
#    0.000    0.000    0.000    0.000    0.000    0.000 
#
# Total GULP energy -793594.349036 kJ/mol
# GULP energy per Si atom -12399.911704 kJ/mol
# Density = 1.822196 g / cm^3
# Si number density = 18.263527 Si / 1000 Ang^3
#
#
#
# Elastic Constant Matrix: (Units=GPa)
#
#
# Indices 1 2 3 4 5 6 
#
# 1 77.6271 46.1506 70.5663 0.0000 0.0000 0.0000
# 2 46.1506 89.5295 79.2151 0.0000 0.0000 0.0000
# 3 70.5663 79.2151 170.6622 0.0000 0.0000 0.0000
# 4 0.0000 0.0000 0.0000 16.3424 0.0000 0.0000
# 5 0.0000 0.0000 0.0000 0.0000 2.1313 0.0000
# 6 0.0000 0.0000 0.0000 0.0000 0.0000 19.3951
#
#
#
# Elastic Compliance Matrix: (Units=1/GPa)
#
#
# Indices 1 2 3 4 5 6 
#
# 1 0.022199 -0.005636 -0.006563 0.000000 0.000000 0.000000
# 2 -0.005636 0.020385 -0.007131 0.000000 0.000000 0.000000
# 3 -0.006563 -0.007131 0.011883 0.000000 0.000000 0.000000
# 4 0.000000 0.000000 0.000000 0.061191 0.000000 0.000000
# 5 0.000000 0.000000 0.000000 0.000000 0.469201 0.000000
# 6 0.000000 0.000000 0.000000 0.000000 0.000000 0.051559
#
#
# Mechanical properties :
#
#
# Convention : Reuss Voigt Hill
#
# Bulk Modulus (GPa) = 63.26729 81.07588 72.17158
# Shear Modulus (GPa) = 7.34920 17.03288 12.19104
#
# Velocity S-wave (km/s) = 2.00816 3.05719 2.58642
# Velocity P-wave (km/s) = 6.33194 7.54656 6.96577
#
# Compressibility (1/GPa) = 0.01580596
#
# Stress axis : x y z
#
# Youngs Moduli (GPa) = 45.04750 49.05661 84.15293
#
# Poissons Ratio (x) = 0.27650 0.55227
# Poissons Ratio (y) = 0.25391 0.60011
# Poissons Ratio (z) = 0.29563 0.34983
#
# Static dielectric constant tensor:
#      x y z
#    x 3.160390 0.000000 0.000000 
#    y 0.000000 3.271780 0.000000 
#    z 0.000000 0.000000 3.591940 
# 
# 
# High freq. dielectric constant tensor:
#      x y z
#    x 1.675400 0.000000 0.000000 
#    y 0.000000 1.695130 0.000000 
#    z 0.000000 0.000000 1.724810 
# 
# From -- ./inp_files/33855.got.cif
#   From: 2010.03.12/outbox.cif.g09.slc.cpg/sg51_17_cif.got.tgz:33855.got - 2010.04.16 13:43:02.
