data_PCOD8211113
_publ_section_title
;
Structure prediction by ZEFSAII (Michael W. Deem and Ramdas Pophale) SiO2 
 PCOD8211113
Probable space group: P M M A
;
_chemical_formula_sum "Si O2"
_cell_formula_units_Z 52
_cell_length_a 9.245812
_cell_length_b 13.342544
_cell_length_c 22.680441
_cell_angle_alpha 90.000000
_cell_angle_beta 90.000000
_cell_angle_gamma 90.000000
_cell_volume 2797.919383
_symmetry_space_group_name_H-M "P M M A"
_symmetry_group_IT_number 51
_symmetry_cell_setting 'orthorhombic'
loop_
_space_group_symop_operation_xyz
x,y,z
1/2-x,-y,z
1/2+x,-y,-z
-x,y,-z
-x,-y,-z
1/2+x,y,-z
1/2-x,y,z
x,-y,z
loop_
_atom_site_type_symbol
_atom_site_label
_atom_site_fract_x
_atom_site_fract_y
_atom_site_fract_z
Si Si1 0.577510 0.500000 0.437767
Si Si2 0.915357 0.113049 0.820122
Si Si3 0.078234 0.290150 0.765652
Si Si4 0.582590 0.388145 0.868196
Si Si5 0.078981 0.695935 0.632792
Si Si6 0.415526 0.203181 0.057718
Si Si7 0.419568 0.887307 0.560936
O O1 0.750000 0.500000 0.446092
O O2 0.500000 0.500000 0.500000
O O3 0.523555 0.400644 0.403335
O O4 0.750000 0.145385 0.806954
O O5 0.944856 0.124332 0.889998
O O6 0.024137 0.179570 0.782356
O O7 0.945081 0.000000 0.801072
O O8 0.250000 0.294408 0.771417
O O9 0.023963 0.314084 0.699739
O O10 0.008951 0.372107 0.808872
O O11 0.750000 0.367303 0.852583
O O12 0.556687 0.500000 0.891614
O O13 0.531947 0.312636 0.919536
O O14 0.250000 0.697070 0.632426
O O15 0.022829 0.801659 0.605688
O O16 0.250000 0.206441 0.038835
O O17 0.500000 0.169025 0.000000
O O18 0.500000 0.869569 0.500000
O O19 0.250000 0.874247 0.549058
O O20 0.452521 0.000000 0.585603
#
# Coordination Sequence:
#
# PCOD8211113 Si02
#       7
#     4   8   8   8   8   8   8
#     4  10  20  36  54  74 104 138 173 210 255 310
#     4   9  19  37  56  73 102 143 175 206 258 313
#     4  10  20  33  52  79 104 130 170 217 259 303
#     4   9  19  36  54  71  99 139 173 208 258 312
#     4   9  19  33  51  74 102 136 166 204 259 311
#     4   9  18  32  50  74 103 133 169 211 256 308
#     4   9  17  31  50  71  96 127 163 202 247 298
#
# _framework density 18.585238
#
# number of rings (size 3 to 8) (size 9 to 14) (size 15 to 20)
#    0.000    2.769    0.000    1.846    1.077    4.308 
#    0.000    4.615    0.000    1.846    0.000    0.000 
#    0.000    0.000    0.000    0.000    0.000    0.000 
#
# Total GULP energy -644657.745908 kJ/mol
# GULP energy per Si atom -12397.264344 kJ/mol
# Density = 1.854294 g / cm^3
# Si number density = 18.585238 Si / 1000 Ang^3
#
#
#
# Elastic Constant Matrix: (Units=GPa)
#
#
# Indices 1 2 3 4 5 6 
#
# 1 43.9281 10.9333 29.0375 0.0000 0.0000 0.0000
# 2 10.9333 85.9335 13.3581 0.0000 0.0000 0.0000
# 3 29.0375 13.3581 94.2105 0.0000 0.0000 0.0000
# 4 0.0000 0.0000 0.0000 13.9364 0.0000 0.0000
# 5 0.0000 0.0000 0.0000 0.0000 30.6525 0.0000
# 6 0.0000 0.0000 0.0000 0.0000 0.0000 20.3895
#
#
#
# Elastic Compliance Matrix: (Units=1/GPa)
#
#
# Indices 1 2 3 4 5 6 
#
# 1 0.029048 -0.002356 -0.008619 0.000000 0.000000 0.000000
# 2 -0.002356 0.012090 -0.000988 0.000000 0.000000 0.000000
# 3 -0.008619 -0.000988 0.013411 0.000000 0.000000 0.000000
# 4 0.000000 0.000000 0.000000 0.071754 0.000000 0.000000
# 5 0.000000 0.000000 0.000000 0.000000 0.032624 0.000000
# 6 0.000000 0.000000 0.000000 0.000000 0.000000 0.049045
#
#
# Mechanical properties :
#
#
# Convention : Reuss Voigt Hill
#
# Bulk Modulus (GPa) = 32.65495 36.74777 34.70136
# Shear Modulus (GPa) = 20.65200 24.37856 22.51528
#
# Velocity S-wave (km/s) = 3.33709 3.62569 3.48438
# Velocity P-wave (km/s) = 5.69708 6.11089 5.90761
#
# Compressibility (1/GPa) = 0.03062323
#
# Stress axis : x y z
#
# Youngs Moduli (GPa) = 34.42537 82.71117 74.56437
#
# Poissons Ratio (x) = 0.19487 0.64268
# Poissons Ratio (y) = 0.08111 0.07368
# Poissons Ratio (z) = 0.29672 0.08173
#
# Static dielectric constant tensor:
#      x y z
#    x 3.187950 0.000000 0.000000 
#    y 0.000000 3.663180 0.000000 
#    z 0.000000 0.000000 3.371240 
# 
# 
# High freq. dielectric constant tensor:
#      x y z
#    x 1.701240 0.000000 0.000000 
#    y 0.000000 1.733020 0.000000 
#    z 0.000000 0.000000 1.713710 
# 
# From -- ./inp_files/31754.got.cif
#   From: 2010.03.12/outbox.cif.g09.slc.cpg/sg51_16_cif.got.tgz:31754.got - 2010.04.16 13:43:02.
