data_PCOD8211183
_publ_section_title
;
Structure prediction by ZEFSAII (Michael W. Deem and Ramdas Pophale) SiO2 
 PCOD8211183
Probable space group: P M M A
;
_chemical_formula_sum "Si O2"
_cell_formula_units_Z 48
_cell_length_a 29.863356
_cell_length_b 9.010872
_cell_length_c 9.561548
_cell_angle_alpha 90.000000
_cell_angle_beta 90.000000
_cell_angle_gamma 90.000000
_cell_volume 2572.963596
_symmetry_space_group_name_H-M "P M M A"
_symmetry_group_IT_number 51
_symmetry_cell_setting 'orthorhombic'
loop_
_space_group_symop_operation_xyz
x,y,z
1/2-x,-y,z
1/2+x,-y,-z
-x,y,-z
-x,-y,-z
1/2+x,y,-z
1/2-x,y,z
x,-y,z
loop_
_atom_site_type_symbol
_atom_site_label
_atom_site_fract_x
_atom_site_fract_y
_atom_site_fract_z
Si Si1 0.996416 0.326059 0.341876
Si Si2 0.823115 0.325810 0.851604
Si Si3 0.324337 0.173041 0.861511
Si Si4 0.250000 0.174905 0.649069
Si Si5 0.750000 0.177297 0.665897
Si Si6 0.074396 0.671737 0.135814
Si Si7 0.427351 0.827842 0.851796
O O1 0.986866 0.500000 0.336624
O O2 0.042605 0.284773 0.264363
O O3 0.000000 0.268185 0.500000
O O4 0.954536 0.246277 0.272403
O O5 0.812843 0.500000 0.843064
O O6 0.809524 0.267588 0.004364
O O7 0.794595 0.239622 0.736923
O O8 0.874995 0.288478 0.820650
O O9 0.294264 0.227615 0.731857
O O10 0.375441 0.205140 0.821122
O O11 0.316370 0.000000 0.896463
O O12 0.250000 0.239534 0.492748
O O13 0.250000 0.000000 0.637336
O O14 0.750000 0.000000 0.674681
O O15 0.070210 0.500000 0.095360
O O16 0.058188 0.762259 0.001064
O O17 0.438424 0.000000 0.854918
#
# Coordination Sequence:
#
# PCOD8211183 Si02
#       7
#     8   8   8   4   4   8   8
#     4  10  21  36  53  74 103 141 179 212 255 313
#     4  10  20  35  55  79 104 132 171 216 258 301
#     4   9  18  35  57  79 103 134 174 217 260 307
#     4   9  19  35  54  74 100 137 174 205 246 306
#     4  11  22  35  52  76 106 139 170 203 252 310
#     4   9  19  36  56  76 101 135 174 215 256 302
#     4  10  20  33  53  81 107 132 169 218 265 308
#
# _framework density 18.655529999999999
#
# number of rings (size 3 to 8) (size 9 to 14) (size 15 to 20)
#    0.000    2.333    0.000    2.250    0.000    6.333 
#    0.000    1.667    0.000    0.000    0.000    0.000 
#    0.000    0.000    0.000    0.000    0.000    0.000 
#
# Total GULP energy -595357.710944 kJ/mol
# GULP energy per Si atom -12403.285645 kJ/mol
# Density = 1.861307 g / cm^3
# Si number density = 18.655530 Si / 1000 Ang^3
#
#
#
# Elastic Constant Matrix: (Units=GPa)
#
#
# Indices 1 2 3 4 5 6 
#
# 1 112.9162 46.8443 94.2762 0.0000 0.0000 0.0000
# 2 46.8443 66.2303 62.5099 0.0000 0.0000 0.0000
# 3 94.2762 62.5099 183.7781 0.0000 0.0000 0.0000
# 4 0.0000 0.0000 0.0000 24.0505 0.0000 0.0000
# 5 0.0000 0.0000 0.0000 0.0000 20.5310 0.0000
# 6 0.0000 0.0000 0.0000 0.0000 0.0000 30.8153
#
#
#
# Elastic Compliance Matrix: (Units=1/GPa)
#
#
# Indices 1 2 3 4 5 6 
#
# 1 0.016751 -0.005505 -0.006721 0.000000 0.000000 0.000000
# 2 -0.005505 0.024047 -0.005355 0.000000 0.000000 0.000000
# 3 -0.006721 -0.005355 0.010711 0.000000 0.000000 0.000000
# 4 0.000000 0.000000 0.000000 0.041579 0.000000 0.000000
# 5 0.000000 0.000000 0.000000 0.000000 0.048707 0.000000
# 6 0.000000 0.000000 0.000000 0.000000 0.000000 0.032451
#
#
# Mechanical properties :
#
#
# Convention : Reuss Voigt Hill
#
# Bulk Modulus (GPa) = 61.17405 85.57615 73.37510
# Shear Modulus (GPa) = 23.27134 25.69900 24.48517
#
# Velocity S-wave (km/s) = 3.53572 3.71557 3.62676
# Velocity P-wave (km/s) = 7.03783 8.02363 7.54684
#
# Compressibility (1/GPa) = 0.01634680
#
# Stress axis : x y z
#
# Youngs Moduli (GPa) = 59.69750 41.58553 93.36550
#
# Poissons Ratio (x) = 0.22892 0.62749
# Poissons Ratio (y) = 0.32862 0.50001
# Poissons Ratio (z) = 0.40121 0.22271
#
# Static dielectric constant tensor:
#      x y z
#    x 3.568180 0.000000 0.000000 
#    y 0.000000 3.367380 0.000000 
#    z 0.000000 0.000000 3.517770 
# 
# 
# High freq. dielectric constant tensor:
#      x y z
#    x 1.737140 0.000000 0.000000 
#    y 0.000000 1.718060 0.000000 
#    z 0.000000 0.000000 1.720360 
# 
# From -- ./inp_files/12947.got.cif
#   From: 2010.03.12/outbox.cif.g09.slc.cpg/sg51_7_cif.got.tgz:12947.got - 2010.04.16 13:43:02.
