data_PCOD8211403
_publ_section_title
;
Structure prediction by ZEFSAII (Michael W. Deem and Ramdas Pophale) SiO2 
 PCOD8211403
Probable space group: P M M A
;
_chemical_formula_sum "Si O2"
_cell_formula_units_Z 44
_cell_length_a 9.094402
_cell_length_b 14.876290
_cell_length_c 17.789624
_cell_angle_alpha 90.000000
_cell_angle_beta 90.000000
_cell_angle_gamma 90.000000
_cell_volume 2406.775336
_symmetry_space_group_name_H-M "P M M A"
_symmetry_group_IT_number 51
_symmetry_cell_setting 'orthorhombic'
loop_
_space_group_symop_operation_xyz
x,y,z
1/2-x,-y,z
1/2+x,-y,-z
-x,y,-z
-x,-y,-z
1/2+x,y,-z
1/2-x,y,z
x,-y,z
loop_
_atom_site_type_symbol
_atom_site_label
_atom_site_fract_x
_atom_site_fract_y
_atom_site_fract_z
Si Si1 0.919928 0.000000 0.421835
Si Si2 0.088047 0.160319 0.363480
Si Si3 0.581481 0.398615 0.273041
Si Si4 0.417108 0.756640 0.201176
Si Si5 0.920466 0.350718 0.575696
Si Si6 0.923567 0.898112 0.922245
O O1 0.000000 0.000000 0.500000
O O2 0.962188 0.912126 0.375442
O O3 0.750000 0.000000 0.437649
O O4 0.250000 0.118354 0.377868
O O5 0.074958 0.191072 0.278653
O O6 0.063728 0.243223 0.419794
O O7 0.750000 0.370305 0.287772
O O8 0.570775 0.500000 0.241780
O O9 0.514092 0.333606 0.208765
O O10 0.494823 0.394675 0.351600
O O11 0.250000 0.727855 0.182754
O O12 0.479531 0.824974 0.138356
O O13 0.750000 0.380142 0.573882
O O14 0.000000 0.385126 0.500000
O O15 0.750000 0.891025 0.932829
O O16 0.966639 0.000000 0.896992
O O17 0.000000 0.872858 0.000000
#
# Coordination Sequence:
#
# PCOD8211403 Si02
#       6
#     4   8   8   8   8   8
#     4  12  24  34  46  66  93 130 173 216 261 306
#     4   9  19  34  51  70  94 129 171 214 260 307
#     4  10  21  36  54  77 105 137 174 220 272 320
#     4   9  19  35  57  80 104 140 177 213 260 309
#     4  10  20  34  53  74  98 132 172 219 271 321
#     4   9  18  33  55  84 116 147 176 208 252 307
#
# _framework density 18.281721999999998
#
# number of rings (size 3 to 8) (size 9 to 14) (size 15 to 20)
#    0.000    2.364    0.000    3.545    1.273    7.636 
#    0.000    0.000    0.000    0.545    0.000    0.000 
#    0.000    0.000    0.000    0.000    0.000    0.000 
#
# Total GULP energy -545554.084477 kJ/mol
# GULP energy per Si atom -12398.956465 kJ/mol
# Density = 1.824011 g / cm^3
# Si number density = 18.281722 Si / 1000 Ang^3
#
#
#
# Elastic Constant Matrix: (Units=GPa)
#
#
# Indices 1 2 3 4 5 6 
#
# 1 111.1249 54.8293 35.1317 0.0000 0.0000 0.0000
# 2 54.8293 106.8224 46.2636 0.0000 0.0000 0.0000
# 3 35.1317 46.2636 85.0910 0.0000 0.0000 0.0000
# 4 0.0000 0.0000 0.0000 18.3702 0.0000 0.0000
# 5 0.0000 0.0000 0.0000 0.0000 29.8087 0.0000
# 6 0.0000 0.0000 0.0000 0.0000 0.0000 29.2626
#
#
#
# Elastic Compliance Matrix: (Units=1/GPa)
#
#
# Indices 1 2 3 4 5 6 
#
# 1 0.012347 -0.005402 -0.002161 0.000000 0.000000 0.000000
# 2 -0.005402 0.014608 -0.005712 0.000000 0.000000 0.000000
# 3 -0.002161 -0.005712 0.015750 0.000000 0.000000 0.000000
# 4 0.000000 0.000000 0.000000 0.054436 0.000000 0.000000
# 5 0.000000 0.000000 0.000000 0.000000 0.033547 0.000000
# 6 0.000000 0.000000 0.000000 0.000000 0.000000 0.034173
#
#
# Mechanical properties :
#
#
# Convention : Reuss Voigt Hill
#
# Bulk Modulus (GPa) = 61.89778 63.94307 62.92042
# Shear Modulus (GPa) = 25.40705 26.60920 26.00812
#
# Velocity S-wave (km/s) = 3.73198 3.81925 3.77587
# Velocity P-wave (km/s) = 7.24579 7.38250 7.31447
#
# Compressibility (1/GPa) = 0.01615567
#
# Stress axis : x y z
#
# Youngs Moduli (GPa) = 80.98962 68.45737 63.49250
#
# Poissons Ratio (x) = 0.36978 0.13721
# Poissons Ratio (y) = 0.43748 0.36266
# Poissons Ratio (z) = 0.17502 0.39102
#
# Static dielectric constant tensor:
#      x y z
#    x 3.535660 0.000000 0.000000 
#    y 0.000000 3.416360 0.000000 
#    z 0.000000 0.000000 3.186130 
# 
# 
# High freq. dielectric constant tensor:
#      x y z
#    x 1.713030 0.000000 0.000000 
#    y 0.000000 1.709200 0.000000 
#    z 0.000000 0.000000 1.686010 
# 
# From -- ./inp_files/27350.got.cif
#   From: 2010.03.12/outbox.cif.g09.slc.cpg/sg51_14_cif.got.tgz:27350.got - 2010.04.16 13:43:02.
