data_PCOD8211714
_publ_section_title
;
Structure prediction by ZEFSAII (Michael W. Deem and Ramdas Pophale) SiO2 
 PCOD8211714
Probable space group: P M M A
;
_chemical_formula_sum "Si O2"
_cell_formula_units_Z 56
_cell_length_a 9.054157
_cell_length_b 14.164663
_cell_length_c 23.501915
_cell_angle_alpha 90.000000
_cell_angle_beta 90.000000
_cell_angle_gamma 90.000000
_cell_volume 3014.099039
_symmetry_space_group_name_H-M "P M M A"
_symmetry_group_IT_number 51
_symmetry_cell_setting 'orthorhombic'
loop_
_space_group_symop_operation_xyz
x,y,z
1/2-x,-y,z
1/2+x,-y,-z
-x,y,-z
-x,-y,-z
1/2+x,y,-z
1/2-x,y,z
x,-y,z
loop_
_atom_site_type_symbol
_atom_site_label
_atom_site_fract_x
_atom_site_fract_y
_atom_site_fract_z
Si Si1 0.075857 0.765595 0.356416
Si Si2 0.417185 0.888232 0.556053
Si Si3 0.421582 0.754306 0.059020
Si Si4 0.077659 0.393644 0.443318
Si Si5 0.421025 0.891670 0.860536
Si Si6 0.579512 0.608702 0.843443
Si Si7 0.077827 0.254520 0.763133
O O1 0.250000 0.782192 0.353913
O O2 0.033305 0.669904 0.389636
O O3 0.001390 0.853496 0.388022
O O4 0.013238 0.759899 0.293664
O O5 0.500000 0.849897 0.500000
O O6 0.250000 0.849433 0.555000
O O7 0.419067 0.000000 0.557832
O O8 0.250000 0.770881 0.048060
O O9 0.485221 0.848754 0.087849
O O10 0.452668 0.663331 0.098084
O O11 0.500000 0.733451 0.000000
O O12 0.250000 0.389510 0.455250
O O13 0.024465 0.500000 0.429614
O O14 0.000000 0.354441 0.500000
O O15 0.250000 0.882147 0.877128
O O16 0.454970 0.836133 0.802416
O O17 0.467838 0.000000 0.851364
O O18 0.750000 0.620512 0.825245
O O19 0.536824 0.500000 0.852855
O O20 0.478039 0.650413 0.793590
O O21 0.250000 0.265109 0.749126
#
# Coordination Sequence:
#
# PCOD8211714 Si02
#       7
#     8   8   8   8   8   8   8
#     4  11  22  35  54  79 107 141 178 217 265 320
#     4  10  21  37  56  78 106 139 175 219 271 325
#     4  10  20  34  54  82 113 142 175 216 260 309
#     4   9  19  35  53  74 101 133 169 210 258 311
#     4   9  19  37  58  77 102 139 178 217 264 313
#     4   9  19  37  58  78 105 143 182 220 265 314
#     4  10  21  36  54  79 108 137 176 224 269 316
#
# _framework density 18.579350000000002
#
# number of rings (size 3 to 8) (size 9 to 14) (size 15 to 20)
#    0.000    2.286    0.000    2.143    0.000    6.571 
#    0.000    2.857    0.000    0.000    0.000    0.000 
#    0.000    0.000    0.000    0.000    0.000    0.000 
#
# Total GULP energy -694616.069505 kJ/mol
# GULP energy per Si atom -12403.858384 kJ/mol
# Density = 1.853706 g / cm^3
# Si number density = 18.579350 Si / 1000 Ang^3
#
#
#
# Elastic Constant Matrix: (Units=GPa)
#
#
# Indices 1 2 3 4 5 6 
#
# 1 105.6722 46.5164 69.7913 0.0000 0.0000 0.0000
# 2 46.5164 101.9705 45.1566 0.0000 0.0000 0.0000
# 3 69.7913 45.1566 130.8869 0.0000 0.0000 0.0000
# 4 0.0000 0.0000 0.0000 16.4570 0.0000 0.0000
# 5 0.0000 0.0000 0.0000 0.0000 40.2102 0.0000
# 6 0.0000 0.0000 0.0000 0.0000 0.0000 27.0334
#
#
#
# Elastic Compliance Matrix: (Units=1/GPa)
#
#
# Indices 1 2 3 4 5 6 
#
# 1 0.015967 -0.004147 -0.007083 0.000000 0.000000 0.000000
# 2 -0.004147 0.012652 -0.002154 0.000000 0.000000 0.000000
# 3 -0.007083 -0.002154 0.012160 0.000000 0.000000 0.000000
# 4 0.000000 0.000000 0.000000 0.060764 0.000000 0.000000
# 5 0.000000 0.000000 0.000000 0.000000 0.024869 0.000000
# 6 0.000000 0.000000 0.000000 0.000000 0.000000 0.036991
#
#
# Mechanical properties :
#
#
# Convention : Reuss Voigt Hill
#
# Bulk Modulus (GPa) = 71.37053 73.49535 72.43294
# Shear Modulus (GPa) = 25.66178 28.54446 27.10312
#
# Velocity S-wave (km/s) = 3.72048 3.92389 3.82354
# Velocity P-wave (km/s) = 7.54674 7.75710 7.65264
#
# Compressibility (1/GPa) = 0.01401139
#
# Stress axis : x y z
#
# Youngs Moduli (GPa) = 62.63040 79.03690 82.23634
#
# Poissons Ratio (x) = 0.32776 0.58248
# Poissons Ratio (y) = 0.25973 0.17713
# Poissons Ratio (z) = 0.44361 0.17024
#
# Static dielectric constant tensor:
#      x y z
#    x 3.536950 0.000000 0.000000 
#    y 0.000000 3.521430 0.000000 
#    z 0.000000 0.000000 3.391850 
# 
# 
# High freq. dielectric constant tensor:
#      x y z
#    x 1.729880 0.000000 0.000000 
#    y 0.000000 1.724450 0.000000 
#    z 0.000000 0.000000 1.719200 
# 
# From -- ./inp_files/31876.got.cif
#   From: 2010.03.12/outbox.cif.g09.slc.cpg/sg51_16_cif.got.tgz:31876.got - 2010.04.16 13:43:02.
