data_PCOD8211890
_publ_section_title
;
Structure prediction by ZEFSAII (Michael W. Deem and Ramdas Pophale) SiO2 
 PCOD8211890
Probable space group: P M M A
;
_chemical_formula_sum "Si O2"
_cell_formula_units_Z 64
_cell_length_a 14.845616
_cell_length_b 18.749063
_cell_length_c 11.681666
_cell_angle_alpha 90.000000
_cell_angle_beta 90.000000
_cell_angle_gamma 90.000000
_cell_volume 3251.491148
_symmetry_space_group_name_H-M "P M M A"
_symmetry_group_IT_number 51
_symmetry_cell_setting 'orthorhombic'
loop_
_space_group_symop_operation_xyz
x,y,z
1/2-x,-y,z
1/2+x,-y,-z
-x,y,-z
-x,-y,-z
1/2+x,y,-z
1/2-x,y,z
x,-y,z
loop_
_atom_site_type_symbol
_atom_site_label
_atom_site_fract_x
_atom_site_fract_y
_atom_site_fract_z
Si Si1 0.857072 0.078261 0.587282
Si Si2 0.042381 0.081602 0.180322
Si Si3 0.898383 0.191391 0.198347
Si Si4 0.346736 0.811152 0.049866
Si Si5 0.139513 0.367092 0.524479
Si Si6 0.981700 0.582368 0.677684
Si Si7 0.533908 0.690522 0.875714
Si Si8 0.849327 0.791541 0.448805
O O1 0.750000 0.079357 0.584654
O O2 0.888860 0.091643 0.715752
O O3 0.899975 0.140523 0.506471
O O4 0.891225 0.000000 0.544726
O O5 0.081883 0.126371 0.073973
O O6 0.946131 0.114487 0.212280
O O7 0.030526 0.000000 0.142922
O O8 0.841371 0.202699 0.312338
O O9 0.968757 0.255349 0.189251
O O10 0.835966 0.193650 0.087068
O O11 0.250000 0.830787 0.102214
O O12 0.374471 0.734909 0.103334
O O13 0.250000 0.377841 0.537931
O O14 0.099363 0.405374 0.412802
O O15 0.109728 0.284223 0.513609
O O16 0.082500 0.397352 0.632651
O O17 0.983719 0.500000 0.710142
O O18 0.953879 0.623151 0.793601
O O19 0.500000 0.664381 0.000000
O O20 0.750000 0.792893 0.500528
#
# Coordination Sequence:
#
# PCOD8211890 Si02
#       8
#     8   8   8   8   8   8   8   8
#     4   9  19  34  50  75 111 145 183 231 280 333
#     4  10  21  35  53  78 109 147 189 234 287 343
#     4  10  20  36  55  77 110 141 183 237 281 336
#     4  10  21  36  58  81 106 144 188 237 291 342
#     4  10  22  38  60  90 123 159 198 242 292 350
#     4  11  23  39  62  90 121 157 195 239 295 354
#     4   9  20  39  58  83 114 148 187 235 288 344
#     4  10  20  34  57  82 108 148 192 234 284 340
#
# _framework density 19.683277
#
# number of rings (size 3 to 8) (size 9 to 14) (size 15 to 20)
#    0.000    2.125    1.250    2.625    3.500    4.500 
#    0.000    1.250    0.000    2.250    0.000    1.750 
#    0.000    0.000    0.000    0.000    0.000    0.000 
#
# Total GULP energy -793072.839134 kJ/mol
# GULP energy per Si atom -12391.763111 kJ/mol
# Density = 1.963848 g / cm^3
# Si number density = 19.683277 Si / 1000 Ang^3
#
#
#
# Elastic Constant Matrix: (Units=GPa)
#
#
# Indices 1 2 3 4 5 6 
#
# 1 72.9846 25.9693 2.7135 0.0000 0.0000 0.0000
# 2 25.9693 151.7130 40.6838 0.0000 0.0000 0.0000
# 3 2.7135 40.6838 66.6496 0.0000 0.0000 0.0000
# 4 0.0000 0.0000 0.0000 17.3601 0.0000 0.0000
# 5 0.0000 0.0000 0.0000 0.0000 14.8145 0.0000
# 6 0.0000 0.0000 0.0000 0.0000 0.0000 15.0935
#
#
#
# Elastic Compliance Matrix: (Units=1/GPa)
#
#
# Indices 1 2 3 4 5 6 
#
# 1 0.014659 -0.002809 0.001118 0.000000 0.000000 0.000000
# 2 -0.002809 0.008420 -0.005025 0.000000 0.000000 0.000000
# 3 0.001118 -0.005025 0.018026 0.000000 0.000000 0.000000
# 4 0.000000 0.000000 0.000000 0.057603 0.000000 0.000000
# 5 0.000000 0.000000 0.000000 0.000000 0.067501 0.000000
# 6 0.000000 0.000000 0.000000 0.000000 0.000000 0.066253
#
#
# Mechanical properties :
#
#
# Convention : Reuss Voigt Hill
#
# Bulk Modulus (GPa) = 36.13731 47.78673 41.96202
# Shear Modulus (GPa) = 19.59860 24.25234 21.92547
#
# Velocity S-wave (km/s) = 3.15889 3.51398 3.34116
# Velocity P-wave (km/s) = 5.63063 6.38706 6.02074
#
# Compressibility (1/GPa) = 0.02767223
#
# Stress axis : x y z
#
# Youngs Moduli (GPa) = 68.21526 118.76757 55.47611
#
# Poissons Ratio (x) = 0.33363 -0.06202
# Poissons Ratio (y) = 0.19162 0.27878
# Poissons Ratio (z) = -0.07626 0.59683
#
# Static dielectric constant tensor:
#      x y z
#    x 3.429610 0.000000 0.000000 
#    y 0.000000 3.725400 0.000000 
#    z 0.000000 0.000000 3.521110 
# 
# 
# High freq. dielectric constant tensor:
#      x y z
#    x 1.758150 0.000000 0.000000 
#    y 0.000000 1.765300 0.000000 
#    z 0.000000 0.000000 1.764060 
# 
# From -- ./inp_files/16845.got.cif
#   From: 2010.03.12/outbox.cif.g09.slc.cpg/sg51_9_cif.got.tgz:16845.got - 2010.04.16 13:43:02.
