data_PCOD8211771
_publ_section_title
;
Structure prediction by ZEFSAII (Michael W. Deem and Ramdas Pophale) SiO2 
 PCOD8211771
Probable space group: P M M A
;
_chemical_formula_sum "Si O2"
_cell_formula_units_Z 64
_cell_length_a 8.990998
_cell_length_b 14.482181
_cell_length_c 25.099694
_cell_angle_alpha 90.000000
_cell_angle_beta 90.000000
_cell_angle_gamma 90.000000
_cell_volume 3268.212592
_symmetry_space_group_name_H-M "P M M A"
_symmetry_group_IT_number 51
_symmetry_cell_setting 'orthorhombic'
loop_
_space_group_symop_operation_xyz
x,y,z
1/2-x,-y,z
1/2+x,-y,-z
-x,y,-z
-x,-y,-z
1/2+x,y,-z
1/2-x,y,z
x,-y,z
loop_
_atom_site_type_symbol
_atom_site_label
_atom_site_fract_x
_atom_site_fract_y
_atom_site_fract_z
Si Si1 0.578560 0.202365 0.447662
Si Si2 0.075183 0.762106 0.753999
Si Si3 0.417979 0.603852 0.301685
Si Si4 0.922026 0.897202 0.948519
Si Si5 0.417814 0.601084 0.590702
Si Si6 0.423163 0.608180 0.944906
Si Si7 0.926746 0.895060 0.340446
Si Si8 0.424172 0.255974 0.134327
O O1 0.500000 0.160796 0.500000
O O2 0.750000 0.176229 0.452424
O O3 0.552162 0.313240 0.448409
O O4 0.512446 0.156100 0.393728
O O5 0.250000 0.769835 0.764630
O O6 0.019087 0.840222 0.712167
O O7 0.036863 0.662086 0.731023
O O8 0.987352 0.770800 0.808571
O O9 0.250000 0.642556 0.295412
O O10 0.426710 0.500000 0.279454
O O11 0.461220 0.606827 0.363250
O O12 0.750000 0.899363 0.961564
O O13 0.959104 0.835963 0.898100
O O14 0.984011 0.000000 0.937076
O O15 0.000000 0.853054 0.000000
O O16 0.250000 0.611492 0.614328
O O17 0.433084 0.500000 0.562043
O O18 0.250000 0.633583 0.948742
O O19 0.448759 0.500000 0.935802
O O20 0.495014 0.657993 0.893813
O O21 0.500000 0.640576 0.000000
O O22 0.750000 0.893719 0.341738
O O23 0.987804 0.000000 0.338354
O O24 0.250000 0.279431 0.138268
#
# Coordination Sequence:
#
# PCOD8211771 Si02
#       8
#     8   8   8   8   8   8   8   8
#     4  10  20  35  55  83 114 148 185 230 282 335
#     4  11  22  38  59  82 109 147 190 231 281 339
#     4  10  20  34  55  82 110 141 178 222 271 323
#     4   9  19  36  57  81 111 146 182 223 275 331
#     4   9  17  32  54  79 109 146 185 221 265 325
#     4  10  21  38  60  86 118 158 201 243 288 338
#     4   9  19  38  61  82 108 144 187 235 288 345
#     4  11  23  37  56  84 117 151 188 237 287 334
#
# _framework density 19.582567999999998
#
# number of rings (size 3 to 8) (size 9 to 14) (size 15 to 20)
#    0.000    2.125    1.250    1.875    0.000    5.500 
#    0.000    0.000    0.000    2.625    0.000    0.000 
#    0.000    0.000    0.000    0.000    0.000    0.000 
#
# Total GULP energy -793442.734514 kJ/mol
# GULP energy per Si atom -12397.542727 kJ/mol
# Density = 1.953800 g / cm^3
# Si number density = 19.582568 Si / 1000 Ang^3
#
#
#
# Elastic Constant Matrix: (Units=GPa)
#
#
# Indices 1 2 3 4 5 6 
#
# 1 63.7883 45.1762 49.0339 0.0000 0.0000 0.0000
# 2 45.1762 102.8722 61.2804 0.0000 0.0000 0.0000
# 3 49.0339 61.2804 147.8861 0.0000 0.0000 0.0000
# 4 0.0000 0.0000 0.0000 15.9483 0.0000 0.0000
# 5 0.0000 0.0000 0.0000 0.0000 36.1701 0.0000
# 6 0.0000 0.0000 0.0000 0.0000 0.0000 15.9809
#
#
#
# Elastic Compliance Matrix: (Units=1/GPa)
#
#
# Indices 1 2 3 4 5 6 
#
# 1 0.025281 -0.008111 -0.005021 0.000000 0.000000 0.000000
# 2 -0.008111 0.015509 -0.003737 0.000000 0.000000 0.000000
# 3 -0.005021 -0.003737 0.009975 0.000000 0.000000 0.000000
# 4 0.000000 0.000000 0.000000 0.062703 0.000000 0.000000
# 5 0.000000 0.000000 0.000000 0.000000 0.027647 0.000000
# 6 0.000000 0.000000 0.000000 0.000000 0.000000 0.062575
#
#
# Mechanical properties :
#
#
# Convention : Reuss Voigt Hill
#
# Bulk Modulus (GPa) = 58.73206 69.50307 64.11757
# Shear Modulus (GPa) = 20.56726 24.22358 22.39542
#
# Velocity S-wave (km/s) = 3.24432 3.52091 3.38544
# Velocity P-wave (km/s) = 6.64013 7.21793 6.93505
#
# Compressibility (1/GPa) = 0.01702647
#
# Stress axis : x y z
#
# Youngs Moduli (GPa) = 39.55518 64.47879 100.24574
#
# Poissons Ratio (x) = 0.52299 0.50337
# Poissons Ratio (y) = 0.32083 0.37464
# Poissons Ratio (z) = 0.19862 0.24097
#
# Static dielectric constant tensor:
#      x y z
#    x 3.470930 0.000000 0.000000 
#    y 0.000000 4.001270 0.000000 
#    z 0.000000 0.000000 4.151490 
# 
# 
# High freq. dielectric constant tensor:
#      x y z
#    x 1.753410 0.000000 0.000000 
#    y 0.000000 1.768670 0.000000 
#    z 0.000000 0.000000 1.754390 
# 
# From -- ./inp_files/34940.got.cif
#   From: 2010.03.12/outbox.cif.g09.slc.cpg/sg51_18_cif.got.tgz:34940.got - 2010.04.16 13:43:02.
