data_PCOD8211912
_publ_section_title
;
Structure prediction by ZEFSAII (Michael W. Deem and Ramdas Pophale) SiO2 
 PCOD8211912
Probable space group: P M M A
;
_chemical_formula_sum "Si O2"
_cell_formula_units_Z 48
_cell_length_a 17.980357
_cell_length_b 8.610118
_cell_length_c 15.811976
_cell_angle_alpha 90.000000
_cell_angle_beta 90.000000
_cell_angle_gamma 90.000000
_cell_volume 2447.899369
_symmetry_space_group_name_H-M "P M M A"
_symmetry_group_IT_number 51
_symmetry_cell_setting 'orthorhombic'
loop_
_space_group_symop_operation_xyz
x,y,z
1/2-x,-y,z
1/2+x,-y,-z
-x,y,-z
-x,-y,-z
1/2+x,y,-z
1/2-x,y,z
x,-y,z
loop_
_atom_site_type_symbol
_atom_site_label
_atom_site_fract_x
_atom_site_fract_y
_atom_site_fract_z
Si Si1 0.599493 0.178914 0.473276
Si Si2 0.107486 0.317871 0.891337
Si Si3 0.750000 0.680662 0.207059
Si Si4 0.836136 0.318753 0.921823
Si Si5 0.968670 0.680884 0.626947
Si Si6 0.250000 0.823846 0.615136
Si Si7 0.537809 0.181621 0.811805
O O1 0.592764 0.228066 0.571424
O O2 0.548750 0.284185 0.413210
O O3 0.682365 0.211261 0.445803
O O4 0.575992 0.000000 0.462122
O O5 0.094957 0.500000 0.875230
O O6 0.174458 0.249687 0.833309
O O7 0.030795 0.231607 0.871008
O O8 0.129657 0.282075 0.987029
O O9 0.750000 0.500000 0.184880
O O10 0.750000 0.708458 0.306415
O O11 0.750000 0.265496 0.918467
O O12 0.842857 0.500000 0.900752
O O13 0.883415 0.223201 0.853884
O O14 0.951520 0.500000 0.621947
O O15 0.967566 0.732226 0.723186
O O16 0.250000 0.000000 0.650129
O O17 0.533578 0.000000 0.795498
#
# Coordination Sequence:
#
# PCOD8211912 Si02
#       7
#     8   8   4   8   8   4   8
#     4  10  20  38  61  86 120 155 187 236 298 356
#     4  10  20  38  62  89 119 154 197 246 297 350
#     4  10  20  34  58  89 120 153 194 245 294 343
#     4  10  21  41  65  87 117 156 199 247 300 352
#     4  11  22  39  61  86 113 152 201 245 289 343
#     4  10  22  36  54  85 120 153 186 225 286 353
#     4  12  25  39  58  88 121 158 201 244 294 354
#
# _framework density 19.608649
#
# number of rings (size 3 to 8) (size 9 to 14) (size 15 to 20)
#    0.000    1.500    0.833    6.000    0.000    7.667 
#    1.500    0.000    0.000    0.000    0.000    0.000 
#    0.000    0.000    0.000    0.000    0.000    0.000 
#
# Total GULP energy -595326.714678 kJ/mol
# GULP energy per Si atom -12402.639889 kJ/mol
# Density = 1.956402 g / cm^3
# Si number density = 19.608649 Si / 1000 Ang^3
#
#
#
# Elastic Constant Matrix: (Units=GPa)
#
#
# Indices 1 2 3 4 5 6 
#
# 1 110.6107 24.3471 53.2049 0.0000 0.0000 0.0000
# 2 24.3471 66.4782 24.3022 0.0000 0.0000 0.0000
# 3 53.2049 24.3022 87.6121 0.0000 0.0000 0.0000
# 4 0.0000 0.0000 0.0000 10.9866 0.0000 0.0000
# 5 0.0000 0.0000 0.0000 0.0000 22.6879 0.0000
# 6 0.0000 0.0000 0.0000 0.0000 0.0000 21.5099
#
#
#
# Elastic Compliance Matrix: (Units=1/GPa)
#
#
# Indices 1 2 3 4 5 6 
#
# 1 0.013027 -0.002091 -0.007331 0.000000 0.000000 0.000000
# 2 -0.002091 0.017076 -0.003467 0.000000 0.000000 0.000000
# 3 -0.007331 -0.003467 0.016828 0.000000 0.000000 0.000000
# 4 0.000000 0.000000 0.000000 0.091020 0.000000 0.000000
# 5 0.000000 0.000000 0.000000 0.000000 0.044076 0.000000
# 6 0.000000 0.000000 0.000000 0.000000 0.000000 0.046490
#
#
# Mechanical properties :
#
#
# Convention : Reuss Voigt Hill
#
# Bulk Modulus (GPa) = 47.27516 52.04549 49.66032
# Shear Modulus (GPa) = 19.13174 21.89334 20.51254
#
# Velocity S-wave (km/s) = 3.12697 3.34505 3.23785
# Velocity P-wave (km/s) = 6.09910 6.44352 6.27367
#
# Compressibility (1/GPa) = 0.02115276
#
# Stress axis : x y z
#
# Youngs Moduli (GPa) = 76.76136 58.56286 59.42610
#
# Poissons Ratio (x) = 0.12246 0.43566
# Poissons Ratio (y) = 0.16052 0.20601
# Poissons Ratio (z) = 0.56275 0.20302
#
# Static dielectric constant tensor:
#      x y z
#    x 3.724490 0.000000 0.000000 
#    y 0.000000 3.543000 0.000000 
#    z 0.000000 0.000000 3.617810 
# 
# 
# High freq. dielectric constant tensor:
#      x y z
#    x 1.771490 0.000000 0.000000 
#    y 0.000000 1.759440 0.000000 
#    z 0.000000 0.000000 1.770210 
# 
# From -- ./inp_files/24861.got.cif
#   From: 2010.03.12/outbox.cif.g09.slc.cpg/sg51_13_cif.got.tgz:24861.got - 2010.04.16 13:43:02.
