data_PCOD8211137
_publ_section_title
;
Structure prediction by ZEFSAII (Michael W. Deem and Ramdas Pophale) SiO2 
 PCOD8211137
Probable space group: P M M A
;
_chemical_formula_sum "Si O2"
_cell_formula_units_Z 48
_cell_length_a 9.196948
_cell_length_b 7.575718
_cell_length_c 34.298197
_cell_angle_alpha 90.000000
_cell_angle_beta 90.000000
_cell_angle_gamma 90.000000
_cell_volume 2389.674897
_symmetry_space_group_name_H-M "P M M A"
_symmetry_group_IT_number 51
_symmetry_cell_setting 'orthorhombic'
loop_
_space_group_symop_operation_xyz
x,y,z
1/2-x,-y,z
1/2+x,-y,-z
-x,y,-z
-x,-y,-z
1/2+x,y,-z
1/2-x,y,z
x,-y,z
loop_
_atom_site_type_symbol
_atom_site_label
_atom_site_fract_x
_atom_site_fract_y
_atom_site_fract_z
Si Si1 0.080076 0.000000 0.098828
Si Si2 0.918779 0.299937 0.961306
Si Si3 0.589432 0.290895 0.684382
Si Si4 0.920664 0.704814 0.771921
Si Si5 0.910602 0.205037 0.535786
Si Si6 0.576625 0.000000 0.179820
Si Si7 0.411740 0.291203 0.612018
O O1 0.039788 0.825614 0.074451
O O2 0.250000 0.000000 0.111053
O O3 0.976310 0.000000 0.135694
O O4 0.750000 0.284930 0.971000
O O5 0.963444 0.500000 0.950016
O O6 0.000000 0.235427 0.000000
O O7 0.750000 0.212048 0.676519
O O8 0.597823 0.500000 0.681223
O O9 0.537232 0.239616 0.727743
O O10 0.480232 0.213416 0.651924
O O11 0.750000 0.739227 0.779277
O O12 0.958079 0.500000 0.779762
O O13 0.016281 0.823286 0.800253
O O14 0.750000 0.292552 0.537830
O O15 0.000000 0.293143 0.500000
O O16 0.991679 0.232805 0.576086
O O17 0.893171 0.000000 0.527252
O O18 0.750000 0.000000 0.181743
O O19 0.250000 0.212152 0.607293
O O20 0.405678 0.500000 0.614194
#
# Coordination Sequence:
#
# PCOD8211137 Si02
#       7
#     4   8   8   8   8   4   8
#     4  10  21  37  55  76 110 154 198 241 285 340
#     4   9  18  33  55  83 112 145 188 238 292 348
#     4   8  15  31  56  82 105 133 172 218 268 320
#     4   9  19  39  65  86 109 149 196 241 292 350
#     4  10  21  37  55  73  97 133 174 213 257 308
#     4  12  26  39  55  86 123 156 197 247 300 356
#     4  10  20  33  52  80 110 137 167 207 258 315
#
# _framework density 20.086414000000001
#
# number of rings (size 3 to 8) (size 9 to 14) (size 15 to 20)
#    0.000    2.500    0.000    3.000    0.000    4.667 
#    1.500    3.333    0.000    0.000    0.000    0.000 
#    0.000    0.000    0.000    0.000    0.000    0.000 
#
# Total GULP energy -595117.813356 kJ/mol
# GULP energy per Si atom -12398.287778 kJ/mol
# Density = 2.004070 g / cm^3
# Si number density = 20.086414 Si / 1000 Ang^3
#
#
#
# Elastic Constant Matrix: (Units=GPa)
#
#
# Indices 1 2 3 4 5 6 
#
# 1 150.0974 43.5389 96.2084 0.0000 0.0000 0.0000
# 2 43.5389 70.5289 50.4443 0.0000 0.0000 0.0000
# 3 96.2084 50.4443 167.4236 0.0000 0.0000 0.0000
# 4 0.0000 0.0000 0.0000 27.9338 0.0000 0.0000
# 5 0.0000 0.0000 0.0000 0.0000 41.1677 0.0000
# 6 0.0000 0.0000 0.0000 0.0000 0.0000 21.1959
#
#
#
# Elastic Compliance Matrix: (Units=1/GPa)
#
#
# Indices 1 2 3 4 5 6 
#
# 1 0.010991 -0.002891 -0.005445 0.000000 0.000000 0.000000
# 2 -0.002891 0.018834 -0.004013 0.000000 0.000000 0.000000
# 3 -0.005445 -0.004013 0.010311 0.000000 0.000000 0.000000
# 4 0.000000 0.000000 0.000000 0.035799 0.000000 0.000000
# 5 0.000000 0.000000 0.000000 0.000000 0.024291 0.000000
# 6 0.000000 0.000000 0.000000 0.000000 0.000000 0.047179
#
#
# Mechanical properties :
#
#
# Convention : Reuss Voigt Hill
#
# Bulk Modulus (GPa) = 64.77703 85.38143 75.07923
# Shear Modulus (GPa) = 28.20911 31.25001 29.72956
#
# Velocity S-wave (km/s) = 3.75158 3.94862 3.85136
# Velocity P-wave (km/s) = 7.14738 7.96166 7.56548
#
# Compressibility (1/GPa) = 0.01543757
#
# Stress axis : x y z
#
# Youngs Moduli (GPa) = 90.98518 53.09679 96.98420
#
# Poissons Ratio (x) = 0.15348 0.52806
# Poissons Ratio (y) = 0.26300 0.38924
# Poissons Ratio (z) = 0.49540 0.21310
#
# Static dielectric constant tensor:
#      x y z
#    x 4.178540 0.000000 0.000000 
#    y 0.000000 3.610490 0.000000 
#    z 0.000000 0.000000 3.686100 
# 
# 
# High freq. dielectric constant tensor:
#      x y z
#    x 1.780860 0.000000 0.000000 
#    y 0.000000 1.777030 0.000000 
#    z 0.000000 0.000000 1.784700 
# 
# From -- ./inp_files/37214.got.cif
#   From: 2010.03.12/outbox.cif.g09.slc.cpg/sg51_19_cif.got.tgz:37214.got - 2010.04.16 13:43:02.
