data_PCOD8211926
_publ_section_title
;
Structure prediction by ZEFSAII (Michael W. Deem and Ramdas Pophale) SiO2 
 PCOD8211926
Probable space group: P M M A
;
_chemical_formula_sum "Si O2"
_cell_formula_units_Z 64
_cell_length_a 25.989529
_cell_length_b 13.514160
_cell_length_c 9.111552
_cell_angle_alpha 90.000000
_cell_angle_beta 90.000000
_cell_angle_gamma 90.000000
_cell_volume 3200.219915
_symmetry_space_group_name_H-M "P M M A"
_symmetry_group_IT_number 51
_symmetry_cell_setting 'orthorhombic'
loop_
_space_group_symop_operation_xyz
x,y,z
1/2-x,-y,z
1/2+x,-y,-z
-x,y,-z
-x,-y,-z
1/2+x,y,-z
1/2-x,y,z
x,-y,z
loop_
_atom_site_type_symbol
_atom_site_label
_atom_site_fract_x
_atom_site_fract_y
_atom_site_fract_z
Si Si1 0.445808 0.390783 0.419903
Si Si2 0.192200 0.217328 0.276518
Si Si3 0.887055 0.733462 0.136696
Si Si4 0.398891 0.116573 0.122127
Si Si5 0.046269 0.887078 0.408788
Si Si6 0.371210 0.774403 0.545594
Si Si7 0.808772 0.386122 0.944477
Si Si8 0.486515 0.386817 0.833518
O O1 0.500000 0.392700 0.500000
O O2 0.420527 0.500000 0.419533
O O3 0.405829 0.317036 0.491133
O O4 0.461788 0.355757 0.255187
O O5 0.250000 0.179344 0.255039
O O6 0.156522 0.137806 0.194405
O O7 0.180944 0.226353 0.450374
O O8 0.184015 0.326158 0.206452
O O9 0.858345 0.775283 0.281830
O O10 0.937265 0.680064 0.202190
O O11 0.904425 0.821691 0.028155
O O12 0.847992 0.656089 0.064628
O O13 0.442920 0.150363 0.240932
O O14 0.403097 0.000000 0.085802
O O15 0.097486 0.873901 0.505825
O O16 0.000000 0.831980 0.500000
O O17 0.031217 0.000000 0.394749
O O18 0.750000 0.375735 0.002444
O O19 0.822917 0.500000 0.913278
O O20 0.471970 0.500000 0.794002
O O21 0.500000 0.372325 0.000000
#
# Coordination Sequence:
#
# PCOD8211926 Si02
#       8
#     8   8   8   8   8   8   8   8
#     4  10  20  35  52  75 111 152 192 229 268 321
#     4   9  20  38  60  84 105 138 185 232 283 336
#     4  11  22  34  55  83 115 152 184 228 279 340
#     4   9  20  38  59  84 112 144 184 229 279 337
#     4   9  19  36  58  80 106 144 186 226 272 327
#     4  11  22  34  56  82 112 149 182 232 280 331
#     4   9  19  37  58  79 108 145 185 229 277 332
#     4  10  22  35  51  78 111 149 193 235 272 322
#
# _framework density 19.998626000000002
#
# number of rings (size 3 to 8) (size 9 to 14) (size 15 to 20)
#    0.000    2.250    1.250    0.750    5.250    2.250 
#    0.000    0.000    0.000    4.125    0.000    3.500 
#    0.000    0.000    0.000    0.000    0.000    0.000 
#
# Total GULP energy -793111.763263 kJ/mol
# GULP energy per Si atom -12392.371301 kJ/mol
# Density = 1.995311 g / cm^3
# Si number density = 19.998626 Si / 1000 Ang^3
#
#
#
# Elastic Constant Matrix: (Units=GPa)
#
#
# Indices 1 2 3 4 5 6 
#
# 1 57.0798 10.1469 20.7335 0.0000 0.0000 0.0000
# 2 10.1469 68.1810 21.9552 0.0000 0.0000 0.0000
# 3 20.7335 21.9552 132.1242 0.0000 0.0000 0.0000
# 4 0.0000 0.0000 0.0000 22.2291 0.0000 0.0000
# 5 0.0000 0.0000 0.0000 0.0000 23.7959 0.0000
# 6 0.0000 0.0000 0.0000 0.0000 0.0000 20.1307
#
#
#
# Elastic Compliance Matrix: (Units=1/GPa)
#
#
# Indices 1 2 3 4 5 6 
#
# 1 0.018822 -0.001955 -0.002629 0.000000 0.000000 0.000000
# 2 -0.001955 0.015699 -0.002302 0.000000 0.000000 0.000000
# 3 -0.002629 -0.002302 0.008364 0.000000 0.000000 0.000000
# 4 0.000000 0.000000 0.000000 0.044986 0.000000 0.000000
# 5 0.000000 0.000000 0.000000 0.000000 0.042024 0.000000
# 6 0.000000 0.000000 0.000000 0.000000 0.000000 0.049675
#
#
# Mechanical properties :
#
#
# Convention : Reuss Voigt Hill
#
# Bulk Modulus (GPa) = 34.34820 40.33958 37.34389
# Shear Modulus (GPa) = 24.62505 26.86775 25.74640
#
# Velocity S-wave (km/s) = 3.51285 3.66933 3.59194
# Velocity P-wave (km/s) = 5.80224 6.17794 5.99304
#
# Compressibility (1/GPa) = 0.02911361
#
# Stress axis : x y z
#
# Youngs Moduli (GPa) = 53.13025 63.69826 119.56461
#
# Poissons Ratio (x) = 0.12450 0.31431
# Poissons Ratio (y) = 0.10385 0.27524
# Poissons Ratio (z) = 0.13967 0.14663
#
# Static dielectric constant tensor:
#      x y z
#    x 3.279250 0.000000 0.000000 
#    y 0.000000 3.651320 0.000000 
#    z 0.000000 0.000000 3.496660 
# 
# 
# High freq. dielectric constant tensor:
#      x y z
#    x 1.761300 0.000000 0.000000 
#    y 0.000000 1.779990 0.000000 
#    z 0.000000 0.000000 1.787030 
# 
# From -- ./inp_files/11913.got.cif
#   From: 2010.03.12/outbox.cif.g09.slc.cpg/sg51_6_cif.got.tgz:11913.got - 2010.04.16 13:43:02.
