data_PCOD8211246
_publ_section_title
;
Structure prediction by ZEFSAII (Michael W. Deem and Ramdas Pophale) SiO2 
 PCOD8211246
Probable space group: P M M A
;
_chemical_formula_sum "Si O2"
_cell_formula_units_Z 64
_cell_length_a 19.134809
_cell_length_b 9.869306
_cell_length_c 18.437969
_cell_angle_alpha 90.000000
_cell_angle_beta 90.000000
_cell_angle_gamma 90.000000
_cell_volume 3481.960392
_symmetry_space_group_name_H-M "P M M A"
_symmetry_group_IT_number 51
_symmetry_cell_setting 'orthorhombic'
loop_
_space_group_symop_operation_xyz
x,y,z
1/2-x,-y,z
1/2+x,-y,-z
-x,y,-z
-x,-y,-z
1/2+x,y,-z
1/2-x,y,z
x,-y,z
loop_
_atom_site_type_symbol
_atom_site_label
_atom_site_fract_x
_atom_site_fract_y
_atom_site_fract_z
Si Si1 0.442204 0.155232 0.443308
Si Si2 0.590113 0.843650 0.225660
Si Si3 0.441172 0.847038 0.278407
Si Si4 0.670055 0.652856 0.500491
Si Si5 0.829877 0.346007 0.332606
Si Si6 0.830748 0.658383 0.791459
Si Si7 0.832813 0.649509 0.954458
Si Si8 0.168688 0.156745 0.919168
O O1 0.500000 0.209532 0.500000
O O2 0.468556 0.172038 0.360844
O O3 0.372848 0.243613 0.450886
O O4 0.423714 0.000000 0.461547
O O5 0.506756 0.819837 0.225233
O O6 0.622399 0.755493 0.288941
O O7 0.622400 0.798035 0.149120
O O8 0.608631 0.000000 0.241418
O O9 0.378421 0.744528 0.262540
O O10 0.413084 0.000000 0.267337
O O11 0.750000 0.666476 0.524729
O O12 0.643634 0.500000 0.514724
O O13 0.661334 0.690269 0.416532
O O14 0.750000 0.326768 0.308214
O O15 0.853776 0.500000 0.317403
O O16 0.750000 0.698945 0.779247
O O17 0.841518 0.500000 0.774979
O O18 0.855243 0.692676 0.873487
O O19 0.750000 0.642952 0.956536
O O20 0.862897 0.500000 0.973326
O O21 0.860276 0.758050 0.012628
O O22 0.250000 0.187816 0.902379
O O23 0.157609 0.000000 0.938426
#
# Coordination Sequence:
#
# PCOD8211246 Si02
#       8
#     8   8   8   8   8   8   8   8
#     4  10  21  37  55  75 101 134 172 212 253 302
#     4  10  20  34  50  71 104 142 176 210 249 297
#     4  10  22  37  53  76 104 134 170 211 256 305
#     4   9  19  35  53  75 102 129 162 208 259 309
#     4   9  18  32  50  74 103 134 170 211 253 299
#     4   9  19  37  59  80 102 131 169 212 258 309
#     4   8  15  30  52  76 101 130 166 207 250 298
#     4   9  17  29  48  76 105 133 169 209 246 289
#
# _framework density 18.380451000000001
#
# number of rings (size 3 to 8) (size 9 to 14) (size 15 to 20)
#    0.000    2.750    0.000    2.625    0.000    5.500 
#    0.000    6.875    0.000    3.750    0.000    0.000 
#    0.000    0.000    0.000    0.000    0.000    0.000 
#
# Total GULP energy -793576.897734 kJ/mol
# GULP energy per Si atom -12399.639027 kJ/mol
# Density = 1.833862 g / cm^3
# Si number density = 18.380451 Si / 1000 Ang^3
#
#
#
# Elastic Constant Matrix: (Units=GPa)
#
#
# Indices 1 2 3 4 5 6 
#
# 1 71.5830 42.9327 41.0201 0.0000 0.0000 0.0000
# 2 42.9327 71.0524 42.4053 0.0000 0.0000 0.0000
# 3 41.0201 42.4053 79.5086 0.0000 0.0000 0.0000
# 4 0.0000 0.0000 0.0000 35.4056 0.0000 0.0000
# 5 0.0000 0.0000 0.0000 0.0000 26.5197 0.0000
# 6 0.0000 0.0000 0.0000 0.0000 0.0000 28.6215
#
#
#
# Elastic Compliance Matrix: (Units=1/GPa)
#
#
# Indices 1 2 3 4 5 6 
#
# 1 0.024232 -0.010534 -0.006884 0.000000 0.000000 0.000000
# 2 -0.010534 0.025225 -0.008019 0.000000 0.000000 0.000000
# 3 -0.006884 -0.008019 0.020406 0.000000 0.000000 0.000000
# 4 0.000000 0.000000 0.000000 0.028244 0.000000 0.000000
# 5 0.000000 0.000000 0.000000 0.000000 0.037708 0.000000
# 6 0.000000 0.000000 0.000000 0.000000 0.000000 0.034939
#
#
# Mechanical properties :
#
#
# Convention : Reuss Voigt Hill
#
# Bulk Modulus (GPa) = 52.65997 52.76224 52.71111
# Shear Modulus (GPa) = 21.93402 24.49507 23.21455
#
# Velocity S-wave (km/s) = 3.45821 3.65454 3.55773
# Velocity P-wave (km/s) = 6.68265 6.82462 6.75401
#
# Compressibility (1/GPa) = 0.01898976
#
# Stress axis : x y z
#
# Youngs Moduli (GPa) = 41.26729 39.64342 49.00611
#
# Poissons Ratio (x) = 0.41759 0.33735
# Poissons Ratio (y) = 0.43470 0.39298
# Poissons Ratio (z) = 0.28408 0.31790
#
# Static dielectric constant tensor:
#      x y z
#    x 3.170290 0.000000 0.000000 
#    y 0.000000 3.424600 0.000000 
#    z 0.000000 0.000000 3.400120 
# 
# 
# High freq. dielectric constant tensor:
#      x y z
#    x 1.693020 0.000000 0.000000 
#    y 0.000000 1.714300 0.000000 
#    z 0.000000 0.000000 1.711490 
# 
# From -- ./inp_files/30617.got.cif
#   From: 2010.03.12/outbox.cif.g09.slc.cpg/sg51_16_cif.got.tgz:30617.got - 2010.04.16 13:43:02.
