data_PCOD8211501
_publ_section_title
;
Structure prediction by ZEFSAII (Michael W. Deem and Ramdas Pophale) SiO2 
 PCOD8211501
Probable space group: P M M A
;
_chemical_formula_sum "Si O2"
_cell_formula_units_Z 48
_cell_length_a 8.751975
_cell_length_b 30.408349
_cell_length_c 9.440544
_cell_angle_alpha 90.000000
_cell_angle_beta 90.000000
_cell_angle_gamma 90.000000
_cell_volume 2512.441337
_symmetry_space_group_name_H-M "P M M A"
_symmetry_group_IT_number 51
_symmetry_cell_setting 'orthorhombic'
loop_
_space_group_symop_operation_xyz
x,y,z
1/2-x,-y,z
1/2+x,-y,-z
-x,y,-z
-x,-y,-z
1/2+x,y,-z
1/2-x,y,z
x,-y,z
loop_
_atom_site_type_symbol
_atom_site_label
_atom_site_fract_x
_atom_site_fract_y
_atom_site_fract_z
Si Si1 0.568983 0.879834 0.845780
Si Si2 0.429861 0.798542 0.345193
Si Si3 0.927786 0.051396 0.352508
Si Si4 0.570007 0.548928 0.350869
Si Si5 0.568487 0.717341 0.845962
Si Si6 0.068289 0.373181 0.847422
O O1 0.750000 0.881866 0.859253
O O2 0.513398 0.840231 0.745170
O O3 0.507799 0.925034 0.779386
O O4 0.500000 0.872408 0.000000
O O5 0.500000 0.799847 0.500000
O O6 0.250000 0.799479 0.362231
O O7 0.483343 0.754906 0.262947
O O8 0.750000 0.063091 0.355270
O O9 0.000000 0.068010 0.500000
O O10 0.958101 0.000000 0.331282
O O11 0.500000 0.561614 0.500000
O O12 0.750000 0.550853 0.365594
O O13 0.517047 0.500000 0.302203
O O14 0.510561 0.585210 0.241802
O O15 0.750000 0.714063 0.860528
O O16 0.500985 0.671829 0.784036
O O17 0.500000 0.727985 0.000000
O O18 0.250000 0.369299 0.853331
O O19 0.000000 0.381379 0.000000
#
# Coordination Sequence:
#
# PCOD8211501 Si02
#       6
#     8   8   8   8   8   8
#     4  11  23  39  59  84 113 147 187 229 276 326
#     4  10  23  39  57  82 110 142 180 222 268 321
#     4  10  21  38  60  86 116 150 187 228 275 326
#     4   9  19  35  53  74 102 136 174 216 262 312
#     4  10  20  36  56  79 107 139 176 216 263 316
#     4  10  20  34  53  78 106 137 174 215 261 313
#
# _framework density 19.104921999999998
#
# number of rings (size 3 to 8) (size 9 to 14) (size 15 to 20)
#    0.000    2.000    0.000    4.000    0.000    7.667 
#    0.000    3.333    0.000    0.000    0.000    0.000 
#    0.000    0.000    0.000    0.000    0.000    0.000 
#
# Total GULP energy -595307.017466 kJ/mol
# GULP energy per Si atom -12402.229531 kJ/mol
# Density = 1.906144 g / cm^3
# Si number density = 19.104922 Si / 1000 Ang^3
#
#
#
# Elastic Constant Matrix: (Units=GPa)
#
#
# Indices 1 2 3 4 5 6 
#
# 1 74.0289 51.6102 49.1410 0.0000 0.0000 0.0000
# 2 51.6102 132.4926 89.1967 0.0000 0.0000 0.0000
# 3 49.1410 89.1967 136.7732 0.0000 0.0000 0.0000
# 4 0.0000 0.0000 0.0000 38.0861 0.0000 0.0000
# 5 0.0000 0.0000 0.0000 0.0000 36.9891 0.0000
# 6 0.0000 0.0000 0.0000 0.0000 0.0000 26.6064
#
#
#
# Elastic Compliance Matrix: (Units=1/GPa)
#
#
# Indices 1 2 3 4 5 6 
#
# 1 0.019522 -0.005139 -0.003663 0.000000 0.000000 0.000000
# 2 -0.005139 0.014807 -0.007810 0.000000 0.000000 0.000000
# 3 -0.003663 -0.007810 0.013721 0.000000 0.000000 0.000000
# 4 0.000000 0.000000 0.000000 0.026256 0.000000 0.000000
# 5 0.000000 0.000000 0.000000 0.000000 0.027035 0.000000
# 6 0.000000 0.000000 0.000000 0.000000 0.000000 0.037585
#
#
# Mechanical properties :
#
#
# Convention : Reuss Voigt Hill
#
# Bulk Modulus (GPa) = 67.44608 80.35452 73.90030
# Shear Modulus (GPa) = 28.23380 30.55944 29.39662
#
# Velocity S-wave (km/s) = 3.84842 4.00379 3.92687
# Velocity P-wave (km/s) = 7.42474 7.97023 7.70232
#
# Compressibility (1/GPa) = 0.01482666
#
# Stress axis : x y z
#
# Youngs Moduli (GPa) = 51.22393 67.53410 72.88102
#
# Poissons Ratio (x) = 0.34703 0.26696
# Poissons Ratio (y) = 0.26321 0.56923
# Poissons Ratio (z) = 0.18763 0.52747
#
# Static dielectric constant tensor:
#      x y z
#    x 3.506360 0.000000 0.000000 
#    y 0.000000 3.857610 0.000000 
#    z 0.000000 0.000000 3.455760 
# 
# 
# High freq. dielectric constant tensor:
#      x y z
#    x 1.749410 0.000000 0.000000 
#    y 0.000000 1.758350 0.000000 
#    z 0.000000 0.000000 1.741620 
# 
# From -- ./inp_files/6072.got.cif
#   From: 2010.03.12/outbox.cif.g09.slc.cpg/sg51_4_cif.got.tgz:6072.got - 2010.04.16 13:43:02.
