data_PCOD8211960
_publ_section_title
;
Structure prediction by ZEFSAII (Michael W. Deem and Ramdas Pophale) SiO2 
 PCOD8211960
Probable space group: P M M A
;
_chemical_formula_sum "Si O2"
_cell_formula_units_Z 56
_cell_length_a 22.129240
_cell_length_b 9.138843
_cell_length_c 14.694027
_cell_angle_alpha 90.000000
_cell_angle_beta 90.000000
_cell_angle_gamma 90.000000
_cell_volume 2971.656102
_symmetry_space_group_name_H-M "P M M A"
_symmetry_group_IT_number 51
_symmetry_cell_setting 'orthorhombic'
loop_
_space_group_symop_operation_xyz
x,y,z
1/2-x,-y,z
1/2+x,-y,-z
-x,y,-z
-x,-y,-z
1/2+x,y,-z
1/2-x,y,z
x,-y,z
loop_
_atom_site_type_symbol
_atom_site_label
_atom_site_fract_x
_atom_site_fract_y
_atom_site_fract_z
Si Si1 0.945576 0.830815 0.380487
Si Si2 0.681799 0.669423 0.702214
Si Si3 0.019928 0.333085 0.099192
Si Si4 0.599505 0.333602 0.213627
Si Si5 0.820795 0.165362 0.073545
Si Si6 0.139183 0.826650 0.124778
Si Si7 0.581230 0.830147 0.587162
O O1 0.903736 0.741814 0.311552
O O2 0.917341 0.803871 0.479433
O O3 0.015589 0.779282 0.375967
O O4 0.942270 0.000000 0.354120
O O5 0.750000 0.687442 0.663675
O O6 0.665386 0.500000 0.716945
O O7 0.679825 0.751225 0.798808
O O8 0.634235 0.736136 0.631545
O O9 0.043988 0.500000 0.093513
O O10 0.070641 0.225926 0.138247
O O11 0.964918 0.318201 0.167068
O O12 0.000000 0.277573 0.000000
O O13 0.618597 0.500000 0.228474
O O14 0.650217 0.262077 0.151528
O O15 0.750000 0.172957 0.087408
O O16 0.845079 0.000000 0.082910
O O17 0.837633 0.226111 0.973791
O O18 0.143858 0.000000 0.136536
O O19 0.592071 0.000000 0.610655
#
# Coordination Sequence:
#
# PCOD8211960 Si02
#       7
#     8   8   8   8   8   8   8
#     4   9  19  37  61  88 116 143 178 228 285 337
#     4  11  24  39  56  82 117 154 189 230 283 340
#     4  10  20  35  53  79 117 151 182 225 278 332
#     4  11  22  35  55  83 113 148 186 225 271 327
#     4  10  22  39  56  75 104 144 189 235 277 320
#     4  11  22  36  58  84 111 146 192 236 278 332
#     4   9  19  38  63  88 112 143 183 229 280 335
#
# _framework density 18.844711
#
# number of rings (size 3 to 8) (size 9 to 14) (size 15 to 20)
#    0.000    1.857    1.429    3.429    0.000    7.429 
#    0.000    2.143    0.000    0.857    0.000    0.000 
#    0.000    0.000    0.000    0.000    0.000    0.000 
#
# Total GULP energy -694580.237366 kJ/mol
# GULP energy per Si atom -12403.218524 kJ/mol
# Density = 1.880182 g / cm^3
# Si number density = 18.844711 Si / 1000 Ang^3
#
#
#
# Elastic Constant Matrix: (Units=GPa)
#
#
# Indices 1 2 3 4 5 6 
#
# 1 74.3829 31.0676 25.3493 0.0000 0.0000 0.0000
# 2 31.0676 68.1254 30.1853 0.0000 0.0000 0.0000
# 3 25.3493 30.1853 85.2866 0.0000 0.0000 0.0000
# 4 0.0000 0.0000 0.0000 25.8369 0.0000 0.0000
# 5 0.0000 0.0000 0.0000 0.0000 26.8667 0.0000
# 6 0.0000 0.0000 0.0000 0.0000 0.0000 20.4548
#
#
#
# Elastic Compliance Matrix: (Units=1/GPa)
#
#
# Indices 1 2 3 4 5 6 
#
# 1 0.017138 -0.006592 -0.002761 0.000000 0.000000 0.000000
# 2 -0.006592 0.019945 -0.005100 0.000000 0.000000 0.000000
# 3 -0.002761 -0.005100 0.014351 0.000000 0.000000 0.000000
# 4 0.000000 0.000000 0.000000 0.038704 0.000000 0.000000
# 5 0.000000 0.000000 0.000000 0.000000 0.037221 0.000000
# 6 0.000000 0.000000 0.000000 0.000000 0.000000 0.048888
#
#
# Mechanical properties :
#
#
# Convention : Reuss Voigt Hill
#
# Bulk Modulus (GPa) = 44.38875 44.55548 44.47212
# Shear Modulus (GPa) = 23.51152 24.04452 23.77802
#
# Velocity S-wave (km/s) = 3.53603 3.57589 3.55602
# Velocity P-wave (km/s) = 6.34646 6.38311 6.36481
#
# Compressibility (1/GPa) = 0.02252823
#
# Stress axis : x y z
#
# Youngs Moduli (GPa) = 58.34902 50.13857 69.68362
#
# Poissons Ratio (x) = 0.33054 0.19237
# Poissons Ratio (y) = 0.38466 0.35535
# Poissons Ratio (z) = 0.16108 0.25568
#
# Static dielectric constant tensor:
#      x y z
#    x 3.328760 0.000000 0.000000 
#    y 0.000000 3.503310 0.000000 
#    z 0.000000 0.000000 3.462130 
# 
# 
# High freq. dielectric constant tensor:
#      x y z
#    x 1.725940 0.000000 0.000000 
#    y 0.000000 1.733940 0.000000 
#    z 0.000000 0.000000 1.736000 
# 
# From -- ./inp_files/25713.got.cif
#   From: 2010.03.12/outbox.cif.g09.slc.cpg/sg51_13_cif.got.tgz:25713.got - 2010.04.16 13:43:02.
