data_PCOD8211703
_publ_section_title
;
Structure prediction by ZEFSAII (Michael W. Deem and Ramdas Pophale) SiO2 
 PCOD8211703
Probable space group: P M M A
;
_chemical_formula_sum "Si O2"
_cell_formula_units_Z 40
_cell_length_a 15.166618
_cell_length_b 12.826586
_cell_length_c 10.414881
_cell_angle_alpha 90.000000
_cell_angle_beta 90.000000
_cell_angle_gamma 90.000000
_cell_volume 2026.068562
_symmetry_space_group_name_H-M "P M M A"
_symmetry_group_IT_number 51
_symmetry_cell_setting 'orthorhombic'
loop_
_space_group_symop_operation_xyz
x,y,z
1/2-x,-y,z
1/2+x,-y,-z
-x,y,-z
-x,-y,-z
1/2+x,y,-z
1/2-x,y,z
x,-y,z
loop_
_atom_site_type_symbol
_atom_site_label
_atom_site_fract_x
_atom_site_fract_y
_atom_site_fract_z
Si Si1 0.149687 0.115585 0.298478
Si Si2 0.938238 0.615119 0.878051
Si Si3 0.650062 0.186436 0.968228
Si Si4 0.354204 0.122493 0.758127
Si Si5 0.502103 0.261848 0.360161
O O1 0.250000 0.158641 0.310597
O O2 0.120651 0.111591 0.148020
O O3 0.083497 0.188721 0.373255
O O4 0.143488 0.000000 0.356469
O O5 0.898926 0.500000 0.848766
O O6 0.862011 0.695074 0.918632
O O7 0.992226 0.653398 0.752709
O O8 0.000000 0.608516 0.000000
O O9 0.750000 0.166201 0.002659
O O10 0.603760 0.155773 0.102465
O O11 0.250000 0.147868 0.741371
O O12 0.409723 0.191832 0.657896
O O13 0.371633 0.000000 0.735413
O O14 0.500000 0.317976 0.500000
#
# Coordination Sequence:
#
# PCOD8211703 Si02
#       5
#     8   8   8   8   8
#     4   9  18  32  52  79 111 146 184 226 271 324
#     4  10  20  37  59  81 104 135 181 230 279 328
#     4   9  17  32  54  82 110 138 177 229 279 324
#     4  10  20  34  54  81 114 150 186 223 267 323
#     4  11  23  37  54  80 113 149 186 226 274 324
#
# _framework density 19.742667999999998
#
# number of rings (size 3 to 8) (size 9 to 14) (size 15 to 20)
#    0.000    2.200    2.000    1.200    0.000    5.600 
#    0.000    5.000    0.000    0.600    0.000    2.800 
#    0.000    0.000    0.000    0.000    0.000    0.000 
#
# Total GULP energy -495572.855448 kJ/mol
# GULP energy per Si atom -12389.321386 kJ/mol
# Density = 1.969773 g / cm^3
# Si number density = 19.742668 Si / 1000 Ang^3
#
#
#
# Elastic Constant Matrix: (Units=GPa)
#
#
# Indices 1 2 3 4 5 6 
#
# 1 38.4602 2.0900 11.7136 0.0000 0.0000 0.0000
# 2 2.0900 86.7469 18.9427 0.0000 0.0000 0.0000
# 3 11.7136 18.9427 114.6114 0.0000 0.0000 0.0000
# 4 0.0000 0.0000 0.0000-3715.3215 0.0000 0.0000
# 5 0.0000 0.0000 0.0000 0.0000 18.4522 0.0000
# 6 0.0000 0.0000 0.0000 0.0000 0.0000 17.0210
#
#
#
# Elastic Compliance Matrix: (Units=1/GPa)
#
#
# Indices 1 2 3 4 5 6 
#
# 1 0.026836 -0.000049 -0.002735 0.000000 0.000000 0.000000
# 2 -0.000049 0.011960 -0.001972 0.000000 0.000000 0.000000
# 3 -0.002735 -0.001972 0.009330 0.000000 0.000000 0.000000
# 4 0.000000 0.000000 0.000000 -0.000269 0.000000 0.000000
# 5 0.000000 0.000000 0.000000 0.000000 0.054194 0.000000
# 6 0.000000 0.000000 0.000000 0.000000 0.000000 0.058751
#
#
# Mechanical properties :
#
#
# Convention : Reuss Voigt Hill
#
# Bulk Modulus (GPa) = 25.89650 33.92345 29.90998
# Shear Modulus (GPa) = 27.29478 -722.16484 -347.43503
#
# Velocity S-wave (km/s) = 3.72227 -19.14636 -13.28020
# Velocity P-wave (km/s) = 5.62310 21.71537 14.83135
#
# Compressibility (1/GPa) = 0.03861526
#
# Stress axis : x y z
#
# Youngs Moduli (GPa) = 37.26272 83.61544 107.17565
#
# Poissons Ratio (x) = 0.00413 0.29308
# Poissons Ratio (y) = 0.00184 0.21131
# Poissons Ratio (z) = 0.10190 0.16486
#
# Static dielectric constant tensor:
#      x y z
#    x 3.477240 0.000000 0.000000 
#    y 0.000000 3.746020 0.000000 
#    z 0.000000 0.000000 3.675750 
# 
# 
# High freq. dielectric constant tensor:
#      x y z
#    x 1.759330 0.000000 0.000000 
#    y 0.000000 1.746550 0.000000 
#    z 0.000000 0.000000 1.774050 
# 
# From -- ./inp_files/7898.got.cif
#   From: 2010.03.12/outbox.cif.g09.slc.cpg/sg51_4_cif.got.tgz:7898.got - 2010.04.16 13:43:02.
