data_PCOD8211475
_publ_section_title
;
Structure prediction by ZEFSAII (Michael W. Deem and Ramdas Pophale) SiO2 
 PCOD8211475
Probable space group: P M M A
;
_chemical_formula_sum "Si O2"
_cell_formula_units_Z 44
_cell_length_a 9.117767
_cell_length_b 7.876783
_cell_length_c 29.790254
_cell_angle_alpha 90.000000
_cell_angle_beta 90.000000
_cell_angle_gamma 90.000000
_cell_volume 2139.496484
_symmetry_space_group_name_H-M "P M M A"
_symmetry_group_IT_number 51
_symmetry_cell_setting 'orthorhombic'
loop_
_space_group_symop_operation_xyz
x,y,z
1/2-x,-y,z
1/2+x,-y,-z
-x,y,-z
-x,-y,-z
1/2+x,y,-z
1/2-x,y,z
x,-y,z
loop_
_atom_site_type_symbol
_atom_site_label
_atom_site_fract_x
_atom_site_fract_y
_atom_site_fract_z
Si Si1 0.921472 0.500000 0.452894
Si Si2 0.414865 0.202625 0.956283
Si Si3 0.917699 0.802286 0.702669
Si Si4 0.920413 0.806180 0.388960
Si Si5 0.411501 0.805139 0.128261
Si Si6 0.914836 0.306719 0.212053
O O1 0.750000 0.500000 0.461902
O O2 0.968075 0.671749 0.426843
O O3 0.000000 0.500000 0.500000
O O4 0.250000 0.275045 0.957281
O O5 0.494627 0.278305 0.912001
O O6 0.411614 0.000000 0.955331
O O7 0.500000 0.269641 0.000000
O O8 0.750000 0.739680 0.703078
O O9 0.985354 0.760545 0.654489
O O10 0.008700 0.702263 0.739757
O O11 0.929116 0.000000 0.713849
O O12 0.750000 0.784132 0.376485
O O13 0.952311 0.000000 0.405289
O O14 0.250000 0.718658 0.131638
O O15 0.493832 0.796090 0.175534
O O16 0.389682 0.000000 0.115960
O O17 0.750000 0.231867 0.215293
O O18 0.910333 0.500000 0.196175
#
# Coordination Sequence:
#
# PCOD8211475 Si02
#       6
#     4   8   8   8   8   8
#     4  10  22  38  58  86 118 154 198 242 289 346
#     4   9  16  27  46  73 103 134 171 217 268 321
#     4  10  21  37  58  85 113 142 181 229 280 333
#     4   9  19  37  59  83 115 154 193 238 289 342
#     4  10  20  34  53  77 105 137 175 221 271 324
#     4  11  24  38  53  76 107 144 183 222 268 326
#
# _framework density 20.565586
#
# number of rings (size 3 to 8) (size 9 to 14) (size 15 to 20)
#    0.000    2.182    0.000    2.727    1.273    9.091 
#    0.000    0.000    0.000    0.545    0.000    0.000 
#    0.000    0.000    0.000    0.000    0.000    0.000 
#
# Total GULP energy -545639.156127 kJ/mol
# GULP energy per Si atom -12400.889912 kJ/mol
# Density = 2.051878 g / cm^3
# Si number density = 20.565586 Si / 1000 Ang^3
#
#
#
# Elastic Constant Matrix: (Units=GPa)
#
#
# Indices 1 2 3 4 5 6 
#
# 1 174.8454 28.5803 89.4501 0.0000 0.0000 0.0000
# 2 28.5803 54.7097 39.2086 0.0000 0.0000 0.0000
# 3 89.4501 39.2086 157.7782 0.0000 0.0000 0.0000
# 4 0.0000 0.0000 0.0000 -10.5225 0.0000 0.0000
# 5 0.0000 0.0000 0.0000 0.0000 46.4580 0.0000
# 6 0.0000 0.0000 0.0000 0.0000 0.0000 11.2925
#
#
#
# Elastic Compliance Matrix: (Units=1/GPa)
#
#
# Indices 1 2 3 4 5 6 
#
# 1 0.008115 -0.001146 -0.004316 0.000000 0.000000 0.000000
# 2 -0.001146 0.022401 -0.004917 0.000000 0.000000 0.000000
# 3 -0.004316 -0.004917 0.010007 0.000000 0.000000 0.000000
# 4 0.000000 0.000000 0.000000 -0.095034 0.000000 0.000000
# 5 0.000000 0.000000 0.000000 0.000000 0.021525 0.000000
# 6 0.000000 0.000000 0.000000 0.000000 0.000000 0.088554
#
#
# Mechanical properties :
#
#
# Convention : Reuss Voigt Hill
#
# Bulk Modulus (GPa) = 50.59559 77.97904 64.28732
# Shear Modulus (GPa) = 60.30465 24.78521 42.54493
#
# Velocity S-wave (km/s) = 5.42095 3.47534 4.55328
# Velocity P-wave (km/s) = 7.98986 7.35551 7.67924
#
# Compressibility (1/GPa) = 0.01976457
#
# Stress axis : x y z
#
# Youngs Moduli (GPa) = 123.23577 44.64121 99.93464
#
# Poissons Ratio (x) = 0.05117 0.43128
# Poissons Ratio (y) = 0.14125 0.49137
# Poissons Ratio (z) = 0.53183 0.21950
#
# Static dielectric constant tensor:
#      x y z
#    x 3.989730 0.000000 0.000000 
#    y 0.000000 3.501740 0.000000 
#    z 0.000000 0.000000 3.590730 
# 
# 
# High freq. dielectric constant tensor:
#      x y z
#    x 1.817030 0.000000 0.000000 
#    y 0.000000 1.783290 0.000000 
#    z 0.000000 0.000000 1.802520 
# 
# From -- ./inp_files/36737.got.cif
#   From: 2010.03.12/outbox.cif.g09.slc.cpg/sg51_19_cif.got.tgz:36737.got - 2010.04.16 13:43:02.
