data_PCOD8211108
_publ_section_title
;
Structure prediction by ZEFSAII (Michael W. Deem and Ramdas Pophale) SiO2 
 PCOD8211108
Probable space group: P M M A
;
_chemical_formula_sum "Si O2"
_cell_formula_units_Z 48
_cell_length_a 8.861441
_cell_length_b 31.028971
_cell_length_c 9.137265
_cell_angle_alpha 90.000000
_cell_angle_beta 90.000000
_cell_angle_gamma 90.000000
_cell_volume 2512.395138
_symmetry_space_group_name_H-M "P M M A"
_symmetry_group_IT_number 51
_symmetry_cell_setting 'orthorhombic'
loop_
_space_group_symop_operation_xyz
x,y,z
1/2-x,-y,z
1/2+x,-y,-z
-x,y,-z
-x,-y,-z
1/2+x,y,-z
1/2-x,y,z
x,-y,z
loop_
_atom_site_type_symbol
_atom_site_label
_atom_site_fract_x
_atom_site_fract_y
_atom_site_fract_z
Si Si1 0.926936 0.046700 0.841303
Si Si2 0.572199 0.451536 0.846887
Si Si3 0.573491 0.626362 0.654878
Si Si4 0.427652 0.785292 0.658163
Si Si5 0.428150 0.709140 0.158627
Si Si6 0.426742 0.869389 0.841838
O O1 0.750000 0.055468 0.855178
O O2 0.005158 0.087580 0.762001
O O3 0.956680 0.000000 0.763151
O O4 0.000000 0.044956 0.000000
O O5 0.750000 0.447602 0.867123
O O6 0.523699 0.500000 0.801576
O O7 0.514176 0.418828 0.722203
O O8 0.500000 0.437967 0.000000
O O9 0.500000 0.635459 0.500000
O O10 0.750000 0.624556 0.628449
O O11 0.529159 0.664176 0.765699
O O12 0.500000 0.787200 0.500000
O O13 0.250000 0.777136 0.645440
O O14 0.502008 0.747026 0.747184
O O15 0.466257 0.829689 0.738579
O O16 0.250000 0.715933 0.145779
O O17 0.500000 0.709553 0.000000
O O18 0.250000 0.875402 0.863556
O O19 0.500000 0.861251 0.000000
#
# Coordination Sequence:
#
# PCOD8211108 Si02
#       6
#     8   8   8   8   8   8
#     4   9  16  26  44  72 104 137 173 215 262 310
#     4   9  18  34  55  79 108 142 182 227 272 319
#     4  10  22  37  54  80 112 145 181 222 269 322
#     4  11  24  40  58  81 109 142 180 222 271 324
#     4  11  23  39  60  84 110 141 179 223 270 322
#     4  10  20  33  52  78 106 138 176 218 264 315
#
# _framework density 19.105274999999999
#
# number of rings (size 3 to 8) (size 9 to 14) (size 15 to 20)
#    0.000    2.000    0.000    4.500    0.000    8.667 
#    0.000    0.000    0.000    0.500    0.000    0.000 
#    0.000    0.000    0.000    0.000    0.000    0.000 
#
# Total GULP energy -595097.797546 kJ/mol
# GULP energy per Si atom -12397.870782 kJ/mol
# Density = 1.906179 g / cm^3
# Si number density = 19.105275 Si / 1000 Ang^3
#
#
#
# Elastic Constant Matrix: (Units=GPa)
#
#
# Indices 1 2 3 4 5 6 
#
# 1 85.8156 73.8142 56.8644 0.0000 0.0000 0.0000
# 2 73.8142 165.4612 75.2737 0.0000 0.0000 0.0000
# 3 56.8644 75.2737 121.0309 0.0000 0.0000 0.0000
# 4 0.0000 0.0000 0.0000 51.0550 0.0000 0.0000
# 5 0.0000 0.0000 0.0000 0.0000 32.5854 0.0000
# 6 0.0000 0.0000 0.0000 0.0000 0.0000 22.0557
#
#
#
# Elastic Compliance Matrix: (Units=1/GPa)
#
#
# Indices 1 2 3 4 5 6 
#
# 1 0.021441 -0.006948 -0.005752 0.000000 0.000000 0.000000
# 2 -0.006948 0.010680 -0.003378 0.000000 0.000000 0.000000
# 3 -0.005752 -0.003378 0.013066 0.000000 0.000000 0.000000
# 4 0.000000 0.000000 0.000000 0.019587 0.000000 0.000000
# 5 0.000000 0.000000 0.000000 0.000000 0.030689 0.000000
# 6 0.000000 0.000000 0.000000 0.000000 0.000000 0.045340
#
#
# Mechanical properties :
#
#
# Convention : Reuss Voigt Hill
#
# Bulk Modulus (GPa) = 76.74520 87.13469 81.93995
# Shear Modulus (GPa) = 28.20042 32.22959 30.21501
#
# Velocity S-wave (km/s) = 3.84611 4.11170 3.98112
# Velocity P-wave (km/s) = 7.74469 8.26124 8.00713
#
# Compressibility (1/GPa) = 0.01303013
#
# Stress axis : x y z
#
# Youngs Moduli (GPa) = 46.63934 93.63248 76.53532
#
# Poissons Ratio (x) = 0.65057 0.44027
# Poissons Ratio (y) = 0.32406 0.25852
# Poissons Ratio (z) = 0.26829 0.31628
#
# Static dielectric constant tensor:
#      x y z
#    x 3.600110 0.000000 0.000000 
#    y 0.000000 4.252990 0.000000 
#    z 0.000000 0.000000 3.245660 
# 
# 
# High freq. dielectric constant tensor:
#      x y z
#    x 1.751940 0.000000 0.000000 
#    y 0.000000 1.770650 0.000000 
#    z 0.000000 0.000000 1.718760 
# 
# From -- ./inp_files/6062.got.cif
#   From: 2010.03.12/outbox.cif.g09.slc.cpg/sg51_4_cif.got.tgz:6062.got - 2010.04.16 13:43:02.
