data_PCOD8211295
_publ_section_title
;
Structure prediction by ZEFSAII (Michael W. Deem and Ramdas Pophale) SiO2 
 PCOD8211295
Probable space group: P M M A
;
_chemical_formula_sum "Si O2"
_cell_formula_units_Z 36
_cell_length_a 9.972447
_cell_length_b 7.670030
_cell_length_c 24.935937
_cell_angle_alpha 90.000000
_cell_angle_beta 90.000000
_cell_angle_gamma 90.000000
_cell_volume 1907.324079
_symmetry_space_group_name_H-M "P M M A"
_symmetry_group_IT_number 51
_symmetry_cell_setting 'orthorhombic'
loop_
_space_group_symop_operation_xyz
x,y,z
1/2-x,-y,z
1/2+x,-y,-z
-x,y,-z
-x,-y,-z
1/2+x,y,-z
1/2-x,y,z
x,-y,z
loop_
_atom_site_type_symbol
_atom_site_label
_atom_site_fract_x
_atom_site_fract_y
_atom_site_fract_z
Si Si1 0.908909 0.307201 0.869949
Si Si2 0.399829 0.292599 0.544071
Si Si3 0.600794 0.293052 0.751686
Si Si4 0.409890 0.000000 0.052324
Si Si5 0.399983 0.707408 0.663428
O O1 0.750000 0.317845 0.867563
O O2 0.967059 0.500000 0.884138
O O3 0.956701 0.245163 0.810805
O O4 0.954902 0.170290 0.914573
O O5 0.500000 0.210812 0.500000
O O6 0.250000 0.225091 0.531496
O O7 0.402756 0.500000 0.541251
O O8 0.443460 0.231600 0.603730
O O9 0.750000 0.214517 0.743107
O O10 0.607796 0.500000 0.746458
O O11 0.502305 0.211749 0.706877
O O12 0.250000 0.000000 0.039652
O O13 0.500000 0.000000 0.000000
O O14 0.250000 0.775371 0.676063
O O15 0.401929 0.500000 0.666555
#
# Coordination Sequence:
#
# PCOD8211295 Si02
#       5
#     8   8   8   4   8
#     4   8  15  29  48  69  93 121 153 188 226 268
#     4   8  13  19  25  35  56  89 128 168 209 253
#     4   8  13  22  37  55  73  97 133 173 210 253
#     4  10  20  34  52  72  96 126 155 186 225 264
#     4   8  13  20  29  44  68  96 128 170 218 262
#
# _framework density 18.874611999999999
#
# number of rings (size 3 to 8) (size 9 to 14) (size 15 to 20)
#    0.000    3.778    0.000    2.667    0.000    1.333 
#    0.000    5.556    0.000    1.333    0.000    0.000 
#    0.000    0.000    0.000    1.000    0.000   12.889 
#
# Total GULP energy -446038.349303 kJ/mol
# GULP energy per Si atom -12389.954147 kJ/mol
# Density = 1.883165 g / cm^3
# Si number density = 18.874612 Si / 1000 Ang^3
#
#
#
# Elastic Constant Matrix: (Units=GPa)
#
#
# Indices 1 2 3 4 5 6 
#
# 1 91.0288 23.3307 95.0840 0.0000 0.0000 0.0000
# 2 23.3307 49.2430 45.1752 0.0000 0.0000 0.0000
# 3 95.0840 45.1752 191.9217 0.0000 0.0000 0.0000
# 4 0.0000 0.0000 0.0000 -10.9238 0.0000 0.0000
# 5 0.0000 0.0000 0.0000 0.0000 41.2543 0.0000
# 6 0.0000 0.0000 0.0000 0.0000 0.0000 2.2811
#
#
#
# Elastic Compliance Matrix: (Units=1/GPa)
#
#
# Indices 1 2 3 4 5 6 
#
# 1 0.022780 -0.000560 -0.011154 0.000000 0.000000 0.000000
# 2 -0.000560 0.025914 -0.005822 0.000000 0.000000 0.000000
# 3 -0.011154 -0.005822 0.012107 0.000000 0.000000 0.000000
# 4 0.000000 0.000000 0.000000 -0.091543 0.000000 0.000000
# 5 0.000000 0.000000 0.000000 0.000000 0.024240 0.000000
# 6 0.000000 0.000000 0.000000 0.000000 0.000000 0.438385
#
#
# Mechanical properties :
#
#
# Convention : Reuss Voigt Hill
#
# Bulk Modulus (GPa) = 38.86784 73.26367 56.06576
# Shear Modulus (GPa) = 10.51453 17.76257 14.13855
#
# Velocity S-wave (km/s) = 2.36280 3.07103 2.73990
# Velocity P-wave (km/s) = 5.29916 7.17463 6.30700
#
# Compressibility (1/GPa) = 0.02572821
#
# Stress axis : x y z
#
# Youngs Moduli (GPa) = 43.89788 38.58895 82.59676
#
# Poissons Ratio (x) = 0.02162 0.92129
# Poissons Ratio (y) = 0.02459 0.48090
# Poissons Ratio (z) = 0.48964 0.22467
#
# Static dielectric constant tensor:
#      x y z
#    x 3.510580 0.000000 0.000000 
#    y 0.000000 3.294230 0.000000 
#    z 0.000000 0.000000 3.745100 
# 
# 
# High freq. dielectric constant tensor:
#      x y z
#    x 1.702120 0.000000 0.000000 
#    y 0.000000 1.700110 0.000000 
#    z 0.000000 0.000000 1.735760 
# 
# From -- ./inp_files/32771.got.cif
#   From: 2010.03.12/outbox.cif.g09.slc.cpg/sg51_17_cif.got.tgz:32771.got - 2010.04.16 13:43:02.
