data_PCOD8211460
_publ_section_title
;
Structure prediction by ZEFSAII (Michael W. Deem and Ramdas Pophale) SiO2 
 PCOD8211460
Probable space group: P M M A
;
_chemical_formula_sum "Si O2"
_cell_formula_units_Z 44
_cell_length_a 8.830707
_cell_length_b 28.446980
_cell_length_c 9.585787
_cell_angle_alpha 90.000000
_cell_angle_beta 90.000000
_cell_angle_gamma 90.000000
_cell_volume 2408.016272
_symmetry_space_group_name_H-M "P M M A"
_symmetry_group_IT_number 51
_symmetry_cell_setting 'orthorhombic'
loop_
_space_group_symop_operation_xyz
x,y,z
1/2-x,-y,z
1/2+x,-y,-z
-x,y,-z
-x,-y,-z
1/2+x,y,-z
1/2-x,y,z
x,-y,z
loop_
_atom_site_type_symbol
_atom_site_label
_atom_site_fract_x
_atom_site_fract_y
_atom_site_fract_z
Si Si1 0.570599 0.230183 0.350467
Si Si2 0.571897 0.947452 0.855074
Si Si3 0.569838 0.866781 0.648545
Si Si4 0.428840 0.601736 0.652448
Si Si5 0.071859 0.684472 0.848337
Si Si6 0.425847 0.500000 0.647587
O O1 0.500000 0.243824 0.500000
O O2 0.750000 0.224974 0.369013
O O3 0.499716 0.181705 0.293093
O O4 0.526595 0.269245 0.237558
O O5 0.750000 0.945434 0.872813
O O6 0.515360 0.909996 0.742765
O O7 0.519289 0.000000 0.810522
O O8 0.500000 0.932320 0.000000
O O9 0.500000 0.877984 0.500000
O O10 0.750000 0.862166 0.639769
O O11 0.500000 0.609452 0.500000
O O12 0.250000 0.608047 0.633568
O O13 0.492023 0.639801 0.761885
O O14 0.470826 0.549920 0.719070
O O15 0.250000 0.680397 0.867714
O O16 0.000000 0.686315 0.000000
O O17 0.250000 0.500000 0.620341
O O18 0.500000 0.500000 0.500000
#
# Coordination Sequence:
#
# PCOD8211460 Si02
#       6
#     8   8   8   8   8   4
#     4  10  20  35  54  75  98 127 164 204 246 293
#     4   9  19  35  53  74 101 133 168 203 241 288
#     4  10  20  34  53  77 103 130 162 202 246 292
#     4   9  17  31  51  75  99 127 163 202 245 291
#     4  10  22  36  50  71 100 132 166 202 243 292
#     4   8  14  26  47  72  98 124 156 200 243 286
#
# _framework density 18.272302
#
# number of rings (size 3 to 8) (size 9 to 14) (size 15 to 20)
#    0.000    2.545    0.000    2.727    0.000    4.727 
#    0.000    4.091    0.000    0.000    0.000    0.000 
#    0.000    0.000    0.000    0.000    0.000    0.000 
#
# Total GULP energy -545323.388116 kJ/mol
# GULP energy per Si atom -12393.713366 kJ/mol
# Density = 1.823071 g / cm^3
# Si number density = 18.272302 Si / 1000 Ang^3
#
#
#
# Elastic Constant Matrix: (Units=GPa)
#
#
# Indices 1 2 3 4 5 6 
#
# 1 45.9893 49.6148 38.7496 0.0000 0.0000 0.0000
# 2 49.6148 189.6699 110.6941 0.0000 0.0000 0.0000
# 3 38.7496 110.6941 121.3802 0.0000 0.0000 0.0000
# 4 0.0000 0.0000 0.0000 16.0429 0.0000 0.0000
# 5 0.0000 0.0000 0.0000 0.0000 30.9663 0.0000
# 6 0.0000 0.0000 0.0000 0.0000 0.0000 18.4684
#
#
#
# Elastic Compliance Matrix: (Units=1/GPa)
#
#
# Indices 1 2 3 4 5 6 
#
# 1 0.031927 -0.005138 -0.005507 0.000000 0.000000 0.000000
# 2 -0.005138 0.012098 -0.009393 0.000000 0.000000 0.000000
# 3 -0.005507 -0.009393 0.018563 0.000000 0.000000 0.000000
# 4 0.000000 0.000000 0.000000 0.062333 0.000000 0.000000
# 5 0.000000 0.000000 0.000000 0.000000 0.032293 0.000000
# 6 0.000000 0.000000 0.000000 0.000000 0.000000 0.054146
#
#
# Mechanical properties :
#
#
# Convention : Reuss Voigt Hill
#
# Bulk Modulus (GPa) = 44.41977 83.90626 64.16301
# Shear Modulus (GPa) = 19.30955 23.62758 21.46857
#
# Velocity S-wave (km/s) = 3.25432 3.59985 3.43144
# Velocity P-wave (km/s) = 6.20350 7.95601 7.13378
#
# Compressibility (1/GPa) = 0.02251250
#
# Stress axis : x y z
#
# Youngs Moduli (GPa) = 31.32149 82.65833 53.87185
#
# Poissons Ratio (x) = 0.42466 0.29668
# Poissons Ratio (y) = 0.16092 0.50601
# Poissons Ratio (z) = 0.17249 0.77639
#
# Static dielectric constant tensor:
#      x y z
#    x 3.358190 0.000000 0.000000 
#    y 0.000000 4.072180 0.000000 
#    z 0.000000 0.000000 3.189900 
# 
# 
# High freq. dielectric constant tensor:
#      x y z
#    x 1.707330 0.000000 0.000000 
#    y 0.000000 1.731820 0.000000 
#    z 0.000000 0.000000 1.687350 
# 
# From -- ./inp_files/5736.got.cif
#   From: 2010.03.12/outbox.cif.g09.slc.cpg/sg51_3_cif.got.tgz:5736.got - 2010.04.16 13:43:02.
