data_PCOD8211969
_publ_section_title
;
Structure prediction by ZEFSAII (Michael W. Deem and Ramdas Pophale) SiO2 
 PCOD8211969
Probable space group: P M M A
;
_chemical_formula_sum "Si O2"
_cell_formula_units_Z 56
_cell_length_a 8.777335
_cell_length_b 22.612646
_cell_length_c 14.815702
_cell_angle_alpha 90.000000
_cell_angle_beta 90.000000
_cell_angle_gamma 90.000000
_cell_volume 2940.602297
_symmetry_space_group_name_H-M "P M M A"
_symmetry_group_IT_number 51
_symmetry_cell_setting 'orthorhombic'
loop_
_space_group_symop_operation_xyz
x,y,z
1/2-x,-y,z
1/2+x,-y,-z
-x,y,-z
-x,-y,-z
1/2+x,y,-z
1/2-x,y,z
x,-y,z
loop_
_atom_site_type_symbol
_atom_site_label
_atom_site_fract_x
_atom_site_fract_y
_atom_site_fract_z
Si Si1 0.069301 0.792759 0.905188
Si Si2 0.924338 0.566104 0.779681
Si Si3 0.069182 0.259302 0.593370
Si Si4 0.072232 0.657921 0.907606
Si Si5 0.430530 0.168093 0.272887
Si Si6 0.070910 0.066576 0.406760
Si Si7 0.426279 0.385787 0.411473
O O1 0.250000 0.800169 0.906850
O O2 0.018842 0.724805 0.886410
O O3 0.997759 0.834130 0.827908
O O4 0.000000 0.814272 0.000000
O O5 0.750000 0.578392 0.806909
O O6 0.973488 0.500000 0.809126
O O7 0.944791 0.570098 0.672026
O O8 0.027792 0.614809 0.826746
O O9 0.250000 0.253789 0.591221
O O10 0.000000 0.234037 0.500000
O O11 0.003970 0.223466 0.677047
O O12 0.019524 0.326433 0.608548
O O13 0.250000 0.656097 0.921162
O O14 0.000000 0.634173 0.000000
O O15 0.250000 0.175749 0.269435
O O16 0.479902 0.108017 0.323932
O O17 0.250000 0.068476 0.419628
O O18 0.000000 0.090403 0.500000
O O19 0.013391 0.000000 0.385889
O O20 0.500000 0.416580 0.500000
O O21 0.250000 0.369712 0.429578
#
# Coordination Sequence:
#
# PCOD8211969 Si02
#       7
#     8   8   8   8   8   8   8
#     4  10  21  37  57  82 110 138 173 216 264 317
#     4  10  22  38  54  74 101 133 170 212 256 305
#     4  11  21  33  50  75 107 138 172 214 262 316
#     4  10  21  37  58  81 104 133 166 206 258 314
#     4  11  21  33  53  80 110 143 178 218 265 313
#     4   9  19  35  54  78 110 148 187 224 261 304
#     4  10  20  35  54  74 100 134 171 212 260 312
#
# _framework density 19.043717000000001
#
# number of rings (size 3 to 8) (size 9 to 14) (size 15 to 20)
#    0.000    1.857    0.000    5.143    0.000    8.286 
#    0.000    0.000    0.000    0.429    0.000    0.000 
#    0.000    0.000    0.000    0.000    0.000    0.000 
#
# Total GULP energy -694544.401839 kJ/mol
# GULP energy per Si atom -12402.578604 kJ/mol
# Density = 1.900037 g / cm^3
# Si number density = 19.043717 Si / 1000 Ang^3
#
#
#
# Elastic Constant Matrix: (Units=GPa)
#
#
# Indices 1 2 3 4 5 6 
#
# 1 85.4553 29.9473 49.1599 0.0000 0.0000 0.0000
# 2 29.9473 65.8078 50.5566 0.0000 0.0000 0.0000
# 3 49.1599 50.5566 133.3467 0.0000 0.0000 0.0000
# 4 0.0000 0.0000 0.0000 24.2960 0.0000 0.0000
# 5 0.0000 0.0000 0.0000 0.0000 38.9685 0.0000
# 6 0.0000 0.0000 0.0000 0.0000 0.0000 18.1889
#
#
#
# Elastic Compliance Matrix: (Units=1/GPa)
#
#
# Indices 1 2 3 4 5 6 
#
# 1 0.015482 -0.003754 -0.004284 0.000000 0.000000 0.000000
# 2 -0.003754 0.022351 -0.007090 0.000000 0.000000 0.000000
# 3 -0.004284 -0.007090 0.011767 0.000000 0.000000 0.000000
# 4 0.000000 0.000000 0.000000 0.041159 0.000000 0.000000
# 5 0.000000 0.000000 0.000000 0.000000 0.025662 0.000000
# 6 0.000000 0.000000 0.000000 0.000000 0.000000 0.054979
#
#
# Mechanical properties :
#
#
# Convention : Reuss Voigt Hill
#
# Bulk Modulus (GPa) = 51.69819 60.43749 56.06784
# Shear Modulus (GPa) = 24.02637 26.62041 25.32339
#
# Velocity S-wave (km/s) = 3.55581 3.74285 3.65053
# Velocity P-wave (km/s) = 6.63811 7.10518 6.87561
#
# Compressibility (1/GPa) = 0.01934304
#
# Stress axis : x y z
#
# Youngs Moduli (GPa) = 64.58977 44.74052 84.98415
#
# Poissons Ratio (x) = 0.16796 0.36411
# Poissons Ratio (y) = 0.24247 0.60255
# Poissons Ratio (z) = 0.27673 0.31722
#
# Static dielectric constant tensor:
#      x y z
#    x 3.522110 0.000000 0.000000 
#    y 0.000000 3.409000 0.000000 
#    z 0.000000 0.000000 3.628030 
# 
# 
# High freq. dielectric constant tensor:
#      x y z
#    x 1.749170 0.000000 0.000000 
#    y 0.000000 1.719060 0.000000 
#    z 0.000000 0.000000 1.745130 
# 
# From -- ./inp_files/21775.got.cif
#   From: 2010.03.12/outbox.cif.g09.slc.cpg/sg51_11_cif.got.tgz:21775.got - 2010.04.16 13:43:02.
