data_PCOD8211350
_publ_section_title
;
Structure prediction by ZEFSAII (Michael W. Deem and Ramdas Pophale) SiO2 
 PCOD8211350
Probable space group: P M M A
;
_chemical_formula_sum "Si O2"
_cell_formula_units_Z 28
_cell_length_a 9.305153
_cell_length_b 7.675252
_cell_length_c 20.011714
_cell_angle_alpha 90.000000
_cell_angle_beta 90.000000
_cell_angle_gamma 90.000000
_cell_volume 1429.224490
_symmetry_space_group_name_H-M "P M M A"
_symmetry_group_IT_number 51
_symmetry_cell_setting 'orthorhombic'
loop_
_space_group_symop_operation_xyz
x,y,z
1/2-x,-y,z
1/2+x,-y,-z
-x,y,-z
-x,-y,-z
1/2+x,y,-z
1/2-x,y,z
x,-y,z
loop_
_atom_site_type_symbol
_atom_site_label
_atom_site_fract_x
_atom_site_fract_y
_atom_site_fract_z
Si Si1 0.579111 0.306604 0.334931
Si Si2 0.590215 0.706519 0.187703
Si Si3 0.588290 0.707809 0.936460
Si Si4 0.921119 0.000000 0.430154
O O1 0.750000 0.312977 0.333028
O O2 0.518764 0.500000 0.352413
O O3 0.527631 0.245187 0.261120
O O4 0.525321 0.170519 0.390189
O O5 0.750000 0.785927 0.177516
O O6 0.600379 0.500000 0.181701
O O7 0.485286 0.782153 0.130881
O O8 0.750000 0.780835 0.940417
O O9 0.588998 0.500000 0.935889
O O10 0.500000 0.778071 0.000000
O O11 0.000000 0.000000 0.500000
O O12 0.750000 0.000000 0.440289
#
# Coordination Sequence:
#
# PCOD8211350 Si02
#       4
#     8   8   8   4
#     4   8  15  29  49  71  95 125 160 196 235 282
#     4   8  13  23  39  57  79 111 151 191 229 271
#     4   9  15  21  31  52  84 119 153 190 231 273
#     4  10  20  34  52  74  99 126 157 192 233 284
#
# _framework density 19.591045999999999
#
# number of rings (size 3 to 8) (size 9 to 14) (size 15 to 20)
#    0.000    3.429    0.000    2.571    0.000    4.000 
#    0.000    1.429    0.000    1.714    0.000    1.000 
#    0.000    0.000    0.000    0.000    0.000    0.000 
#
# Total GULP energy -347014.652200 kJ/mol
# GULP energy per Si atom -12393.380436 kJ/mol
# Density = 1.954646 g / cm^3
# Si number density = 19.591046 Si / 1000 Ang^3
#
#
#
# Elastic Constant Matrix: (Units=GPa)
#
#
# Indices 1 2 3 4 5 6 
#
# 1 95.5666 23.9172 75.0123 0.0000 0.0000 0.0000
# 2 23.9172 67.6931 62.3189 0.0000 0.0000 0.0000
# 3 75.0123 62.3189 207.3957 0.0000 0.0000 0.0000
# 4 0.0000 0.0000 0.0000 -7.4534 0.0000 0.0000
# 5 0.0000 0.0000 0.0000 0.0000 37.4091 0.0000
# 6 0.0000 0.0000 0.0000 0.0000 0.0000 4.1781
#
#
#
# Elastic Compliance Matrix: (Units=1/GPa)
#
#
# Indices 1 2 3 4 5 6 
#
# 1 0.014621 -0.000411 -0.005164 0.000000 0.000000 0.000000
# 2 -0.000411 0.020433 -0.005991 0.000000 0.000000 0.000000
# 3 -0.005164 -0.005991 0.008490 0.000000 0.000000 0.000000
# 4 0.000000 0.000000 0.000000 -0.134167 0.000000 0.000000
# 5 0.000000 0.000000 0.000000 0.000000 0.026731 0.000000
# 6 0.000000 0.000000 0.000000 0.000000 0.000000 0.239342
#
#
# Mechanical properties :
#
#
# Convention : Reuss Voigt Hill
#
# Bulk Modulus (GPa) = 48.99544 77.01691 63.00617
# Shear Modulus (GPa) = 24.34428 20.78722 22.56575
#
# Velocity S-wave (km/s) = 3.52891 3.26092 3.39756
# Velocity P-wave (km/s) = 6.45505 7.31955 6.90085
#
# Compressibility (1/GPa) = 0.02041006
#
# Stress axis : x y z
#
# Youngs Moduli (GPa) = 68.39689 48.93955 117.78743
#
# Poissons Ratio (x) = 0.02012 0.60831
# Poissons Ratio (y) = 0.02813 0.70568
# Poissons Ratio (z) = 0.35324 0.29320
#
# Static dielectric constant tensor:
#      x y z
#    x 3.435050 0.000000 0.000000 
#    y 0.000000 3.408820 0.000000 
#    z 0.000000 0.000000 3.786580 
# 
# 
# High freq. dielectric constant tensor:
#      x y z
#    x 1.723580 0.000000 0.000000 
#    y 0.000000 1.734260 0.000000 
#    z 0.000000 0.000000 1.769760 
# 
# From -- ./inp_files/28726.got.cif
#   From: 2010.03.12/outbox.cif.g09.slc.cpg/sg51_15_cif.got.tgz:28726.got - 2010.04.16 13:43:02.
