data_PCOD8211853
_publ_section_title
;
Structure prediction by ZEFSAII (Michael W. Deem and Ramdas Pophale) SiO2 
 PCOD8211853
Probable space group: P M M A
;
_chemical_formula_sum "Si O2"
_cell_formula_units_Z 40
_cell_length_a 16.703837
_cell_length_b 14.225976
_cell_length_c 8.793464
_cell_angle_alpha 90.000000
_cell_angle_beta 90.000000
_cell_angle_gamma 90.000000
_cell_volume 2089.576642
_symmetry_space_group_name_H-M "P M M A"
_symmetry_group_IT_number 51
_symmetry_cell_setting 'orthorhombic'
loop_
_space_group_symop_operation_xyz
x,y,z
1/2-x,-y,z
1/2+x,-y,-z
-x,y,-z
-x,-y,-z
1/2+x,y,-z
1/2-x,y,z
x,-y,z
loop_
_atom_site_type_symbol
_atom_site_label
_atom_site_fract_x
_atom_site_fract_y
_atom_site_fract_z
Si Si1 0.658768 0.108723 0.194401
Si Si2 0.514125 0.609657 0.826464
Si Si3 0.842539 0.289113 0.688427
Si Si4 0.574346 0.743157 0.396076
Si Si5 0.344833 0.102654 0.146682
O O1 0.750000 0.144993 0.208229
O O2 0.603394 0.165132 0.309112
O O3 0.653822 0.000000 0.239974
O O4 0.625207 0.124931 0.024075
O O5 0.500190 0.500000 0.801524
O O6 0.604907 0.634918 0.779032
O O7 0.449383 0.662081 0.722014
O O8 0.500000 0.639452 0.000000
O O9 0.750000 0.307700 0.728245
O O10 0.856244 0.296838 0.507256
O O11 0.872275 0.184857 0.740025
O O12 0.500000 0.773119 0.500000
O O13 0.250000 0.096302 0.141225
O O14 0.378458 0.000000 0.199873
#
# Coordination Sequence:
#
# PCOD8211853 Si02
#       5
#     8   8   8   8   8
#     4   9  17  31  52  76 105 143 183 222 262 307
#     4  10  22  41  61  78 102 140 182 225 275 326
#     4  10  20  34  56  84 111 142 179 222 271 322
#     4  10  21  34  52  78 109 140 174 217 271 330
#     4   8  15  29  50  76 105 138 175 213 255 304
#
# _framework density 19.142631999999999
#
# number of rings (size 3 to 8) (size 9 to 14) (size 15 to 20)
#    0.000    2.600    0.000    3.000    0.000    5.200 
#    0.000    6.000    0.000   15.000    0.000    0.000 
#    0.000    0.000    0.000    0.000    0.000    0.000 
#
# Total GULP energy -495932.930550 kJ/mol
# GULP energy per Si atom -12398.323264 kJ/mol
# Density = 1.909906 g / cm^3
# Si number density = 19.142632 Si / 1000 Ang^3
#
#
#
# Elastic Constant Matrix: (Units=GPa)
#
#
# Indices 1 2 3 4 5 6 
#
# 1 59.2425 38.2696 43.2682 0.0000 0.0000 0.0000
# 2 38.2696 89.7011 66.8815 0.0000 0.0000 0.0000
# 3 43.2682 66.8815 133.3704 0.0000 0.0000 0.0000
# 4 0.0000 0.0000 0.0000 19.5521 0.0000 0.0000
# 5 0.0000 0.0000 0.0000 0.0000 27.8550 0.0000
# 6 0.0000 0.0000 0.0000 0.0000 0.0000 29.2434
#
#
#
# Elastic Compliance Matrix: (Units=1/GPa)
#
#
# Indices 1 2 3 4 5 6 
#
# 1 0.024804 -0.007319 -0.004377 0.000000 0.000000 0.000000
# 2 -0.007319 0.019965 -0.007638 0.000000 0.000000 0.000000
# 3 -0.004377 -0.007638 0.012748 0.000000 0.000000 0.000000
# 4 0.000000 0.000000 0.000000 0.051145 0.000000 0.000000
# 5 0.000000 0.000000 0.000000 0.000000 0.035900 0.000000
# 6 0.000000 0.000000 0.000000 0.000000 0.000000 0.034196
#
#
# Mechanical properties :
#
#
# Convention : Reuss Voigt Hill
#
# Bulk Modulus (GPa) = 53.04839 64.35031 58.69935
# Shear Modulus (GPa) = 22.35045 24.25643 23.30344
#
# Velocity S-wave (km/s) = 3.42069 3.56356 3.49285
# Velocity P-wave (km/s) = 6.58588 7.11485 6.85547
#
# Compressibility (1/GPa) = 0.01885072
#
# Stress axis : x y z
#
# Youngs Moduli (GPa) = 40.31546 50.08686 78.44449
#
# Poissons Ratio (x) = 0.36659 0.34333
# Poissons Ratio (y) = 0.29507 0.59913
# Poissons Ratio (z) = 0.17645 0.38254
#
# Static dielectric constant tensor:
#      x y z
#    x 3.354670 0.000000 0.000000 
#    y 0.000000 3.564830 0.000000 
#    z 0.000000 0.000000 3.733200 
# 
# 
# High freq. dielectric constant tensor:
#      x y z
#    x 1.730830 0.000000 0.000000 
#    y 0.000000 1.735990 0.000000 
#    z 0.000000 0.000000 1.753370 
# 
# From -- ./inp_files/7904.got.cif
#   From: 2010.03.12/outbox.cif.g09.slc.cpg/sg51_4_cif.got.tgz:7904.got - 2010.04.16 13:43:02.
