data_PCOD8211763
_publ_section_title
;
Structure prediction by ZEFSAII (Michael W. Deem and Ramdas Pophale) SiO2 
 PCOD8211763
Probable space group: P M M A
;
_chemical_formula_sum "Si O2"
_cell_formula_units_Z 56
_cell_length_a 15.476077
_cell_length_b 19.368925
_cell_length_c 9.458118
_cell_angle_alpha 90.000000
_cell_angle_beta 90.000000
_cell_angle_gamma 90.000000
_cell_volume 2835.117922
_symmetry_space_group_name_H-M "P M M A"
_symmetry_group_IT_number 51
_symmetry_cell_setting 'orthorhombic'
loop_
_space_group_symop_operation_xyz
x,y,z
1/2-x,-y,z
1/2+x,-y,-z
-x,y,-z
-x,-y,-z
1/2+x,y,-z
1/2-x,y,z
x,-y,z
loop_
_atom_site_type_symbol
_atom_site_label
_atom_site_fract_x
_atom_site_fract_y
_atom_site_fract_z
Si Si1 0.347831 0.689923 0.992158
Si Si2 0.350621 0.080605 0.864960
Si Si3 0.464548 0.836911 0.648940
Si Si4 0.351114 0.424570 0.189239
Si Si5 0.149394 0.292288 0.679225
Si Si6 0.398210 0.578511 0.500055
Si Si7 0.579314 0.179617 0.908423
O O1 0.250000 0.667726 0.968565
O O2 0.395092 0.628431 0.078625
O O3 0.349899 0.759941 0.084934
O O4 0.388108 0.701040 0.837943
O O5 0.250000 0.097791 0.848816
O O6 0.398148 0.112104 0.728062
O O7 0.369744 0.000000 0.869127
O O8 0.384989 0.110765 0.014347
O O9 0.500000 0.866962 0.500000
O O10 0.413825 0.765536 0.612077
O O11 0.549940 0.831564 0.747370
O O12 0.250000 0.428881 0.161002
O O13 0.394367 0.500000 0.168976
O O14 0.365636 0.397783 0.347250
O O15 0.250000 0.268200 0.673933
O O16 0.141708 0.367282 0.608995
O O17 0.500000 0.582696 0.500000
O O18 0.367157 0.500000 0.536573
O O19 0.500000 0.208919 0.000000
#
# Coordination Sequence:
#
# PCOD8211763 Si02
#       7
#     8   8   8   8   8   8   8
#     4  10  20  34  55  81 111 147 193 250 298 347
#     4  10  21  42  70  94 123 163 202 242 293 355
#     4  11  24  39  59  92 129 163 199 247 303 358
#     4   9  19  35  53  76 108 147 191 241 300 361
#     4  11  22  37  58  82 117 157 201 253 303 364
#     4  10  22  38  55  78 112 153 199 250 306 370
#     4  10  20  36  60  87 118 156 196 243 288 349
#
# _framework density 19.752265000000001
#
# number of rings (size 3 to 8) (size 9 to 14) (size 15 to 20)
#    0.000    1.857    2.857    1.714    4.000    4.286 
#    0.000    3.571    0.000    4.714    0.000    0.000 
#    0.000    0.000    0.000    0.000    0.000    0.000 
#
# Total GULP energy -694104.437557 kJ/mol
# GULP energy per Si atom -12394.722099 kJ/mol
# Density = 1.970731 g / cm^3
# Si number density = 19.752265 Si / 1000 Ang^3
#
#
#
# Elastic Constant Matrix: (Units=GPa)
#
#
# Indices 1 2 3 4 5 6 
#
# 1 55.6630 30.1836 35.5179 0.0000 0.0000 0.0000
# 2 30.1836 104.1761 44.9326 0.0000 0.0000 0.0000
# 3 35.5179 44.9326 115.1163 0.0000 0.0000 0.0000
# 4 0.0000 0.0000 0.0000 27.8749 0.0000 0.0000
# 5 0.0000 0.0000 0.0000 0.0000 22.3867 0.0000
# 6 0.0000 0.0000 0.0000 0.0000 0.0000 26.6860
#
#
#
# Elastic Compliance Matrix: (Units=1/GPa)
#
#
# Indices 1 2 3 4 5 6 
#
# 1 0.024021 -0.004525 -0.005645 0.000000 0.000000 0.000000
# 2 -0.004525 0.012395 -0.003442 0.000000 0.000000 0.000000
# 3 -0.005645 -0.003442 0.011772 0.000000 0.000000 0.000000
# 4 0.000000 0.000000 0.000000 0.035875 0.000000 0.000000
# 5 0.000000 0.000000 0.000000 0.000000 0.044669 0.000000
# 6 0.000000 0.000000 0.000000 0.000000 0.000000 0.037473
#
#
# Mechanical properties :
#
#
# Convention : Reuss Voigt Hill
#
# Bulk Modulus (GPa) = 47.70118 55.13597 51.41857
# Shear Modulus (GPa) = 24.94804 26.34428 25.64616
#
# Velocity S-wave (km/s) = 3.55779 3.65599 3.60723
# Velocity P-wave (km/s) = 6.40932 6.76728 6.59073
#
# Compressibility (1/GPa) = 0.02096384
#
# Stress axis : x y z
#
# Youngs Moduli (GPa) = 41.63003 80.67991 84.94672
#
# Poissons Ratio (x) = 0.36507 0.47955
# Poissons Ratio (y) = 0.18837 0.29237
# Poissons Ratio (z) = 0.23501 0.27769
#
# Static dielectric constant tensor:
#      x y z
#    x 3.568420 0.000000 0.000000 
#    y 0.000000 3.714290 0.000000 
#    z 0.000000 0.000000 3.581750 
# 
# 
# High freq. dielectric constant tensor:
#      x y z
#    x 1.766650 0.000000 0.000000 
#    y 0.000000 1.768400 0.000000 
#    z 0.000000 0.000000 1.762360 
# 
# From -- ./inp_files/8571.got.cif
#   From: 2010.03.12/outbox.cif.g09.slc.cpg/sg51_5_cif.got.tgz:8571.got - 2010.04.16 13:43:02.
