data_PCOD8211242
_publ_section_title
;
Structure prediction by ZEFSAII (Michael W. Deem and Ramdas Pophale) SiO2 
 PCOD8211242
Probable space group: P M M A
;
_chemical_formula_sum "Si O2"
_cell_formula_units_Z 52
_cell_length_a 9.288887
_cell_length_b 8.355720
_cell_length_c 35.792857
_cell_angle_alpha 90.000000
_cell_angle_beta 90.000000
_cell_angle_gamma 90.000000
_cell_volume 2778.074726
_symmetry_space_group_name_H-M "P M M A"
_symmetry_group_IT_number 51
_symmetry_cell_setting 'orthorhombic'
loop_
_space_group_symop_operation_xyz
x,y,z
1/2-x,-y,z
1/2+x,-y,-z
-x,y,-z
-x,-y,-z
1/2+x,y,-z
1/2-x,y,z
x,-y,z
loop_
_atom_site_type_symbol
_atom_site_label
_atom_site_fract_x
_atom_site_fract_y
_atom_site_fract_z
Si Si1 0.916783 0.313518 0.388184
Si Si2 0.079160 0.320328 0.916603
Si Si3 0.588341 0.189149 0.465180
Si Si4 0.083046 0.685142 0.764367
Si Si5 0.920919 0.179835 0.159483
Si Si6 0.922106 0.000000 0.039222
Si Si7 0.085432 0.187113 0.688172
O O1 0.750000 0.262315 0.388301
O O2 0.941511 0.500000 0.388191
O O3 0.986100 0.241319 0.426009
O O4 0.990574 0.243459 0.350444
O O5 0.250000 0.319837 0.917738
O O6 0.024560 0.500000 0.929759
O O7 0.023945 0.293342 0.874077
O O8 0.026015 0.166350 0.940748
O O9 0.500000 0.261532 0.500000
O O10 0.750000 0.259266 0.467750
O O11 0.589989 0.000000 0.467349
O O12 0.250000 0.734554 0.762186
O O13 0.059895 0.500000 0.770424
O O14 0.011538 0.770086 0.800480
O O15 0.009653 0.738800 0.725172
O O16 0.750000 0.194710 0.162161
O O17 0.968487 0.000000 0.149930
O O18 0.750000 0.000000 0.034948
O O19 0.000000 0.000000 0.000000
O O20 0.250000 0.248836 0.686713
O O21 0.074232 0.000000 0.691774
#
# Coordination Sequence:
#
# PCOD8211242 Si02
#       7
#     8   8   8   8   8   4   8
#     4   9  16  25  37  52  71  97 129 164 201 243
#     4   9  16  27  43  62  85 115 151 189 229 274
#     4   9  17  29  44  61  80 103 132 166 203 244
#     4   9  15  20  27  43  68  99 136 175 211 248
#     4   9  14  21  33  50  74 105 142 181 218 259
#     4  10  20  34  50  70  94 122 156 194 234 278
#     4   9  15  22  31  44  65  96 133 169 203 243
#
# _framework density 18.717998000000001
#
# number of rings (size 3 to 8) (size 9 to 14) (size 15 to 20)
#    0.000    2.923    0.769    1.846    0.000    8.000 
#    0.000    0.000    0.000    0.000    0.000    0.000 
#    0.000    0.000    0.000    1.385    2.154    8.462 
#
# Total GULP energy -644189.690488 kJ/mol
# GULP energy per Si atom -12388.263279 kJ/mol
# Density = 1.867540 g / cm^3
# Si number density = 18.717998 Si / 1000 Ang^3
#
#
#
# Elastic Constant Matrix: (Units=GPa)
#
#
# Indices 1 2 3 4 5 6 
#
# 1 8.1109 7.0653 15.5654 0.0000 0.0000 0.0000
# 2 7.0653 75.9922 68.4797 0.0000 0.0000 0.0000
# 3 15.5654 68.4797 176.6971 0.0000 0.0000 0.0000
# 4 0.0000 0.0000 0.0000 31.9327 0.0000 0.0000
# 5 0.0000 0.0000 0.0000 0.0000 12.6767 0.0000
# 6 0.0000 0.0000 0.0000 0.0000 0.0000 4.4178
#
#
#
# Elastic Compliance Matrix: (Units=1/GPa)
#
#
# Indices 1 2 3 4 5 6 
#
# 1 0.148850 -0.003109 -0.011907 0.000000 0.000000 0.000000
# 2 -0.003109 0.020286 -0.007588 0.000000 0.000000 0.000000
# 3 -0.011907 -0.007588 0.009649 0.000000 0.000000 0.000000
# 4 0.000000 0.000000 0.000000 0.031316 0.000000 0.000000
# 5 0.000000 0.000000 0.000000 0.000000 0.078885 0.000000
# 6 0.000000 0.000000 0.000000 0.000000 0.000000 0.226358
#
#
# Mechanical properties :
#
#
# Convention : Reuss Voigt Hill
#
# Bulk Modulus (GPa) = 7.48635 49.22457 28.35546
# Shear Modulus (GPa) = 8.26339 21.11810 14.69074
#
# Velocity S-wave (km/s) = 2.10339 3.36255 2.80455
# Velocity P-wave (km/s) = 3.14758 6.43667 5.06646
#
# Compressibility (1/GPa) = 0.13357645
#
# Stress axis : x y z
#
# Youngs Moduli (GPa) = 6.71817 49.29433 103.63586
#
# Poissons Ratio (x) = 0.15325 1.23404
# Poissons Ratio (y) = 0.02089 0.78641
# Poissons Ratio (z) = 0.08000 0.37405
#
# Static dielectric constant tensor:
#      x y z
#    x 2.630760 0.000000 0.000000 
#    y 0.000000 3.519840 0.000000 
#    z 0.000000 0.000000 3.932710 
# 
# 
# High freq. dielectric constant tensor:
#      x y z
#    x 1.610300 0.000000 0.000000 
#    y 0.000000 1.738510 0.000000 
#    z 0.000000 0.000000 1.753760 
# 
# From -- ./inp_files/37704.got.cif
#   From: 2010.03.12/outbox.cif.g09.slc.cpg/sg51_19_cif.got.tgz:37704.got - 2010.04.16 13:43:02.
