data_PCOD8211607
_publ_section_title
;
Structure prediction by ZEFSAII (Michael W. Deem and Ramdas Pophale) SiO2 
 PCOD8211607
Probable space group: P M M A
;
_chemical_formula_sum "Si O2"
_cell_formula_units_Z 64
_cell_length_a 14.688969
_cell_length_b 9.194092
_cell_length_c 23.707007
_cell_angle_alpha 90.000000
_cell_angle_beta 90.000000
_cell_angle_gamma 90.000000
_cell_volume 3201.672365
_symmetry_space_group_name_H-M "P M M A"
_symmetry_group_IT_number 51
_symmetry_cell_setting 'orthorhombic'
loop_
_space_group_symop_operation_xyz
x,y,z
1/2-x,-y,z
1/2+x,-y,-z
-x,y,-z
-x,-y,-z
1/2+x,y,-z
1/2-x,y,z
x,-y,z
loop_
_atom_site_type_symbol
_atom_site_label
_atom_site_fract_x
_atom_site_fract_y
_atom_site_fract_z
Si Si1 0.350820 0.342156 0.070710
Si Si2 0.003263 0.332217 0.634727
Si Si3 0.355085 0.829723 0.428524
Si Si4 0.005995 0.667073 0.762692
Si Si5 0.644325 0.669727 0.140311
Si Si6 0.853985 0.668895 0.458630
Si Si7 0.402879 0.165729 0.970451
Si Si8 0.856778 0.830837 0.823545
O O1 0.250000 0.372742 0.092524
O O2 0.401443 0.500000 0.065004
O O3 0.396100 0.242277 0.118898
O O4 0.339567 0.260071 0.011290
O O5 0.977665 0.500000 0.624896
O O6 0.036211 0.304572 0.698516
O O7 0.086053 0.283471 0.594689
O O8 0.913998 0.237097 0.622062
O O9 0.250000 0.793232 0.415955
O O10 0.387069 0.758758 0.487246
O O11 0.372763 0.000000 0.432340
O O12 0.978051 0.500000 0.772784
O O13 0.091418 0.709482 0.802165
O O14 0.916246 0.763812 0.773350
O O15 0.750000 0.713792 0.147667
O O16 0.635229 0.500000 0.125366
O O17 0.597663 0.763025 0.090957
O O18 0.750000 0.706099 0.443267
O O19 0.866573 0.500000 0.473338
O O20 0.368103 0.000000 0.966396
O O21 0.500000 0.176026 0.000000
O O22 0.750000 0.803011 0.811802
O O23 0.877434 0.000000 0.829522
#
# Coordination Sequence:
#
# PCOD8211607 Si02
#       8
#     8   8   8   8   8   8   8   8
#     4  10  20  34  54  79 104 131 167 212 264 324
#     4  10  21  36  56  83 112 145 187 232 278 328
#     4  10  21  36  55  82 116 151 185 224 275 333
#     4  10  22  39  58  81 110 146 189 235 279 327
#     4  10  22  40  60  82 111 149 191 234 281 332
#     4   9  18  34  57  84 114 147 183 226 277 332
#     4  11  23  36  53  80 111 141 176 222 275 330
#     4  10  21  37  57  81 111 146 183 228 283 340
#
# _framework density 19.989553000000001
#
# number of rings (size 3 to 8) (size 9 to 14) (size 15 to 20)
#    0.000    2.000    0.000    3.000    0.000   11.000 
#    0.000    5.000    0.000    0.000    0.000    3.500 
#    0.000    0.000    0.000    0.000    0.000    0.000 
#
# Total GULP energy -793609.655445 kJ/mol
# GULP energy per Si atom -12400.150866 kJ/mol
# Density = 1.994406 g / cm^3
# Si number density = 19.989553 Si / 1000 Ang^3
#
#
#
# Elastic Constant Matrix: (Units=GPa)
#
#
# Indices 1 2 3 4 5 6 
#
# 1 87.7535 45.1977 51.8382 0.0000 0.0000 0.0000
# 2 45.1977 102.5818 52.0932 0.0000 0.0000 0.0000
# 3 51.8382 52.0932 127.3926 0.0000 0.0000 0.0000
# 4 0.0000 0.0000 0.0000 12.5282 0.0000 0.0000
# 5 0.0000 0.0000 0.0000 0.0000 28.6975 0.0000
# 6 0.0000 0.0000 0.0000 0.0000 0.0000 21.8864
#
#
#
# Elastic Compliance Matrix: (Units=1/GPa)
#
#
# Indices 1 2 3 4 5 6 
#
# 1 0.016786 -0.004957 -0.004804 0.000000 0.000000 0.000000
# 2 -0.004957 0.013767 -0.003613 0.000000 0.000000 0.000000
# 3 -0.004804 -0.003613 0.011282 0.000000 0.000000 0.000000
# 4 0.000000 0.000000 0.000000 0.079820 0.000000 0.000000
# 5 0.000000 0.000000 0.000000 0.000000 0.034846 0.000000
# 6 0.000000 0.000000 0.000000 0.000000 0.000000 0.045690
#
#
# Mechanical properties :
#
#
# Convention : Reuss Voigt Hill
#
# Bulk Modulus (GPa) = 66.27404 68.44289 67.35847
# Shear Modulus (GPa) = 21.37061 23.86237 22.61649
#
# Velocity S-wave (km/s) = 3.27324 3.45881 3.36730
# Velocity P-wave (km/s) = 6.89288 7.08977 6.99202
#
# Compressibility (1/GPa) = 0.01508886
#
# Stress axis : x y z
#
# Youngs Moduli (GPa) = 59.57303 72.63890 88.63912
#
# Poissons Ratio (x) = 0.36004 0.42580
# Poissons Ratio (y) = 0.29528 0.32021
# Poissons Ratio (z) = 0.28617 0.26241
#
# Static dielectric constant tensor:
#      x y z
#    x 3.636540 0.000000 0.000000 
#    y 0.000000 3.729680 0.000000 
#    z 0.000000 0.000000 3.593080 
# 
# 
# High freq. dielectric constant tensor:
#      x y z
#    x 1.780400 0.000000 0.000000 
#    y 0.000000 1.780800 0.000000 
#    z 0.000000 0.000000 1.773120 
# 
# From -- ./inp_files/35815.got.cif
#   From: 2010.03.12/outbox.cif.g09.slc.cpg/sg51_18_cif.got.tgz:35815.got - 2010.04.16 13:43:02.
