data_PCOD8211502
_publ_section_title
;
Structure prediction by ZEFSAII (Michael W. Deem and Ramdas Pophale) SiO2 
 PCOD8211502
Probable space group: P M M A
;
_chemical_formula_sum "Si O2"
_cell_formula_units_Z 48
_cell_length_a 9.071193
_cell_length_b 20.476238
_cell_length_c 14.009455
_cell_angle_alpha 90.000000
_cell_angle_beta 90.000000
_cell_angle_gamma 90.000000
_cell_volume 2602.170904
_symmetry_space_group_name_H-M "P M M A"
_symmetry_group_IT_number 51
_symmetry_cell_setting 'orthorhombic'
loop_
_space_group_symop_operation_xyz
x,y,z
1/2-x,-y,z
1/2+x,-y,-z
-x,y,-z
-x,-y,-z
1/2+x,y,-z
1/2-x,y,z
x,-y,z
loop_
_atom_site_type_symbol
_atom_site_label
_atom_site_fract_x
_atom_site_fract_y
_atom_site_fract_z
Si Si1 0.077655 0.130600 0.793109
Si Si2 0.923628 0.248047 0.897619
Si Si3 0.922338 0.925878 0.405644
Si Si4 0.077417 0.624038 0.221322
Si Si5 0.421495 0.000000 0.900646
Si Si6 0.076908 0.575468 0.598020
Si Si7 0.922574 0.500000 0.899819
O O1 0.250000 0.146434 0.808426
O O2 0.038582 0.122284 0.681509
O O3 0.979115 0.186728 0.837814
O O4 0.031149 0.063457 0.842568
O O5 0.750000 0.241988 0.914490
O O6 0.965255 0.311460 0.836545
O O7 0.000000 0.251835 0.000000
O O8 0.750000 0.926153 0.424433
O O9 0.000000 0.897819 0.500000
O O10 0.975969 0.000000 0.383457
O O11 0.250000 0.620662 0.245685
O O12 0.026212 0.563397 0.157552
O O13 0.987083 0.621942 0.319606
O O14 0.250000 0.000000 0.920412
O O15 0.500000 0.000000 0.000000
O O16 0.250000 0.587278 0.588057
O O17 0.039850 0.500000 0.621783
O O18 0.000000 0.596614 0.500000
O O19 0.750000 0.500000 0.918374
O O20 0.000000 0.500000 0.000000
#
# Coordination Sequence:
#
# PCOD8211502 Si02
#       7
#     8   8   8   8   4   8   4
#     4  10  20  37  58  80 111 149 187 231 282 335
#     4  11  24  40  58  82 113 151 191 232 281 338
#     4   9  17  32  55  83 113 144 179 224 278 331
#     4  10  21  38  58  81 112 149 189 234 282 334
#     4  10  20  34  53  78 106 138 183 234 281 330
#     4  10  20  34  57  88 118 149 185 230 283 338
#     4  10  20  34  55  80 107 140 181 232 284 330
#
# _framework density 18.446137
#
# number of rings (size 3 to 8) (size 9 to 14) (size 15 to 20)
#    0.000    2.000    1.667    2.000    0.000    5.333 
#    0.000    0.833    0.000    2.000    0.000    0.000 
#    0.000    0.000    0.000    0.000    0.000    0.000 
#
# Total GULP energy -595327.519916 kJ/mol
# GULP energy per Si atom -12402.656665 kJ/mol
# Density = 1.840415 g / cm^3
# Si number density = 18.446137 Si / 1000 Ang^3
#
#
#
# Elastic Constant Matrix: (Units=GPa)
#
#
# Indices 1 2 3 4 5 6 
#
# 1 70.8929 55.3299 75.9978 0.0000 0.0000 0.0000
# 2 55.3299 128.5203 76.8442 0.0000 0.0000 0.0000
# 3 75.9978 76.8442 178.2235 0.0000 0.0000 0.0000
# 4 0.0000 0.0000 0.0000 29.8024 0.0000 0.0000
# 5 0.0000 0.0000 0.0000 0.0000 41.3538 0.0000
# 6 0.0000 0.0000 0.0000 0.0000 0.0000 24.4597
#
#
#
# Elastic Compliance Matrix: (Units=1/GPa)
#
#
# Indices 1 2 3 4 5 6 
#
# 1 0.030167 -0.007135 -0.009787 0.000000 0.000000 0.000000
# 2 -0.007135 0.012171 -0.002205 0.000000 0.000000 0.000000
# 3 -0.009787 -0.002205 0.010735 0.000000 0.000000 0.000000
# 4 0.000000 0.000000 0.000000 0.033554 0.000000 0.000000
# 5 0.000000 0.000000 0.000000 0.000000 0.024182 0.000000
# 6 0.000000 0.000000 0.000000 0.000000 0.000000 0.040884
#
#
# Mechanical properties :
#
#
# Convention : Reuss Voigt Hill
#
# Bulk Modulus (GPa) = 67.48668 88.22006 77.85337
# Shear Modulus (GPa) = 25.65593 30.42085 28.03839
#
# Velocity S-wave (km/s) = 3.73346 4.06541 3.90297
# Velocity P-wave (km/s) = 7.43305 8.36459 7.91254
#
# Compressibility (1/GPa) = 0.01481774
#
# Stress axis : x y z
#
# Youngs Moduli (GPa) = 33.14934 82.16068 93.15206
#
# Poissons Ratio (x) = 0.58624 0.91168
# Poissons Ratio (y) = 0.23653 0.20542
# Poissons Ratio (z) = 0.32443 0.18118
#
# Static dielectric constant tensor:
#      x y z
#    x 3.327000 0.000000 0.000000 
#    y 0.000000 3.388080 0.000000 
#    z 0.000000 0.000000 3.497440 
# 
# 
# High freq. dielectric constant tensor:
#      x y z
#    x 1.713840 0.000000 0.000000 
#    y 0.000000 1.703680 0.000000 
#    z 0.000000 0.000000 1.731020 
# 
# From -- ./inp_files/21162.got.cif
#   From: 2010.03.12/outbox.cif.g09.slc.cpg/sg51_11_cif.got.tgz:21162.got - 2010.04.16 13:43:02.
