data_PCOD8211800
_publ_section_title
;
Structure prediction by ZEFSAII (Michael W. Deem and Ramdas Pophale) SiO2 
 PCOD8211800
Probable space group: P M M A
;
_chemical_formula_sum "Si O2"
_cell_formula_units_Z 64
_cell_length_a 8.978892
_cell_length_b 24.337711
_cell_length_c 14.923283
_cell_angle_alpha 90.000000
_cell_angle_beta 90.000000
_cell_angle_gamma 90.000000
_cell_volume 3261.120544
_symmetry_space_group_name_H-M "P M M A"
_symmetry_group_IT_number 51
_symmetry_cell_setting 'orthorhombic'
loop_
_space_group_symop_operation_xyz
x,y,z
1/2-x,-y,z
1/2+x,-y,-z
-x,y,-z
-x,-y,-z
1/2+x,y,-z
1/2-x,y,z
x,-y,z
loop_
_atom_site_type_symbol
_atom_site_label
_atom_site_fract_x
_atom_site_fract_y
_atom_site_fract_z
Si Si1 0.928264 0.647897 0.222381
Si Si2 0.920978 0.934923 0.232293
Si Si3 0.578801 0.562194 0.905611
Si Si4 0.918114 0.934594 0.588447
Si Si5 0.583968 0.226733 0.413676
Si Si6 0.587826 0.643416 0.417650
Si Si7 0.077161 0.761908 0.231985
Si Si8 0.077054 0.140510 0.095113
O O1 0.750000 0.653095 0.218566
O O2 0.984599 0.630127 0.321445
O O3 0.986691 0.601304 0.158131
O O4 0.996957 0.706762 0.197740
O O5 0.750000 0.915989 0.233007
O O6 0.996530 0.912711 0.323700
O O7 0.003212 0.910603 0.146092
O O8 0.935986 0.000000 0.225825
O O9 0.750000 0.581529 0.913336
O O10 0.569660 0.500000 0.868902
O O11 0.500000 0.566600 0.000000
O O12 0.750000 0.911811 0.590761
O O13 0.000000 0.911625 0.500000
O O14 0.918666 0.000000 0.586881
O O15 0.500000 0.200620 0.500000
O O16 0.750000 0.201403 0.406486
O O17 0.596481 0.291449 0.428141
O O18 0.494314 0.213651 0.322757
O O19 0.500000 0.616356 0.500000
O O20 0.750000 0.616653 0.422102
O O21 0.250000 0.749687 0.250773
O O22 0.053498 0.804813 0.152641
O O23 0.250000 0.127152 0.080405
O O24 0.000000 0.149385 0.000000
#
# Coordination Sequence:
#
# PCOD8211800 Si02
#       8
#     8   8   8   8   8   8   8   8
#     4  10  20  34  55  83 113 147 186 226 271 325
#     4  10  21  38  61  87 113 143 181 225 273 327
#     4  10  21  37  57  81 109 142 181 228 281 332
#     4   9  16  28  50  81 116 150 182 218 263 318
#     4   9  16  28  49  77 109 145 182 222 269 320
#     4   8  15  26  43  71 104 139 178 218 261 309
#     4  10  21  37  56  81 113 147 185 227 272 326
#     4  11  25  43  62  82 107 142 182 228 282 333
#
# _framework density 19.625156
#
# number of rings (size 3 to 8) (size 9 to 14) (size 15 to 20)
#    0.000    2.375    0.000    3.375    0.000    9.250 
#    0.000    1.875    0.000    3.375    0.000    0.000 
#    0.000    0.000    0.000    0.000    0.000    0.000 
#
# Total GULP energy -793555.904320 kJ/mol
# GULP energy per Si atom -12399.311005 kJ/mol
# Density = 1.958049 g / cm^3
# Si number density = 19.625156 Si / 1000 Ang^3
#
#
#
# Elastic Constant Matrix: (Units=GPa)
#
#
# Indices 1 2 3 4 5 6 
#
# 1 161.8699 43.0446 79.7866 0.0000 0.0000 0.0000
# 2 43.0446 47.6140 39.6174 0.0000 0.0000 0.0000
# 3 79.7866 39.6174 143.3958 0.0000 0.0000 0.0000
# 4 0.0000 0.0000 0.0000 212.5708 0.0000 0.0000
# 5 0.0000 0.0000 0.0000 0.0000 41.2450 0.0000
# 6 0.0000 0.0000 0.0000 0.0000 0.0000 -84.3416
#
#
#
# Elastic Compliance Matrix: (Units=1/GPa)
#
#
# Indices 1 2 3 4 5 6 
#
# 1 0.009483 -0.005431 -0.003776 0.000000 0.000000 0.000000
# 2 -0.005431 0.030382 -0.005372 0.000000 0.000000 0.000000
# 3 -0.003776 -0.005372 0.010559 0.000000 0.000000 0.000000
# 4 0.000000 0.000000 0.000000 0.004704 0.000000 0.000000
# 5 0.000000 0.000000 0.000000 0.000000 0.024245 0.000000
# 6 0.000000 0.000000 0.000000 0.000000 0.000000 -0.011857
#
#
# Mechanical properties :
#
#
# Convention : Reuss Voigt Hill
#
# Bulk Modulus (GPa) = 47.02413 75.30854 61.16633
# Shear Modulus (GPa) = 48.18597 46.59024 47.38811
#
# Velocity S-wave (km/s) = 4.96049 4.87766 4.91925
# Velocity P-wave (km/s) = 7.53802 8.37729 7.96871
#
# Compressibility (1/GPa) = 0.02126568
#
# Stress axis : x y z
#
# Youngs Moduli (GPa) = 105.44796 32.91411 94.70713
#
# Poissons Ratio (x) = 0.17877 0.35762
# Poissons Ratio (y) = 0.57273 0.50876
# Poissons Ratio (z) = 0.39817 0.17681
#
# Static dielectric constant tensor:
#      x y z
#    x 3.894010 0.000000 0.000000 
#    y 0.000000 3.240230 0.000000 
#    z 0.000000 0.000000 3.700590 
# 
# 
# High freq. dielectric constant tensor:
#      x y z
#    x 1.781890 0.000000 0.000000 
#    y 0.000000 1.735530 0.000000 
#    z 0.000000 0.000000 1.770550 
# 
# From -- ./inp_files/22254.got.cif
#   From: 2010.03.12/outbox.cif.g09.slc.cpg/sg51_12_cif.got.tgz:22254.got - 2010.04.16 13:43:02.
