data_PCOD8211220
_publ_section_title
;
Structure prediction by ZEFSAII (Michael W. Deem and Ramdas Pophale) SiO2 
 PCOD8211220
Probable space group: P M M A
;
_chemical_formula_sum "Si O2"
_cell_formula_units_Z 64
_cell_length_a 8.851551
_cell_length_b 19.208159
_cell_length_c 20.727106
_cell_angle_alpha 90.000000
_cell_angle_beta 90.000000
_cell_angle_gamma 90.000000
_cell_volume 3524.063996
_symmetry_space_group_name_H-M "P M M A"
_symmetry_group_IT_number 51
_symmetry_cell_setting 'orthorhombic'
loop_
_space_group_symop_operation_xyz
x,y,z
1/2-x,-y,z
1/2+x,-y,-z
-x,y,-z
-x,-y,-z
1/2+x,y,-z
1/2-x,y,z
x,-y,z
loop_
_atom_site_type_symbol
_atom_site_label
_atom_site_fract_x
_atom_site_fract_y
_atom_site_fract_z
Si Si1 0.424139 0.078680 0.245112
Si Si2 0.575218 0.578669 0.880200
Si Si3 0.573593 0.710878 0.316713
Si Si4 0.428314 0.790300 0.434604
Si Si5 0.925313 0.578774 0.731444
Si Si6 0.927464 0.290877 0.065493
Si Si7 0.073876 0.920871 0.618754
Si Si8 0.572740 0.204392 0.188714
O O1 0.250000 0.093489 0.262349
O O2 0.524228 0.092147 0.308058
O O3 0.483170 0.131349 0.190532
O O4 0.445592 0.000000 0.219465
O O5 0.750000 0.598098 0.889187
O O6 0.543840 0.500000 0.903304
O O7 0.527373 0.586774 0.805840
O O8 0.475621 0.629327 0.923821
O O9 0.750000 0.716550 0.331680
O O10 0.482582 0.745187 0.374564
O O11 0.526284 0.630244 0.311420
O O12 0.529381 0.749454 0.250604
O O13 0.500000 0.759354 0.500000
O O14 0.250000 0.786974 0.439706
O O15 0.480867 0.870447 0.427829
O O16 0.750000 0.597537 0.722327
O O17 0.957167 0.500000 0.708093
O O18 0.750000 0.287565 0.058576
O O19 0.984415 0.244172 0.125119
O O20 0.000000 0.261323 0.000000
O O21 0.250000 0.902537 0.613802
O O22 0.039669 0.000000 0.597628
O O23 0.750000 0.189187 0.185838
#
# Coordination Sequence:
#
# PCOD8211220 Si02
#       8
#     8   8   8   8   8   8   8   8
#     4  10  20  33  54  85 114 142 181 227 275 327
#     4   9  18  33  53  78 109 146 186 225 268 322
#     4  11  21  36  58  85 114 145 186 232 277 330
#     4  12  25  40  58  81 112 150 189 231 278 330
#     4   9  18  33  55  84 115 146 184 229 277 327
#     4  11  23  38  54  78 109 146 187 229 276 329
#     4  10  20  35  55  80 113 151 188 226 270 323
#     4  10  21  36  56  81 111 145 184 228 277 329
#
# _framework density 18.16085
#
# number of rings (size 3 to 8) (size 9 to 14) (size 15 to 20)
#    0.000    1.750    2.500    3.375    0.000    4.000 
#    0.000    1.250    0.000    0.750    0.000    0.000 
#    0.000    0.000    0.000    0.000    0.000    0.000 
#
# Total GULP energy -793830.706167 kJ/mol
# GULP energy per Si atom -12403.604784 kJ/mol
# Density = 1.811952 g / cm^3
# Si number density = 18.160850 Si / 1000 Ang^3
#
#
#
# Elastic Constant Matrix: (Units=GPa)
#
#
# Indices 1 2 3 4 5 6 
#
# 1 92.4262 43.8197 52.2883 0.0000 0.0000 0.0000
# 2 43.8197 94.5418 48.4796 0.0000 0.0000 0.0000
# 3 52.2883 48.4796 108.9290 0.0000 0.0000 0.0000
# 4 0.0000 0.0000 0.0000 21.6157 0.0000 0.0000
# 5 0.0000 0.0000 0.0000 0.0000 28.6032 0.0000
# 6 0.0000 0.0000 0.0000 0.0000 0.0000 34.9699
#
#
#
# Elastic Compliance Matrix: (Units=1/GPa)
#
#
# Indices 1 2 3 4 5 6 
#
# 1 0.016250 -0.004576 -0.005764 0.000000 0.000000 0.000000
# 2 -0.004576 0.014994 -0.004476 0.000000 0.000000 0.000000
# 3 -0.005764 -0.004476 0.013939 0.000000 0.000000 0.000000
# 4 0.000000 0.000000 0.000000 0.046263 0.000000 0.000000
# 5 0.000000 0.000000 0.000000 0.000000 0.034961 0.000000
# 6 0.000000 0.000000 0.000000 0.000000 0.000000 0.028596
#
#
# Mechanical properties :
#
#
# Convention : Reuss Voigt Hill
#
# Bulk Modulus (GPa) = 64.30725 65.00805 64.65765
# Shear Modulus (GPa) = 26.34100 27.12505 26.73303
#
# Velocity S-wave (km/s) = 3.81258 3.86891 3.84085
# Velocity P-wave (km/s) = 7.40727 7.47204 7.43973
#
# Compressibility (1/GPa) = 0.01555035
#
# Stress axis : x y z
#
# Youngs Moduli (GPa) = 61.53988 66.69414 71.74027
#
# Poissons Ratio (x) = 0.30521 0.41348
# Poissons Ratio (y) = 0.28162 0.32114
# Poissons Ratio (z) = 0.35469 0.29855
#
# Static dielectric constant tensor:
#      x y z
#    x 3.318550 0.000000 0.000000 
#    y 0.000000 3.433980 0.000000 
#    z 0.000000 0.000000 3.218990 
# 
# 
# High freq. dielectric constant tensor:
#      x y z
#    x 1.710980 0.000000 0.000000 
#    y 0.000000 1.703670 0.000000 
#    z 0.000000 0.000000 1.681230 
# 
# From -- ./inp_files/32334.got.cif
#   From: 2010.03.12/outbox.cif.g09.slc.cpg/sg51_17_cif.got.tgz:32334.got - 2010.04.16 13:43:02.
