data_PCOD8211459
_publ_section_title
;
Structure prediction by ZEFSAII (Michael W. Deem and Ramdas Pophale) SiO2 
 PCOD8211459
Probable space group: P M M A
;
_chemical_formula_sum "Si O2"
_cell_formula_units_Z 48
_cell_length_a 20.002338
_cell_length_b 9.401941
_cell_length_c 14.064120
_cell_angle_alpha 90.000000
_cell_angle_beta 90.000000
_cell_angle_gamma 90.000000
_cell_volume 2644.909683
_symmetry_space_group_name_H-M "P M M A"
_symmetry_group_IT_number 51
_symmetry_cell_setting 'orthorhombic'
loop_
_space_group_symop_operation_xyz
x,y,z
1/2-x,-y,z
1/2+x,-y,-z
-x,y,-z
-x,-y,-z
1/2+x,y,-z
1/2-x,y,z
x,-y,z
loop_
_atom_site_type_symbol
_atom_site_label
_atom_site_fract_x
_atom_site_fract_y
_atom_site_fract_z
Si Si1 0.444401 0.666633 0.577030
Si Si2 0.328331 0.832894 0.491752
Si Si3 0.172804 0.657102 0.313466
Si Si4 0.574096 0.840266 0.042626
Si Si5 0.533820 0.341590 0.207657
Si Si6 0.112887 0.340557 0.122788
O O1 0.500000 0.715606 0.500000
O O2 0.428459 0.500000 0.564418
O O3 0.375180 0.754353 0.568106
O O4 0.471289 0.703806 0.682236
O O5 0.250000 0.801683 0.513250
O O6 0.352926 0.769946 0.390437
O O7 0.342644 0.000000 0.491979
O O8 0.250000 0.635664 0.329894
O O9 0.137689 0.500000 0.325935
O O10 0.159841 0.716490 0.207732
O O11 0.579241 0.765406 0.145747
O O12 0.600377 0.000000 0.055083
O O13 0.500000 0.837163 0.000000
O O14 0.622402 0.759448 0.968578
O O15 0.564551 0.500000 0.199255
O O16 0.461336 0.337912 0.162639
O O17 0.133219 0.500000 0.092140
#
# Coordination Sequence:
#
# PCOD8211459 Si02
#       6
#     8   8   8   8   8   8
#     4  10  20  34  53  77 102 128 165 212 255 294
#     4  10  21  35  50  71 101 136 170 202 242 297
#     4   9  17  30  49  71  94 123 159 197 236 281
#     4   9  17  28  43  65  92 121 152 185 226 282
#     4   9  17  29  46  68  94 123 154 192 238 284
#     4   9  16  28  47  69  94 122 152 189 235 284
#
# _framework density 18.148067000000001
#
# number of rings (size 3 to 8) (size 9 to 14) (size 15 to 20)
#    0.000    2.667    0.000    2.000    0.000    7.333 
#    0.000    3.333    0.000    1.000    0.000    2.333 
#    0.000    0.000    0.000    0.000    0.000    0.000 
#
# Total GULP energy -594958.569570 kJ/mol
# GULP energy per Si atom -12394.970199 kJ/mol
# Density = 1.810676 g / cm^3
# Si number density = 18.148067 Si / 1000 Ang^3
#
#
#
# Elastic Constant Matrix: (Units=GPa)
#
#
# Indices 1 2 3 4 5 6 
#
# 1 25.6558 19.3023 6.1317 0.0000 0.0000 0.0000
# 2 19.3023 89.4800 44.1447 0.0000 0.0000 0.0000
# 3 6.1317 44.1447 107.0744 0.0000 0.0000 0.0000
# 4 0.0000 0.0000 0.0000 11.8501 0.0000 0.0000
# 5 0.0000 0.0000 0.0000 0.0000 22.8834 0.0000
# 6 0.0000 0.0000 0.0000 0.0000 0.0000 19.6766
#
#
#
# Elastic Compliance Matrix: (Units=1/GPa)
#
#
# Indices 1 2 3 4 5 6 
#
# 1 0.046823 -0.011019 0.001862 0.000000 0.000000 0.000000
# 2 -0.011019 0.016622 -0.006222 0.000000 0.000000 0.000000
# 3 0.001862 -0.006222 0.011798 0.000000 0.000000 0.000000
# 4 0.000000 0.000000 0.000000 0.084387 0.000000 0.000000
# 5 0.000000 0.000000 0.000000 0.000000 0.043700 0.000000
# 6 0.000000 0.000000 0.000000 0.000000 0.000000 0.050822
#
#
# Mechanical properties :
#
#
# Convention : Reuss Voigt Hill
#
# Bulk Modulus (GPa) = 22.47986 40.15196 31.31591
# Shear Modulus (GPa) = 16.68120 21.05745 18.86933
#
# Velocity S-wave (km/s) = 3.03507 3.41003 3.22800
# Velocity P-wave (km/s) = 4.96951 6.13817 5.58449
#
# Compressibility (1/GPa) = 0.04448426
#
# Stress axis : x y z
#
# Youngs Moduli (GPa) = 21.35713 60.16037 84.76063
#
# Poissons Ratio (x) = 0.66290 -0.15778
# Poissons Ratio (y) = 0.23533 0.52738
# Poissons Ratio (z) = -0.03976 0.37432
#
# Static dielectric constant tensor:
#      x y z
#    x 3.182430 0.000000 0.000000 
#    y 0.000000 3.515120 0.000000 
#    z 0.000000 0.000000 3.570660 
# 
# 
# High freq. dielectric constant tensor:
#      x y z
#    x 1.662900 0.000000 0.000000 
#    y 0.000000 1.700560 0.000000 
#    z 0.000000 0.000000 1.704120 
# 
# From -- ./inp_files/24734.got.cif
#   From: 2010.03.12/outbox.cif.g09.slc.cpg/sg51_13_cif.got.tgz:24734.got - 2010.04.16 13:43:02.
