data_PCOD8211908
_publ_section_title
;
Structure prediction by ZEFSAII (Michael W. Deem and Ramdas Pophale) SiO2 
 PCOD8211908
Probable space group: P M M A
;
_chemical_formula_sum "Si O2"
_cell_formula_units_Z 56
_cell_length_a 14.438038
_cell_length_b 9.724396
_cell_length_c 21.880779
_cell_angle_alpha 90.000000
_cell_angle_beta 90.000000
_cell_angle_gamma 90.000000
_cell_volume 3072.087606
_symmetry_space_group_name_H-M "P M M A"
_symmetry_group_IT_number 51
_symmetry_cell_setting 'orthorhombic'
loop_
_space_group_symop_operation_xyz
x,y,z
1/2-x,-y,z
1/2+x,-y,-z
-x,y,-z
-x,-y,-z
1/2+x,y,-z
1/2-x,y,z
x,-y,z
loop_
_atom_site_type_symbol
_atom_site_label
_atom_site_fract_x
_atom_site_fract_y
_atom_site_fract_z
Si Si1 0.642913 0.658891 0.901995
Si Si2 0.640200 0.847799 0.010249
Si Si3 0.950217 0.158639 0.437592
Si Si4 0.642943 0.839519 0.146834
Si Si5 0.993852 0.340794 0.794516
Si Si6 0.250000 0.844046 0.517115
Si Si7 0.055407 0.341063 0.343110
Si Si8 0.250000 0.341233 0.398976
O O1 0.750000 0.695997 0.889753
O O2 0.630934 0.500000 0.918868
O O3 0.601526 0.743606 0.959396
O O4 0.587365 0.699662 0.841406
O O5 0.750000 0.851284 0.008980
O O6 0.601220 0.000000 0.995562
O O7 0.609783 0.801194 0.078089
O O8 0.840250 0.182779 0.441825
O O9 0.000000 0.206757 0.500000
O O10 0.985027 0.250065 0.381958
O O11 0.974647 0.000000 0.424228
O O12 0.750000 0.801684 0.156620
O O13 0.584676 0.749611 0.194096
O O14 0.626044 0.000000 0.159639
O O15 0.021334 0.500000 0.801214
O O16 0.956734 0.305950 0.727645
O O17 0.250000 0.744613 0.460200
O O18 0.250000 0.000000 0.491912
O O19 0.033603 0.500000 0.357230
O O20 0.160705 0.303166 0.359124
O O21 0.250000 0.500000 0.418191
#
# Coordination Sequence:
#
# PCOD8211908 Si02
#       8
#     8   8   8   8   8   4   8   4
#     4   9  18  32  51  76 107 141 176 215 263 320
#     4   8  15  30  52  76 102 132 171 221 274 321
#     4  10  20  36  59  84 113 144 177 221 267 313
#     4   9  19  37  58  77 100 136 180 225 272 322
#     4  10  22  37  53  77 108 143 180 219 263 313
#     4  10  20  36  58  86 114 142 175 216 271 320
#     4  10  22  38  56  81 112 145 181 219 261 313
#     4  10  20  34  58  86 110 142 179 214 259 314
#
# _framework density 18.228646999999999
#
# number of rings (size 3 to 8) (size 9 to 14) (size 15 to 20)
#    0.000    2.571    1.429    0.857    1.000    3.429 
#    1.286    4.286    0.000    0.000    0.000    0.000 
#    0.000    0.000    0.000    0.000    0.000    0.000 
#
# Total GULP energy -694462.781531 kJ/mol
# GULP energy per Si atom -12401.121099 kJ/mol
# Density = 1.818716 g / cm^3
# Si number density = 18.228647 Si / 1000 Ang^3
#
#
#
# Elastic Constant Matrix: (Units=GPa)
#
#
# Indices 1 2 3 4 5 6 
#
# 1 108.4102 50.6724 52.0324 0.0000 0.0000 0.0000
# 2 50.6724 72.0298 61.2365 0.0000 0.0000 0.0000
# 3 52.0324 61.2365 109.5071 0.0000 0.0000 0.0000
# 4 0.0000 0.0000 0.0000 95.7971 0.0000 0.0000
# 5 0.0000 0.0000 0.0000 0.0000 -14.2568 0.0000
# 6 0.0000 0.0000 0.0000 0.0000 0.0000 24.1069
#
#
#
# Elastic Compliance Matrix: (Units=1/GPa)
#
#
# Indices 1 2 3 4 5 6 
#
# 1 0.014012 -0.008001 -0.002184 0.000000 0.000000 0.000000
# 2 -0.008001 0.031033 -0.013552 0.000000 0.000000 0.000000
# 3 -0.002184 -0.013552 0.017748 0.000000 0.000000 0.000000
# 4 0.000000 0.000000 0.000000 0.010439 0.000000 0.000000
# 5 0.000000 0.000000 0.000000 0.000000 -0.070142 0.000000
# 6 0.000000 0.000000 0.000000 0.000000 0.000000 0.041482
#
#
# Mechanical properties :
#
#
# Convention : Reuss Voigt Hill
#
# Bulk Modulus (GPa) = 65.27634 68.64773 66.96204
# Shear Modulus (GPa) = 51.46608 29.52983 40.49796
#
# Velocity S-wave (km/s) = 5.31930 4.02925 4.71857
# Velocity P-wave (km/s) = 8.57986 7.70633 8.15480
#
# Compressibility (1/GPa) = 0.01531949
#
# Stress axis : x y z
#
# Youngs Moduli (GPa) = 71.36729 32.22371 56.34496
#
# Poissons Ratio (x) = 0.25782 0.12304
# Poissons Ratio (y) = 0.57100 0.76359
# Poissons Ratio (z) = 0.15585 0.43670
#
# Static dielectric constant tensor:
#      x y z
#    x 3.332610 0.000000 0.000000 
#    y 0.000000 3.403080 0.000000 
#    z 0.000000 0.000000 3.308590 
# 
# 
# High freq. dielectric constant tensor:
#      x y z
#    x 1.712610 0.000000 0.000000 
#    y 0.000000 1.703620 0.000000 
#    z 0.000000 0.000000 1.697810 
# 
# From -- ./inp_files/33589.got.cif
#   From: 2010.03.12/outbox.cif.g09.slc.cpg/sg51_17_cif.got.tgz:33589.got - 2010.04.16 13:43:02.
