data_PCOD8211189
_publ_section_title
;
Structure prediction by ZEFSAII (Michael W. Deem and Ramdas Pophale) SiO2 
 PCOD8211189
Probable space group: P M M A
;
_chemical_formula_sum "Si O2"
_cell_formula_units_Z 64
_cell_length_a 9.227384
_cell_length_b 14.177024
_cell_length_c 25.947945
_cell_angle_alpha 90.000000
_cell_angle_beta 90.000000
_cell_angle_gamma 90.000000
_cell_volume 3394.428284
_symmetry_space_group_name_H-M "P M M A"
_symmetry_group_IT_number 51
_symmetry_cell_setting 'orthorhombic'
loop_
_space_group_symop_operation_xyz
x,y,z
1/2-x,-y,z
1/2+x,-y,-z
-x,y,-z
-x,-y,-z
1/2+x,y,-z
1/2-x,y,z
x,-y,z
loop_
_atom_site_type_symbol
_atom_site_label
_atom_site_fract_x
_atom_site_fract_y
_atom_site_fract_z
Si Si1 0.419519 0.609060 0.692407
Si Si2 0.578415 0.223352 0.049988
Si Si3 0.908745 0.388705 0.791223
Si Si4 0.418160 0.890497 0.849154
Si Si5 0.920827 0.226098 0.649384
Si Si6 0.419842 0.608656 0.093950
Si Si7 0.079693 0.107466 0.251461
Si Si8 0.580326 0.891854 0.550927
O O1 0.250000 0.627160 0.690129
O O2 0.458394 0.500000 0.681567
O O3 0.475505 0.642521 0.748585
O O4 0.499057 0.672722 0.649619
O O5 0.750000 0.224714 0.041597
O O6 0.531597 0.162011 0.099204
O O7 0.518305 0.329632 0.056148
O O8 0.500000 0.178451 0.000000
O O9 0.750000 0.345096 0.777146
O O10 0.892188 0.500000 0.792743
O O11 0.958584 0.356923 0.847962
O O12 0.250000 0.873125 0.838206
O O13 0.505260 0.850075 0.799853
O O14 0.454608 0.000000 0.857256
O O15 0.750000 0.243087 0.648722
O O16 0.970286 0.166478 0.699044
O O17 0.972513 0.170564 0.598815
O O18 0.250000 0.624728 0.082788
O O19 0.462528 0.500000 0.085254
O O20 0.250000 0.113132 0.243329
O O21 0.028742 0.000000 0.260528
O O22 0.500000 0.855008 0.500000
O O23 0.750000 0.880841 0.541553
O O24 0.538810 0.000000 0.562940
#
# Coordination Sequence:
#
# PCOD8211189 Si02
#       8
#     8   8   8   8   8   8   8   8
#     4  10  21  34  48  72 108 146 184 227 270 312
#     4  11  24  39  56  78 102 133 173 218 265 316
#     4   8  15  30  51  73  98 132 172 211 256 312
#     4   9  20  39  58  77 105 137 168 210 265 318
#     4  10  20  33  53  81 111 147 185 223 266 315
#     4   9  19  36  57  79 104 135 170 211 260 315
#     4   9  18  33  54  81 110 139 172 209 255 315
#     4   9  18  34  56  82 114 149 185 227 272 320
#
# _framework density 18.854427999999999
#
# number of rings (size 3 to 8) (size 9 to 14) (size 15 to 20)
#    0.000    2.625    0.000    1.875    1.750    5.500 
#    0.000    1.250    0.000    4.125    0.000    0.000 
#    0.000    0.000    0.000    0.000    0.000    0.000 
#
# Total GULP energy -793622.386150 kJ/mol
# GULP energy per Si atom -12400.349784 kJ/mol
# Density = 1.881151 g / cm^3
# Si number density = 18.854428 Si / 1000 Ang^3
#
#
#
# Elastic Constant Matrix: (Units=GPa)
#
#
# Indices 1 2 3 4 5 6 
#
# 1 61.0525 37.6808 58.1647 0.0000 0.0000 0.0000
# 2 37.6808 68.0721 60.6615 0.0000 0.0000 0.0000
# 3 58.1647 60.6615 147.1633 0.0000 0.0000 0.0000
# 4 0.0000 0.0000 0.0000 31.2297 0.0000 0.0000
# 5 0.0000 0.0000 0.0000 0.0000 31.8211 0.0000
# 6 0.0000 0.0000 0.0000 0.0000 0.0000 24.6231
#
#
#
# Elastic Compliance Matrix: (Units=1/GPa)
#
#
# Indices 1 2 3 4 5 6 
#
# 1 0.029672 -0.009442 -0.007835 0.000000 0.000000 0.000000
# 2 -0.009442 0.026224 -0.007078 0.000000 0.000000 0.000000
# 3 -0.007835 -0.007078 0.012809 0.000000 0.000000 0.000000
# 4 0.000000 0.000000 0.000000 0.032021 0.000000 0.000000
# 5 0.000000 0.000000 0.000000 0.000000 0.031426 0.000000
# 6 0.000000 0.000000 0.000000 0.000000 0.000000 0.040612
#
#
# Mechanical properties :
#
#
# Convention : Reuss Voigt Hill
#
# Bulk Modulus (GPa) = 50.01316 65.47801 57.74558
# Shear Modulus (GPa) = 21.91639 25.52018 23.71829
#
# Velocity S-wave (km/s) = 3.41310 3.68304 3.55063
# Velocity P-wave (km/s) = 6.48967 7.27255 6.89223
#
# Compressibility (1/GPa) = 0.01999474
#
# Stress axis : x y z
#
# Youngs Moduli (GPa) = 33.70229 38.13250 78.06713
#
# Poissons Ratio (x) = 0.36006 0.61167
# Poissons Ratio (y) = 0.31823 0.55255
# Poissons Ratio (z) = 0.26406 0.26990
#
# Static dielectric constant tensor:
#      x y z
#    x 3.324090 0.000000 0.000000 
#    y 0.000000 3.454470 0.000000 
#    z 0.000000 0.000000 3.507470 
# 
# 
# High freq. dielectric constant tensor:
#      x y z
#    x 1.724070 0.000000 0.000000 
#    y 0.000000 1.730700 0.000000 
#    z 0.000000 0.000000 1.722500 
# 
# From -- ./inp_files/34878.got.cif
#   From: 2010.03.12/outbox.cif.g09.slc.cpg/sg51_18_cif.got.tgz:34878.got - 2010.04.16 13:43:02.
