data_PCOD8211690
_publ_section_title
;
Structure prediction by ZEFSAII (Michael W. Deem and Ramdas Pophale) SiO2 
 PCOD8211690
Probable space group: P M M A
;
_chemical_formula_sum "Si O2"
_cell_formula_units_Z 48
_cell_length_a 9.076497
_cell_length_b 8.639232
_cell_length_c 30.785043
_cell_angle_alpha 90.000000
_cell_angle_beta 90.000000
_cell_angle_gamma 90.000000
_cell_volume 2413.977233
_symmetry_space_group_name_H-M "P M M A"
_symmetry_group_IT_number 51
_symmetry_cell_setting 'orthorhombic'
loop_
_space_group_symop_operation_xyz
x,y,z
1/2-x,-y,z
1/2+x,-y,-z
-x,y,-z
-x,-y,-z
1/2+x,y,-z
1/2-x,y,z
x,-y,z
loop_
_atom_site_type_symbol
_atom_site_label
_atom_site_fract_x
_atom_site_fract_y
_atom_site_fract_z
Si Si1 0.921264 0.320559 0.132738
Si Si2 0.415142 0.817012 0.373335
Si Si3 0.080429 0.680280 0.707401
Si Si4 0.921990 0.176886 0.042911
Si Si5 0.916351 0.815367 0.457506
Si Si6 0.421090 0.179727 0.212232
O O1 0.750000 0.278773 0.139848
O O2 0.951856 0.500000 0.141799
O O3 0.970599 0.279563 0.083924
O O4 0.018564 0.217227 0.164637
O O5 0.250000 0.747535 0.372687
O O6 0.498088 0.774549 0.329594
O O7 0.501667 0.749351 0.414929
O O8 0.407571 0.000000 0.376909
O O9 0.250000 0.732217 0.708318
O O10 0.064210 0.500000 0.697522
O O11 0.009353 0.717228 0.753590
O O12 0.750000 0.190152 0.034602
O O13 0.970371 0.000000 0.051668
O O14 0.000000 0.243621 0.000000
O O15 0.750000 0.751209 0.457759
O O16 0.000000 0.752321 0.500000
O O17 0.916162 0.000000 0.457295
O O18 0.250000 0.223906 0.214739
O O19 0.446171 0.000000 0.222756
#
# Coordination Sequence:
#
# PCOD8211690 Si02
#       6
#     8   8   8   8   8   8
#     4  10  21  37  57  82 112 146 184 224 269 324
#     4  10  20  34  54  81 111 143 182 226 271 322
#     4  11  24  40  58  81 109 142 180 221 268 324
#     4   9  18  33  53  77 107 144 185 228 272 318
#     4   9  16  27  46  74 108 144 182 226 274 321
#     4  11  24  40  59  84 111 140 178 223 270 322
#
# _framework density 19.884195999999999
#
# number of rings (size 3 to 8) (size 9 to 14) (size 15 to 20)
#    0.000    2.000    0.000    3.500    0.000   11.667 
#    0.000    1.667    0.000    0.500    0.000    0.000 
#    0.000    0.000    0.000    0.000    0.000    0.000 
#
# Total GULP energy -595400.723186 kJ/mol
# GULP energy per Si atom -12404.181733 kJ/mol
# Density = 1.983894 g / cm^3
# Si number density = 19.884196 Si / 1000 Ang^3
#
#
#
# Elastic Constant Matrix: (Units=GPa)
#
#
# Indices 1 2 3 4 5 6 
#
# 1 139.9336 24.3290 66.6560 0.0000 0.0000 0.0000
# 2 24.3290 25.8699 8.8848 0.0000 0.0000 0.0000
# 3 66.6560 8.8848 132.6669 0.0000 0.0000 0.0000
# 4 0.0000 0.0000 0.0000 1.8778 0.0000 0.0000
# 5 0.0000 0.0000 0.0000 0.0000 45.2990 0.0000
# 6 0.0000 0.0000 0.0000 0.0000 0.0000 17.2833
#
#
#
# Elastic Compliance Matrix: (Units=1/GPa)
#
#
# Indices 1 2 3 4 5 6 
#
# 1 0.011010 -0.008653 -0.004952 0.000000 0.000000 0.000000
# 2 -0.008653 0.046366 0.001242 0.000000 0.000000 0.000000
# 3 -0.004952 0.001242 0.009943 0.000000 0.000000 0.000000
# 4 0.000000 0.000000 0.000000 0.532533 0.000000 0.000000
# 5 0.000000 0.000000 0.000000 0.000000 0.022076 0.000000
# 6 0.000000 0.000000 0.000000 0.000000 0.000000 0.057859
#
#
# Mechanical properties :
#
#
# Convention : Reuss Voigt Hill
#
# Bulk Modulus (GPa) = 23.47826 55.35669 39.41747
# Shear Modulus (GPa) = 6.95692 26.13205 16.54449
#
# Velocity S-wave (km/s) = 1.87252 3.62914 2.88764
# Velocity P-wave (km/s) = 4.06303 6.74247 5.56637
#
# Compressibility (1/GPa) = 0.04259260
#
# Stress axis : x y z
#
# Youngs Moduli (GPa) = 90.83040 21.56758 100.57807
#
# Poissons Ratio (x) = 0.18663 0.49807
# Poissons Ratio (y) = 0.78596 -0.12496
# Poissons Ratio (z) = 0.44980 -0.02680
#
# Static dielectric constant tensor:
#      x y z
#    x 3.843770 0.000000 0.000000 
#    y 0.000000 3.338600 0.000000 
#    z 0.000000 0.000000 3.726480 
# 
# 
# High freq. dielectric constant tensor:
#      x y z
#    x 1.784280 0.000000 0.000000 
#    y 0.000000 1.749990 0.000000 
#    z 0.000000 0.000000 1.791130 
# 
# From -- ./inp_files/37021.got.cif
#   From: 2010.03.12/outbox.cif.g09.slc.cpg/sg51_19_cif.got.tgz:37021.got - 2010.04.16 13:43:02.
