data_PCOD8211088
_publ_section_title
;
Structure prediction by ZEFSAII (Michael W. Deem and Ramdas Pophale) SiO2 
 PCOD8211088
Probable space group: P M M A
;
_chemical_formula_sum "Si O2"
_cell_formula_units_Z 64
_cell_length_a 17.520991
_cell_length_b 20.269661
_cell_length_c 9.638216
_cell_angle_alpha 90.000000
_cell_angle_beta 90.000000
_cell_angle_gamma 90.000000
_cell_volume 3422.959864
_symmetry_space_group_name_H-M "P M M A"
_symmetry_group_IT_number 51
_symmetry_cell_setting 'orthorhombic'
loop_
_space_group_symop_operation_xyz
x,y,z
1/2-x,-y,z
1/2+x,-y,-z
-x,y,-z
-x,-y,-z
1/2+x,y,-z
1/2-x,y,z
x,-y,z
loop_
_atom_site_type_symbol
_atom_site_label
_atom_site_fract_x
_atom_site_fract_y
_atom_site_fract_z
Si Si1 0.658712 0.190332 0.277874
Si Si2 0.159326 0.808120 0.036207
Si Si3 0.659253 0.926862 0.465720
Si Si4 0.659172 0.926175 0.776682
Si Si5 0.659938 0.316581 0.782357
Si Si6 0.936939 0.574277 0.393991
Si Si7 0.339223 0.691841 0.534662
Si Si8 0.041075 0.575195 0.135714
O O1 0.750000 0.191045 0.276373
O O2 0.627221 0.124223 0.352190
O O3 0.625393 0.251240 0.367539
O O4 0.626731 0.193693 0.120701
O O5 0.250000 0.812079 0.033396
O O6 0.125811 0.872510 0.115310
O O7 0.133573 0.742616 0.117633
O O8 0.750000 0.924608 0.466161
O O9 0.630319 0.908912 0.620959
O O10 0.630601 0.000000 0.424200
O O11 0.750000 0.923214 0.778537
O O12 0.631985 0.000000 0.819248
O O13 0.750000 0.331574 0.796097
O O14 0.637760 0.296587 0.625377
O O15 0.614743 0.382243 0.824422
O O16 0.910828 0.500000 0.432085
O O17 0.864255 0.620993 0.407597
O O18 0.000000 0.600523 0.500000
O O19 0.972571 0.578443 0.243703
O O20 0.250000 0.694340 0.550773
O O21 0.070269 0.500000 0.117052
O O22 0.000000 0.603285 0.000000
#
# Coordination Sequence:
#
# PCOD8211088 Si02
#       8
#     8   8   8   8   8   8   8   8
#     4   9  17  27  40  63  96 130 164 207 257 301
#     4   9  17  27  40  62  95 131 165 207 255 301
#     4   8  13  22  37  57  85 124 166 205 248 300
#     4   8  13  22  37  57  85 125 168 205 246 299
#     4  10  20  34  53  76 103 136 173 212 255 307
#     4  10  20  37  57  77 103 132 167 211 257 304
#     4  10  20  33  52  77 104 136 172 213 259 305
#     4  10  22  39  57  78 104 136 169 207 259 311
#
# _framework density 18.697268000000001
#
# number of rings (size 3 to 8) (size 9 to 14) (size 15 to 20)
#    0.000    2.750    1.250    1.500    1.750    4.000 
#    0.000    3.750    0.000    2.250    0.000    0.000 
#    0.000    2.000    0.000    0.125    0.000    0.500 
#
# Total GULP energy -793310.772569 kJ/mol
# GULP energy per Si atom -12395.480821 kJ/mol
# Density = 1.865471 g / cm^3
# Si number density = 18.697268 Si / 1000 Ang^3
#
#
#
# Elastic Constant Matrix: (Units=GPa)
#
#
# Indices 1 2 3 4 5 6 
#
# 1 10.4289 25.9952 26.0558 0.0000 0.0000 0.0000
# 2 25.9952 142.0744 78.3386 0.0000 0.0000 0.0000
# 3 26.0558 78.3386 145.2177 0.0000 0.0000 0.0000
# 4 0.0000 0.0000 0.0000 30.4453 0.0000 0.0000
# 5 0.0000 0.0000 0.0000 0.0000 13.9031 0.0000
# 6 0.0000 0.0000 0.0000 0.0000 0.0000 4.7965
#
#
#
# Elastic Compliance Matrix: (Units=1/GPa)
#
#
# Indices 1 2 3 4 5 6 
#
# 1 0.231176 -0.027652 -0.026562 0.000000 0.000000 0.000000
# 2 -0.027652 0.013326 -0.002227 0.000000 0.000000 0.000000
# 3 -0.026562 -0.002227 0.012854 0.000000 0.000000 0.000000
# 4 0.000000 0.000000 0.000000 0.032846 0.000000 0.000000
# 5 0.000000 0.000000 0.000000 0.000000 0.071926 0.000000
# 6 0.000000 0.000000 0.000000 0.000000 0.000000 0.208487
#
#
# Mechanical properties :
#
#
# Convention : Reuss Voigt Hill
#
# Bulk Modulus (GPa) = 6.92170 62.05560 34.48865
# Shear Modulus (GPa) = 6.83382 20.98441 13.90911
#
# Velocity S-wave (km/s) = 1.91388 3.35375 2.73043
# Velocity P-wave (km/s) = 2.93154 6.94684 5.33162
#
# Compressibility (1/GPa) = 0.14447310
#
# Stress axis : x y z
#
# Youngs Moduli (GPa) = 4.32571 75.04017 77.79858
#
# Poissons Ratio (x) = 2.07501 2.06648
# Poissons Ratio (y) = 0.11961 0.17329
# Poissons Ratio (z) = 0.11490 0.16714
#
# Static dielectric constant tensor:
#      x y z
#    x 2.697750 0.000000 0.000000 
#    y 0.000000 3.676990 0.000000 
#    z 0.000000 0.000000 3.676780 
# 
# 
# High freq. dielectric constant tensor:
#      x y z
#    x 1.660030 0.000000 0.000000 
#    y 0.000000 1.736490 0.000000 
#    z 0.000000 0.000000 1.739580 
# 
# From -- ./inp_files/11180.got.cif
#   From: 2010.03.12/outbox.cif.g09.slc.cpg/sg51_6_cif.got.tgz:11180.got - 2010.04.16 13:43:02.
