data_PCOD8211306
_publ_section_title
;
Structure prediction by ZEFSAII (Michael W. Deem and Ramdas Pophale) SiO2 
 PCOD8211306
Probable space group: P M M A
;
_chemical_formula_sum "Si O2"
_cell_formula_units_Z 64
_cell_length_a 9.026175
_cell_length_b 14.327110
_cell_length_c 31.425238
_cell_angle_alpha 90.000000
_cell_angle_beta 90.000000
_cell_angle_gamma 90.000000
_cell_volume 4063.880419
_symmetry_space_group_name_H-M "P M M A"
_symmetry_group_IT_number 51
_symmetry_cell_setting 'orthorhombic'
loop_
_space_group_symop_operation_xyz
x,y,z
1/2-x,-y,z
1/2+x,-y,-z
-x,y,-z
-x,-y,-z
1/2+x,y,-z
1/2-x,y,z
x,-y,z
loop_
_atom_site_type_symbol
_atom_site_label
_atom_site_fract_x
_atom_site_fract_y
_atom_site_fract_z
Si Si1 0.919938 0.103731 0.831402
Si Si2 0.574203 0.723765 0.957339
Si Si3 0.917104 0.388673 0.541755
Si Si4 0.073711 0.605163 0.123384
Si Si5 0.076626 0.292736 0.206933
Si Si6 0.576593 0.608509 0.709567
Si Si7 0.583147 0.611108 0.375161
Si Si8 0.578280 0.106391 0.080667
O O1 0.750000 0.116471 0.847067
O O2 0.956969 0.181660 0.795815
O O3 0.025651 0.120772 0.871112
O O4 0.944320 0.000000 0.811928
O O5 0.750000 0.723811 0.962222
O O6 0.518701 0.660038 0.918272
O O7 0.517105 0.829117 0.950519
O O8 0.500000 0.682803 0.000000
O O9 0.750000 0.350634 0.541298
O O10 0.918998 0.500000 0.541984
O O11 0.000000 0.350274 0.500000
O O12 0.997931 0.349067 0.583697
O O13 0.250000 0.605842 0.124507
O O14 0.011773 0.500000 0.121689
O O15 0.009140 0.655521 0.165515
O O16 0.250000 0.313983 0.208057
O O17 0.009300 0.334293 0.250408
O O18 0.750000 0.626130 0.702993
O O19 0.542740 0.500000 0.717760
O O20 0.495818 0.646827 0.667586
O O21 0.750000 0.649505 0.376086
O O22 0.580242 0.500000 0.376292
O O23 0.750000 0.134292 0.077833
O O24 0.551815 0.000000 0.066249
#
# Coordination Sequence:
#
# PCOD8211306 Si02
#       8
#     8   8   8   8   8   8   8   8
#     4   9  16  28  48  72  94 115 140 170 207 252
#     4  11  22  36  53  72  93 117 143 172 208 250
#     4   9  15  22  33  49  69  96 135 180 223 263
#     4   9  17  30  49  71  91 113 143 177 210 246
#     4   9  15  26  45  69  89 109 139 174 210 249
#     4   9  16  25  39  58  79 106 141 178 212 249
#     4   9  16  25  35  48  72 104 137 176 220 260
#     4  10  20  34  52  73  95 117 140 168 205 249
#
# _framework density 15.748495
#
# number of rings (size 3 to 8) (size 9 to 14) (size 15 to 20)
#    0.000    2.625    1.250    1.875    0.000    5.750 
#    0.000    0.625    0.000    1.125    0.000    0.000 
#    0.000    0.000    0.000    0.000    0.000    0.625 
#
# Total GULP energy -793460.541692 kJ/mol
# GULP energy per Si atom -12397.820964 kJ/mol
# Density = 1.571265 g / cm^3
# Si number density = 15.748495 Si / 1000 Ang^3
#
#
#
# Elastic Constant Matrix: (Units=GPa)
#
#
# Indices 1 2 3 4 5 6 
#
# 1 69.1470 23.6684 49.3304 0.0000 0.0000 0.0000
# 2 23.6684 70.2465 47.9221 0.0000 0.0000 0.0000
# 3 49.3304 47.9221 149.9271 0.0000 0.0000 0.0000
# 4 0.0000 0.0000 0.0000 10.0987 0.0000 0.0000
# 5 0.0000 0.0000 0.0000 0.0000 24.5683 0.0000
# 6 0.0000 0.0000 0.0000 0.0000 0.0000 9.1065
#
#
#
# Elastic Compliance Matrix: (Units=1/GPa)
#
#
# Indices 1 2 3 4 5 6 
#
# 1 0.019313 -0.002778 -0.005467 0.000000 0.000000 0.000000
# 2 -0.002778 0.018605 -0.005033 0.000000 0.000000 0.000000
# 3 -0.005467 -0.005033 0.010077 0.000000 0.000000 0.000000
# 4 0.000000 0.000000 0.000000 0.099023 0.000000 0.000000
# 5 0.000000 0.000000 0.000000 0.000000 0.040703 0.000000
# 6 0.000000 0.000000 0.000000 0.000000 0.000000 0.109812
#
#
# Mechanical properties :
#
#
# Convention : Reuss Voigt Hill
#
# Bulk Modulus (GPa) = 46.64081 59.01806 52.82944
# Shear Modulus (GPa) = 15.09509 19.98134 17.53821
#
# Velocity S-wave (km/s) = 3.09934 3.56585 3.34075
# Velocity P-wave (km/s) = 6.51830 7.38312 6.96415
#
# Compressibility (1/GPa) = 0.02144045
#
# Stress axis : x y z
#
# Youngs Moduli (GPa) = 51.77948 53.74927 99.23361
#
# Poissons Ratio (x) = 0.14931 0.54246
# Poissons Ratio (y) = 0.14383 0.49942
# Poissons Ratio (z) = 0.28305 0.27051
#
# Static dielectric constant tensor:
#      x y z
#    x 2.904860 0.000000 0.000000 
#    y 0.000000 2.849730 0.000000 
#    z 0.000000 0.000000 3.098030 
# 
# 
# High freq. dielectric constant tensor:
#      x y z
#    x 1.592220 0.000000 0.000000 
#    y 0.000000 1.564610 0.000000 
#    z 0.000000 0.000000 1.600480 
# 
# From -- ./inp_files/37607.got.cif
#   From: 2010.03.12/outbox.cif.g09.slc.cpg/sg51_19_cif.got.tgz:37607.got - 2010.04.16 13:43:02.
