data_PCOD8211564
_publ_section_title
;
Structure prediction by ZEFSAII (Michael W. Deem and Ramdas Pophale) SiO2 
 PCOD8211564
Probable space group: P M M A
;
_chemical_formula_sum "Si O2"
_cell_formula_units_Z 64
_cell_length_a 14.056542
_cell_length_b 9.416881
_cell_length_c 25.505824
_cell_angle_alpha 90.000000
_cell_angle_beta 90.000000
_cell_angle_gamma 90.000000
_cell_volume 3376.174890
_symmetry_space_group_name_H-M "P M M A"
_symmetry_group_IT_number 51
_symmetry_cell_setting 'orthorhombic'
loop_
_space_group_symop_operation_xyz
x,y,z
1/2-x,-y,z
1/2+x,-y,-z
-x,y,-z
-x,-y,-z
1/2+x,y,-z
1/2-x,y,z
x,-y,z
loop_
_atom_site_type_symbol
_atom_site_label
_atom_site_fract_x
_atom_site_fract_y
_atom_site_fract_z
Si Si1 0.356749 0.168416 0.778974
Si Si2 0.360878 0.660059 0.966333
Si Si3 0.358247 0.663358 0.087779
Si Si4 0.472686 0.167818 0.678514
Si Si5 0.530631 0.168544 0.118445
Si Si6 0.140986 0.667584 0.361651
Si Si7 0.637310 0.657260 0.521395
Si Si8 0.639387 0.835651 0.424889
O O1 0.250000 0.232565 0.778322
O O2 0.414506 0.223717 0.728661
O O3 0.409856 0.219514 0.831260
O O4 0.350768 0.000000 0.777218
O O5 0.250000 0.683295 0.956216
O O6 0.390801 0.500000 0.949776
O O7 0.417650 0.775325 0.933326
O O8 0.385437 0.683927 0.027024
O O9 0.250000 0.710794 0.098099
O O10 0.372460 0.500000 0.104207
O O11 0.425760 0.763245 0.122642
O O12 0.574318 0.246551 0.678342
O O13 0.413503 0.213540 0.627468
O O14 0.490183 0.000000 0.681106
O O15 0.521474 0.000000 0.115289
O O16 0.250000 0.707811 0.349155
O O17 0.125430 0.500000 0.355158
O O18 0.112480 0.716133 0.420746
O O19 0.750000 0.652694 0.516465
O O20 0.594987 0.500000 0.513930
O O21 0.594649 0.754508 0.475085
O O22 0.750000 0.799558 0.416916
O O23 0.623550 0.000000 0.436207
#
# Coordination Sequence:
#
# PCOD8211564 Si02
#       8
#     8   8   8   8   8   8   8   8
#     4   9  19  37  57  76 103 137 169 204 252 309
#     4   9  18  33  53  77 107 144 181 214 253 307
#     4   9  19  36  55  75 105 146 183 212 251 307
#     4  10  20  34  54  76  96 127 171 212 250 294
#     4  11  21  32  52  81 108 137 175 219 265 308
#     4   9  19  36  54  72  99 133 165 200 247 302
#     4   8  15  29  48  69  96 132 166 194 237 301
#     4   9  17  29  47  73 102 129 161 204 250 294
#
# _framework density 18.956364000000001
#
# number of rings (size 3 to 8) (size 9 to 14) (size 15 to 20)
#    0.000    2.750    0.000    3.000    0.000    6.250 
#    0.000    6.875    0.000    6.375    0.000    0.000 
#    0.000    0.000    0.000    0.000    0.000    0.000 
#
# Total GULP energy -793566.374039 kJ/mol
# GULP energy per Si atom -12399.474594 kJ/mol
# Density = 1.891322 g / cm^3
# Si number density = 18.956364 Si / 1000 Ang^3
#
#
#
# Elastic Constant Matrix: (Units=GPa)
#
#
# Indices 1 2 3 4 5 6 
#
# 1 114.7841 50.2768 74.9125 0.0000 0.0000 0.0000
# 2 50.2768 59.7069 42.2861 0.0000 0.0000 0.0000
# 3 74.9125 42.2861 85.0332 0.0000 0.0000 0.0000
# 4 0.0000 0.0000 0.0000 -15.9812 0.0000 0.0000
# 5 0.0000 0.0000 0.0000 0.0000 33.8488 0.0000
# 6 0.0000 0.0000 0.0000 0.0000 0.0000 29.6123
#
#
#
# Elastic Compliance Matrix: (Units=1/GPa)
#
#
# Indices 1 2 3 4 5 6 
#
# 1 0.022521 -0.007583 -0.016070 0.000000 0.000000 0.000000
# 2 -0.007583 0.028408 -0.007446 0.000000 0.000000 0.000000
# 3 -0.016070 -0.007446 0.029620 0.000000 0.000000 0.000000
# 4 0.000000 0.000000 0.000000 -0.062574 0.000000 0.000000
# 5 0.000000 0.000000 0.000000 0.000000 0.029543 0.000000
# 6 0.000000 0.000000 0.000000 0.000000 0.000000 0.033770
#
#
# Mechanical properties :
#
#
# Convention : Reuss Voigt Hill
#
# Bulk Modulus (GPa) = 54.49355 66.05279 60.27317
# Shear Modulus (GPa) = 33.42177 15.63257 24.52717
#
# Velocity S-wave (km/s) = 4.20347 2.87481 3.60095
# Velocity P-wave (km/s) = 7.23658 6.77788 7.01098
#
# Compressibility (1/GPa) = 0.01835080
#
# Stress axis : x y z
#
# Youngs Moduli (GPa) = 44.40244 35.20192 33.76092
#
# Poissons Ratio (x) = 0.26695 0.54253
# Poissons Ratio (y) = 0.33672 0.25139
# Poissons Ratio (z) = 0.71353 0.26212
#
# Static dielectric constant tensor:
#      x y z
#    x 3.556230 0.000000 0.000000 
#    y 0.000000 3.271950 0.000000 
#    z 0.000000 0.000000 3.441590 
# 
# 
# High freq. dielectric constant tensor:
#      x y z
#    x 1.749550 0.000000 0.000000 
#    y 0.000000 1.715100 0.000000 
#    z 0.000000 0.000000 1.721520 
# 
# From -- ./inp_files/35598.got.cif
#   From: 2010.03.12/outbox.cif.g09.slc.cpg/sg51_18_cif.got.tgz:35598.got - 2010.04.16 13:43:02.
