data_PCOD8211999
_publ_section_title
;
Structure prediction by ZEFSAII (Michael W. Deem and Ramdas Pophale) SiO2 
 PCOD8211999
Probable space group: P M M A
;
_chemical_formula_sum "Si O2"
_cell_formula_units_Z 48
_cell_length_a 8.662053
_cell_length_b 29.368728
_cell_length_c 10.226553
_cell_angle_alpha 90.000000
_cell_angle_beta 90.000000
_cell_angle_gamma 90.000000
_cell_volume 2601.568391
_symmetry_space_group_name_H-M "P M M A"
_symmetry_group_IT_number 51
_symmetry_cell_setting 'orthorhombic'
loop_
_space_group_symop_operation_xyz
x,y,z
1/2-x,-y,z
1/2+x,-y,-z
-x,y,-z
-x,-y,-z
1/2+x,y,-z
1/2-x,y,z
x,-y,z
loop_
_atom_site_type_symbol
_atom_site_label
_atom_site_fract_x
_atom_site_fract_y
_atom_site_fract_z
Si Si1 0.932590 0.220285 0.861538
Si Si2 0.066335 0.618943 0.361330
Si Si3 0.932660 0.051596 0.636446
Si Si4 0.067730 0.551460 0.135825
Si Si5 0.068837 0.115619 0.135567
Si Si6 0.566770 0.716865 0.360635
O O1 0.750000 0.228691 0.858457
O O2 0.977357 0.167769 0.838186
O O3 0.015459 0.247529 0.747576
O O4 0.000000 0.237114 0.000000
O O5 0.250000 0.622085 0.369649
O O6 0.008762 0.582920 0.253730
O O7 0.000000 0.602494 0.500000
O O8 0.999353 0.667760 0.321496
O O9 0.750000 0.054752 0.629074
O O10 0.999596 0.084311 0.749128
O O11 0.000000 0.069349 0.500000
O O12 0.987621 0.000000 0.664967
O O13 0.250000 0.553209 0.125689
O O14 0.008971 0.500000 0.161698
O O15 0.000000 0.570378 0.000000
O O16 0.250000 0.109808 0.126651
O O17 0.000000 0.097784 0.000000
O O18 0.500000 0.732844 0.500000
O O19 0.750000 0.714345 0.369855
#
# Coordination Sequence:
#
# PCOD8211999 Si02
#       6
#     8   8   8   8   8   8
#     4  10  20  36  55  77 105 136 173 214 259 309
#     4  10  20  35  54  77 106 137 172 213 256 304
#     4   9  18  33  51  73 102 134 169 209 252 299
#     4   9  19  35  54  77 105 136 171 211 253 300
#     4   9  19  34  52  75 103 134 168 209 253 301
#     4  11  22  37  56  78 105 137 174 215 261 310
#
# _framework density 18.450410000000002
#
# number of rings (size 3 to 8) (size 9 to 14) (size 15 to 20)
#    0.000    2.333    0.000    3.500    0.000    4.667 
#    0.000    3.333    0.000    0.000    0.000    0.000 
#    0.000    0.000    0.000    0.000    0.000    0.000 
#
# Total GULP energy -595298.102948 kJ/mol
# GULP energy per Si atom -12402.043811 kJ/mol
# Density = 1.840842 g / cm^3
# Si number density = 18.450410 Si / 1000 Ang^3
#
#
#
# Elastic Constant Matrix: (Units=GPa)
#
#
# Indices 1 2 3 4 5 6 
#
# 1 64.3155 34.3918 46.7696 0.0000 0.0000 0.0000
# 2 34.3918 96.9475 103.3917 0.0000 0.0000 0.0000
# 3 46.7696 103.3917 183.4516 0.0000 0.0000 0.0000
# 4 0.0000 0.0000 0.0000 49.6925 0.0000 0.0000
# 5 0.0000 0.0000 0.0000 0.0000 36.1110 0.0000
# 6 0.0000 0.0000 0.0000 0.0000 0.0000 6.1242
#
#
#
# Elastic Compliance Matrix: (Units=1/GPa)
#
#
# Indices 1 2 3 4 5 6 
#
# 1 0.019715 -0.004095 -0.002718 0.000000 0.000000 0.000000
# 2 -0.004095 0.026706 -0.014007 0.000000 0.000000 0.000000
# 3 -0.002718 -0.014007 0.014038 0.000000 0.000000 0.000000
# 4 0.000000 0.000000 0.000000 0.020124 0.000000 0.000000
# 5 0.000000 0.000000 0.000000 0.000000 0.027692 0.000000
# 6 0.000000 0.000000 0.000000 0.000000 0.000000 0.163287
#
#
# Mechanical properties :
#
#
# Convention : Reuss Voigt Hill
#
# Bulk Modulus (GPa) = 53.13968 79.31341 66.22654
# Shear Modulus (GPa) = 15.65068 29.06296 22.35682
#
# Velocity S-wave (km/s) = 2.91564 3.97318 3.48476
# Velocity P-wave (km/s) = 6.34023 8.00805 7.22244
#
# Compressibility (1/GPa) = 0.01881833
#
# Stress axis : x y z
#
# Youngs Moduli (GPa) = 50.72353 37.44521 71.23319
#
# Poissons Ratio (x) = 0.15332 0.19364
# Poissons Ratio (y) = 0.20769 0.99778
# Poissons Ratio (z) = 0.13789 0.52450
#
# Static dielectric constant tensor:
#      x y z
#    x 3.319890 0.000000 0.000000 
#    y 0.000000 3.537040 0.000000 
#    z 0.000000 0.000000 3.593130 
# 
# 
# High freq. dielectric constant tensor:
#      x y z
#    x 1.718160 0.000000 0.000000 
#    y 0.000000 1.713060 0.000000 
#    z 0.000000 0.000000 1.725550 
# 
# From -- ./inp_files/5954.got.cif
#   From: 2010.03.12/outbox.cif.g09.slc.cpg/sg51_3_cif.got.tgz:5954.got - 2010.04.16 13:43:02.
