data_PCOD8211443
_publ_section_title
;
Structure prediction by ZEFSAII (Michael W. Deem and Ramdas Pophale) SiO2 
 PCOD8211443
Probable space group: P M M A
;
_chemical_formula_sum "Si O2"
_cell_formula_units_Z 40
_cell_length_a 9.283664
_cell_length_b 7.730578
_cell_length_c 29.442132
_cell_angle_alpha 90.000000
_cell_angle_beta 90.000000
_cell_angle_gamma 90.000000
_cell_volume 2113.005540
_symmetry_space_group_name_H-M "P M M A"
_symmetry_group_IT_number 51
_symmetry_cell_setting 'orthorhombic'
loop_
_space_group_symop_operation_xyz
x,y,z
1/2-x,-y,z
1/2+x,-y,-z
-x,y,-z
-x,-y,-z
1/2+x,y,-z
1/2-x,y,z
x,-y,z
loop_
_atom_site_type_symbol
_atom_site_label
_atom_site_fract_x
_atom_site_fract_y
_atom_site_fract_z
Si Si1 0.916779 0.796859 0.044802
Si Si2 0.579542 0.000000 0.804861
Si Si3 0.908610 0.704980 0.541157
Si Si4 0.577989 0.692527 0.640939
Si Si5 0.422117 0.000000 0.296670
Si Si6 0.914973 0.306528 0.868589
O O1 0.750000 0.744654 0.040279
O O2 0.986239 0.699829 0.087153
O O3 0.936922 0.000000 0.052272
O O4 0.000000 0.734151 0.000000
O O5 0.513505 0.000000 0.754261
O O6 0.526466 0.828374 0.831179
O O7 0.750000 0.000000 0.800907
O O8 0.750000 0.787176 0.537666
O O9 0.899103 0.500000 0.535909
O O10 0.977271 0.748103 0.590631
O O11 0.000000 0.786996 0.500000
O O12 0.750000 0.690815 0.639537
O O13 0.521651 0.500000 0.653885
O O14 0.519611 0.828939 0.677815
O O15 0.250000 0.000000 0.296199
O O16 0.750000 0.260497 0.881992
O O17 0.924464 0.500000 0.848014
#
# Coordination Sequence:
#
# PCOD8211443 Si02
#       6
#     8   4   8   8   4   8
#     4  10  20  34  55  81 108 140 173 205 244 289
#     4   9  18  32  48  69  98 126 161 207 248 293
#     4   8  13  22  37  58  85 117 150 185 227 275
#     4   8  14  24  38  59  88 118 150 189 232 282
#     4   9  16  26  43  65  89 120 152 191 246 291
#     4  10  20  34  53  76 104 137 168 203 248 293
#
# _framework density 18.930382000000002
#
# number of rings (size 3 to 8) (size 9 to 14) (size 15 to 20)
#    0.000    3.000    1.000    1.800    0.000    2.400 
#    0.000    4.500    0.000    0.000    0.000    2.800 
#    0.000    3.200    0.000    0.000    0.000    0.000 
#
# Total GULP energy -495810.457574 kJ/mol
# GULP energy per Si atom -12395.261439 kJ/mol
# Density = 1.888730 g / cm^3
# Si number density = 18.930382 Si / 1000 Ang^3
#
#
#
# Elastic Constant Matrix: (Units=GPa)
#
#
# Indices 1 2 3 4 5 6 
#
# 1 52.7260 23.4551 38.3304 0.0000 0.0000 0.0000
# 2 23.4551 109.5588 75.8763 0.0000 0.0000 0.0000
# 3 38.3304 75.8763 171.3385 0.0000 0.0000 0.0000
# 4 0.0000 0.0000 0.0000 15.7600 0.0000 0.0000
# 5 0.0000 0.0000 0.0000 0.0000 20.0949 0.0000
# 6 0.0000 0.0000 0.0000 0.0000 0.0000 10.7305
#
#
#
# Elastic Compliance Matrix: (Units=1/GPa)
#
#
# Indices 1 2 3 4 5 6 
#
# 1 0.022937 -0.001957 -0.004265 0.000000 0.000000 0.000000
# 2 -0.001957 0.013332 -0.005466 0.000000 0.000000 0.000000
# 3 -0.004265 -0.005466 0.009211 0.000000 0.000000 0.000000
# 4 0.000000 0.000000 0.000000 0.063452 0.000000 0.000000
# 5 0.000000 0.000000 0.000000 0.000000 0.049764 0.000000
# 6 0.000000 0.000000 0.000000 0.000000 0.000000 0.093192
#
#
# Mechanical properties :
#
#
# Convention : Reuss Voigt Hill
#
# Bulk Modulus (GPa) = 45.23975 67.66074 56.45025
# Shear Modulus (GPa) = 17.69086 22.38119 20.03603
#
# Velocity S-wave (km/s) = 3.06031 3.44217 3.25684
# Velocity P-wave (km/s) = 6.03632 7.18454 6.63531
#
# Compressibility (1/GPa) = 0.02210445
#
# Stress axis : x y z
#
# Youngs Moduli (GPa) = 43.59809 75.00613 108.56400
#
# Poissons Ratio (x) = 0.14678 0.46298
# Poissons Ratio (y) = 0.08532 0.59344
# Poissons Ratio (z) = 0.18593 0.41001
#
# Static dielectric constant tensor:
#      x y z
#    x 3.145170 0.000000 0.000000 
#    y 0.000000 3.473870 0.000000 
#    z 0.000000 0.000000 3.652730 
# 
# 
# High freq. dielectric constant tensor:
#      x y z
#    x 1.679580 0.000000 0.000000 
#    y 0.000000 1.733020 0.000000 
#    z 0.000000 0.000000 1.735490 
# 
# From -- ./inp_files/36076.got.cif
#   From: 2010.03.12/outbox.cif.g09.slc.cpg/sg51_19_cif.got.tgz:36076.got - 2010.04.16 13:43:02.
