data_PCOD8211795
_publ_section_title
;
Structure prediction by ZEFSAII (Michael W. Deem and Ramdas Pophale) SiO2 
 PCOD8211795
Probable space group: P M M A
;
_chemical_formula_sum "Si O2"
_cell_formula_units_Z 64
_cell_length_a 29.192970
_cell_length_b 12.822321
_cell_length_c 8.510345
_cell_angle_alpha 90.000000
_cell_angle_beta 90.000000
_cell_angle_gamma 90.000000
_cell_volume 3185.606232
_symmetry_space_group_name_H-M "P M M A"
_symmetry_group_IT_number 51
_symmetry_cell_setting 'orthorhombic'
loop_
_space_group_symop_operation_xyz
x,y,z
1/2-x,-y,z
1/2+x,-y,-z
-x,y,-z
-x,-y,-z
1/2+x,y,-z
1/2-x,y,z
x,-y,z
loop_
_atom_site_type_symbol
_atom_site_label
_atom_site_fract_x
_atom_site_fract_y
_atom_site_fract_z
Si Si1 0.611174 0.617387 0.268770
Si Si2 0.303077 0.619512 0.241858
Si Si3 0.512187 0.114254 0.333778
Si Si4 0.697812 0.690542 0.101385
Si Si5 0.862303 0.758246 0.537915
Si Si6 0.802254 0.883116 0.303370
Si Si7 0.550079 0.247596 0.074252
Si Si8 0.914800 0.883747 0.804234
O O1 0.600057 0.500000 0.321503
O O2 0.663478 0.621606 0.205759
O O3 0.605248 0.694021 0.418368
O O4 0.575692 0.647171 0.128748
O O5 0.250000 0.625917 0.285365
O O6 0.319085 0.500000 0.223460
O O7 0.330261 0.673042 0.381302
O O8 0.314032 0.680682 0.081531
O O9 0.500000 0.169222 0.500000
O O10 0.547699 0.180854 0.234107
O O11 0.467780 0.099794 0.229022
O O12 0.534197 0.000000 0.368681
O O13 0.750000 0.651825 0.133823
O O14 0.691469 0.811757 0.148552
O O15 0.832320 0.843112 0.447534
O O16 0.891914 0.821763 0.662431
O O17 0.750000 0.880511 0.361758
O O18 0.817441 0.000000 0.257398
O O19 0.500000 0.273116 0.000000
O O20 0.585552 0.186719 0.960988
O O21 0.892793 0.000000 0.828972
#
# Coordination Sequence:
#
# PCOD8211795 Si02
#       8
#     8   8   8   8   8   8   8   8
#     4  11  23  38  57  81 110 147 190 232 275 322
#     4  10  20  35  55  78 106 142 184 231 280 325
#     4   9  17  32  56  83 110 140 174 217 272 330
#     4   9  19  36  58  83 111 144 184 229 277 330
#     4  11  21  35  53  80 113 144 184 230 276 329
#     4   9  18  34  54  77 111 153 190 226 272 328
#     4  10  21  38  59  82 112 145 184 230 278 331
#     4  10  20  34  55  83 112 141 173 216 273 332
#
# _framework density 20.090368000000002
#
# number of rings (size 3 to 8) (size 9 to 14) (size 15 to 20)
#    0.000    2.125    0.000    3.375    0.000    3.000 
#    0.000   10.000    0.000   10.875    0.000    0.000 
#    0.000    0.000    0.000    0.000    0.000    0.000 
#
# Total GULP energy -793417.844899 kJ/mol
# GULP energy per Si atom -12397.153827 kJ/mol
# Density = 2.004464 g / cm^3
# Si number density = 20.090368 Si / 1000 Ang^3
#
#
#
# Elastic Constant Matrix: (Units=GPa)
#
#
# Indices 1 2 3 4 5 6 
#
# 1 59.1244 46.9497 30.3116 0.0000 0.0000 0.0000
# 2 46.9497 139.9238 56.1513 0.0000 0.0000 0.0000
# 3 30.3116 56.1513 105.4557 0.0000 0.0000 0.0000
# 4 0.0000 0.0000 0.0000 26.8183 0.0000 0.0000
# 5 0.0000 0.0000 0.0000 0.0000 37.0317 0.0000
# 6 0.0000 0.0000 0.0000 0.0000 0.0000 19.4075
#
#
#
# Elastic Compliance Matrix: (Units=1/GPa)
#
#
# Indices 1 2 3 4 5 6 
#
# 1 0.023932 -0.006702 -0.003311 0.000000 0.000000 0.000000
# 2 -0.006702 0.010965 -0.003912 0.000000 0.000000 0.000000
# 3 -0.003311 -0.003912 0.012517 0.000000 0.000000 0.000000
# 4 0.000000 0.000000 0.000000 0.037288 0.000000 0.000000
# 5 0.000000 0.000000 0.000000 0.000000 0.027004 0.000000
# 6 0.000000 0.000000 0.000000 0.000000 0.000000 0.051527
#
#
# Mechanical properties :
#
#
# Convention : Reuss Voigt Hill
#
# Bulk Modulus (GPa) = 51.10917 63.48103 57.29510
# Shear Modulus (GPa) = 25.30297 28.05758 26.68028
#
# Velocity S-wave (km/s) = 3.55273 3.74112 3.64815
# Velocity P-wave (km/s) = 6.50570 7.09420 6.80631
#
# Compressibility (1/GPa) = 0.01956596
#
# Stress axis : x y z
#
# Youngs Moduli (GPa) = 41.78420 91.19535 79.88851
#
# Poissons Ratio (x) = 0.61117 0.26448
# Poissons Ratio (y) = 0.28003 0.31256
# Poissons Ratio (z) = 0.13833 0.35679
#
# Static dielectric constant tensor:
#      x y z
#    x 3.544330 0.000000 0.000000 
#    y 0.000000 3.688790 0.000000 
#    z 0.000000 0.000000 3.666010 
# 
# 
# High freq. dielectric constant tensor:
#      x y z
#    x 1.775490 0.000000 0.000000 
#    y 0.000000 1.778800 0.000000 
#    z 0.000000 0.000000 1.789040 
# 
# From -- ./inp_files/13160.got.cif
#   From: 2010.03.12/outbox.cif.g09.slc.cpg/sg51_7_cif.got.tgz:13160.got - 2010.04.16 13:43:02.
