data_PCOD8211749
_publ_section_title
;
Structure prediction by ZEFSAII (Michael W. Deem and Ramdas Pophale) SiO2 
 PCOD8211749
Probable space group: P M M A
;
_chemical_formula_sum "Si O2"
_cell_formula_units_Z 48
_cell_length_a 28.052047
_cell_length_b 9.225955
_cell_length_c 10.173559
_cell_angle_alpha 90.000000
_cell_angle_beta 90.000000
_cell_angle_gamma 90.000000
_cell_volume 2632.987504
_symmetry_space_group_name_H-M "P M M A"
_symmetry_group_IT_number 51
_symmetry_cell_setting 'orthorhombic'
loop_
_space_group_symop_operation_xyz
x,y,z
1/2-x,-y,z
1/2+x,-y,-z
-x,y,-z
-x,-y,-z
1/2+x,y,-z
1/2-x,y,z
x,-y,z
loop_
_atom_site_type_symbol
_atom_site_label
_atom_site_fract_x
_atom_site_fract_y
_atom_site_fract_z
Si Si1 0.890948 0.331322 0.768886
Si Si2 0.301875 0.171793 0.854766
Si Si3 0.303758 0.168784 0.151134
Si Si4 0.100905 0.172472 0.733629
Si Si5 0.445019 0.669334 0.494155
Si Si6 0.444967 0.333562 0.969921
O O1 0.879972 0.500000 0.770281
O O2 0.840535 0.250111 0.753189
O O3 0.925777 0.291302 0.649629
O O4 0.916095 0.280488 0.902834
O O5 0.250000 0.227728 0.802746
O O6 0.344531 0.224148 0.760609
O O7 0.300828 0.000000 0.862450
O O8 0.310282 0.229565 0.002795
O O9 0.250000 0.199290 0.200482
O O10 0.315598 0.000000 0.157398
O O11 0.085645 0.238456 0.595783
O O12 0.096492 0.000000 0.729006
O O13 0.067154 0.231560 0.848120
O O14 0.500000 0.716687 0.500000
O O15 0.439467 0.500000 0.528072
O O16 0.432971 0.500000 0.933949
O O17 0.500000 0.315120 0.000000
#
# Coordination Sequence:
#
# PCOD8211749 Si02
#       6
#     8   8   8   8   8   8
#     4  10  20  34  55  81 106 140 185 229 268 309
#     4   8  15  30  52  78 109 143 174 209 265 328
#     4   9  17  32  55  80 109 145 178 214 269 331
#     4  11  21  34  56  85 111 139 178 229 276 313
#     4  10  22  41  59  74 105 153 190 218 265 329
#     4  10  20  35  55  78 106 142 183 223 269 329
#
# _framework density 18.230243000000002
#
# number of rings (size 3 to 8) (size 9 to 14) (size 15 to 20)
#    0.000    2.333    1.667    2.500    0.000    4.333 
#    0.000    2.500    0.000    5.000    0.000    0.000 
#    0.000    0.000    0.000    0.000    0.000    0.000 
#
# Total GULP energy -595167.477930 kJ/mol
# GULP energy per Si atom -12399.322457 kJ/mol
# Density = 1.818875 g / cm^3
# Si number density = 18.230243 Si / 1000 Ang^3
#
#
#
# Elastic Constant Matrix: (Units=GPa)
#
#
# Indices 1 2 3 4 5 6 
#
# 1 125.3497 36.1898 31.6710 0.0000 0.0000 0.0000
# 2 36.1898 43.8052 27.8606 0.0000 0.0000 0.0000
# 3 31.6710 27.8606 57.1500 0.0000 0.0000 0.0000
# 4 0.0000 0.0000 0.0000 28.8788 0.0000 0.0000
# 5 0.0000 0.0000 0.0000 0.0000 33.2910 0.0000
# 6 0.0000 0.0000 0.0000 0.0000 0.0000 29.6035
#
#
#
# Elastic Compliance Matrix: (Units=1/GPa)
#
#
# Indices 1 2 3 4 5 6 
#
# 1 0.010689 -0.007339 -0.002346 0.000000 0.000000 0.000000
# 2 -0.007339 0.038126 -0.014519 0.000000 0.000000 0.000000
# 3 -0.002346 -0.014519 0.025876 0.000000 0.000000 0.000000
# 4 0.000000 0.000000 0.000000 0.034627 0.000000 0.000000
# 5 0.000000 0.000000 0.000000 0.000000 0.030038 0.000000
# 6 0.000000 0.000000 0.000000 0.000000 0.000000 0.033780
#
#
# Mechanical properties :
#
#
# Convention : Reuss Voigt Hill
#
# Bulk Modulus (GPa) = 38.04774 46.41640 42.23207
# Shear Modulus (GPa) = 21.71028 27.06023 24.38525
#
# Velocity S-wave (km/s) = 3.45468 3.85692 3.66133
# Velocity P-wave (km/s) = 6.06869 6.73431 6.41015
#
# Compressibility (1/GPa) = 0.02628277
#
# Stress axis : x y z
#
# Youngs Moduli (GPa) = 93.55209 26.22896 38.64578
#
# Poissons Ratio (x) = 0.19249 0.09066
# Poissons Ratio (y) = 0.68657 0.56111
# Poissons Ratio (z) = 0.21947 0.38083
#
# Static dielectric constant tensor:
#      x y z
#    x 3.689770 0.000000 0.000000 
#    y 0.000000 3.176220 0.000000 
#    z 0.000000 0.000000 3.260200 
# 
# 
# High freq. dielectric constant tensor:
#      x y z
#    x 1.723880 0.000000 0.000000 
#    y 0.000000 1.686700 0.000000 
#    z 0.000000 0.000000 1.690530 
# 
# From -- ./inp_files/12756.got.cif
#   From: 2010.03.12/outbox.cif.g09.slc.cpg/sg51_7_cif.got.tgz:12756.got - 2010.04.16 13:43:02.
