data_PCOD8211402
_publ_section_title
;
Structure prediction by ZEFSAII (Michael W. Deem and Ramdas Pophale) SiO2 
 PCOD8211402
Probable space group: P M M A
;
_chemical_formula_sum "Si O2"
_cell_formula_units_Z 40
_cell_length_a 13.667991
_cell_length_b 8.613624
_cell_length_c 18.663050
_cell_angle_alpha 90.000000
_cell_angle_beta 90.000000
_cell_angle_gamma 90.000000
_cell_volume 2197.218332
_symmetry_space_group_name_H-M "P M M A"
_symmetry_group_IT_number 51
_symmetry_cell_setting 'orthorhombic'
loop_
_space_group_symop_operation_xyz
x,y,z
1/2-x,-y,z
1/2+x,-y,-z
-x,y,-z
-x,-y,-z
1/2+x,y,-z
1/2-x,y,z
x,-y,z
loop_
_atom_site_type_symbol
_atom_site_label
_atom_site_fract_x
_atom_site_fract_y
_atom_site_fract_z
Si Si1 0.138567 0.818852 0.030335
Si Si2 0.357087 0.184146 0.466094
Si Si3 0.359721 0.316680 0.751608
Si Si4 0.546692 0.183572 0.388355
Si Si5 0.037602 0.683308 0.894986
O O1 0.250000 0.781273 0.052215
O O2 0.067713 0.765259 0.094751
O O3 0.123127 0.000000 0.014998
O O4 0.111324 0.724984 0.958977
O O5 0.250000 0.251551 0.446364
O O6 0.435395 0.236608 0.406354
O O7 0.386316 0.240898 0.545580
O O8 0.356290 0.000000 0.468309
O O9 0.250000 0.245733 0.748574
O O10 0.353047 0.500000 0.755864
O O11 0.420720 0.269324 0.682594
O O12 0.415446 0.252901 0.821617
O O13 0.554774 0.000000 0.376752
O O14 0.021326 0.500000 0.893312
#
# Coordination Sequence:
#
# PCOD8211402 Si02
#       5
#     8   8   8   8   8
#     4  10  20  34  53  77 103 128 158 202 249 288
#     4   8  14  27  47  71  98 125 156 197 241 283
#     4  10  21  35  49  69  99 129 156 194 244 289
#     4   9  17  29  49  74  95 122 162 200 235 283
#     4  10  20  34  53  74  98 131 168 201 236 289
#
# _framework density 18.204837000000001
#
# number of rings (size 3 to 8) (size 9 to 14) (size 15 to 20)
#    0.000    2.600    0.000    4.800    0.000    5.200 
#    0.000    3.000    0.000    5.400    0.000    0.000 
#    0.000    0.000    0.000    0.000    0.000    0.000 
#
# Total GULP energy -495892.679489 kJ/mol
# GULP energy per Si atom -12397.316987 kJ/mol
# Density = 1.816340 g / cm^3
# Si number density = 18.204837 Si / 1000 Ang^3
#
#
#
# Elastic Constant Matrix: (Units=GPa)
#
#
# Indices 1 2 3 4 5 6 
#
# 1 178.8215 17.4463 76.2559 0.0000 0.0000 0.0000
# 2 17.4463 21.2577 7.9154 0.0000 0.0000 0.0000
# 3 76.2559 7.9154 129.1824 0.0000 0.0000 0.0000
# 4 0.0000 0.0000 0.0000 31.0955 0.0000 0.0000
# 5 0.0000 0.0000 0.0000 0.0000 24.3442 0.0000
# 6 0.0000 0.0000 0.0000 0.0000 0.0000 22.6040
#
#
#
# Elastic Compliance Matrix: (Units=1/GPa)
#
#
# Indices 1 2 3 4 5 6 
#
# 1 0.007939 -0.004882 -0.004387 0.000000 0.000000 0.000000
# 2 -0.004882 0.051142 -0.000252 0.000000 0.000000 0.000000
# 3 -0.004387 -0.000252 0.010346 0.000000 0.000000 0.000000
# 4 0.000000 0.000000 0.000000 0.032159 0.000000 0.000000
# 5 0.000000 0.000000 0.000000 0.000000 0.041078 0.000000
# 6 0.000000 0.000000 0.000000 0.000000 0.000000 0.044240
#
#
# Mechanical properties :
#
#
# Convention : Reuss Voigt Hill
#
# Bulk Modulus (GPa) = 19.84703 59.16628 39.50666
# Shear Modulus (GPa) = 22.44742 30.78500 26.61621
#
# Velocity S-wave (km/s) = 3.51529 4.11668 3.82781
# Velocity P-wave (km/s) = 5.23470 7.42744 6.42530
#
# Compressibility (1/GPa) = 0.05038537
#
# Stress axis : x y z
#
# Youngs Moduli (GPa) = 125.95285 19.55325 96.65259
#
# Poissons Ratio (x) = 0.09546 0.42406
# Poissons Ratio (y) = 0.61493 0.02432
# Poissons Ratio (z) = 0.55262 0.00492
#
# Static dielectric constant tensor:
#      x y z
#    x 3.868720 0.000000 0.000000 
#    y 0.000000 3.097570 0.000000 
#    z 0.000000 0.000000 3.287490 
# 
# 
# High freq. dielectric constant tensor:
#      x y z
#    x 1.719490 0.000000 0.000000 
#    y 0.000000 1.684800 0.000000 
#    z 0.000000 0.000000 1.692210 
# 
# From -- ./inp_files/29252.got.cif
#   From: 2010.03.12/outbox.cif.g09.slc.cpg/sg51_15_cif.got.tgz:29252.got - 2010.04.16 13:43:02.
