data_PCOD8211668
_publ_section_title
;
Structure prediction by ZEFSAII (Michael W. Deem and Ramdas Pophale) SiO2 
 PCOD8211668
Probable space group: P M M A
;
_chemical_formula_sum "Si O2"
_cell_formula_units_Z 64
_cell_length_a 17.602425
_cell_length_b 9.023655
_cell_length_c 21.519515
_cell_angle_alpha 90.000000
_cell_angle_beta 90.000000
_cell_angle_gamma 90.000000
_cell_volume 3418.121250
_symmetry_space_group_name_H-M "P M M A"
_symmetry_group_IT_number 51
_symmetry_cell_setting 'orthorhombic'
loop_
_space_group_symop_operation_xyz
x,y,z
1/2-x,-y,z
1/2+x,-y,-z
-x,y,-z
-x,-y,-z
1/2+x,y,-z
1/2-x,y,z
x,-y,z
loop_
_atom_site_type_symbol
_atom_site_label
_atom_site_fract_x
_atom_site_fract_y
_atom_site_fract_z
Si Si1 0.032617 0.325786 0.066169
Si Si2 0.337139 0.328337 0.494370
Si Si3 0.335721 0.174990 0.727768
Si Si4 0.106352 0.672128 0.249432
Si Si5 0.163865 0.169824 0.130856
Si Si6 0.577842 0.826303 0.395031
Si Si7 0.447638 0.669164 0.811843
Si Si8 0.598206 0.825972 0.623198
O O1 0.050402 0.500000 0.069744
O O2 0.111052 0.239949 0.077544
O O3 0.971286 0.281543 0.118751
O O4 0.000000 0.277002 0.000000
O O5 0.250000 0.305908 0.514751
O O6 0.357000 0.500000 0.484395
O O7 0.391311 0.263350 0.546843
O O8 0.350792 0.241766 0.430781
O O9 0.250000 0.236257 0.726006
O O10 0.378984 0.230930 0.666317
O O11 0.376771 0.234147 0.789454
O O12 0.337200 0.000000 0.731005
O O13 0.127312 0.500000 0.254890
O O14 0.156725 0.742426 0.195236
O O15 0.126419 0.753433 0.313092
O O16 0.017795 0.695505 0.234454
O O17 0.250000 0.182119 0.106883
O O18 0.139816 0.000000 0.142076
O O19 0.489579 0.788972 0.388854
O O20 0.592169 0.000000 0.406426
O O21 0.421214 0.500000 0.811347
O O22 0.612594 0.000000 0.627000
#
# Coordination Sequence:
#
# PCOD8211668 Si02
#       8
#     8   8   8   8   8   8   8   8
#     4   9  19  37  60  85 113 150 195 236 278 329
#     4  11  25  41  55  76 108 145 184 229 281 333
#     4  10  20  34  54  80 110 144 179 221 274 328
#     4  10  20  35  57  83 111 145 183 226 278 332
#     4  10  21  36  56  85 119 152 190 235 281 331
#     4  10  21  38  59  81 106 139 183 230 277 332
#     4   9  18  33  54  80 109 140 177 223 270 320
#     4  11  22  37  60  85 108 141 183 229 282 337
#
# _framework density 18.723735999999999
#
# number of rings (size 3 to 8) (size 9 to 14) (size 15 to 20)
#    0.000    2.000    1.250    3.000    0.000    8.500 
#    0.000    0.625    0.000    3.750    0.000    0.000 
#    0.000    0.000    0.000    0.000    0.000    0.000 
#
# Total GULP energy -793871.365081 kJ/mol
# GULP energy per Si atom -12404.240079 kJ/mol
# Density = 1.868112 g / cm^3
# Si number density = 18.723736 Si / 1000 Ang^3
#
#
#
# Elastic Constant Matrix: (Units=GPa)
#
#
# Indices 1 2 3 4 5 6 
#
# 1 71.5931 36.8639 32.2055 0.0000 0.0000 0.0000
# 2 36.8639 79.7612 44.9616 0.0000 0.0000 0.0000
# 3 32.2055 44.9616 123.6330 0.0000 0.0000 0.0000
# 4 0.0000 0.0000 0.0000 30.9776 0.0000 0.0000
# 5 0.0000 0.0000 0.0000 0.0000 20.8941 0.0000
# 6 0.0000 0.0000 0.0000 0.0000 0.0000 26.3666
#
#
#
# Elastic Compliance Matrix: (Units=1/GPa)
#
#
# Indices 1 2 3 4 5 6 
#
# 1 0.018787 -0.007452 -0.002184 0.000000 0.000000 0.000000
# 2 -0.007452 0.018726 -0.004869 0.000000 0.000000 0.000000
# 3 -0.002184 -0.004869 0.010428 0.000000 0.000000 0.000000
# 4 0.000000 0.000000 0.000000 0.032281 0.000000 0.000000
# 5 0.000000 0.000000 0.000000 0.000000 0.047860 0.000000
# 6 0.000000 0.000000 0.000000 0.000000 0.000000 0.037927
#
#
# Mechanical properties :
#
#
# Convention : Reuss Voigt Hill
#
# Bulk Modulus (GPa) = 52.82106 55.89436 54.35771
# Shear Modulus (GPa) = 24.83479 26.37809 25.60644
#
# Velocity S-wave (km/s) = 3.64590 3.75748 3.70211
# Velocity P-wave (km/s) = 6.78199 6.98153 6.88249
#
# Compressibility (1/GPa) = 0.01893184
#
# Stress axis : x y z
#
# Youngs Moduli (GPa) = 53.22738 53.40099 95.89529
#
# Poissons Ratio (x) = 0.39795 0.20942
# Poissons Ratio (y) = 0.39665 0.46691
# Poissons Ratio (z) = 0.11624 0.26001
#
# Static dielectric constant tensor:
#      x y z
#    x 3.411240 0.000000 0.000000 
#    y 0.000000 3.440330 0.000000 
#    z 0.000000 0.000000 3.428100 
# 
# 
# High freq. dielectric constant tensor:
#      x y z
#    x 1.723880 0.000000 0.000000 
#    y 0.000000 1.731120 0.000000 
#    z 0.000000 0.000000 1.724370 
# 
# From -- ./inp_files/33988.got.cif
#   From: 2010.03.12/outbox.cif.g09.slc.cpg/sg51_17_cif.got.tgz:33988.got - 2010.04.16 13:43:02.
