data_PCOD8211866
_publ_section_title
;
Structure prediction by ZEFSAII (Michael W. Deem and Ramdas Pophale) SiO2 
 PCOD8211866
Probable space group: P M M A
;
_chemical_formula_sum "Si O2"
_cell_formula_units_Z 48
_cell_length_a 8.815489
_cell_length_b 14.104618
_cell_length_c 20.606568
_cell_angle_alpha 90.000000
_cell_angle_beta 90.000000
_cell_angle_gamma 90.000000
_cell_volume 2562.202219
_symmetry_space_group_name_H-M "P M M A"
_symmetry_group_IT_number 51
_symmetry_cell_setting 'orthorhombic'
loop_
_space_group_symop_operation_xyz
x,y,z
1/2-x,-y,z
1/2+x,-y,-z
-x,y,-z
-x,-y,-z
1/2+x,y,-z
1/2-x,y,z
x,-y,z
loop_
_atom_site_type_symbol
_atom_site_label
_atom_site_fract_x
_atom_site_fract_y
_atom_site_fract_z
Si Si1 0.073424 0.393011 0.727223
Si Si2 0.423334 0.394422 0.137368
Si Si3 0.426581 0.110279 0.810185
Si Si4 0.072780 0.794115 0.068157
Si Si5 0.071353 0.211458 0.312340
Si Si6 0.423522 0.887867 0.566388
O O1 0.250000 0.372314 0.717835
O O2 0.031309 0.500000 0.706108
O O3 0.033106 0.376459 0.802312
O O4 0.978613 0.321349 0.682192
O O5 0.250000 0.382483 0.161813
O O6 0.449509 0.500000 0.108206
O O7 0.461448 0.316706 0.082897
O O8 0.250000 0.135332 0.812306
O O9 0.501126 0.138395 0.877947
O O10 0.501673 0.168576 0.752600
O O11 0.454900 0.000000 0.797043
O O12 0.250000 0.815113 0.065072
O O13 0.000000 0.821399 0.000000
O O14 0.250000 0.202629 0.308603
O O15 0.013701 0.156411 0.374579
O O16 0.500000 0.852581 0.500000
O O17 0.250000 0.853482 0.567654
O O18 0.435089 0.000000 0.573132
#
# Coordination Sequence:
#
# PCOD8211866 Si02
#       6
#     8   8   8   8   8   8
#     4  10  20  34  56  85 115 149 189 234 283 335
#     4   9  18  34  55  80 110 143 181 227 282 341
#     4  11  24  41  60  82 109 143 188 242 291 339
#     4  11  23  38  57  80 109 148 187 233 288 345
#     4  12  23  36  59  89 120 155 191 233 283 338
#     4  10  21  38  60  88 123 160 197 238 283 334
#
# _framework density 18.733884
#
# number of rings (size 3 to 8) (size 9 to 14) (size 15 to 20)
#    0.000    1.500    1.667    4.000    0.000    6.667 
#    0.000    0.000    0.000    0.500    0.000    0.000 
#    0.000    0.000    0.000    0.000    0.000    0.000 
#
# Total GULP energy -595372.367924 kJ/mol
# GULP energy per Si atom -12403.590998 kJ/mol
# Density = 1.869124 g / cm^3
# Si number density = 18.733884 Si / 1000 Ang^3
#
#
#
# Elastic Constant Matrix: (Units=GPa)
#
#
# Indices 1 2 3 4 5 6 
#
# 1 116.1490 48.2807 38.2344 0.0000 0.0000 0.0000
# 2 48.2807 53.5212 14.7933 0.0000 0.0000 0.0000
# 3 38.2344 14.7933 81.4489 0.0000 0.0000 0.0000
# 4 0.0000 0.0000 0.0000 25.0753 0.0000 0.0000
# 5 0.0000 0.0000 0.0000 0.0000 34.7570 0.0000
# 6 0.0000 0.0000 0.0000 0.0000 0.0000 30.0638
#
#
#
# Elastic Compliance Matrix: (Units=1/GPa)
#
#
# Indices 1 2 3 4 5 6 
#
# 1 0.015483 -0.012590 -0.004981 0.000000 0.000000 0.000000
# 2 -0.012590 0.029909 0.000478 0.000000 0.000000 0.000000
# 3 -0.004981 0.000478 0.014529 0.000000 0.000000 0.000000
# 4 0.000000 0.000000 0.000000 0.039880 0.000000 0.000000
# 5 0.000000 0.000000 0.000000 0.000000 0.028771 0.000000
# 6 0.000000 0.000000 0.000000 0.000000 0.000000 0.033263
#
#
# Mechanical properties :
#
#
# Convention : Reuss Voigt Hill
#
# Bulk Modulus (GPa) = 38.85878 50.41510 44.63694
# Shear Modulus (GPa) = 24.43788 27.96660 26.20224
#
# Velocity S-wave (km/s) = 3.61567 3.86791 3.74392
# Velocity P-wave (km/s) = 6.18210 6.84962 6.52440
#
# Compressibility (1/GPa) = 0.02573421
#
# Stress axis : x y z
#
# Youngs Moduli (GPa) = 64.58784 33.43436 68.82656
#
# Poissons Ratio (x) = 0.42094 0.34285
# Poissons Ratio (y) = 0.81316 -0.03288
# Poissons Ratio (z) = 0.32174 -0.01597
#
# Static dielectric constant tensor:
#      x y z
#    x 3.608190 0.000000 0.000000 
#    y 0.000000 3.700900 0.000000 
#    z 0.000000 0.000000 3.288370 
# 
# 
# High freq. dielectric constant tensor:
#      x y z
#    x 1.744250 0.000000 0.000000 
#    y 0.000000 1.735710 0.000000 
#    z 0.000000 0.000000 1.707810 
# 
# From -- ./inp_files/27524.got.cif
#   From: 2010.03.12/outbox.cif.g09.slc.cpg/sg51_14_cif.got.tgz:27524.got - 2010.04.16 13:43:02.
