data_PCOD8211837
_publ_section_title
;
Structure prediction by ZEFSAII (Michael W. Deem and Ramdas Pophale) SiO2 
 PCOD8211837
Probable space group: P M M A
;
_chemical_formula_sum "Si O2"
_cell_formula_units_Z 40
_cell_length_a 18.375473
_cell_length_b 11.869813
_cell_length_c 9.868872
_cell_angle_alpha 90.000000
_cell_angle_beta 90.000000
_cell_angle_gamma 90.000000
_cell_volume 2152.533505
_symmetry_space_group_name_H-M "P M M A"
_symmetry_group_IT_number 51
_symmetry_cell_setting 'orthorhombic'
loop_
_space_group_symop_operation_xyz
x,y,z
1/2-x,-y,z
1/2+x,-y,-z
-x,y,-z
-x,-y,-z
1/2+x,y,-z
1/2-x,y,z
x,-y,z
loop_
_atom_site_type_symbol
_atom_site_label
_atom_site_fract_x
_atom_site_fract_y
_atom_site_fract_z
Si Si1 0.086716 0.226785 0.989004
Si Si2 0.937651 0.000000 0.393460
Si Si3 0.165902 0.628699 0.771022
Si Si4 0.167204 0.804644 0.545182
Si Si5 0.062039 0.000000 0.892188
Si Si6 0.334118 0.133249 0.241966
O O1 0.120625 0.326859 0.900447
O O2 0.109808 0.112103 0.910463
O O3 0.119785 0.210336 0.138798
O O4 0.000000 0.245499 0.000000
O O5 0.887293 0.107371 0.392209
O O6 0.000000 0.000000 0.500000
O O7 0.979184 0.000000 0.250875
O O8 0.250000 0.641389 0.810949
O O9 0.143055 0.500000 0.748272
O O10 0.150519 0.688899 0.625843
O O11 0.250000 0.843819 0.571005
O O12 0.152803 0.801805 0.384128
O O13 0.000000 0.000000 0.000000
O O14 0.250000 0.138473 0.199438
O O15 0.358102 0.000000 0.250514
#
# Coordination Sequence:
#
# PCOD8211837 Si02
#       6
#     8   4   8   8   4   8
#     4  11  22  36  58  85 124 153 189 236 292 355
#     4  12  23  33  59  87 120 156 185 236 295 357
#     4  10  22  42  63  82 110 154 207 253 288 332
#     4  10  21  37  57  85 117 150 191 240 294 350
#     4  10  22  35  49  87 122 158 182 228 289 360
#     4  10  20  34  55  86 121 153 184 230 291 357
#
# _framework density 18.582753
#
# number of rings (size 3 to 8) (size 9 to 14) (size 15 to 20)
#    0.000    1.600    4.000    0.900    5.600    0.400 
#    0.000    1.000    0.000    7.800    0.000    0.000 
#    0.000    0.000    0.000    0.000    0.000    0.000 
#
# Total GULP energy -495624.063712 kJ/mol
# GULP energy per Si atom -12390.601593 kJ/mol
# Density = 1.854046 g / cm^3
# Si number density = 18.582753 Si / 1000 Ang^3
#
#
#
# Elastic Constant Matrix: (Units=GPa)
#
#
# Indices 1 2 3 4 5 6 
#
# 1 86.8665 54.9803 67.2406 0.0000 0.0000 0.0000
# 2 54.9803 133.0378 68.9603 0.0000 0.0000 0.0000
# 3 67.2406 68.9603 167.7178 0.0000 0.0000 0.0000
# 4 0.0000 0.0000 0.0000 60.3928 0.0000 0.0000
# 5 0.0000 0.0000 0.0000 0.0000 27.3428 0.0000
# 6 0.0000 0.0000 0.0000 0.0000 0.0000 23.3271
#
#
#
# Elastic Compliance Matrix: (Units=1/GPa)
#
#
# Indices 1 2 3 4 5 6 
#
# 1 0.018949 -0.004948 -0.005563 0.000000 0.000000 0.000000
# 2 -0.004948 0.010844 -0.002475 0.000000 0.000000 0.000000
# 3 -0.005563 -0.002475 0.009210 0.000000 0.000000 0.000000
# 4 0.000000 0.000000 0.000000 0.016558 0.000000 0.000000
# 5 0.000000 0.000000 0.000000 0.000000 0.036573 0.000000
# 6 0.000000 0.000000 0.000000 0.000000 0.000000 0.042869
#
#
# Mechanical properties :
#
#
# Convention : Reuss Voigt Hill
#
# Bulk Modulus (GPa) = 76.73010 85.55382 81.14196
# Shear Modulus (GPa) = 30.24443 35.30860 32.77652
#
# Velocity S-wave (km/s) = 4.03867 4.36371 4.20433
# Velocity P-wave (km/s) = 7.94534 8.45746 8.20540
#
# Compressibility (1/GPa) = 0.01303270
#
# Stress axis : x y z
#
# Youngs Moduli (GPa) = 52.77201 92.21289 108.57355
#
# Poissons Ratio (x) = 0.45625 0.60397
# Poissons Ratio (y) = 0.26110 0.26875
# Poissons Ratio (z) = 0.29356 0.22825
#
# Static dielectric constant tensor:
#      x y z
#    x 3.438230 0.000000 0.000000 
#    y 0.000000 3.753470 0.000000 
#    z 0.000000 0.000000 3.586300 
# 
# 
# High freq. dielectric constant tensor:
#      x y z
#    x 1.720290 0.000000 0.000000 
#    y 0.000000 1.695600 0.000000 
#    z 0.000000 0.000000 1.739310 
# 
# From -- ./inp_files/10702.got.cif
#   From: 2010.03.12/outbox.cif.g09.slc.cpg/sg51_6_cif.got.tgz:10702.got - 2010.04.16 13:43:02.
