data_PCOD8211136
_publ_section_title
;
Structure prediction by ZEFSAII (Michael W. Deem and Ramdas Pophale) SiO2 
 PCOD8211136
Probable space group: P M M A
;
_chemical_formula_sum "Si O2"
_cell_formula_units_Z 64
_cell_length_a 9.350445
_cell_length_b 24.640181
_cell_length_c 15.097665
_cell_angle_alpha 90.000000
_cell_angle_beta 90.000000
_cell_angle_gamma 90.000000
_cell_volume 3478.451548
_symmetry_space_group_name_H-M "P M M A"
_symmetry_group_IT_number 51
_symmetry_cell_setting 'orthorhombic'
loop_
_space_group_symop_operation_xyz
x,y,z
1/2-x,-y,z
1/2+x,-y,-z
-x,y,-z
-x,-y,-z
1/2+x,y,-z
1/2-x,y,z
x,-y,z
loop_
_atom_site_type_symbol
_atom_site_label
_atom_site_fract_x
_atom_site_fract_y
_atom_site_fract_z
Si Si1 0.084955 0.562034 0.223701
Si Si2 0.588524 0.170558 0.582027
Si Si3 0.916053 0.635965 0.089306
Si Si4 0.414790 0.741261 0.805949
Si Si5 0.918364 0.153842 0.779615
Si Si6 0.416341 0.061653 0.086545
Si Si7 0.087310 0.593610 0.417876
Si Si8 0.589769 0.288553 0.640774
O O1 0.250000 0.581458 0.214110
O O2 0.068035 0.500000 0.193224
O O3 0.034831 0.568050 0.325462
O O4 0.982519 0.598977 0.165516
O O5 0.500000 0.145695 0.500000
O O6 0.750000 0.151281 0.567495
O O7 0.532001 0.148425 0.677095
O O8 0.573418 0.235643 0.579636
O O9 0.750000 0.620276 0.077544
O O10 0.931945 0.699564 0.112857
O O11 0.000000 0.623498 0.000000
O O12 0.250000 0.756199 0.789296
O O13 0.501120 0.796299 0.827100
O O14 0.475447 0.711885 0.719181
O O15 0.750000 0.166520 0.783369
O O16 0.959221 0.098677 0.830045
O O17 0.250000 0.067009 0.064422
O O18 0.458526 0.000000 0.111059
O O19 0.500000 0.081816 0.000000
O O20 0.250000 0.577251 0.434505
O O21 0.064364 0.658495 0.417867
O O22 0.000000 0.568782 0.500000
O O23 0.750000 0.289511 0.682500
#
# Coordination Sequence:
#
# PCOD8211136 Si02
#       8
#     8   8   8   8   8   8   8   8
#     4  10  22  41  62  81 105 139 178 222 270 320
#     4   9  17  28  44  69 101 138 178 213 254 303
#     4  11  24  40  60  84 108 138 175 218 269 326
#     4  10  20  33  52  80 109 137 174 216 260 312
#     4   9  19  34  52  76 109 147 180 214 263 321
#     4   9  18  34  56  80 106 139 180 225 269 315
#     4  10  20  33  53  80 109 141 176 215 263 318
#     4   9  17  31  50  72 102 141 175 210 260 313
#
# _framework density 18.398992
#
# number of rings (size 3 to 8) (size 9 to 14) (size 15 to 20)
#    0.000    2.375    1.250    1.875    0.000    6.250 
#    0.000    2.500    0.000    0.375    0.000    0.000 
#    0.000    0.000    0.000    0.000    0.000    0.250 
#
# Total GULP energy -793549.851787 kJ/mol
# GULP energy per Si atom -12399.216434 kJ/mol
# Density = 1.835711 g / cm^3
# Si number density = 18.398992 Si / 1000 Ang^3
#
#
#
# Elastic Constant Matrix: (Units=GPa)
#
#
# Indices 1 2 3 4 5 6 
#
# 1 88.5814 39.9175 60.9720 0.0000 0.0000 0.0000
# 2 39.9175 75.9002 49.5131 0.0000 0.0000 0.0000
# 3 60.9720 49.5131 110.1712 0.0000 0.0000 0.0000
# 4 0.0000 0.0000 0.0000 13.9235 0.0000 0.0000
# 5 0.0000 0.0000 0.0000 0.0000 34.8586 0.0000
# 6 0.0000 0.0000 0.0000 0.0000 0.0000 19.0763
#
#
#
# Elastic Compliance Matrix: (Units=1/GPa)
#
#
# Indices 1 2 3 4 5 6 
#
# 1 0.019261 -0.004493 -0.008640 0.000000 0.000000 0.000000
# 2 -0.004493 0.019688 -0.006362 0.000000 0.000000 0.000000
# 3 -0.008640 -0.006362 0.016718 0.000000 0.000000 0.000000
# 4 0.000000 0.000000 0.000000 0.071821 0.000000 0.000000
# 5 0.000000 0.000000 0.000000 0.000000 0.028687 0.000000
# 6 0.000000 0.000000 0.000000 0.000000 0.000000 0.052421
#
#
# Mechanical properties :
#
#
# Convention : Reuss Voigt Hill
#
# Bulk Modulus (GPa) = 59.96425 63.93977 61.95201
# Shear Modulus (GPa) = 19.75146 21.85501 20.80323
#
# Velocity S-wave (km/s) = 3.28000 3.45024 3.36620
# Velocity P-wave (km/s) = 6.85611 7.12035 6.98948
#
# Compressibility (1/GPa) = 0.01667660
#
# Stress axis : x y z
#
# Youngs Moduli (GPa) = 51.91797 50.79155 59.81736
#
# Poissons Ratio (x) = 0.22823 0.51684
# Poissons Ratio (y) = 0.23329 0.38053
# Poissons Ratio (z) = 0.44858 0.32311
#
# Static dielectric constant tensor:
#      x y z
#    x 3.387470 0.000000 0.000000 
#    y 0.000000 3.311810 0.000000 
#    z 0.000000 0.000000 3.283910 
# 
# 
# High freq. dielectric constant tensor:
#      x y z
#    x 1.712590 0.000000 0.000000 
#    y 0.000000 1.696150 0.000000 
#    z 0.000000 0.000000 1.707480 
# 
# From -- ./inp_files/22279.got.cif
#   From: 2010.03.12/outbox.cif.g09.slc.cpg/sg51_12_cif.got.tgz:22279.got - 2010.04.16 13:43:02.
