data_PCOD8211011
_publ_section_title
;
Structure prediction by ZEFSAII (Michael W. Deem and Ramdas Pophale) SiO2 
 PCOD8211011
Probable space group: P M M A
;
_chemical_formula_sum "Si O2"
_cell_formula_units_Z 64
_cell_length_a 18.868214
_cell_length_b 9.024165
_cell_length_c 20.418046
_cell_angle_alpha 90.000000
_cell_angle_beta 90.000000
_cell_angle_gamma 90.000000
_cell_volume 3476.578169
_symmetry_space_group_name_H-M "P M M A"
_symmetry_group_IT_number 51
_symmetry_cell_setting 'orthorhombic'
loop_
_space_group_symop_operation_xyz
x,y,z
1/2-x,-y,z
1/2+x,-y,-z
-x,y,-z
-x,-y,-z
1/2+x,y,-z
1/2-x,y,z
x,-y,z
loop_
_atom_site_type_symbol
_atom_site_label
_atom_site_fract_x
_atom_site_fract_y
_atom_site_fract_z
Si Si1 0.334307 0.166873 0.059127
Si Si2 0.829986 0.674452 0.211721
Si Si3 0.089144 0.824137 0.302166
Si Si4 0.558482 0.323708 0.318830
Si Si5 0.665900 0.833102 0.084303
Si Si6 0.831615 0.673170 0.580125
Si Si7 0.930885 0.673576 0.465129
Si Si8 0.834285 0.332366 0.814119
O O1 0.250000 0.166336 0.059999
O O2 0.363225 0.275303 0.115632
O O3 0.362024 0.000000 0.072174
O O4 0.361084 0.222557 0.987342
O O5 0.750000 0.734565 0.223082
O O6 0.829744 0.500000 0.206257
O O7 0.877486 0.728035 0.272322
O O8 0.863742 0.734411 0.143799
O O9 0.124278 0.768563 0.368958
O O10 0.137157 0.774254 0.241878
O O11 0.012104 0.754109 0.293323
O O12 0.083914 0.000000 0.303627
O O13 0.547450 0.500000 0.316707
O O14 0.577569 0.264291 0.391638
O O15 0.750000 0.824886 0.084745
O O16 0.639449 0.000000 0.095710
O O17 0.750000 0.720687 0.582246
O O18 0.841424 0.500000 0.597373
O O19 0.860918 0.708757 0.507496
O O20 0.943626 0.500000 0.459215
O O21 0.000000 0.745272 0.500000
O O22 0.750000 0.325615 0.811259
O O23 0.861409 0.500000 0.803516
#
# Coordination Sequence:
#
# PCOD8211011 Si02
#       8
#     8   8   8   8   8   8   8   8
#     4   8  14  26  45  71 102 136 174 213 256 305
#     4   9  18  31  50  79 109 135 168 215 266 311
#     4  12  24  36  52  74 104 141 180 218 260 312
#     4  10  20  36  57  77 105 141 176 215 261 314
#     4   8  14  26  46  71 102 140 175 209 253 308
#     4  10  20  35  57  83 107 135 175 219 264 316
#     4   9  16  31  56  79 100 131 171 213 258 308
#     4  10  20  33  51  76 105 137 174 217 265 315
#
# _framework density 18.408905000000001
#
# number of rings (size 3 to 8) (size 9 to 14) (size 15 to 20)
#    0.000    2.500    1.250    2.625    0.000    4.000 
#    0.000    6.250    0.000    0.750    0.000    7.000 
#    0.000    0.000    0.000    0.000    0.000    0.000 
#
# Total GULP energy -793360.898133 kJ/mol
# GULP energy per Si atom -12396.264033 kJ/mol
# Density = 1.836701 g / cm^3
# Si number density = 18.408905 Si / 1000 Ang^3
#
#
#
# Elastic Constant Matrix: (Units=GPa)
#
#
# Indices 1 2 3 4 5 6 
#
# 1 54.8768 27.5684 25.0923 0.0000 0.0000 0.0000
# 2 27.5684 56.3049 36.4018 0.0000 0.0000 0.0000
# 3 25.0923 36.4018 130.4166 0.0000 0.0000 0.0000
# 4 0.0000 0.0000 0.0000 13.3337 0.0000 0.0000
# 5 0.0000 0.0000 0.0000 0.0000 11.3992 0.0000
# 6 0.0000 0.0000 0.0000 0.0000 0.0000 14.1860
#
#
#
# Elastic Compliance Matrix: (Units=1/GPa)
#
#
# Indices 1 2 3 4 5 6 
#
# 1 0.024459 -0.010901 -0.001663 0.000000 0.000000 0.000000
# 2 -0.010901 0.026529 -0.005307 0.000000 0.000000 0.000000
# 3 -0.001663 -0.005307 0.009469 0.000000 0.000000 0.000000
# 4 0.000000 0.000000 0.000000 0.074998 0.000000 0.000000
# 5 0.000000 0.000000 0.000000 0.000000 0.087726 0.000000
# 6 0.000000 0.000000 0.000000 0.000000 0.000000 0.070492
#
#
# Mechanical properties :
#
#
# Convention : Reuss Voigt Hill
#
# Bulk Modulus (GPa) = 40.46187 46.63592 43.54890
# Shear Modulus (GPa) = 14.80804 17.95282 16.38043
#
# Velocity S-wave (km/s) = 2.83926 3.12625 2.98620
# Velocity P-wave (km/s) = 5.72501 6.19835 5.96638
#
# Compressibility (1/GPa) = 0.02471463
#
# Stress axis : x y z
#
# Youngs Moduli (GPa) = 40.88417 37.69462 105.60543
#
# Poissons Ratio (x) = 0.41089 0.17567
# Poissons Ratio (y) = 0.44566 0.56050
# Poissons Ratio (z) = 0.06801 0.20006
#
# Static dielectric constant tensor:
#      x y z
#    x 3.202210 0.000000 0.000000 
#    y 0.000000 3.277780 0.000000 
#    z 0.000000 0.000000 3.855350 
# 
# 
# High freq. dielectric constant tensor:
#      x y z
#    x 1.682780 0.000000 0.000000 
#    y 0.000000 1.691430 0.000000 
#    z 0.000000 0.000000 1.732560 
# 
# From -- ./inp_files/33957.got.cif
#   From: 2010.03.12/outbox.cif.g09.slc.cpg/sg51_17_cif.got.tgz:33957.got - 2010.04.16 13:43:02.
