data_PCOD8211069
_publ_section_title
;
Structure prediction by ZEFSAII (Michael W. Deem and Ramdas Pophale) SiO2 
 PCOD8211069
Probable space group: P M M A
;
_chemical_formula_sum "Si O2"
_cell_formula_units_Z 40
_cell_length_a 8.840588
_cell_length_b 18.494547
_cell_length_c 13.676856
_cell_angle_alpha 90.000000
_cell_angle_beta 90.000000
_cell_angle_gamma 90.000000
_cell_volume 2236.202477
_symmetry_space_group_name_H-M "P M M A"
_symmetry_group_IT_number 51
_symmetry_cell_setting 'orthorhombic'
loop_
_space_group_symop_operation_xyz
x,y,z
1/2-x,-y,z
1/2+x,-y,-z
-x,y,-z
-x,-y,-z
1/2+x,y,-z
1/2-x,y,z
x,-y,z
loop_
_atom_site_type_symbol
_atom_site_label
_atom_site_fract_x
_atom_site_fract_y
_atom_site_fract_z
Si Si1 0.427674 0.082768 0.796659
Si Si2 0.075570 0.843839 0.601492
Si Si3 0.427556 0.704838 0.720499
Si Si4 0.074669 0.416183 0.397261
Si Si5 0.070576 0.213674 0.102541
O O1 0.250000 0.100188 0.808082
O O2 0.480232 0.101519 0.686305
O O3 0.518348 0.132145 0.872589
O O4 0.465876 0.000000 0.820248
O O5 0.250000 0.854982 0.582954
O O6 0.038227 0.762040 0.634161
O O7 0.000000 0.864091 0.500000
O O8 0.250000 0.699118 0.742154
O O9 0.493132 0.627743 0.688641
O O10 0.511195 0.729260 0.818430
O O11 0.250000 0.394984 0.402797
O O12 0.051059 0.500000 0.372273
O O13 0.000000 0.395795 0.500000
O O14 0.250000 0.216614 0.097256
O O15 0.000000 0.237352 0.000000
#
# Coordination Sequence:
#
# PCOD8211069 Si02
#       5
#     8   8   8   8   8
#     4   9  19  36  53  71 100 135 171 213 260 309
#     4   9  18  30  46  70  99 133 170 208 250 298
#     4  10  20  35  54  76 104 137 175 217 260 306
#     4  10  20  33  51  79 114 149 182 214 252 300
#     4  11  22  37  57  79 102 129 167 213 263 317
#
# _framework density 17.887467999999998
#
# number of rings (size 3 to 8) (size 9 to 14) (size 15 to 20)
#    0.000    2.200    0.000    4.800    0.000    8.000 
#    0.000    0.000    0.000    0.600    0.000    0.000 
#    0.000    0.000    0.000    0.000    0.000    0.000 
#
# Total GULP energy -496092.635380 kJ/mol
# GULP energy per Si atom -12402.315885 kJ/mol
# Density = 1.784676 g / cm^3
# Si number density = 17.887468 Si / 1000 Ang^3
#
#
#
# Elastic Constant Matrix: (Units=GPa)
#
#
# Indices 1 2 3 4 5 6 
#
# 1 114.4548 50.5634 55.0345 0.0000 0.0000 0.0000
# 2 50.5634 89.1113 40.9604 0.0000 0.0000 0.0000
# 3 55.0345 40.9604 102.6921 0.0000 0.0000 0.0000
# 4 0.0000 0.0000 0.0000 4.4844 0.0000 0.0000
# 5 0.0000 0.0000 0.0000 0.0000 35.4255 0.0000
# 6 0.0000 0.0000 0.0000 0.0000 0.0000 29.3987
#
#
#
# Elastic Compliance Matrix: (Units=1/GPa)
#
#
# Indices 1 2 3 4 5 6 
#
# 1 0.013566 -0.005334 -0.005143 0.000000 0.000000 0.000000
# 2 -0.005334 0.015838 -0.003459 0.000000 0.000000 0.000000
# 3 -0.005143 -0.003459 0.013874 0.000000 0.000000 0.000000
# 4 0.000000 0.000000 0.000000 0.222993 0.000000 0.000000
# 5 0.000000 0.000000 0.000000 0.000000 0.028228 0.000000
# 6 0.000000 0.000000 0.000000 0.000000 0.000000 0.034015
#
#
# Mechanical properties :
#
#
# Convention : Reuss Voigt Hill
#
# Bulk Modulus (GPa) = 64.90544 66.59719 65.75131
# Shear Modulus (GPa) = 13.83041 24.50839 19.16940
#
# Velocity S-wave (km/s) = 2.78365 3.70556 3.27718
# Velocity P-wave (km/s) = 6.83343 7.45790 7.15248
#
# Compressibility (1/GPa) = 0.01540703
#
# Stress axis : x y z
#
# Youngs Moduli (GPa) = 73.71163 63.13802 72.07888
#
# Poissons Ratio (x) = 0.33677 0.37070
# Poissons Ratio (y) = 0.39316 0.24931
# Poissons Ratio (z) = 0.37910 0.21839
#
# Static dielectric constant tensor:
#      x y z
#    x 3.311180 0.000000 0.000000 
#    y 0.000000 3.254560 0.000000 
#    z 0.000000 0.000000 3.384780 
# 
# 
# High freq. dielectric constant tensor:
#      x y z
#    x 1.700480 0.000000 0.000000 
#    y 0.000000 1.683100 0.000000 
#    z 0.000000 0.000000 1.686730 
# 
# From -- ./inp_files/13996.got.cif
#   From: 2010.03.12/outbox.cif.g09.slc.cpg/sg51_7_cif.got.tgz:13996.got - 2010.04.16 13:43:02.
