data_PCOD8211660
_publ_section_title
;
Structure prediction by ZEFSAII (Michael W. Deem and Ramdas Pophale) SiO2 
 PCOD8211660
Probable space group: P M M A
;
_chemical_formula_sum "Si O2"
_cell_formula_units_Z 40
_cell_length_a 14.289710
_cell_length_b 8.671882
_cell_length_c 17.281571
_cell_angle_alpha 90.000000
_cell_angle_beta 90.000000
_cell_angle_gamma 90.000000
_cell_volume 2141.509448
_symmetry_space_group_name_H-M "P M M A"
_symmetry_group_IT_number 51
_symmetry_cell_setting 'orthorhombic'
loop_
_space_group_symop_operation_xyz
x,y,z
1/2-x,-y,z
1/2+x,-y,-z
-x,y,-z
-x,-y,-z
1/2+x,y,-z
1/2-x,y,z
x,-y,z
loop_
_atom_site_type_symbol
_atom_site_label
_atom_site_fract_x
_atom_site_fract_y
_atom_site_fract_z
Si Si1 0.141623 0.681986 0.009973
Si Si2 0.750000 0.181276 0.349668
Si Si3 0.509820 0.183206 0.115326
Si Si4 0.750000 0.675250 0.513823
Si Si5 0.056551 0.817910 0.713884
Si Si6 0.551585 0.321679 0.576520
O O1 0.250000 0.728691 0.018610
O O2 0.128886 0.500000 0.000354
O O3 0.098954 0.765806 0.935146
O O4 0.085808 0.738643 0.085684
O O5 0.750000 0.214290 0.440498
O O6 0.657549 0.253246 0.309693
O O7 0.750000 0.000000 0.337864
O O8 0.526760 0.243844 0.202140
O O9 0.499059 0.000000 0.110450
O O10 0.750000 0.500000 0.482530
O O11 0.838490 0.707467 0.567895
O O12 0.979274 0.770275 0.651835
O O13 0.063420 0.000000 0.715656
O O14 0.500000 0.257299 0.500000
O O15 0.525591 0.500000 0.588142
#
# Coordination Sequence:
#
# PCOD8211660 Si02
#       6
#     8   4   8   4   8   8
#     4  10  21  38  60  85 113 146 182 223 272 328
#     4  10  20  34  54  80 109 140 175 224 277 322
#     4  10  21  37  59  85 113 146 182 226 274 327
#     4  10  20  36  54  78 105 140 187 226 271 324
#     4  10  22  37  55  82 112 142 179 224 273 323
#     4  10  20  35  56  78 107 144 182 226 271 320
#
# _framework density 18.678414
#
# number of rings (size 3 to 8) (size 9 to 14) (size 15 to 20)
#    0.000    2.000    2.000    2.400    1.400    4.400 
#    1.800    0.000    0.000    0.000    0.000    0.000 
#    0.000    0.000    0.000    0.000    0.000    0.000 
#
# Total GULP energy -496082.900364 kJ/mol
# GULP energy per Si atom -12402.072509 kJ/mol
# Density = 1.863590 g / cm^3
# Si number density = 18.678414 Si / 1000 Ang^3
#
#
#
# Elastic Constant Matrix: (Units=GPa)
#
#
# Indices 1 2 3 4 5 6 
#
# 1 154.4729 16.5108 63.9986 0.0000 0.0000 0.0000
# 2 16.5108 23.8969 13.4865 0.0000 0.0000 0.0000
# 3 63.9986 13.4865 148.6777 0.0000 0.0000 0.0000
# 4 0.0000 0.0000 0.0000 13.4982 0.0000 0.0000
# 5 0.0000 0.0000 0.0000 0.0000 14.4980 0.0000
# 6 0.0000 0.0000 0.0000 0.0000 0.0000 25.6971
#
#
#
# Elastic Compliance Matrix: (Units=1/GPa)
#
#
# Indices 1 2 3 4 5 6 
#
# 1 0.008205 -0.003874 -0.003181 0.000000 0.000000 0.000000
# 2 -0.003874 0.045934 -0.002499 0.000000 0.000000 0.000000
# 3 -0.003181 -0.002499 0.008322 0.000000 0.000000 0.000000
# 4 0.000000 0.000000 0.000000 0.074084 0.000000 0.000000
# 5 0.000000 0.000000 0.000000 0.000000 0.068975 0.000000
# 6 0.000000 0.000000 0.000000 0.000000 0.000000 0.038915
#
#
# Mechanical properties :
#
#
# Convention : Reuss Voigt Hill
#
# Bulk Modulus (GPa) = 23.06642 57.22659 40.14651
# Shear Modulus (GPa) = 17.98602 26.27541 22.13072
#
# Velocity S-wave (km/s) = 3.10648 3.75470 3.44587
# Velocity P-wave (km/s) = 5.02424 7.03572 6.11328
#
# Compressibility (1/GPa) = 0.04335306
#
# Stress axis : x y z
#
# Youngs Moduli (GPa) = 121.86985 21.77060 120.16713
#
# Poissons Ratio (x) = 0.08435 0.38221
# Poissons Ratio (y) = 0.47216 0.30029
# Poissons Ratio (z) = 0.38762 0.05440
#
# Static dielectric constant tensor:
#      x y z
#    x 3.662640 0.000000 0.000000 
#    y 0.000000 3.333500 0.000000 
#    z 0.000000 0.000000 3.455780 
# 
# 
# High freq. dielectric constant tensor:
#      x y z
#    x 1.736190 0.000000 0.000000 
#    y 0.000000 1.719070 0.000000 
#    z 0.000000 0.000000 1.722220 
# 
# From -- ./inp_files/23780.got.cif
#   From: 2010.03.12/outbox.cif.g09.slc.cpg/sg51_12_cif.got.tgz:23780.got - 2010.04.16 13:43:02.
