data_PCOD8211018
_publ_section_title
;
Structure prediction by ZEFSAII (Michael W. Deem and Ramdas Pophale) SiO2 
 PCOD8211018
Probable space group: P M M A
;
_chemical_formula_sum "Si O2"
_cell_formula_units_Z 64
_cell_length_a 22.551372
_cell_length_b 9.000926
_cell_length_c 16.555115
_cell_angle_alpha 90.000000
_cell_angle_beta 90.000000
_cell_angle_gamma 90.000000
_cell_volume 3360.410725
_symmetry_space_group_name_H-M "P M M A"
_symmetry_group_IT_number 51
_symmetry_cell_setting 'orthorhombic'
loop_
_space_group_symop_operation_xyz
x,y,z
1/2-x,-y,z
1/2+x,-y,-z
-x,y,-z
-x,-y,-z
1/2+x,y,-z
1/2-x,y,z
x,-y,z
loop_
_atom_site_type_symbol
_atom_site_label
_atom_site_fract_x
_atom_site_fract_y
_atom_site_fract_z
Si Si1 0.181500 0.176278 0.176003
Si Si2 0.417060 0.176087 0.715976
Si Si3 0.318133 0.836610 0.477570
Si Si4 0.996677 0.327264 0.593963
Si Si5 0.086998 0.175724 0.049820
Si Si6 0.368253 0.325926 0.332854
Si Si7 0.819581 0.670665 0.366276
Si Si8 0.536793 0.176776 0.114617
O O1 0.250000 0.230559 0.173030
O O2 0.148503 0.225166 0.092623
O O3 0.143865 0.253340 0.246341
O O4 0.178712 0.000000 0.189218
O O5 0.456130 0.229752 0.641298
O O6 0.351108 0.242774 0.706826
O O7 0.442181 0.241469 0.799900
O O8 0.413890 0.000000 0.716552
O O9 0.250000 0.860303 0.497169
O O10 0.322463 0.748088 0.394332
O O11 0.345083 0.739526 0.550285
O O12 0.348890 0.000000 0.472767
O O13 0.012260 0.500000 0.604126
O O14 0.933257 0.289873 0.633196
O O15 0.000000 0.280745 0.500000
O O16 0.029652 0.237351 0.098378
O O17 0.083062 0.000000 0.050710
O O18 0.081785 0.231202 0.956781
O O19 0.355749 0.500000 0.327116
O O20 0.750000 0.690781 0.354878
O O21 0.838651 0.500000 0.366392
O O22 0.536533 0.000000 0.117766
#
# Coordination Sequence:
#
# PCOD8211018 Si02
#       8
#     8   8   8   8   8   8   8   8
#     4  10  20  33  51  76 106 141 181 225 270 319
#     4  11  21  33  54  83 109 132 166 215 267 315
#     4  10  20  34  53  76 101 131 173 224 267 303
#     4  10  22  38  53  72 103 142 181 220 262 312
#     4   8  14  29  51  74 103 135 170 212 262 322
#     4  11  22  34  51  75 105 143 181 216 260 317
#     4  10  21  37  55  73  99 138 176 208 250 306
#     4   8  15  28  50  79 105 131 165 213 270 320
#
# _framework density 19.045290000000001
#
# number of rings (size 3 to 8) (size 9 to 14) (size 15 to 20)
#    0.000    2.250    0.000    4.125    0.000    6.500 
#    0.000    0.625    0.000    3.750    0.000    6.125 
#    0.000    0.000    0.000    0.000    0.000    0.000 
#
# Total GULP energy -793363.006091 kJ/mol
# GULP energy per Si atom -12396.296970 kJ/mol
# Density = 1.900194 g / cm^3
# Si number density = 19.045290 Si / 1000 Ang^3
#
#
#
# Elastic Constant Matrix: (Units=GPa)
#
#
# Indices 1 2 3 4 5 6 
#
# 1 86.4277 36.2536 62.6635 0.0000 0.0000 0.0000
# 2 36.2536 66.2751 39.3963 0.0000 0.0000 0.0000
# 3 62.6635 39.3963 138.7489 0.0000 0.0000 0.0000
# 4 0.0000 0.0000 0.0000 7.4983 0.0000 0.0000
# 5 0.0000 0.0000 0.0000 0.0000 33.3787 0.0000
# 6 0.0000 0.0000 0.0000 0.0000 0.0000 24.8625
#
#
#
# Elastic Compliance Matrix: (Units=1/GPa)
#
#
# Indices 1 2 3 4 5 6 
#
# 1 0.019253 -0.006452 -0.006863 0.000000 0.000000 0.000000
# 2 -0.006452 0.020315 -0.002854 0.000000 0.000000 0.000000
# 3 -0.006863 -0.002854 0.011117 0.000000 0.000000 0.000000
# 4 0.000000 0.000000 0.000000 0.133364 0.000000 0.000000
# 5 0.000000 0.000000 0.000000 0.000000 0.029959 0.000000
# 6 0.000000 0.000000 0.000000 0.000000 0.000000 0.040221
#
#
# Mechanical properties :
#
#
# Convention : Reuss Voigt Hill
#
# Bulk Modulus (GPa) = 54.50767 63.11983 58.81375
# Shear Modulus (GPa) = 17.08328 23.35711 20.22020
#
# Velocity S-wave (km/s) = 2.99822 3.50580 3.26189
# Velocity P-wave (km/s) = 6.37714 7.04283 6.71823
#
# Compressibility (1/GPa) = 0.01834604
#
# Stress axis : x y z
#
# Youngs Moduli (GPa) = 51.94037 49.22571 89.94934
#
# Poissons Ratio (x) = 0.31760 0.61735
# Poissons Ratio (y) = 0.33511 0.25674
# Poissons Ratio (z) = 0.35648 0.14050
#
# Static dielectric constant tensor:
#      x y z
#    x 3.597650 0.000000 0.000000 
#    y 0.000000 3.350660 0.000000 
#    z 0.000000 0.000000 3.736280 
# 
# 
# High freq. dielectric constant tensor:
#      x y z
#    x 1.740070 0.000000 0.000000 
#    y 0.000000 1.719330 0.000000 
#    z 0.000000 0.000000 1.740780 
# 
# From -- ./inp_files/26197.got.cif
#   From: 2010.03.12/outbox.cif.g09.slc.cpg/sg51_14_cif.got.tgz:26197.got - 2010.04.16 13:43:02.
