data_PCOD8211360
_publ_section_title
;
Structure prediction by ZEFSAII (Michael W. Deem and Ramdas Pophale) SiO2 
 PCOD8211360
Probable space group: P M M A
;
_chemical_formula_sum "Si O2"
_cell_formula_units_Z 56
_cell_length_a 8.833434
_cell_length_b 14.130645
_cell_length_c 25.764760
_cell_angle_alpha 90.000000
_cell_angle_beta 90.000000
_cell_angle_gamma 90.000000
_cell_volume 3216.011964
_symmetry_space_group_name_H-M "P M M A"
_symmetry_group_IT_number 51
_symmetry_cell_setting 'orthorhombic'
loop_
_space_group_symop_operation_xyz
x,y,z
1/2-x,-y,z
1/2+x,-y,-z
-x,y,-z
-x,-y,-z
1/2+x,y,-z
1/2-x,y,z
x,-y,z
loop_
_atom_site_type_symbol
_atom_site_label
_atom_site_fract_x
_atom_site_fract_y
_atom_site_fract_z
Si Si1 0.572632 0.216761 0.852249
Si Si2 0.574273 0.889849 0.747040
Si Si3 0.571775 0.108065 0.053575
Si Si4 0.571406 0.107470 0.447276
Si Si5 0.074589 0.393187 0.302612
Si Si6 0.573578 0.607829 0.192227
Si Si7 0.571223 0.219201 0.346549
O O1 0.750000 0.214297 0.863001
O O2 0.528310 0.158260 0.801053
O O3 0.487703 0.172417 0.900495
O O4 0.517171 0.324820 0.846840
O O5 0.750000 0.871970 0.734266
O O6 0.473875 0.845216 0.701993
O O7 0.535725 0.000000 0.751420
O O8 0.750000 0.118427 0.049264
O O9 0.522255 0.000000 0.064406
O O10 0.500000 0.144469 0.000000
O O11 0.500000 0.149024 0.500000
O O12 0.750000 0.111960 0.452460
O O13 0.514070 0.169228 0.398985
O O14 0.515486 0.000000 0.438198
O O15 0.250000 0.372316 0.291337
O O16 0.049962 0.500000 0.322984
O O17 0.983973 0.374186 0.250162
O O18 0.010234 0.321275 0.345358
O O19 0.750000 0.632664 0.190468
O O20 0.542096 0.500000 0.175114
O O21 0.750000 0.233771 0.346454
#
# Coordination Sequence:
#
# PCOD8211360 Si02
#       7
#     8   8   8   8   8   8   8
#     4  11  21  34  54  79 109 143 179 218 262 315
#     4  10  21  34  48  72 107 144 177 209 254 312
#     4  10  21  37  57  80 107 142 184 226 267 312
#     4   9  19  35  53  75 102 135 175 216 258 307
#     4  10  20  34  52  75 104 138 176 215 258 313
#     4  10  20  34  53  78 107 139 177 219 263 313
#     4  11  21  33  52  77 106 137 172 216 265 315
#
# _framework density 17.412870000000002
#
# number of rings (size 3 to 8) (size 9 to 14) (size 15 to 20)
#    0.000    1.857    1.429    3.000    0.000    5.714 
#    0.000    1.429    0.000    0.857    0.000    0.000 
#    0.000    0.000    0.000    0.000    0.000    0.000 
#
# Total GULP energy -694617.881975 kJ/mol
# GULP energy per Si atom -12403.890750 kJ/mol
# Density = 1.737324 g / cm^3
# Si number density = 17.412870 Si / 1000 Ang^3
#
#
#
# Elastic Constant Matrix: (Units=GPa)
#
#
# Indices 1 2 3 4 5 6 
#
# 1 41.9367 28.6572 26.3785 0.0000 0.0000 0.0000
# 2 28.6572 110.0375 54.3461 0.0000 0.0000 0.0000
# 3 26.3785 54.3461 107.1680 0.0000 0.0000 0.0000
# 4 0.0000 0.0000 0.0000 0.8179 0.0000 0.0000
# 5 0.0000 0.0000 0.0000 0.0000 30.7926 0.0000
# 6 0.0000 0.0000 0.0000 0.0000 0.0000 30.8515
#
#
#
# Elastic Compliance Matrix: (Units=1/GPa)
#
#
# Indices 1 2 3 4 5 6 
#
# 1 0.030663 -0.005681 -0.004667 0.000000 0.000000 0.000000
# 2 -0.005681 0.013177 -0.005284 0.000000 0.000000 0.000000
# 3 -0.004667 -0.005284 0.013159 0.000000 0.000000 0.000000
# 4 0.000000 0.000000 0.000000 1.222609 0.000000 0.000000
# 5 0.000000 0.000000 0.000000 0.000000 0.032475 0.000000
# 6 0.000000 0.000000 0.000000 0.000000 0.000000 0.032413
#
#
# Mechanical properties :
#
#
# Convention : Reuss Voigt Hill
#
# Bulk Modulus (GPa) = 38.85541 53.10064 45.97802
# Shear Modulus (GPa) = 3.61184 22.47641 13.04412
#
# Velocity S-wave (km/s) = 1.44178 3.59666 2.73995
# Velocity P-wave (km/s) = 5.01341 6.91442 6.03918
#
# Compressibility (1/GPa) = 0.02573644
#
# Stress axis : x y z
#
# Youngs Moduli (GPa) = 32.61290 75.89033 75.99190
#
# Poissons Ratio (x) = 0.43112 0.35462
# Poissons Ratio (y) = 0.18527 0.40153
# Poissons Ratio (z) = 0.15219 0.40100
#
# Static dielectric constant tensor:
#      x y z
#    x 3.308400 0.000000 0.000000 
#    y 0.000000 3.433170 0.000000 
#    z 0.000000 0.000000 3.161820 
# 
# 
# High freq. dielectric constant tensor:
#      x y z
#    x 1.684520 0.000000 0.000000 
#    y 0.000000 1.676450 0.000000 
#    z 0.000000 0.000000 1.655230 
# 
# From -- ./inp_files/31980.got.cif
#   From: 2010.03.12/outbox.cif.g09.slc.cpg/sg51_16_cif.got.tgz:31980.got - 2010.04.16 13:43:02.
