data_PCOD8211432
_publ_section_title
;
Structure prediction by ZEFSAII (Michael W. Deem and Ramdas Pophale) SiO2 
 PCOD8211432
Probable space group: P M M A
;
_chemical_formula_sum "Si O2"
_cell_formula_units_Z 48
_cell_length_a 18.945983
_cell_length_b 9.015752
_cell_length_c 15.427845
_cell_angle_alpha 90.000000
_cell_angle_beta 90.000000
_cell_angle_gamma 90.000000
_cell_volume 2635.265444
_symmetry_space_group_name_H-M "P M M A"
_symmetry_group_IT_number 51
_symmetry_cell_setting 'orthorhombic'
loop_
_space_group_symop_operation_xyz
x,y,z
1/2-x,-y,z
1/2+x,-y,-z
-x,y,-z
-x,-y,-z
1/2+x,y,-z
1/2-x,y,z
x,-y,z
loop_
_atom_site_type_symbol
_atom_site_label
_atom_site_fract_x
_atom_site_fract_y
_atom_site_fract_z
Si Si1 0.166258 0.331839 0.816600
Si Si2 0.583611 0.663178 0.495690
Si Si3 0.332005 0.172729 0.176866
Si Si4 0.077761 0.174902 0.674185
Si Si5 0.333769 0.835995 0.983672
Si Si6 0.071914 0.675129 0.315380
O O1 0.250000 0.318979 0.810737
O O2 0.140444 0.500000 0.802798
O O3 0.134713 0.226005 0.743899
O O4 0.138987 0.278474 0.911136
O O5 0.500000 0.651816 0.500000
O O6 0.615248 0.500000 0.474274
O O7 0.606628 0.776495 0.420658
O O8 0.607559 0.717305 0.591515
O O9 0.250000 0.211032 0.188574
O O10 0.375138 0.275149 0.241410
O O11 0.346097 0.000000 0.196343
O O12 0.358317 0.213312 0.079669
O O13 0.002763 0.245386 0.697388
O O14 0.070255 0.000000 0.675832
O O15 0.250000 0.843797 0.984208
O O16 0.363851 0.000000 0.962178
O O17 0.058441 0.500000 0.310478
#
# Coordination Sequence:
#
# PCOD8211432 Si02
#       6
#     8   8   8   8   8   8
#     4  10  20  34  53  76 102 132 166 206 250 297
#     4   8  16  32  51  71  98 132 167 203 246 297
#     4   9  18  33  53  77 105 135 167 206 250 295
#     4  11  21  33  53  77 101 131 167 208 251 298
#     4   8  15  30  51  73  99 132 167 202 244 296
#     4  10  20  34  53  76 103 134 168 207 249 296
#
# _framework density 18.214483000000001
#
# number of rings (size 3 to 8) (size 9 to 14) (size 15 to 20)
#    0.000    2.667    0.000    4.500    0.000    5.667 
#    0.000    3.333    0.000    6.000    0.000    0.000 
#    0.000    0.000    0.000    0.000    0.000    0.000 
#
# Total GULP energy -595011.049774 kJ/mol
# GULP energy per Si atom -12396.063537 kJ/mol
# Density = 1.817303 g / cm^3
# Si number density = 18.214483 Si / 1000 Ang^3
#
#
#
# Elastic Constant Matrix: (Units=GPa)
#
#
# Indices 1 2 3 4 5 6 
#
# 1 32.7499 34.8280 38.4714 0.0000 0.0000 0.0000
# 2 34.8280 118.6035 73.1289 0.0000 0.0000 0.0000
# 3 38.4714 73.1289 150.8420 0.0000 0.0000 0.0000
# 4 0.0000 0.0000 0.0000 36.5748 0.0000 0.0000
# 5 0.0000 0.0000 0.0000 0.0000 28.3140 0.0000
# 6 0.0000 0.0000 0.0000 0.0000 0.0000 25.6346
#
#
#
# Elastic Compliance Matrix: (Units=1/GPa)
#
#
# Indices 1 2 3 4 5 6 
#
# 1 0.050529 -0.009830 -0.008121 0.000000 0.000000 0.000000
# 2 -0.009830 0.013939 -0.004250 0.000000 0.000000 0.000000
# 3 -0.008121 -0.004250 0.010761 0.000000 0.000000 0.000000
# 4 0.000000 0.000000 0.000000 0.027341 0.000000 0.000000
# 5 0.000000 0.000000 0.000000 0.000000 0.035318 0.000000
# 6 0.000000 0.000000 0.000000 0.000000 0.000000 0.039010
#
#
# Mechanical properties :
#
#
# Convention : Reuss Voigt Hill
#
# Bulk Modulus (GPa) = 32.44141 66.11689 49.27915
# Shear Modulus (GPa) = 21.59107 28.48915 25.04011
#
# Velocity S-wave (km/s) = 3.44667 3.95915 3.71177
# Velocity P-wave (km/s) = 5.80421 7.56821 6.74413
#
# Compressibility (1/GPa) = 0.03082480
#
# Stress axis : x y z
#
# Youngs Moduli (GPa) = 19.79075 71.74154 92.92479
#
# Poissons Ratio (x) = 0.70524 0.75467
# Poissons Ratio (y) = 0.19455 0.39498
# Poissons Ratio (z) = 0.16073 0.30494
#
# Static dielectric constant tensor:
#      x y z
#    x 2.923640 0.000000 0.000000 
#    y 0.000000 3.456410 0.000000 
#    z 0.000000 0.000000 3.872630 
# 
# 
# High freq. dielectric constant tensor:
#      x y z
#    x 1.661020 0.000000 0.000000 
#    y 0.000000 1.709140 0.000000 
#    z 0.000000 0.000000 1.724230 
# 
# From -- ./inp_files/24807.got.cif
#   From: 2010.03.12/outbox.cif.g09.slc.cpg/sg51_13_cif.got.tgz:24807.got - 2010.04.16 13:43:02.
