data_PCOD8211558
_publ_section_title
;
Structure prediction by ZEFSAII (Michael W. Deem and Ramdas Pophale) SiO2 
 PCOD8211558
Probable space group: P M M A
;
_chemical_formula_sum "Si O2"
_cell_formula_units_Z 64
_cell_length_a 22.954123
_cell_length_b 9.261157
_cell_length_c 17.908965
_cell_angle_alpha 90.000000
_cell_angle_beta 90.000000
_cell_angle_gamma 90.000000
_cell_volume 3807.118886
_symmetry_space_group_name_H-M "P M M A"
_symmetry_group_IT_number 51
_symmetry_cell_setting 'orthorhombic'
loop_
_space_group_symop_operation_xyz
x,y,z
1/2-x,-y,z
1/2+x,-y,-z
-x,y,-z
-x,-y,-z
1/2+x,y,-z
1/2-x,y,z
x,-y,z
loop_
_atom_site_type_symbol
_atom_site_label
_atom_site_fract_x
_atom_site_fract_y
_atom_site_fract_z
Si Si1 0.681015 0.658656 0.070256
Si Si2 0.011023 0.165667 0.414578
Si Si3 0.317628 0.169575 0.231694
Si Si4 0.883964 0.165533 0.359694
Si Si5 0.684115 0.671774 0.235220
Si Si6 0.876954 0.672350 0.636537
Si Si7 0.318909 0.841504 0.064902
Si Si8 0.317108 0.834155 0.493392
O O1 0.750000 0.648541 0.060898
O O2 0.653263 0.500000 0.064816
O O3 0.667121 0.726182 0.151764
O O4 0.653086 0.748410 0.002021
O O5 0.058400 0.272226 0.380377
O O6 0.000000 0.209912 0.500000
O O7 0.952992 0.185801 0.366017
O O8 0.033215 0.000000 0.411192
O O9 0.250000 0.198772 0.249973
O O10 0.357758 0.267865 0.283399
O O11 0.332925 0.219832 0.147263
O O12 0.331398 0.000000 0.243009
O O13 0.861625 0.260754 0.291761
O O14 0.854521 0.218646 0.436253
O O15 0.866728 0.000000 0.344687
O O16 0.750000 0.721259 0.255233
O O17 0.679978 0.500000 0.238568
O O18 0.875886 0.500000 0.636644
O O19 0.831790 0.732127 0.575709
O O20 0.250000 0.850571 0.055047
O O21 0.346391 0.000000 0.057408
O O22 0.250000 0.816433 0.514540
O O23 0.332262 0.000000 0.472423
#
# Coordination Sequence:
#
# PCOD8211558 Si02
#       8
#     8   8   8   8   8   8   8   8
#     4   8  14  25  41  63  95 135 168 189 224 284
#     4  10  20  39  60  71  88 122 165 210 253 296
#     4   9  18  33  51  71 100 136 168 199 242 294
#     4  10  20  34  54  75  91 119 166 211 245 283
#     4   9  18  31  46  69 105 141 164 190 238 295
#     4  12  24  34  49  74 101 126 161 205 247 292
#     4   8  14  25  43  68  95 125 163 203 238 274
#     4  10  20  35  53  71  96 130 164 197 240 294
#
# _framework density 16.810613
#
# number of rings (size 3 to 8) (size 9 to 14) (size 15 to 20)
#    0.000    2.500    1.250    3.375    0.000    5.000 
#    0.000    2.500    0.000    0.000    0.000    0.875 
#    0.000    7.000    0.000    0.000    0.000    0.000 
#
# Total GULP energy -793441.738295 kJ/mol
# GULP energy per Si atom -12397.527161 kJ/mol
# Density = 1.677235 g / cm^3
# Si number density = 16.810613 Si / 1000 Ang^3
#
#
#
# Elastic Constant Matrix: (Units=GPa)
#
#
# Indices 1 2 3 4 5 6 
#
# 1 59.1347 29.5269 33.4148 0.0000 0.0000 0.0000
# 2 29.5269 76.2900 56.3847 0.0000 0.0000 0.0000
# 3 33.4148 56.3847 123.1129 0.0000 0.0000 0.0000
# 4 0.0000 0.0000 0.0000 12.6943 0.0000 0.0000
# 5 0.0000 0.0000 0.0000 0.0000 7.1423 0.0000
# 6 0.0000 0.0000 0.0000 0.0000 0.0000 21.2510
#
#
#
# Elastic Compliance Matrix: (Units=1/GPa)
#
#
# Indices 1 2 3 4 5 6 
#
# 1 0.021712 -0.006119 -0.003090 0.000000 0.000000 0.000000
# 2 -0.006119 0.021540 -0.008204 0.000000 0.000000 0.000000
# 3 -0.003090 -0.008204 0.012719 0.000000 0.000000 0.000000
# 4 0.000000 0.000000 0.000000 0.078775 0.000000 0.000000
# 5 0.000000 0.000000 0.000000 0.000000 0.140010 0.000000
# 6 0.000000 0.000000 0.000000 0.000000 0.000000 0.047057
#
#
# Mechanical properties :
#
#
# Convention : Reuss Voigt Hill
#
# Bulk Modulus (GPa) = 47.29677 55.24339 51.27008
# Shear Modulus (GPa) = 13.74801 17.49828 15.62315
#
# Velocity S-wave (km/s) = 2.86285 3.22981 3.05185
# Velocity P-wave (km/s) = 6.25492 6.84415 6.55616
#
# Compressibility (1/GPa) = 0.02114309
#
# Stress axis : x y z
#
# Youngs Moduli (GPa) = 46.05672 46.42559 78.62332
#
# Poissons Ratio (x) = 0.28409 0.24298
# Poissons Ratio (y) = 0.28184 0.64504
# Poissons Ratio (z) = 0.14234 0.38088
#
# Static dielectric constant tensor:
#      x y z
#    x 2.876340 0.000000 0.000000 
#    y 0.000000 3.193420 0.000000 
#    z 0.000000 0.000000 3.316210 
# 
# 
# High freq. dielectric constant tensor:
#      x y z
#    x 1.611960 0.000000 0.000000 
#    y 0.000000 1.639650 0.000000 
#    z 0.000000 0.000000 1.656210 
# 
# From -- ./inp_files/30810.got.cif
#   From: 2010.03.12/outbox.cif.g09.slc.cpg/sg51_16_cif.got.tgz:30810.got - 2010.04.16 13:43:02.
