data_PCOD8211770
_publ_section_title
;
Structure prediction by ZEFSAII (Michael W. Deem and Ramdas Pophale) SiO2 
 PCOD8211770
Probable space group: P M M A
;
_chemical_formula_sum "Si O2"
_cell_formula_units_Z 44
_cell_length_a 8.974573
_cell_length_b 15.048952
_cell_length_c 17.733524
_cell_angle_alpha 90.000000
_cell_angle_beta 90.000000
_cell_angle_gamma 90.000000
_cell_volume 2395.052836
_symmetry_space_group_name_H-M "P M M A"
_symmetry_group_IT_number 51
_symmetry_cell_setting 'orthorhombic'
loop_
_space_group_symop_operation_xyz
x,y,z
1/2-x,-y,z
1/2+x,-y,-z
-x,y,-z
-x,-y,-z
1/2+x,y,-z
1/2-x,y,z
x,-y,z
loop_
_atom_site_type_symbol
_atom_site_label
_atom_site_fract_x
_atom_site_fract_y
_atom_site_fract_z
Si Si1 0.418212 0.846967 0.924656
Si Si2 0.424217 0.600231 0.421972
Si Si3 0.080597 0.336552 0.855968
Si Si4 0.076012 0.100879 0.760407
Si Si5 0.073697 0.734665 0.290239
Si Si6 0.923109 0.500000 0.920851
O O1 0.250000 0.879418 0.934013
O O2 0.429861 0.740097 0.919043
O O3 0.482836 0.889246 0.847097
O O4 0.500000 0.880698 0.000000
O O5 0.500000 0.626584 0.500000
O O6 0.250000 0.602973 0.435833
O O7 0.472058 0.500000 0.395871
O O8 0.471243 0.674903 0.361792
O O9 0.250000 0.371893 0.850176
O O10 0.027572 0.300318 0.776700
O O11 0.967685 0.414116 0.874675
O O12 0.250000 0.129459 0.757503
O O13 0.978833 0.162207 0.702872
O O14 0.053648 0.000000 0.733334
O O15 0.250000 0.728595 0.273675
O O16 0.750000 0.500000 0.935108
O O17 0.000000 0.500000 0.000000
#
# Coordination Sequence:
#
# PCOD8211770 Si02
#       6
#     8   8   8   8   8   4
#     4   9  18  31  48  69  96 128 168 217 267 317
#     4   9  19  35  55  82 115 146 174 207 254 311
#     4  10  21  36  51  71  99 137 182 221 262 320
#     4   9  19  36  54  73 102 140 180 223 272 326
#     4  10  20  34  55  82 110 139 173 220 269 314
#     4  12  24  36  50  70  99 136 179 228 276 320
#
# _framework density 18.371203000000001
#
# number of rings (size 3 to 8) (size 9 to 14) (size 15 to 20)
#    0.000    2.364    0.000    3.545    1.273    7.273 
#    0.000    0.000    0.000    0.545    0.000    0.000 
#    0.000    0.000    0.000    0.000    0.000    0.000 
#
# Total GULP energy -545430.233350 kJ/mol
# GULP energy per Si atom -12396.141667 kJ/mol
# Density = 1.832939 g / cm^3
# Si number density = 18.371203 Si / 1000 Ang^3
#
#
#
# Elastic Constant Matrix: (Units=GPa)
#
#
# Indices 1 2 3 4 5 6 
#
# 1 80.1985 34.7230 33.4841 0.0000 0.0000 0.0000
# 2 34.7230 103.2491 42.5419 0.0000 0.0000 0.0000
# 3 33.4841 42.5419 85.7468 0.0000 0.0000 0.0000
# 4 0.0000 0.0000 0.0000 18.1409 0.0000 0.0000
# 5 0.0000 0.0000 0.0000 0.0000 30.7985 0.0000
# 6 0.0000 0.0000 0.0000 0.0000 0.0000 28.4760
#
#
#
# Elastic Compliance Matrix: (Units=1/GPa)
#
#
# Indices 1 2 3 4 5 6 
#
# 1 0.015840 -0.003492 -0.004453 0.000000 0.000000 0.000000
# 2 -0.003492 0.012944 -0.005058 0.000000 0.000000 0.000000
# 3 -0.004453 -0.005058 0.015911 0.000000 0.000000 0.000000
# 4 0.000000 0.000000 0.000000 0.055124 0.000000 0.000000
# 5 0.000000 0.000000 0.000000 0.000000 0.032469 0.000000
# 6 0.000000 0.000000 0.000000 0.000000 0.000000 0.035117
#
#
# Mechanical properties :
#
#
# Convention : Reuss Voigt Hill
#
# Bulk Modulus (GPa) = 53.51051 54.52136 54.01594
# Shear Modulus (GPa) = 25.04489 26.04611 25.54550
#
# Velocity S-wave (km/s) = 3.69625 3.76941 3.73301
# Velocity P-wave (km/s) = 6.88527 6.97758 6.93158
#
# Compressibility (1/GPa) = 0.01868792
#
# Stress axis : x y z
#
# Youngs Moduli (GPa) = 63.13002 77.25629 62.85103
#
# Poissons Ratio (x) = 0.26981 0.27987
# Poissons Ratio (y) = 0.22047 0.31791
# Poissons Ratio (z) = 0.28112 0.39077
#
# Static dielectric constant tensor:
#      x y z
#    x 3.340430 0.000000 0.000000 
#    y 0.000000 3.614370 0.000000 
#    z 0.000000 0.000000 3.260590 
# 
# 
# High freq. dielectric constant tensor:
#      x y z
#    x 1.713190 0.000000 0.000000 
#    y 0.000000 1.717460 0.000000 
#    z 0.000000 0.000000 1.685290 
# 
# From -- ./inp_files/27346.got.cif
#   From: 2010.03.12/outbox.cif.g09.slc.cpg/sg51_14_cif.got.tgz:27346.got - 2010.04.16 13:43:02.
