data_PCOD8211783
_publ_section_title
;
Structure prediction by ZEFSAII (Michael W. Deem and Ramdas Pophale) SiO2 
 PCOD8211783
Probable space group: P M M A
;
_chemical_formula_sum "Si O2"
_cell_formula_units_Z 48
_cell_length_a 30.596309
_cell_length_b 8.749475
_cell_length_c 9.390863
_cell_angle_alpha 90.000000
_cell_angle_beta 90.000000
_cell_angle_gamma 90.000000
_cell_volume 2513.949433
_symmetry_space_group_name_H-M "P M M A"
_symmetry_group_IT_number 51
_symmetry_cell_setting 'orthorhombic'
loop_
_space_group_symop_operation_xyz
x,y,z
1/2-x,-y,z
1/2+x,-y,-z
-x,y,-z
-x,-y,-z
1/2+x,y,-z
1/2-x,y,z
x,-y,z
loop_
_atom_site_type_symbol
_atom_site_label
_atom_site_fract_x
_atom_site_fract_y
_atom_site_fract_z
Si Si1 0.250000 0.829128 0.832760
Si Si2 0.384335 0.328062 0.214396
Si Si3 0.323535 0.331846 0.970538
Si Si4 0.388945 0.821741 0.774229
Si Si5 0.750000 0.321147 0.464819
Si Si6 0.049799 0.320300 0.968910
Si Si7 0.843676 0.822367 0.522243
O O1 0.250000 0.712316 0.702967
O O2 0.250000 0.000000 0.770603
O O3 0.209464 0.803675 0.935810
O O4 0.395815 0.500000 0.264569
O O5 0.337523 0.326518 0.134396
O O6 0.422393 0.266414 0.109126
O O7 0.376477 0.222921 0.351140
O O8 0.304243 0.500000 0.934051
O O9 0.365408 0.299135 0.876042
O O10 0.372666 0.780858 0.616362
O O11 0.379704 0.000000 0.806266
O O12 0.438222 0.775914 0.823161
O O13 0.750000 0.500000 0.493782
O O14 0.704314 0.256610 0.528721
O O15 0.057287 0.500000 0.942302
O O16 0.000000 0.280463 0.000000
O O17 0.833398 0.000000 0.528375
#
# Coordination Sequence:
#
# PCOD8211783 Si02
#       7
#     4   8   8   8   4   8   8
#     4  12  22  33  52  81 112 142 186 238 282 333
#     4   9  20  37  57  82 112 145 187 233 283 339
#     4  10  20  35  55  78 105 144 190 234 277 329
#     4  10  20  34  55  82 112 146 185 232 282 339
#     4  12  24  37  58  81 110 154 198 238 280 327
#     4   9  19  38  63  88 113 144 187 238 288 346
#     4  11  23  38  56  82 118 155 192 234 285 340
#
# _framework density 19.093463
#
# number of rings (size 3 to 8) (size 9 to 14) (size 15 to 20)
#    0.000    1.833    1.667    4.000    0.000    6.333 
#    0.000    1.667    0.000    5.000    0.000    0.000 
#    0.000    0.000    0.000    0.000    0.000    0.000 
#
# Total GULP energy -594642.143322 kJ/mol
# GULP energy per Si atom -12388.377986 kJ/mol
# Density = 1.905000 g / cm^3
# Si number density = 19.093463 Si / 1000 Ang^3
#
#
#
# Elastic Constant Matrix: (Units=GPa)
#
#
# Indices 1 2 3 4 5 6 
#
# 1 110.8971 30.7082 48.9912 0.0000 0.0000 0.0000
# 2 30.7082 82.5407 44.4119 0.0000 0.0000 0.0000
# 3 48.9912 44.4119 105.9380 0.0000 0.0000 0.0000
# 4 0.0000 0.0000 0.0000 30.2132 0.0000 0.0000
# 5 0.0000 0.0000 0.0000 0.0000 49.8048 0.0000
# 6 0.0000 0.0000 0.0000 0.0000 0.0000 28.5131
#
#
#
# Elastic Compliance Matrix: (Units=1/GPa)
#
#
# Indices 1 2 3 4 5 6 
#
# 1 0.011544 -0.001837 -0.004569 0.000000 0.000000 0.000000
# 2 -0.001837 0.015936 -0.005832 0.000000 0.000000 0.000000
# 3 -0.004569 -0.005832 0.013997 0.000000 0.000000 0.000000
# 4 0.000000 0.000000 0.000000 0.033098 0.000000 0.000000
# 5 0.000000 0.000000 0.000000 0.000000 0.020078 0.000000
# 6 0.000000 0.000000 0.000000 0.000000 0.000000 0.035072
#
#
# Mechanical properties :
#
#
# Convention : Reuss Voigt Hill
#
# Bulk Modulus (GPa) = 58.81045 60.84428 59.82736
# Shear Modulus (GPa) = 31.27594 33.39051 32.33322
#
# Velocity S-wave (km/s) = 4.05167 4.18639 4.11958
# Velocity P-wave (km/s) = 7.26335 7.43664 7.35050
#
# Compressibility (1/GPa) = 0.01700378
#
# Stress axis : x y z
#
# Youngs Moduli (GPa) = 86.62309 62.75000 71.44388
#
# Poissons Ratio (x) = 0.11525 0.32640
# Poissons Ratio (y) = 0.15910 0.41663
# Poissons Ratio (z) = 0.39575 0.36593
#
# Static dielectric constant tensor:
#      x y z
#    x 3.152940 0.000000 0.000000 
#    y 0.000000 3.436510 0.000000 
#    z 0.000000 0.000000 3.451600 
# 
# 
# High freq. dielectric constant tensor:
#      x y z
#    x 1.735150 0.000000 0.000000 
#    y 0.000000 1.746200 0.000000 
#    z 0.000000 0.000000 1.730600 
# 
# From -- ./inp_files/12919.got.cif
#   From: 2010.03.12/outbox.cif.g09.slc.cpg/sg51_7_cif.got.tgz:12919.got - 2010.04.16 13:43:02.
