data_PCOD8211695
_publ_section_title
;
Structure prediction by ZEFSAII (Michael W. Deem and Ramdas Pophale) SiO2 
 PCOD8211695
Probable space group: P M M A
;
_chemical_formula_sum "Si O2"
_cell_formula_units_Z 48
_cell_length_a 8.895294
_cell_length_b 14.174946
_cell_length_c 20.728995
_cell_angle_alpha 90.000000
_cell_angle_beta 90.000000
_cell_angle_gamma 90.000000
_cell_volume 2613.725449
_symmetry_space_group_name_H-M "P M M A"
_symmetry_group_IT_number 51
_symmetry_cell_setting 'orthorhombic'
loop_
_space_group_symop_operation_xyz
x,y,z
1/2-x,-y,z
1/2+x,-y,-z
-x,y,-z
-x,-y,-z
1/2+x,y,-z
1/2-x,y,z
x,-y,z
loop_
_atom_site_type_symbol
_atom_site_label
_atom_site_fract_x
_atom_site_fract_y
_atom_site_fract_z
Si Si1 0.073298 0.218967 0.064319
Si Si2 0.425004 0.890248 0.193181
Si Si3 0.072084 0.781186 0.690337
Si Si4 0.925484 0.607261 0.122488
Si Si5 0.075089 0.393469 0.259602
Si Si6 0.572894 0.107370 0.434946
O O1 0.250000 0.226194 0.054860
O O2 0.029390 0.152866 0.124253
O O3 0.007027 0.324041 0.072596
O O4 0.000000 0.174357 0.000000
O O5 0.250000 0.872505 0.207808
O O6 0.522331 0.840760 0.247897
O O7 0.465399 0.000000 0.192005
O O8 0.250000 0.769835 0.691586
O O9 0.015709 0.833053 0.625913
O O10 0.995391 0.678138 0.688722
O O11 0.750000 0.630719 0.125371
O O12 0.955450 0.500000 0.100181
O O13 0.993429 0.625639 0.192567
O O14 0.250000 0.371973 0.249387
O O15 0.048037 0.500000 0.284318
O O16 0.500000 0.149134 0.500000
O O17 0.750000 0.113651 0.442264
O O18 0.519147 0.000000 0.424041
#
# Coordination Sequence:
#
# PCOD8211695 Si02
#       6
#     8   8   8   8   8   8
#     4  11  23  38  56  77 106 143 183 228 277 330
#     4  10  22  39  57  79 107 141 184 229 273 326
#     4  11  21  34  57  86 115 145 182 227 273 322
#     4  10  20  35  56  81 108 138 175 222 276 331
#     4  10  20  34  54  81 112 145 181 222 270 325
#     4   9  19  35  54  81 116 151 186 223 267 320
#
# _framework density 18.364591999999998
#
# number of rings (size 3 to 8) (size 9 to 14) (size 15 to 20)
#    0.000    1.833    1.667    2.500    0.000    5.667 
#    0.000    1.667    0.000    0.500    0.000    0.000 
#    0.000    0.000    0.000    0.000    0.000    0.000 
#
# Total GULP energy -595366.505623 kJ/mol
# GULP energy per Si atom -12403.468867 kJ/mol
# Density = 1.832279 g / cm^3
# Si number density = 18.364592 Si / 1000 Ang^3
#
#
#
# Elastic Constant Matrix: (Units=GPa)
#
#
# Indices 1 2 3 4 5 6 
#
# 1 66.6929 35.8766 44.5639 0.0000 0.0000 0.0000
# 2 35.8766 107.1033 55.9486 0.0000 0.0000 0.0000
# 3 44.5639 55.9486 123.5206 0.0000 0.0000 0.0000
# 4 0.0000 0.0000 0.0000 36.5200 0.0000 0.0000
# 5 0.0000 0.0000 0.0000 0.0000 32.5388 0.0000
# 6 0.0000 0.0000 0.0000 0.0000 0.0000 28.4390
#
#
#
# Elastic Compliance Matrix: (Units=1/GPa)
#
#
# Indices 1 2 3 4 5 6 
#
# 1 0.021007 -0.004032 -0.005753 0.000000 0.000000 0.000000
# 2 -0.004032 0.013004 -0.004436 0.000000 0.000000 0.000000
# 3 -0.005753 -0.004436 0.012181 0.000000 0.000000 0.000000
# 4 0.000000 0.000000 0.000000 0.027382 0.000000 0.000000
# 5 0.000000 0.000000 0.000000 0.000000 0.030733 0.000000
# 6 0.000000 0.000000 0.000000 0.000000 0.000000 0.035163
#
#
# Mechanical properties :
#
#
# Convention : Reuss Voigt Hill
#
# Bulk Modulus (GPa) = 56.33351 63.34389 59.83870
# Shear Modulus (GPa) = 28.76423 30.22807 29.49615
#
# Velocity S-wave (km/s) = 3.96193 4.06149 4.01202
# Velocity P-wave (km/s) = 7.18824 7.52074 7.35637
#
# Compressibility (1/GPa) = 0.01775142
#
# Stress axis : x y z
#
# Youngs Moduli (GPa) = 47.60361 76.89684 82.09835
#
# Poissons Ratio (x) = 0.31002 0.47229
# Poissons Ratio (y) = 0.19192 0.36418
# Poissons Ratio (z) = 0.27385 0.34110
#
# Static dielectric constant tensor:
#      x y z
#    x 3.406890 0.000000 0.000000 
#    y 0.000000 3.580510 0.000000 
#    z 0.000000 0.000000 3.356440 
# 
# 
# High freq. dielectric constant tensor:
#      x y z
#    x 1.721020 0.000000 0.000000 
#    y 0.000000 1.715580 0.000000 
#    z 0.000000 0.000000 1.698500 
# 
# From -- ./inp_files/27512.got.cif
#   From: 2010.03.12/outbox.cif.g09.slc.cpg/sg51_14_cif.got.tgz:27512.got - 2010.04.16 13:43:02.
