data_PCOD8211562
_publ_section_title
;
Structure prediction by ZEFSAII (Michael W. Deem and Ramdas Pophale) SiO2 
 PCOD8211562
Probable space group: P M M A
;
_chemical_formula_sum "Si O2"
_cell_formula_units_Z 56
_cell_length_a 23.021837
_cell_length_b 8.968455
_cell_length_c 15.301613
_cell_angle_alpha 90.000000
_cell_angle_beta 90.000000
_cell_angle_gamma 90.000000
_cell_volume 3159.328767
_symmetry_space_group_name_H-M "P M M A"
_symmetry_group_IT_number 51
_symmetry_cell_setting 'orthorhombic'
loop_
_space_group_symop_operation_xyz
x,y,z
1/2-x,-y,z
1/2+x,-y,-z
-x,y,-z
-x,-y,-z
1/2+x,y,-z
1/2-x,y,z
x,-y,z
loop_
_atom_site_type_symbol
_atom_site_label
_atom_site_fract_x
_atom_site_fract_y
_atom_site_fract_z
Si Si1 0.250000 0.670385 0.075800
Si Si2 0.927456 0.327166 0.663534
Si Si3 0.750000 0.822873 0.109005
Si Si4 0.867513 0.323346 0.151769
Si Si5 0.431164 0.831866 0.508137
Si Si6 0.432141 0.827969 0.004962
Si Si7 0.440629 0.324829 0.681146
Si Si8 0.127826 0.328440 0.156902
O O1 0.250000 0.500000 0.041452
O O2 0.305153 0.703337 0.136348
O O3 0.250000 0.777492 0.992610
O O4 0.928759 0.500000 0.639333
O O5 0.903654 0.242257 0.578160
O O6 0.883354 0.290884 0.741847
O O7 0.992292 0.274608 0.691146
O O8 0.694260 0.757407 0.158551
O O9 0.750000 0.000000 0.115491
O O10 0.858167 0.500000 0.149900
O O11 0.899242 0.276197 0.063255
O O12 0.906284 0.270314 0.233361
O O13 0.500000 0.819794 0.500000
O O14 0.411034 0.748856 0.596123
O O15 0.408839 0.000000 0.513708
O O16 0.416184 0.000000 0.987099
O O17 0.500000 0.798782 0.000000
O O18 0.412403 0.780786 0.101131
O O19 0.435182 0.500000 0.669683
O O20 0.110702 0.500000 0.137140
#
# Coordination Sequence:
#
# PCOD8211562 Si02
#       8
#     4   8   4   8   8   8   8   8
#     4  10  20  36  56  77 100 135 182 225 260 304
#     4   9  17  31  51  77 106 137 173 215 264 315
#     4  12  24  38  56  77 104 139 180 223 272 318
#     4  11  22  37  57  78 103 138 182 225 264 312
#     4   9  17  29  48  75 106 138 169 208 261 319
#     4  11  23  35  49  75 110 142 171 212 268 322
#     4   9  18  32  52  77 104 135 173 216 262 314
#     4  10  20  34  54  76 102 137 179 222 261 309
#
# _framework density 17.725283999999998
#
# number of rings (size 3 to 8) (size 9 to 14) (size 15 to 20)
#    0.000    2.000    1.429    2.786    0.000    5.714 
#    0.000    2.857    0.000    0.857    0.000    5.000 
#    0.000    0.000    0.000    0.000    0.000    0.000 
#
# Total GULP energy -694555.459784 kJ/mol
# GULP energy per Si atom -12402.776068 kJ/mol
# Density = 1.768494 g / cm^3
# Si number density = 17.725284 Si / 1000 Ang^3
#
#
#
# Elastic Constant Matrix: (Units=GPa)
#
#
# Indices 1 2 3 4 5 6 
#
# 1 66.0125 28.5789 20.0312 0.0000 0.0000 0.0000
# 2 28.5789 62.1255 25.2195 0.0000 0.0000 0.0000
# 3 20.0312 25.2195 87.6708 0.0000 0.0000 0.0000
# 4 0.0000 0.0000 0.0000 14.3243 0.0000 0.0000
# 5 0.0000 0.0000 0.0000 0.0000 15.2480 0.0000
# 6 0.0000 0.0000 0.0000 0.0000 0.0000 18.9812
#
#
#
# Elastic Compliance Matrix: (Units=1/GPa)
#
#
# Indices 1 2 3 4 5 6 
#
# 1 0.019250 -0.008005 -0.002096 0.000000 0.000000 0.000000
# 2 -0.008005 0.021553 -0.004371 0.000000 0.000000 0.000000
# 3 -0.002096 -0.004371 0.013143 0.000000 0.000000 0.000000
# 4 0.000000 0.000000 0.000000 0.069812 0.000000 0.000000
# 5 0.000000 0.000000 0.000000 0.000000 0.065582 0.000000
# 6 0.000000 0.000000 0.000000 0.000000 0.000000 0.052684
#
#
# Mechanical properties :
#
#
# Convention : Reuss Voigt Hill
#
# Bulk Modulus (GPa) = 39.99533 40.38531 40.19032
# Shear Modulus (GPa) = 17.90188 19.17599 18.53893
#
# Velocity S-wave (km/s) = 3.18144 3.29271 3.23755
# Velocity P-wave (km/s) = 6.00903 6.10650 6.05796
#
# Compressibility (1/GPa) = 0.02500292
#
# Stress axis : x y z
#
# Youngs Moduli (GPa) = 51.94799 46.39689 76.08897
#
# Poissons Ratio (x) = 0.37139 0.15946
# Poissons Ratio (y) = 0.41583 0.33259
# Poissons Ratio (z) = 0.10886 0.20280
#
# Static dielectric constant tensor:
#      x y z
#    x 3.033840 0.000000 0.000000 
#    y 0.000000 3.307060 0.000000 
#    z 0.000000 0.000000 3.361270 
# 
# 
# High freq. dielectric constant tensor:
#      x y z
#    x 1.662840 0.000000 0.000000 
#    y 0.000000 1.688630 0.000000 
#    z 0.000000 0.000000 1.689110 
# 
# From -- ./inp_files/25901.got.cif
#   From: 2010.03.12/outbox.cif.g09.slc.cpg/sg51_13_cif.got.tgz:25901.got - 2010.04.16 13:43:02.
