data_PCOD8211038
_publ_section_title
;
Structure prediction by ZEFSAII (Michael W. Deem and Ramdas Pophale) SiO2 
 PCOD8211038
Probable space group: P M M A
;
_chemical_formula_sum "Si O2"
_cell_formula_units_Z 48
_cell_length_a 13.634817
_cell_length_b 8.655885
_cell_length_c 20.782273
_cell_angle_alpha 90.000000
_cell_angle_beta 90.000000
_cell_angle_gamma 90.000000
_cell_volume 2452.753120
_symmetry_space_group_name_H-M "P M M A"
_symmetry_group_IT_number 51
_symmetry_cell_setting 'orthorhombic'
loop_
_space_group_symop_operation_xyz
x,y,z
1/2-x,-y,z
1/2+x,-y,-z
-x,y,-z
-x,-y,-z
1/2+x,y,-z
1/2-x,y,z
x,-y,z
loop_
_atom_site_type_symbol
_atom_site_label
_atom_site_fract_x
_atom_site_fract_y
_atom_site_fract_z
Si Si1 0.360986 0.180630 0.472366
Si Si2 0.960928 0.319154 0.406775
Si Si3 0.640011 0.678418 0.909493
Si Si4 0.863256 0.179265 0.284707
Si Si5 0.046708 0.676549 0.837841
Si Si6 0.133853 0.826488 0.959813
O O1 0.250000 0.219703 0.451617
O O2 0.384272 0.264751 0.539356
O O3 0.433605 0.237808 0.416379
O O4 0.376126 0.000000 0.483881
O O5 0.977252 0.500000 0.413057
O O6 0.919476 0.279773 0.337173
O O7 0.750000 0.732334 0.890630
O O8 0.639439 0.500000 0.930212
O O9 0.569933 0.705490 0.847763
O O10 0.596114 0.774278 0.969722
O O11 0.750000 0.230166 0.282159
O O12 0.912487 0.209146 0.216016
O O13 0.873205 0.000000 0.302338
O O14 0.068105 0.500000 0.817615
O O15 0.098512 0.709590 0.905376
O O16 0.250000 0.818534 0.961116
O O17 0.096427 0.000000 0.945634
#
# Coordination Sequence:
#
# PCOD8211038 Si02
#       6
#     8   8   8   8   8   8
#     4  10  20  36  60  88 119 154 190 229 272 319
#     4  11  22  36  58  87 118 151 187 230 277 324
#     4   9  19  36  55  75 102 136 174 218 269 323
#     4  11  24  41  59  79 108 146 184 223 271 329
#     4  11  22  35  54  79 105 137 178 223 272 324
#     4  10  20  33  51  77 107 138 173 216 268 323
#
# _framework density 19.569846999999999
#
# number of rings (size 3 to 8) (size 9 to 14) (size 15 to 20)
#    0.000    1.667    0.000    6.000    0.000   11.000 
#    0.000    0.833    0.000    3.000    0.000    0.000 
#    0.000    0.000    0.000    0.000    0.000    0.000 
#
# Total GULP energy -595369.386127 kJ/mol
# GULP energy per Si atom -12403.528878 kJ/mol
# Density = 1.952531 g / cm^3
# Si number density = 19.569847 Si / 1000 Ang^3
#
#
#
# Elastic Constant Matrix: (Units=GPa)
#
#
# Indices 1 2 3 4 5 6 
#
# 1 104.0350 28.6452 52.5249 0.0000 0.0000 0.0000
# 2 28.6452 56.5152 11.4068 0.0000 0.0000 0.0000
# 3 52.5249 11.4068 81.0746 0.0000 0.0000 0.0000
# 4 0.0000 0.0000 0.0000 34.5760 0.0000 0.0000
# 5 0.0000 0.0000 0.0000 0.0000 26.4349 0.0000
# 6 0.0000 0.0000 0.0000 0.0000 0.0000 22.5095
#
#
#
# Elastic Compliance Matrix: (Units=1/GPa)
#
#
# Indices 1 2 3 4 5 6 
#
# 1 0.016187 -0.006266 -0.009605 0.000000 0.000000 0.000000
# 2 -0.006266 0.020637 0.001156 0.000000 0.000000 0.000000
# 3 -0.009605 0.001156 0.018395 0.000000 0.000000 0.000000
# 4 0.000000 0.000000 0.000000 0.028922 0.000000 0.000000
# 5 0.000000 0.000000 0.000000 0.000000 0.037829 0.000000
# 6 0.000000 0.000000 0.000000 0.000000 0.000000 0.044426
#
#
# Mechanical properties :
#
#
# Convention : Reuss Voigt Hill
#
# Bulk Modulus (GPa) = 38.77781 47.41985 43.09883
# Shear Modulus (GPa) = 24.45935 26.64061 25.54998
#
# Velocity S-wave (km/s) = 3.53916 3.69360 3.61720
# Velocity P-wave (km/s) = 6.04640 6.51720 6.28621
#
# Compressibility (1/GPa) = 0.02578794
#
# Stress axis : x y z
#
# Youngs Moduli (GPa) = 61.77867 48.45690 54.36398
#
# Poissons Ratio (x) = 0.30362 0.52218
# Poissons Ratio (y) = 0.38709 -0.06283
# Poissons Ratio (z) = 0.59340 -0.05601
#
# Static dielectric constant tensor:
#      x y z
#    x 3.827860 0.000000 0.000000 
#    y 0.000000 3.672120 0.000000 
#    z 0.000000 0.000000 3.326120 
# 
# 
# High freq. dielectric constant tensor:
#      x y z
#    x 1.776340 0.000000 0.000000 
#    y 0.000000 1.772730 0.000000 
#    z 0.000000 0.000000 1.740280 
# 
# From -- ./inp_files/29481.got.cif
#   From: 2010.03.12/outbox.cif.g09.slc.cpg/sg51_15_cif.got.tgz:29481.got - 2010.04.16 13:43:02.
