data_PCOD8211571
_publ_section_title
;
Structure prediction by ZEFSAII (Michael W. Deem and Ramdas Pophale) SiO2 
 PCOD8211571
Probable space group: P M M A
;
_chemical_formula_sum "Si O2"
_cell_formula_units_Z 40
_cell_length_a 16.308715
_cell_length_b 22.736777
_cell_length_c 5.154187
_cell_angle_alpha 90.000000
_cell_angle_beta 90.000000
_cell_angle_gamma 90.000000
_cell_volume 1911.211794
_symmetry_space_group_name_H-M "P M M A"
_symmetry_group_IT_number 51
_symmetry_cell_setting 'orthorhombic'
loop_
_space_group_symop_operation_xyz
x,y,z
1/2-x,-y,z
1/2+x,-y,-z
-x,y,-z
-x,-y,-z
1/2+x,y,-z
1/2-x,y,z
x,-y,z
loop_
_atom_site_type_symbol
_atom_site_label
_atom_site_fract_x
_atom_site_fract_y
_atom_site_fract_z
Si Si1 0.094040 0.874047 0.546126
Si Si2 0.652393 0.566076 0.683653
Si Si3 0.903374 0.066984 0.957234
Si Si4 0.847288 0.364207 0.183142
Si Si5 0.052563 0.749926 0.742762
O O1 0.134424 0.890753 0.268704
O O2 0.101727 0.806091 0.631050
O O3 0.000000 0.892101 0.500000
O O4 0.136745 0.913261 0.769843
O O5 0.750000 0.563578 0.685719
O O6 0.616591 0.500000 0.683494
O O7 0.620368 0.600240 0.431598
O O8 0.619701 0.600554 0.934293
O O9 0.880801 0.000000 0.890495
O O10 0.000000 0.076135 0.000000
O O11 0.750000 0.358645 0.182718
O O12 0.882942 0.299013 0.173186
O O13 0.000000 0.725486 0.500000
O O14 0.000000 0.767540 0.000000
#
# Coordination Sequence:
#
# PCOD8211571 Si02
#       5
#     8   8   8   8   8
#     4   9  16  26  39  59  87 122 157 187 231 288
#     4   9  17  31  53  78 100 124 158 202 248 289
#     4   9  15  23  37  58  86 118 152 193 238 280
#     4  10  20  34  54  78 100 125 164 207 240 281
#     4  11  21  34  51  70 100 137 166 195 239 296
#
# _framework density 20.929131999999999
#
# number of rings (size 3 to 8) (size 9 to 14) (size 15 to 20)
#    0.000    2.400    0.000    5.400    0.000    4.800 
#    0.000    0.000    0.000   12.000    0.000    0.000 
#    0.000    4.800    0.000    0.000    0.000    7.800 
#
# Total GULP energy -495739.792617 kJ/mol
# GULP energy per Si atom -12393.494815 kJ/mol
# Density = 2.088150 g / cm^3
# Si number density = 20.929132 Si / 1000 Ang^3
#
#
#
# Elastic Constant Matrix: (Units=GPa)
#
#
# Indices 1 2 3 4 5 6 
#
# 1 8.5230 18.6674 9.6211 0.0000 0.0000 0.0000
# 2 18.6674 178.0504 93.5110 0.0000 0.0000 0.0000
# 3 9.6211 93.5110 188.9486 0.0000 0.0000 0.0000
# 4 0.0000 0.0000 0.0000 44.2032 0.0000 0.0000
# 5 0.0000 0.0000 0.0000 0.0000 4.7090 0.0000
# 6 0.0000 0.0000 0.0000 0.0000 0.0000 -4.4069
#
#
#
# Elastic Compliance Matrix: (Units=1/GPa)
#
#
# Indices 1 2 3 4 5 6 
#
# 1 0.152309 -0.016073 0.000199 0.000000 0.000000 0.000000
# 2 -0.016073 0.009285 -0.003777 0.000000 0.000000 0.000000
# 3 0.000199 -0.003777 0.007151 0.000000 0.000000 0.000000
# 4 0.000000 0.000000 0.000000 0.022623 0.000000 0.000000
# 5 0.000000 0.000000 0.000000 0.000000 0.212360 0.000000
# 6 0.000000 0.000000 0.000000 0.000000 0.000000 -0.226915
#
#
# Mechanical properties :
#
#
# Convention : Reuss Voigt Hill
#
# Bulk Modulus (GPa) = 7.72536 68.79122 38.25829
# Shear Modulus (GPa) = 19.28550 25.81590 22.55070
#
# Velocity S-wave (km/s) = 3.03886 3.51592 3.28606
# Velocity P-wave (km/s) = 4.00151 7.03010 5.71989
#
# Compressibility (1/GPa) = 0.12944378
#
# Stress axis : x y z
#
# Youngs Moduli (GPa) = 6.56561 107.69944 139.83215
#
# Poissons Ratio (x) = 1.73108 -0.02786
# Poissons Ratio (y) = 0.10553 0.52812
# Poissons Ratio (z) = -0.00131 0.40676
#
# Static dielectric constant tensor:
#      x y z
#    x 2.948460 0.000000 0.000000 
#    y 0.000000 3.738670 0.000000 
#    z 0.000000 0.000000 4.402820 
# 
# 
# High freq. dielectric constant tensor:
#      x y z
#    x 1.735790 0.000000 0.000000 
#    y 0.000000 1.829450 0.000000 
#    z 0.000000 0.000000 1.851320 
# 
# From -- ./inp_files/2005.got.cif
#   From: 2010.03.12/outbox.cif.g09.slc.cpg/sg51_2_cif.got.tgz:2005.got - 2010.04.16 13:43:02.
