data_PCOD8211633
_publ_section_title
;
Structure prediction by ZEFSAII (Michael W. Deem and Ramdas Pophale) SiO2 
 PCOD8211633
Probable space group: P M M A
;
_chemical_formula_sum "Si O2"
_cell_formula_units_Z 48
_cell_length_a 18.811408
_cell_length_b 9.550981
_cell_length_c 15.000466
_cell_angle_alpha 90.000000
_cell_angle_beta 90.000000
_cell_angle_gamma 90.000000
_cell_volume 2695.094731
_symmetry_space_group_name_H-M "P M M A"
_symmetry_group_IT_number 51
_symmetry_cell_setting 'orthorhombic'
loop_
_space_group_symop_operation_xyz
x,y,z
1/2-x,-y,z
1/2+x,-y,-z
-x,y,-z
-x,-y,-z
1/2+x,y,-z
1/2-x,y,z
x,-y,z
loop_
_atom_site_type_symbol
_atom_site_label
_atom_site_fract_x
_atom_site_fract_y
_atom_site_fract_z
Si Si1 0.576426 0.337058 0.536382
Si Si2 0.832459 0.162946 0.406271
Si Si3 0.331256 0.338374 0.109838
Si Si4 0.557563 0.338266 0.740230
Si Si5 0.418487 0.835589 0.768401
Si Si6 0.332161 0.837962 0.942279
O O1 0.500000 0.287819 0.500000
O O2 0.588855 0.500000 0.515830
O O3 0.638244 0.250104 0.489285
O O4 0.581449 0.302259 0.640455
O O5 0.750000 0.197705 0.392994
O O6 0.872843 0.210273 0.317035
O O7 0.844781 0.000000 0.426254
O O8 0.250000 0.298532 0.131782
O O9 0.338953 0.500000 0.083460
O O10 0.376265 0.301211 0.197017
O O11 0.360228 0.249380 0.026604
O O12 0.534692 0.500000 0.747858
O O13 0.492167 0.244831 0.770289
O O14 0.375450 0.790644 0.855844
O O15 0.434028 0.000000 0.767064
O O16 0.250000 0.805229 0.922667
O O17 0.344449 0.000000 0.964298
#
# Coordination Sequence:
#
# PCOD8211633 Si02
#       6
#     8   8   8   8   8   8
#     4  10  20  36  56  78 106 141 180 220 264 316
#     4  10  21  36  55  81 110 140 177 220 265 317
#     4   9  19  36  55  75 101 136 177 218 262 312
#     4  10  21  36  55  78 106 139 175 218 265 315
#     4  10  20  34  54  79 108 141 174 212 262 319
#     4   9  18  34  55  77 104 139 176 216 261 308
#
# _framework density 17.810134999999999
#
# number of rings (size 3 to 8) (size 9 to 14) (size 15 to 20)
#    0.000    2.333    1.667    0.500    0.000    6.000 
#    0.000    5.000    0.000    5.000    0.000    0.000 
#    0.000    0.000    0.000    0.000    0.000    0.000 
#
# Total GULP energy -595400.231213 kJ/mol
# GULP energy per Si atom -12404.171484 kJ/mol
# Density = 1.776960 g / cm^3
# Si number density = 17.810135 Si / 1000 Ang^3
#
#
#
# Elastic Constant Matrix: (Units=GPa)
#
#
# Indices 1 2 3 4 5 6 
#
# 1 98.0912 47.5461 70.1706 0.0000 0.0000 0.0000
# 2 47.5461 50.5046 58.4731 0.0000 0.0000 0.0000
# 3 70.1706 58.4731 156.6816 0.0000 0.0000 0.0000
# 4 0.0000 0.0000 0.0000 32.9510 0.0000 0.0000
# 5 0.0000 0.0000 0.0000 0.0000 35.5127 0.0000
# 6 0.0000 0.0000 0.0000 0.0000 0.0000 27.8816
#
#
#
# Elastic Compliance Matrix: (Units=1/GPa)
#
#
# Indices 1 2 3 4 5 6 
#
# 1 0.019700 -0.014670 -0.003348 0.000000 0.000000 0.000000
# 2 -0.014670 0.045788 -0.010518 0.000000 0.000000 0.000000
# 3 -0.003348 -0.010518 0.011807 0.000000 0.000000 0.000000
# 4 0.000000 0.000000 0.000000 0.030348 0.000000 0.000000
# 5 0.000000 0.000000 0.000000 0.000000 0.028159 0.000000
# 6 0.000000 0.000000 0.000000 0.000000 0.000000 0.035866
#
#
# Mechanical properties :
#
#
# Convention : Reuss Voigt Hill
#
# Bulk Modulus (GPa) = 49.44718 73.07300 61.26009
# Shear Modulus (GPa) = 21.23297 27.87489 24.55393
#
# Velocity S-wave (km/s) = 3.45655 3.96044 3.71704
# Velocity P-wave (km/s) = 6.61469 7.87600 7.27274
#
# Compressibility (1/GPa) = 0.02022360
#
# Stress axis : x y z
#
# Youngs Moduli (GPa) = 50.76022 21.83956 84.69428
#
# Poissons Ratio (x) = 0.32039 0.28357
# Poissons Ratio (y) = 0.74465 0.89082
# Poissons Ratio (z) = 0.16995 0.22971
#
# Static dielectric constant tensor:
#      x y z
#    x 3.258150 0.000000 0.000000 
#    y 0.000000 3.249860 0.000000 
#    z 0.000000 0.000000 3.437480 
# 
# 
# High freq. dielectric constant tensor:
#      x y z
#    x 1.688610 0.000000 0.000000 
#    y 0.000000 1.684260 0.000000 
#    z 0.000000 0.000000 1.699190 
# 
# From -- ./inp_files/17279.got.cif
#   From: 2010.03.12/outbox.cif.g09.slc.cpg/sg51_9_cif.got.tgz:17279.got - 2010.04.16 13:43:02.
