data_PCOD8211736
_publ_section_title
;
Structure prediction by ZEFSAII (Michael W. Deem and Ramdas Pophale) SiO2 
 PCOD8211736
Probable space group: P M M A
;
_chemical_formula_sum "Si O2"
_cell_formula_units_Z 56
_cell_length_a 9.045864
_cell_length_b 18.666422
_cell_length_c 19.144160
_cell_angle_alpha 90.000000
_cell_angle_beta 90.000000
_cell_angle_gamma 90.000000
_cell_volume 3232.566361
_symmetry_space_group_name_H-M "P M M A"
_symmetry_group_IT_number 51
_symmetry_cell_setting 'orthorhombic'
loop_
_space_group_symop_operation_xyz
x,y,z
1/2-x,-y,z
1/2+x,-y,-z
-x,y,-z
-x,-y,-z
1/2+x,y,-z
1/2-x,y,z
x,-y,z
loop_
_atom_site_type_symbol
_atom_site_label
_atom_site_fract_x
_atom_site_fract_y
_atom_site_fract_z
Si Si1 0.074966 0.703168 0.927266
Si Si2 0.423448 0.211050 0.795777
Si Si3 0.920298 0.418081 0.841876
Si Si4 0.424072 0.149419 0.569324
Si Si5 0.577749 0.686451 0.431795
Si Si6 0.424341 0.647630 0.719067
Si Si7 0.426356 0.920541 0.712067
O O1 0.250000 0.694108 0.936409
O O2 0.034822 0.769203 0.875479
O O3 0.011886 0.629180 0.896756
O O4 0.000000 0.722349 0.000000
O O5 0.250000 0.205274 0.786836
O O6 0.478127 0.274289 0.744996
O O7 0.490685 0.134785 0.770582
O O8 0.750000 0.393362 0.841957
O O9 0.935387 0.500000 0.865894
O O10 0.986528 0.410991 0.763638
O O11 0.500000 0.117513 0.500000
O O12 0.250000 0.142565 0.560304
O O13 0.472917 0.231770 0.580270
O O14 0.480515 0.104449 0.635720
O O15 0.500000 0.652807 0.500000
O O16 0.750000 0.682936 0.445879
O O17 0.536132 0.640479 0.362898
O O18 0.250000 0.637195 0.732604
O O19 0.250000 0.921190 0.713641
O O20 0.488958 0.000000 0.727941
#
# Coordination Sequence:
#
# PCOD8211736 Si02
#       7
#     8   8   8   8   8   8   8
#     4  10  20  34  55  77 100 128 157 190 228 272
#     4   8  14  27  45  66  91 120 156 198 235 273
#     4  10  21  35  51  75 105 130 153 185 226 277
#     4   9  16  26  40  60  90 124 159 199 242 285
#     4   9  16  26  42  64  91 122 159 206 250 286
#     4   9  16  29  49  68  91 126 165 203 240 280
#     4   9  15  24  42  66  91 123 163 203 240 280
#
# _framework density 17.323696000000002
#
# number of rings (size 3 to 8) (size 9 to 14) (size 15 to 20)
#    0.000    2.857    1.429    1.714    0.000    2.286 
#    0.000    0.000    0.000    0.857    0.000    0.000 
#    0.000    0.000    0.000    0.000    0.000    0.571 
#
# Total GULP energy -694088.758677 kJ/mol
# GULP energy per Si atom -12394.442119 kJ/mol
# Density = 1.728427 g / cm^3
# Si number density = 17.323696 Si / 1000 Ang^3
#
#
#
# Elastic Constant Matrix: (Units=GPa)
#
#
# Indices 1 2 3 4 5 6 
#
# 1 49.3960 23.4878 46.2308 0.0000 0.0000 0.0000
# 2 23.4878 67.4121 41.9822 0.0000 0.0000 0.0000
# 3 46.2308 41.9822 128.6834 0.0000 0.0000 0.0000
# 4 0.0000 0.0000 0.0000 20.4894 0.0000 0.0000
# 5 0.0000 0.0000 0.0000 0.0000 30.4951 0.0000
# 6 0.0000 0.0000 0.0000 0.0000 0.0000 13.0198
#
#
#
# Elastic Compliance Matrix: (Units=1/GPa)
#
#
# Indices 1 2 3 4 5 6 
#
# 1 0.031774 -0.004972 -0.009793 0.000000 0.000000 0.000000
# 2 -0.004972 0.019395 -0.004541 0.000000 0.000000 0.000000
# 3 -0.009793 -0.004541 0.012771 0.000000 0.000000 0.000000
# 4 0.000000 0.000000 0.000000 0.048806 0.000000 0.000000
# 5 0.000000 0.000000 0.000000 0.000000 0.032792 0.000000
# 6 0.000000 0.000000 0.000000 0.000000 0.000000 0.076806
#
#
# Mechanical properties :
#
#
# Convention : Reuss Voigt Hill
#
# Bulk Modulus (GPa) = 39.48326 52.09923 45.79124
# Shear Modulus (GPa) = 18.55984 21.72023 20.14003
#
# Velocity S-wave (km/s) = 3.27671 3.54473 3.41335
# Velocity P-wave (km/s) = 6.09563 6.84783 6.48265
#
# Compressibility (1/GPa) = 0.02532719
#
# Stress axis : x y z
#
# Youngs Moduli (GPa) = 31.47186 51.56092 78.30349
#
# Poissons Ratio (x) = 0.25636 0.76684
# Poissons Ratio (y) = 0.15648 0.35559
# Poissons Ratio (z) = 0.30821 0.23414
#
# Static dielectric constant tensor:
#      x y z
#    x 2.978380 0.000000 0.000000 
#    y 0.000000 3.224290 0.000000 
#    z 0.000000 0.000000 3.412150 
# 
# 
# High freq. dielectric constant tensor:
#      x y z
#    x 1.641710 0.000000 0.000000 
#    y 0.000000 1.643730 0.000000 
#    z 0.000000 0.000000 1.671340 
# 
# From -- ./inp_files/32261.got.cif
#   From: 2010.03.12/outbox.cif.g09.slc.cpg/sg51_17_cif.got.tgz:32261.got - 2010.04.16 13:43:02.
