data_PCOD8211393
_publ_section_title
;
Structure prediction by ZEFSAII (Michael W. Deem and Ramdas Pophale) SiO2 
 PCOD8211393
Probable space group: P M M A
;
_chemical_formula_sum "Si O2"
_cell_formula_units_Z 64
_cell_length_a 19.345091
_cell_length_b 9.427979
_cell_length_c 20.099591
_cell_angle_alpha 90.000000
_cell_angle_beta 90.000000
_cell_angle_gamma 90.000000
_cell_volume 3665.866150
_symmetry_space_group_name_H-M "P M M A"
_symmetry_group_IT_number 51
_symmetry_cell_setting 'orthorhombic'
loop_
_space_group_symop_operation_xyz
x,y,z
1/2-x,-y,z
1/2+x,-y,-z
-x,y,-z
-x,-y,-z
1/2+x,y,-z
1/2-x,y,z
x,-y,z
loop_
_atom_site_type_symbol
_atom_site_label
_atom_site_fract_x
_atom_site_fract_y
_atom_site_fract_z
Si Si1 0.564090 0.834307 0.244109
Si Si2 0.069275 0.337007 0.243952
Si Si3 0.576038 0.333838 0.602819
Si Si4 0.671313 0.335268 0.870783
Si Si5 0.169841 0.835800 0.492820
Si Si6 0.939764 0.836485 0.395924
Si Si7 0.673480 0.831024 0.138943
Si Si8 0.167561 0.157894 0.006516
O O1 0.494723 0.757471 0.221791
O O2 0.582248 0.800100 0.320623
O O3 0.624954 0.773230 0.197754
O O4 0.553121 0.000000 0.232339
O O5 0.048004 0.500000 0.234699
O O6 0.091000 0.306619 0.319655
O O7 0.132486 0.293519 0.196786
O O8 0.571378 0.500000 0.585479
O O9 0.640390 0.263194 0.565308
O O10 0.504135 0.260006 0.580803
O O11 0.750000 0.287630 0.859533
O O12 0.665185 0.500000 0.886630
O O13 0.638322 0.256219 0.934525
O O14 0.250000 0.797600 0.505523
O O15 0.127248 0.803096 0.559904
O O16 0.161591 0.000000 0.471964
O O17 0.963272 0.000000 0.402934
O O18 0.750000 0.767532 0.151135
O O19 0.677491 0.000000 0.140255
O O20 0.644111 0.784311 0.066276
O O21 0.250000 0.156660 0.006710
O O22 0.138460 0.000000 0.018760
#
# Coordination Sequence:
#
# PCOD8211393 Si02
#       8
#     8   8   8   8   8   8   8   8
#     4   9  17  30  50  73  94 121 158 193 224 268
#     4   9  19  34  49  67  94 124 152 190 238 279
#     4  10  20  34  53  73  93 124 164 198 231 279
#     4   9  17  30  48  67  87 116 155 194 231 275
#     4  10  21  35  50  72 102 129 153 190 239 282
#     4   9  18  33  52  72  96 127 160 193 231 278
#     4   8  14  26  46  71  96 121 152 192 233 270
#     4   8  14  26  44  66  92 120 150 187 231 275
#
# _framework density 17.458356999999999
#
# number of rings (size 3 to 8) (size 9 to 14) (size 15 to 20)
#    0.000    3.000    0.000    1.500    0.000    4.250 
#    0.000    5.000    0.000    6.375    0.000    3.500 
#    0.000    0.000    0.000    0.000    0.000    0.000 
#
# Total GULP energy -793470.815821 kJ/mol
# GULP energy per Si atom -12397.981497 kJ/mol
# Density = 1.741862 g / cm^3
# Si number density = 17.458357 Si / 1000 Ang^3
#
#
#
# Elastic Constant Matrix: (Units=GPa)
#
#
# Indices 1 2 3 4 5 6 
#
# 1 108.1639 49.3012 71.8673 0.0000 0.0000 0.0000
# 2 49.3012 57.8950 49.1794 0.0000 0.0000 0.0000
# 3 71.8673 49.1794 113.2758 0.0000 0.0000 0.0000
# 4 0.0000 0.0000 0.0000 23.7559 0.0000 0.0000
# 5 0.0000 0.0000 0.0000 0.0000 28.9255 0.0000
# 6 0.0000 0.0000 0.0000 0.0000 0.0000 17.5562
#
#
#
# Elastic Compliance Matrix: (Units=1/GPa)
#
#
# Indices 1 2 3 4 5 6 
#
# 1 0.018655 -0.009240 -0.007824 0.000000 0.000000 0.000000
# 2 -0.009240 0.031941 -0.008005 0.000000 0.000000 0.000000
# 3 -0.007824 -0.008005 0.017268 0.000000 0.000000 0.000000
# 4 0.000000 0.000000 0.000000 0.042095 0.000000 0.000000
# 5 0.000000 0.000000 0.000000 0.000000 0.034572 0.000000
# 6 0.000000 0.000000 0.000000 0.000000 0.000000 0.056960
#
#
# Mechanical properties :
#
#
# Convention : Reuss Voigt Hill
#
# Bulk Modulus (GPa) = 56.41640 68.89226 62.65433
# Shear Modulus (GPa) = 19.41462 21.31330 20.36396
#
# Velocity S-wave (km/s) = 3.33836 3.49780 3.41901
# Velocity P-wave (km/s) = 6.87347 7.47391 7.17997
#
# Compressibility (1/GPa) = 0.01772534
#
# Stress axis : x y z
#
# Youngs Moduli (GPa) = 53.60351 31.30770 57.91175
#
# Poissons Ratio (x) = 0.28928 0.45312
# Poissons Ratio (y) = 0.49529 0.46360
# Poissons Ratio (z) = 0.41941 0.25062
#
# Static dielectric constant tensor:
#      x y z
#    x 3.192610 0.000000 0.000000 
#    y 0.000000 3.167390 0.000000 
#    z 0.000000 0.000000 3.487430 
# 
# 
# High freq. dielectric constant tensor:
#      x y z
#    x 1.655570 0.000000 0.000000 
#    y 0.000000 1.658610 0.000000 
#    z 0.000000 0.000000 1.685560 
# 
# From -- ./inp_files/33901.got.cif
#   From: 2010.03.12/outbox.cif.g09.slc.cpg/sg51_17_cif.got.tgz:33901.got - 2010.04.16 13:43:02.
