data_PCOD8211622
_publ_section_title
;
Structure prediction by ZEFSAII (Michael W. Deem and Ramdas Pophale) SiO2 
 PCOD8211622
Probable space group: P M M A
;
_chemical_formula_sum "Si O2"
_cell_formula_units_Z 40
_cell_length_a 8.769187
_cell_length_b 25.006914
_cell_length_c 9.664671
_cell_angle_alpha 90.000000
_cell_angle_beta 90.000000
_cell_angle_gamma 90.000000
_cell_volume 2119.368653
_symmetry_space_group_name_H-M "P M M A"
_symmetry_group_IT_number 51
_symmetry_cell_setting 'orthorhombic'
loop_
_space_group_symop_operation_xyz
x,y,z
1/2-x,-y,z
1/2+x,-y,-z
-x,y,-z
-x,-y,-z
1/2+x,y,-z
1/2-x,y,z
x,-y,z
loop_
_atom_site_type_symbol
_atom_site_label
_atom_site_fract_x
_atom_site_fract_y
_atom_site_fract_z
Si Si1 0.570296 0.440149 0.644375
Si Si2 0.931251 0.349684 0.852125
Si Si3 0.926862 0.062638 0.856622
Si Si4 0.570104 0.238761 0.148017
Si Si5 0.070719 0.857570 0.650619
O O1 0.500000 0.422352 0.500000
O O2 0.750000 0.437973 0.629732
O O3 0.516037 0.500000 0.686274
O O4 0.511708 0.397998 0.756510
O O5 0.750000 0.345495 0.860068
O O6 0.998108 0.293861 0.795789
O O7 0.000000 0.362803 0.000000
O O8 0.750000 0.077473 0.860932
O O9 0.004322 0.090326 0.725499
O O10 0.955644 0.000000 0.838018
O O11 0.000000 0.083305 0.000000
O O12 0.750000 0.245693 0.129730
O O13 0.526936 0.194064 0.259346
O O14 0.500000 0.222645 0.000000
O O15 0.250000 0.864792 0.635609
O O16 0.000000 0.850922 0.500000
#
# Coordination Sequence:
#
# PCOD8211622 Si02
#       5
#     8   8   8   8   8
#     4   9  19  35  53  75 104 138 176 216 260 313
#     4  10  20  34  54  79 106 137 174 218 266 315
#     4  10  21  38  61  87 114 146 184 225 269 320
#     4  10  21  37  57  80 106 139 179 221 267 319
#     4  11  24  39  57  82 112 147 184 225 273 323
#
# _framework density 18.873543999999999
#
# number of rings (size 3 to 8) (size 9 to 14) (size 15 to 20)
#    0.000    2.000    0.000    4.200    0.000    9.200 
#    0.000    4.000    0.000    0.000    0.000    0.000 
#    0.000    0.000    0.000    0.000    0.000    0.000 
#
# Total GULP energy -496118.446548 kJ/mol
# GULP energy per Si atom -12402.961164 kJ/mol
# Density = 1.883059 g / cm^3
# Si number density = 18.873544 Si / 1000 Ang^3
#
#
#
# Elastic Constant Matrix: (Units=GPa)
#
#
# Indices 1 2 3 4 5 6 
#
# 1 91.2907 60.1343 60.7696 0.0000 0.0000 0.0000
# 2 60.1343 112.5857 86.3561 0.0000 0.0000 0.0000
# 3 60.7696 86.3561 136.1830 0.0000 0.0000 0.0000
# 4 0.0000 0.0000 0.0000 25.6092 0.0000 0.0000
# 5 0.0000 0.0000 0.0000 0.0000 36.2303 0.0000
# 6 0.0000 0.0000 0.0000 0.0000 0.0000 26.7719
#
#
#
# Elastic Compliance Matrix: (Units=1/GPa)
#
#
# Indices 1 2 3 4 5 6 
#
# 1 0.017824 -0.006658 -0.003732 0.000000 0.000000 0.000000
# 2 -0.006658 0.019780 -0.009572 0.000000 0.000000 0.000000
# 3 -0.003732 -0.009572 0.015078 0.000000 0.000000 0.000000
# 4 0.000000 0.000000 0.000000 0.039048 0.000000 0.000000
# 5 0.000000 0.000000 0.000000 0.000000 0.027601 0.000000
# 6 0.000000 0.000000 0.000000 0.000000 0.000000 0.037353
#
#
# Mechanical properties :
#
#
# Convention : Reuss Voigt Hill
#
# Bulk Modulus (GPa) = 78.37651 83.84217 81.10934
# Shear Modulus (GPa) = 24.89295 26.57556 25.73426
#
# Velocity S-wave (km/s) = 3.63565 3.75652 3.69658
# Velocity P-wave (km/s) = 7.69684 7.95832 7.82867
#
# Compressibility (1/GPa) = 0.01275892
#
# Stress axis : x y z
#
# Youngs Moduli (GPa) = 56.10545 50.55593 66.32097
#
# Poissons Ratio (x) = 0.33658 0.24750
# Poissons Ratio (y) = 0.37352 0.63483
# Poissons Ratio (z) = 0.20938 0.48393
#
# Static dielectric constant tensor:
#      x y z
#    x 3.539940 0.000000 0.000000 
#    y 0.000000 3.694860 0.000000 
#    z 0.000000 0.000000 3.430990 
# 
# 
# High freq. dielectric constant tensor:
#      x y z
#    x 1.745570 0.000000 0.000000 
#    y 0.000000 1.744530 0.000000 
#    z 0.000000 0.000000 1.730790 
# 
# From -- ./inp_files/5492.got.cif
#   From: 2010.03.12/outbox.cif.g09.slc.cpg/sg51_3_cif.got.tgz:5492.got - 2010.04.16 13:43:02.
