data_PCOD8211797
_publ_section_title
;
Structure prediction by ZEFSAII (Michael W. Deem and Ramdas Pophale) SiO2 
 PCOD8211797
Probable space group: P M M A
;
_chemical_formula_sum "Si O2"
_cell_formula_units_Z 56
_cell_length_a 14.475832
_cell_length_b 8.961013
_cell_length_c 21.102685
_cell_angle_alpha 90.000000
_cell_angle_beta 90.000000
_cell_angle_gamma 90.000000
_cell_volume 2737.400599
_symmetry_space_group_name_H-M "P M M A"
_symmetry_group_IT_number 51
_symmetry_cell_setting 'orthorhombic'
loop_
_space_group_symop_operation_xyz
x,y,z
1/2-x,-y,z
1/2+x,-y,-z
-x,y,-z
-x,-y,-z
1/2+x,y,-z
1/2-x,y,z
x,-y,z
loop_
_atom_site_type_symbol
_atom_site_label
_atom_site_fract_x
_atom_site_fract_y
_atom_site_fract_z
Si Si1 0.642367 0.825291 0.837997
Si Si2 0.358532 0.829104 0.783671
Si Si3 0.149166 0.337759 0.902605
Si Si4 0.023593 0.676490 0.271710
Si Si5 0.471209 0.823310 0.401601
Si Si6 0.853617 0.823552 0.478388
Si Si7 0.902075 0.668044 0.966261
O O1 0.750000 0.785028 0.831863
O O2 0.587702 0.739450 0.783762
O O3 0.606667 0.777290 0.907312
O O4 0.624352 0.000000 0.830205
O O5 0.250000 0.805277 0.771086
O O6 0.394764 0.781819 0.854395
O O7 0.417269 0.730555 0.734889
O O8 0.386216 0.000000 0.774514
O O9 0.250000 0.365060 0.874200
O O10 0.095542 0.500000 0.901231
O O11 0.161933 0.280356 0.974794
O O12 0.027882 0.500000 0.269860
O O13 0.059474 0.736566 0.338800
O O14 0.395482 0.776101 0.453851
O O15 0.574358 0.772029 0.423843
O O16 0.469288 0.000000 0.389255
O O17 0.750000 0.754879 0.468787
O O18 0.846866 0.000000 0.476004
O O19 0.877718 0.500000 0.943803
O O20 0.000000 0.679198 0.000000
#
# Coordination Sequence:
#
# PCOD8211797 Si02
#       7
#     8   8   8   8   8   8   8
#     4  11  25  43  62  85 114 152 202 257 305 350
#     4  10  21  37  58  84 114 150 195 248 302 355
#     4   9  17  30  49  74 106 142 178 221 279 346
#     4  12  25  40  59  83 118 161 200 241 291 350
#     4   9  18  34  57  86 117 149 192 238 277 330
#     4   8  15  31  58  89 118 149 185 229 280 331
#     4  10  20  34  55  83 112 144 183 230 291 358
#
# _framework density 20.457363999999998
#
# number of rings (size 3 to 8) (size 9 to 14) (size 15 to 20)
#    0.000    2.143    0.000    4.286    0.000    5.714 
#    0.000    5.714    0.000    0.857    0.000    0.000 
#    0.000    0.000    0.000    0.000    0.000    0.000 
#
# Total GULP energy -693871.675401 kJ/mol
# GULP energy per Si atom -12390.565632 kJ/mol
# Density = 2.041080 g / cm^3
# Si number density = 20.457364 Si / 1000 Ang^3
#
#
#
# Elastic Constant Matrix: (Units=GPa)
#
#
# Indices 1 2 3 4 5 6 
#
# 1 84.6634 25.5497 18.2063 0.0000 0.0000 0.0000
# 2 25.5497 95.6587 42.7659 0.0000 0.0000 0.0000
# 3 18.2063 42.7659 102.5425 0.0000 0.0000 0.0000
# 4 0.0000 0.0000 0.0000 20.9899 0.0000 0.0000
# 5 0.0000 0.0000 0.0000 0.0000 21.6865 0.0000
# 6 0.0000 0.0000 0.0000 0.0000 0.0000 18.5763
#
#
#
# Elastic Compliance Matrix: (Units=1/GPa)
#
#
# Indices 1 2 3 4 5 6 
#
# 1 0.012939 -0.002985 -0.001052 0.000000 0.000000 0.000000
# 2 -0.002985 0.013539 -0.005116 0.000000 0.000000 0.000000
# 3 -0.001052 -0.005116 0.012073 0.000000 0.000000 0.000000
# 4 0.000000 0.000000 0.000000 0.047642 0.000000 0.000000
# 5 0.000000 0.000000 0.000000 0.000000 0.046112 0.000000
# 6 0.000000 0.000000 0.000000 0.000000 0.000000 0.053832
#
#
# Mechanical properties :
#
#
# Convention : Reuss Voigt Hill
#
# Bulk Modulus (GPa) = 49.40190 50.65650 50.02920
# Shear Modulus (GPa) = 23.67530 25.34005 24.50768
#
# Velocity S-wave (km/s) = 3.40560 3.52330 3.46495
# Velocity P-wave (km/s) = 6.29804 6.43174 6.36524
#
# Compressibility (1/GPa) = 0.02024214
#
# Stress axis : x y z
#
# Youngs Moduli (GPa) = 77.28765 73.86329 82.83199
#
# Poissons Ratio (x) = 0.22051 0.08715
# Poissons Ratio (y) = 0.23074 0.42379
# Poissons Ratio (z) = 0.08132 0.37790
#
# Static dielectric constant tensor:
#      x y z
#    x 3.919250 0.000000 0.000000 
#    y 0.000000 3.590430 0.000000 
#    z 0.000000 0.000000 4.372300 
# 
# 
# High freq. dielectric constant tensor:
#      x y z
#    x 1.807530 0.000000 0.000000 
#    y 0.000000 1.773850 0.000000 
#    z 0.000000 0.000000 1.799770 
# 
# From -- ./inp_files/33341.got.cif
#   From: 2010.03.12/outbox.cif.g09.slc.cpg/sg51_17_cif.got.tgz:33341.got - 2010.04.16 13:43:02.
