data_PCOD8211441
_publ_section_title
;
Structure prediction by ZEFSAII (Michael W. Deem and Ramdas Pophale) SiO2 
 PCOD8211441
Probable space group: P M M A
;
_chemical_formula_sum "Si O2"
_cell_formula_units_Z 48
_cell_length_a 8.768575
_cell_length_b 18.574963
_cell_length_c 14.823194
_cell_angle_alpha 90.000000
_cell_angle_beta 90.000000
_cell_angle_gamma 90.000000
_cell_volume 2414.341897
_symmetry_space_group_name_H-M "P M M A"
_symmetry_group_IT_number 51
_symmetry_cell_setting 'orthorhombic'
loop_
_space_group_symop_operation_xyz
x,y,z
1/2-x,-y,z
1/2+x,-y,-z
-x,y,-z
-x,-y,-z
1/2+x,y,-z
1/2-x,y,z
x,-y,z
loop_
_atom_site_type_symbol
_atom_site_label
_atom_site_fract_x
_atom_site_fract_y
_atom_site_fract_z
Si Si1 0.928799 0.230601 0.594672
Si Si2 0.924902 0.920387 0.677153
Si Si3 0.074503 0.213213 0.086980
Si Si4 0.429525 0.700347 0.764063
Si Si5 0.422873 0.080116 0.865847
Si Si6 0.429674 0.418299 0.905080
O O1 0.750000 0.241757 0.590539
O O2 0.971221 0.146623 0.613182
O O3 0.000000 0.253201 0.500000
O O4 0.992175 0.288269 0.667503
O O5 0.750000 0.909362 0.710207
O O6 0.038732 0.918567 0.760341
O O7 0.940686 0.000000 0.629563
O O8 0.250000 0.234425 0.095055
O O9 0.980832 0.232169 0.176316
O O10 0.045324 0.127753 0.078749
O O11 0.000000 0.252552 0.000000
O O12 0.250000 0.698493 0.749480
O O13 0.486913 0.629771 0.820066
O O14 0.250000 0.109319 0.879111
O O15 0.438349 0.000000 0.904318
O O16 0.250000 0.411027 0.915258
O O17 0.480803 0.500000 0.884507
O O18 0.500000 0.391755 0.000000
#
# Coordination Sequence:
#
# PCOD8211441 Si02
#       6
#     8   8   8   8   8   8
#     4  11  23  38  58  84 114 151 194 243 292 349
#     4   9  18  34  55  78 106 143 186 236 294 349
#     4  12  24  37  54  78 109 147 189 233 280 338
#     4  11  22  38  60  85 117 152 187 233 283 338
#     4  10  20  34  53  76 103 139 184 233 285 340
#     4   9  19  36  60  92 126 158 190 226 273 330
#
# _framework density 19.881195000000002
#
# number of rings (size 3 to 8) (size 9 to 14) (size 15 to 20)
#    0.000    1.667    1.667    3.500    0.000    5.000 
#    0.000    0.000    0.000    0.500    0.000    0.000 
#    0.000    0.000    0.000    0.000    0.000    0.000 
#
# Total GULP energy -594945.911137 kJ/mol
# GULP energy per Si atom -12394.706482 kJ/mol
# Density = 1.983594 g / cm^3
# Si number density = 19.881195 Si / 1000 Ang^3
#
#
#
# Elastic Constant Matrix: (Units=GPa)
#
#
# Indices 1 2 3 4 5 6 
#
# 1 71.4280 34.4853 36.3163 0.0000 0.0000 0.0000
# 2 34.4853 102.6812 49.1109 0.0000 0.0000 0.0000
# 3 36.3163 49.1109 131.8648 0.0000 0.0000 0.0000
# 4 0.0000 0.0000 0.0000 45.9441 0.0000 0.0000
# 5 0.0000 0.0000 0.0000 0.0000 33.5369 0.0000
# 6 0.0000 0.0000 0.0000 0.0000 0.0000 19.9707
#
#
#
# Elastic Compliance Matrix: (Units=1/GPa)
#
#
# Indices 1 2 3 4 5 6 
#
# 1 0.017787 -0.004418 -0.003253 0.000000 0.000000 0.000000
# 2 -0.004418 0.012947 -0.003605 0.000000 0.000000 0.000000
# 3 -0.003253 -0.003605 0.009822 0.000000 0.000000 0.000000
# 4 0.000000 0.000000 0.000000 0.021766 0.000000 0.000000
# 5 0.000000 0.000000 0.000000 0.000000 0.029818 0.000000
# 6 0.000000 0.000000 0.000000 0.000000 0.000000 0.050073
#
#
# Mechanical properties :
#
#
# Convention : Reuss Voigt Hill
#
# Bulk Modulus (GPa) = 55.54433 60.64432 58.09433
# Shear Modulus (GPa) = 29.27969 32.29443 30.78706
#
# Velocity S-wave (km/s) = 3.84178 4.03472 3.93943
# Velocity P-wave (km/s) = 6.90491 7.23014 7.06940
#
# Compressibility (1/GPa) = 0.01800364
#
# Stress axis : x y z
#
# Youngs Moduli (GPa) = 56.22050 77.23867 101.81013
#
# Poissons Ratio (x) = 0.34122 0.33122
# Poissons Ratio (y) = 0.24837 0.36704
# Poissons Ratio (z) = 0.18291 0.27846
#
# Static dielectric constant tensor:
#      x y z
#    x 3.550930 0.000000 0.000000 
#    y 0.000000 3.806720 0.000000 
#    z 0.000000 0.000000 3.491490 
# 
# 
# High freq. dielectric constant tensor:
#      x y z
#    x 1.777690 0.000000 0.000000 
#    y 0.000000 1.766870 0.000000 
#    z 0.000000 0.000000 1.757460 
# 
# From -- ./inp_files/21060.got.cif
#   From: 2010.03.12/outbox.cif.g09.slc.cpg/sg51_11_cif.got.tgz:21060.got - 2010.04.16 13:43:02.
