data_PCOD8211583
_publ_section_title
;
Structure prediction by ZEFSAII (Michael W. Deem and Ramdas Pophale) SiO2 
 PCOD8211583
Probable space group: P M M A
;
_chemical_formula_sum "Si O2"
_cell_formula_units_Z 48
_cell_length_a 14.218285
_cell_length_b 8.701562
_cell_length_c 21.388056
_cell_angle_alpha 90.000000
_cell_angle_beta 90.000000
_cell_angle_gamma 90.000000
_cell_volume 2646.157846
_symmetry_space_group_name_H-M "P M M A"
_symmetry_group_IT_number 51
_symmetry_cell_setting 'orthorhombic'
loop_
_space_group_symop_operation_xyz
x,y,z
1/2-x,-y,z
1/2+x,-y,-z
-x,y,-z
-x,-y,-z
1/2+x,y,-z
1/2-x,y,z
x,-y,z
loop_
_atom_site_type_symbol
_atom_site_label
_atom_site_fract_x
_atom_site_fract_y
_atom_site_fract_z
Si Si1 0.357476 0.680845 0.333713
Si Si2 0.504571 0.817631 0.570404
Si Si3 0.007715 0.181200 0.236279
Si Si4 0.353843 0.818356 0.668026
Si Si5 0.999215 0.818001 0.093454
Si Si6 0.141330 0.318720 0.000479
O O1 0.250000 0.734581 0.332353
O O2 0.367904 0.500000 0.337502
O O3 0.403934 0.752472 0.395410
O O4 0.404804 0.738777 0.269877
O O5 0.500000 0.753222 0.500000
O O6 0.410777 0.762173 0.606827
O O7 0.512753 0.000000 0.571196
O O8 0.910557 0.231689 0.269870
O O9 0.003582 0.236008 0.164974
O O10 0.022902 0.000000 0.242037
O O11 0.250000 0.742038 0.668720
O O12 0.343727 0.000000 0.666239
O O13 0.094742 0.764260 0.059949
O O14 0.988327 0.000000 0.086938
O O15 0.908615 0.738009 0.062736
O O16 0.250000 0.271238 0.997558
O O17 0.127621 0.500000 0.007538
#
# Coordination Sequence:
#
# PCOD8211583 Si02
#       6
#     8   8   8   8   8   8
#     4  10  21  35  51  73 102 137 173 208 250 299
#     4   9  18  32  51  75 101 131 168 209 253 299
#     4   9  19  34  52  75 100 129 166 209 256 299
#     4   8  14  27  47  70  96 124 157 198 243 294
#     4  10  20  34  54  78 102 130 168 215 261 302
#     4  10  21  36  53  74 103 138 171 204 248 305
#
# _framework density 18.139507999999999
#
# number of rings (size 3 to 8) (size 9 to 14) (size 15 to 20)
#    0.000    2.667    0.000    3.500    0.000    6.333 
#    0.000    6.667    0.000    8.000    0.000    0.000 
#    0.000    0.000    0.000    0.000    0.000    0.000 
#
# Total GULP energy -595170.011717 kJ/mol
# GULP energy per Si atom -12399.375244 kJ/mol
# Density = 1.809822 g / cm^3
# Si number density = 18.139508 Si / 1000 Ang^3
#
#
#
# Elastic Constant Matrix: (Units=GPa)
#
#
# Indices 1 2 3 4 5 6 
#
# 1 164.2692 21.7357 76.3293 0.0000 0.0000 0.0000
# 2 21.7357 26.4819 18.8429 0.0000 0.0000 0.0000
# 3 76.3293 18.8429 174.4305 0.0000 0.0000 0.0000
# 4 0.0000 0.0000 0.0000 10.0060 0.0000 0.0000
# 5 0.0000 0.0000 0.0000 0.0000 9.9812 0.0000
# 6 0.0000 0.0000 0.0000 0.0000 0.0000 24.8766
#
#
#
# Elastic Compliance Matrix: (Units=1/GPa)
#
#
# Indices 1 2 3 4 5 6 
#
# 1 0.008102 -0.004471 -0.003062 0.000000 0.000000 0.000000
# 2 -0.004471 0.043373 -0.002729 0.000000 0.000000 0.000000
# 3 -0.003062 -0.002729 0.007368 0.000000 0.000000 0.000000
# 4 0.000000 0.000000 0.000000 0.099940 0.000000 0.000000
# 5 0.000000 0.000000 0.000000 0.000000 0.100188 0.000000
# 6 0.000000 0.000000 0.000000 0.000000 0.000000 0.040198
#
#
# Mechanical properties :
#
#
# Convention : Reuss Voigt Hill
#
# Bulk Modulus (GPa) = 26.09721 66.55526 46.32624
# Shear Modulus (GPa) = 15.03911 25.52435 20.28173
#
# Velocity S-wave (km/s) = 2.88250 3.75522 3.34742
# Velocity P-wave (km/s) = 5.04941 7.45471 6.36668
#
# Compressibility (1/GPa) = 0.03831827
#
# Stress axis : x y z
#
# Youngs Moduli (GPa) = 123.42389 23.05582 135.72492
#
# Poissons Ratio (x) = 0.10308 0.41565
# Poissons Ratio (y) = 0.55183 0.37038
# Poissons Ratio (z) = 0.37798 0.06292
#
# Static dielectric constant tensor:
#      x y z
#    x 3.547200 0.000000 0.000000 
#    y 0.000000 3.172540 0.000000 
#    z 0.000000 0.000000 3.524130 
# 
# 
# High freq. dielectric constant tensor:
#      x y z
#    x 1.707050 0.000000 0.000000 
#    y 0.000000 1.689000 0.000000 
#    z 0.000000 0.000000 1.707440 
# 
# From -- ./inp_files/33196.got.cif
#   From: 2010.03.12/outbox.cif.g09.slc.cpg/sg51_17_cif.got.tgz:33196.got - 2010.04.16 13:43:02.
