data_PCOD8211895
_publ_section_title
;
Structure prediction by ZEFSAII (Michael W. Deem and Ramdas Pophale) SiO2 
 PCOD8211895
Probable space group: P M M A
;
_chemical_formula_sum "Si O2"
_cell_formula_units_Z 36
_cell_length_a 8.972496
_cell_length_b 16.058628
_cell_length_c 13.360371
_cell_angle_alpha 90.000000
_cell_angle_beta 90.000000
_cell_angle_gamma 90.000000
_cell_volume 1925.042089
_symmetry_space_group_name_H-M "P M M A"
_symmetry_group_IT_number 51
_symmetry_cell_setting 'orthorhombic'
loop_
_space_group_symop_operation_xyz
x,y,z
1/2-x,-y,z
1/2+x,-y,-z
-x,y,-z
-x,-y,-z
1/2+x,y,-z
1/2-x,y,z
x,-y,z
loop_
_atom_site_type_symbol
_atom_site_label
_atom_site_fract_x
_atom_site_fract_y
_atom_site_fract_z
Si Si1 0.075670 0.594553 0.191944
Si Si2 0.073102 0.749659 0.897625
Si Si3 0.575999 0.168469 0.712944
Si Si4 0.578988 0.666862 0.600983
Si Si5 0.925352 0.000000 0.607166
O O1 0.250000 0.617241 0.179482
O O2 0.041785 0.500000 0.160306
O O3 0.027478 0.608261 0.307271
O O4 0.980664 0.655053 0.121655
O O5 0.250000 0.751432 0.905929
O O6 0.019954 0.812085 0.811044
O O7 0.000000 0.781991 0.000000
O O8 0.750000 0.169109 0.742614
O O9 0.543051 0.237371 0.628236
O O10 0.523246 0.080300 0.669774
O O11 0.500000 0.638909 0.500000
O O12 0.750000 0.653233 0.578703
O O13 0.000000 0.000000 0.500000
O O14 0.750000 0.000000 0.589606
#
# Coordination Sequence:
#
# PCOD8211895 Si02
#       5
#     8   8   8   8   4
#     4   9  19  36  54  74 104 139 175 218 265 313
#     4  11  22  37  58  80 103 135 174 218 267 318
#     4   9  19  36  54  77 109 142 177 217 261 309
#     4   9  17  29  47  71 102 139 175 211 254 305
#     4  10  20  34  57  86 117 148 177 216 262 308
#
# _framework density 18.700890000000001
#
# number of rings (size 3 to 8) (size 9 to 14) (size 15 to 20)
#    0.000    2.444    0.000    4.000    0.000    5.778 
#    0.000    0.556    0.000    0.000    0.000    0.000 
#    0.000    0.000    0.000    0.000    0.000    0.000 
#
# Total GULP energy -446434.985539 kJ/mol
# GULP energy per Si atom -12400.971821 kJ/mol
# Density = 1.865833 g / cm^3
# Si number density = 18.700890 Si / 1000 Ang^3
#
#
#
# Elastic Constant Matrix: (Units=GPa)
#
#
# Indices 1 2 3 4 5 6 
#
# 1 86.4142 30.9284 51.9839 0.0000 0.0000 0.0000
# 2 30.9284 100.6246 26.8552 0.0000 0.0000 0.0000
# 3 51.9839 26.8552 105.1067 0.0000 0.0000 0.0000
# 4 0.0000 0.0000 0.0000 41.4560 0.0000 0.0000
# 5 0.0000 0.0000 0.0000 0.0000 38.1219 0.0000
# 6 0.0000 0.0000 0.0000 0.0000 0.0000 23.7624
#
#
#
# Elastic Compliance Matrix: (Units=1/GPa)
#
#
# Indices 1 2 3 4 5 6 
#
# 1 0.017427 -0.003280 -0.007781 0.000000 0.000000 0.000000
# 2 -0.003280 0.011282 -0.001261 0.000000 0.000000 0.000000
# 3 -0.007781 -0.001261 0.013685 0.000000 0.000000 0.000000
# 4 0.000000 0.000000 0.000000 0.024122 0.000000 0.000000
# 5 0.000000 0.000000 0.000000 0.000000 0.026232 0.000000
# 6 0.000000 0.000000 0.000000 0.000000 0.000000 0.042083
#
#
# Mechanical properties :
#
#
# Convention : Reuss Voigt Hill
#
# Bulk Modulus (GPa) = 56.33447 56.85339 56.59393
# Shear Modulus (GPa) = 30.23147 32.82657 31.52902
#
# Velocity S-wave (km/s) = 4.02503 4.19423 4.11050
# Velocity P-wave (km/s) = 7.19656 7.34322 7.27026
#
# Compressibility (1/GPa) = 0.01775112
#
# Stress axis : x y z
#
# Youngs Moduli (GPa) = 57.38283 88.63326 73.07493
#
# Poissons Ratio (x) = 0.29069 0.56860
# Poissons Ratio (y) = 0.18820 0.09212
# Poissons Ratio (z) = 0.44650 0.11173
#
# Static dielectric constant tensor:
#      x y z
#    x 3.340180 0.000000 0.000000 
#    y 0.000000 3.477540 0.000000 
#    z 0.000000 0.000000 3.425070 
# 
# 
# High freq. dielectric constant tensor:
#      x y z
#    x 1.717080 0.000000 0.000000 
#    y 0.000000 1.719140 0.000000 
#    z 0.000000 0.000000 1.728760 
# 
# From -- ./inp_files/14006.got.cif
#   From: 2010.03.12/outbox.cif.g09.slc.cpg/sg51_8_cif.got.tgz:14006.got - 2010.04.16 13:43:02.
