data_PCOD8211089
_publ_section_title
;
Structure prediction by ZEFSAII (Michael W. Deem and Ramdas Pophale) SiO2 
 PCOD8211089
Probable space group: P M M A
;
_chemical_formula_sum "Si O2"
_cell_formula_units_Z 64
_cell_length_a 20.712388
_cell_length_b 19.035628
_cell_length_c 8.640636
_cell_angle_alpha 90.000000
_cell_angle_beta 90.000000
_cell_angle_gamma 90.000000
_cell_volume 3406.772182
_symmetry_space_group_name_H-M "P M M A"
_symmetry_group_IT_number 51
_symmetry_cell_setting 'orthorhombic'
loop_
_space_group_symop_operation_xyz
x,y,z
1/2-x,-y,z
1/2+x,-y,-z
-x,y,-z
-x,-y,-z
1/2+x,y,-z
1/2-x,y,z
x,-y,z
loop_
_atom_site_type_symbol
_atom_site_label
_atom_site_fract_x
_atom_site_fract_y
_atom_site_fract_z
Si Si1 0.068036 0.674373 0.062260
Si Si2 0.179115 0.082220 0.387259
Si Si3 0.435002 0.700381 0.421736
Si Si4 0.822191 0.680235 0.352679
Si Si5 0.886179 0.796224 0.149846
Si Si6 0.173594 0.078954 0.041589
Si Si7 0.823102 0.581412 0.077075
Si Si8 0.934818 0.150073 0.451697
O O1 0.064939 0.679907 0.244701
O O2 0.079353 0.749894 0.981256
O O3 0.126320 0.621181 0.031172
O O4 0.000000 0.643769 0.000000
O O5 0.250000 0.116704 0.417011
O O6 0.129839 0.106155 0.519605
O O7 0.186986 0.000000 0.400164
O O8 0.153382 0.101567 0.215723
O O9 0.500000 0.669276 0.500000
O O10 0.371613 0.670419 0.506466
O O11 0.433808 0.784054 0.432863
O O12 0.750000 0.688197 0.420406
O O13 0.835892 0.748459 0.245785
O O14 0.828515 0.610170 0.251088
O O15 0.852964 0.864140 0.076911
O O16 0.938634 0.825141 0.272962
O O17 0.250000 0.077976 0.029993
O O18 0.147291 0.000000 0.003042
O O19 0.750000 0.593839 0.014210
O O20 0.841143 0.500000 0.079321
O O21 0.000000 0.107192 0.500000
#
# Coordination Sequence:
#
# PCOD8211089 Si02
#       8
#     8   8   8   8   8   8   8   8
#     4  11  21  36  59  82 109 144 182 224 266 316
#     4   9  19  35  52  70  96 133 174 216 265 319
#     4  10  20  35  53  77 108 139 175 219 266 312
#     4   9  18  33  54  79 106 139 179 219 262 316
#     4  10  20  33  52  77 105 137 177 222 271 319
#     4   9  18  33  52  75 104 137 177 226 275 323
#     4   9  19  37  59  84 115 147 179 218 264 312
#     4  10  20  34  51  73 102 134 171 215 264 318
#
# _framework density 18.786111999999999
#
# number of rings (size 3 to 8) (size 9 to 14) (size 15 to 20)
#    0.000    2.375    0.000    4.875    0.000    4.500 
#    0.000    1.875    0.000    4.875    0.000    0.000 
#    0.000    0.000    0.000    0.000    0.000    0.000 
#
# Total GULP energy -793324.520402 kJ/mol
# GULP energy per Si atom -12395.695631 kJ/mol
# Density = 1.874335 g / cm^3
# Si number density = 18.786112 Si / 1000 Ang^3
#
#
#
# Elastic Constant Matrix: (Units=GPa)
#
#
# Indices 1 2 3 4 5 6 
#
# 1 132.0116 37.1220 70.7132 0.0000 0.0000 0.0000
# 2 37.1220 71.0443 44.9625 0.0000 0.0000 0.0000
# 3 70.7132 44.9625 134.3662 0.0000 0.0000 0.0000
# 4 0.0000 0.0000 0.0000 11.8055 0.0000 0.0000
# 5 0.0000 0.0000 0.0000 0.0000 26.4494 0.0000
# 6 0.0000 0.0000 0.0000 0.0000 0.0000 19.8412
#
#
#
# Elastic Compliance Matrix: (Units=1/GPa)
#
#
# Indices 1 2 3 4 5 6 
#
# 1 0.010922 -0.002625 -0.004869 0.000000 0.000000 0.000000
# 2 -0.002625 0.018488 -0.004805 0.000000 0.000000 0.000000
# 3 -0.004869 -0.004805 0.011613 0.000000 0.000000 0.000000
# 4 0.000000 0.000000 0.000000 0.084706 0.000000 0.000000
# 5 0.000000 0.000000 0.000000 0.000000 0.037808 0.000000
# 6 0.000000 0.000000 0.000000 0.000000 0.000000 0.050400
#
#
# Mechanical properties :
#
#
# Convention : Reuss Voigt Hill
#
# Bulk Modulus (GPa) = 60.88743 71.44638 66.16690
# Shear Modulus (GPa) = 20.49086 23.92752 22.20919
#
# Velocity S-wave (km/s) = 3.30623 3.57274 3.44206
# Velocity P-wave (km/s) = 6.85974 7.42518 7.14806
#
# Compressibility (1/GPa) = 0.01642375
#
# Stress axis : x y z
#
# Youngs Moduli (GPa) = 91.56221 54.08770 86.11115
#
# Poissons Ratio (x) = 0.14198 0.41930
# Poissons Ratio (y) = 0.24035 0.41379
# Poissons Ratio (z) = 0.44584 0.25991
#
# Static dielectric constant tensor:
#      x y z
#    x 4.272490 0.000000 0.000000 
#    y 0.000000 3.330880 0.000000 
#    z 0.000000 0.000000 3.486970 
# 
# 
# High freq. dielectric constant tensor:
#      x y z
#    x 1.738770 0.000000 0.000000 
#    y 0.000000 1.707050 0.000000 
#    z 0.000000 0.000000 1.726190 
# 
# From -- ./inp_files/11229.got.cif
#   From: 2010.03.12/outbox.cif.g09.slc.cpg/sg51_6_cif.got.tgz:11229.got - 2010.04.16 13:43:02.
