data_PCOD8211240
_publ_section_title
;
Structure prediction by ZEFSAII (Michael W. Deem and Ramdas Pophale) SiO2 
 PCOD8211240
Probable space group: P M M A
;
_chemical_formula_sum "Si O2"
_cell_formula_units_Z 56
_cell_length_a 14.951160
_cell_length_b 9.439407
_cell_length_c 21.768884
_cell_angle_alpha 90.000000
_cell_angle_beta 90.000000
_cell_angle_gamma 90.000000
_cell_volume 3072.244435
_symmetry_space_group_name_H-M "P M M A"
_symmetry_group_IT_number 51
_symmetry_cell_setting 'orthorhombic'
loop_
_space_group_symop_operation_xyz
x,y,z
1/2-x,-y,z
1/2+x,-y,-z
-x,y,-z
-x,-y,-z
1/2+x,y,-z
1/2-x,y,z
x,-y,z
loop_
_atom_site_type_symbol
_atom_site_label
_atom_site_fract_x
_atom_site_fract_y
_atom_site_fract_z
Si Si1 0.494354 0.168067 0.593015
Si Si2 0.391193 0.335099 0.934658
Si Si3 0.847973 0.840034 0.179443
Si Si4 0.649460 0.337358 0.801198
Si Si5 0.099635 0.663906 0.068039
Si Si6 0.851749 0.168379 0.504176
Si Si7 0.496700 0.168543 0.268500
O O1 0.406107 0.221707 0.556272
O O2 0.588128 0.219977 0.562312
O O3 0.488220 0.224472 0.662430
O O4 0.493900 0.000000 0.591209
O O5 0.366222 0.500000 0.928536
O O6 0.340138 0.249827 0.882600
O O7 0.495303 0.309070 0.924231
O O8 0.365047 0.273989 0.002704
O O9 0.750000 0.835375 0.210887
O O10 0.919334 0.779119 0.227895
O O11 0.874734 0.000000 0.161574
O O12 0.750000 0.329657 0.776546
O O13 0.613941 0.500000 0.800647
O O14 0.646678 0.274345 0.870992
O O15 0.592347 0.240365 0.756521
O O16 0.121828 0.500000 0.063517
O O17 0.750000 0.232005 0.506273
O O18 0.844605 0.000000 0.503892
O O19 0.484979 0.000000 0.266696
#
# Coordination Sequence:
#
# PCOD8211240 Si02
#       7
#     8   8   8   8   8   8   8
#     4   8  15  26  41  65  94 124 157 189 230 279
#     4   9  16  30  53  74  90 116 158 205 250 295
#     4  10  21  34  46  66  98 132 164 199 242 289
#     4  10  20  34  52  72  96 127 161 200 246 293
#     4   8  15  29  50  74  94 114 150 203 252 291
#     4   8  13  23  41  66  95 122 151 193 237 273
#     4  10  20  34  50  69  99 135 165 197 235 282
#
# _framework density 18.227716999999998
#
# number of rings (size 3 to 8) (size 9 to 14) (size 15 to 20)
#    0.000    3.000    1.429    1.714    0.000    2.286 
#    0.000    7.857    0.000    0.000    0.000    2.000 
#    0.000    1.143    0.000    0.000    0.000    0.000 
#
# Total GULP energy -693850.768073 kJ/mol
# GULP energy per Si atom -12390.192287 kJ/mol
# Density = 1.818623 g / cm^3
# Si number density = 18.227717 Si / 1000 Ang^3
#
#
#
# Elastic Constant Matrix: (Units=GPa)
#
#
# Indices 1 2 3 4 5 6 
#
# 1 107.6050 19.8338 60.8530 0.0000 0.0000 0.0000
# 2 19.8338 23.2149 23.1828 0.0000 0.0000 0.0000
# 3 60.8530 23.1828 136.2541 0.0000 0.0000 0.0000
# 4 0.0000 0.0000 0.0000 9.3116 0.0000 0.0000
# 5 0.0000 0.0000 0.0000 0.0000 8.5319 0.0000
# 6 0.0000 0.0000 0.0000 0.0000 0.0000 9.6246
#
#
#
# Elastic Compliance Matrix: (Units=1/GPa)
#
#
# Indices 1 2 3 4 5 6 
#
# 1 0.013199 -0.006493 -0.004790 0.000000 0.000000 0.000000
# 2 -0.006493 0.055087 -0.006473 0.000000 0.000000 0.000000
# 3 -0.004790 -0.006473 0.010580 0.000000 0.000000 0.000000
# 4 0.000000 0.000000 0.000000 0.107393 0.000000 0.000000
# 5 0.000000 0.000000 0.000000 0.000000 0.117207 0.000000
# 6 0.000000 0.000000 0.000000 0.000000 0.000000 0.103900
#
#
# Mechanical properties :
#
#
# Convention : Reuss Voigt Hill
#
# Bulk Modulus (GPa) = 23.06605 52.75702 37.91153
# Shear Modulus (GPa) = 10.93303 16.37391 13.65347
#
# Velocity S-wave (km/s) = 2.45174 3.00041 2.73985
# Velocity P-wave (km/s) = 4.54935 6.40386 5.55455
#
# Compressibility (1/GPa) = 0.04335376
#
# Stress axis : x y z
#
# Youngs Moduli (GPa) = 75.76345 18.15311 94.51934
#
# Poissons Ratio (x) = 0.11787 0.45275
# Poissons Ratio (y) = 0.49195 0.61180
# Poissons Ratio (z) = 0.36291 0.11750
#
# Static dielectric constant tensor:
#      x y z
#    x 3.445500 0.000000 0.000000 
#    y 0.000000 2.832010 0.000000 
#    z 0.000000 0.000000 3.637180 
# 
# 
# High freq. dielectric constant tensor:
#      x y z
#    x 1.713350 0.000000 0.000000 
#    y 0.000000 1.643920 0.000000 
#    z 0.000000 0.000000 1.709760 
# 
# From -- ./inp_files/33337.got.cif
#   From: 2010.03.12/outbox.cif.g09.slc.cpg/sg51_17_cif.got.tgz:33337.got - 2010.04.16 13:43:02.
