data_PCOD8211781
_publ_section_title
;
Structure prediction by ZEFSAII (Michael W. Deem and Ramdas Pophale) SiO2 
 PCOD8211781
Probable space group: P M M A
;
_chemical_formula_sum "Si O2"
_cell_formula_units_Z 48
_cell_length_a 8.819108
_cell_length_b 20.519654
_cell_length_c 14.076097
_cell_angle_alpha 90.000000
_cell_angle_beta 90.000000
_cell_angle_gamma 90.000000
_cell_volume 2547.281523
_symmetry_space_group_name_H-M "P M M A"
_symmetry_group_IT_number 51
_symmetry_cell_setting 'orthorhombic'
loop_
_space_group_symop_operation_xyz
x,y,z
1/2-x,-y,z
1/2+x,-y,-z
-x,y,-z
-x,-y,-z
1/2+x,y,-z
1/2-x,y,z
x,-y,z
loop_
_atom_site_type_symbol
_atom_site_label
_atom_site_fract_x
_atom_site_fract_y
_atom_site_fract_z
Si Si1 0.927392 0.123932 0.780996
Si Si2 0.070791 0.253477 0.104007
Si Si3 0.928414 0.925461 0.401443
Si Si4 0.928930 0.622916 0.203681
Si Si5 0.571193 0.000000 0.897902
Si Si6 0.073290 0.573496 0.594993
Si Si7 0.929886 0.500000 0.897192
O O1 0.750000 0.118420 0.760312
O O2 0.968921 0.188594 0.838324
O O3 0.013012 0.122665 0.680580
O O4 0.986826 0.063505 0.842845
O O5 0.250000 0.265246 0.095082
O O6 0.993704 0.310965 0.162143
O O7 0.000000 0.248341 0.000000
O O8 0.750000 0.919403 0.409933
O O9 0.000000 0.901509 0.500000
O O10 0.978989 0.000000 0.379578
O O11 0.750000 0.617285 0.183628
O O12 0.965498 0.619818 0.316031
O O13 0.013972 0.563659 0.155589
O O14 0.750000 0.000000 0.909190
O O15 0.500000 0.000000 0.000000
O O16 0.250000 0.570530 0.577446
O O17 0.011075 0.500000 0.613971
O O18 0.000000 0.603723 0.500000
O O19 0.750000 0.500000 0.903552
O O20 0.000000 0.500000 0.000000
#
# Coordination Sequence:
#
# PCOD8211781 Si02
#       7
#     8   8   8   8   4   8   4
#     4  10  21  38  59  83 116 153 194 241 292 349
#     4  11  24  41  60  85 116 157 199 240 292 349
#     4  10  20  34  57  88 119 152 191 239 294 351
#     4  11  22  40  61  85 118 155 195 240 290 347
#     4  10  20  34  55  82 111 146 187 240 294 342
#     4   9  18  34  57  86 117 148 184 230 283 337
#     4  12  24  38  59  86 115 148 191 246 296 346
#
# _framework density 18.843619
#
# number of rings (size 3 to 8) (size 9 to 14) (size 15 to 20)
#    0.000    1.667    1.667    3.250    0.000    4.000 
#    0.000    0.833    0.000    2.000    0.000    0.000 
#    0.000    0.000    0.000    0.000    0.000    0.000 
#
# Total GULP energy -595331.910000 kJ/mol
# GULP energy per Si atom -12402.748125 kJ/mol
# Density = 1.880073 g / cm^3
# Si number density = 18.843619 Si / 1000 Ang^3
#
#
#
# Elastic Constant Matrix: (Units=GPa)
#
#
# Indices 1 2 3 4 5 6 
#
# 1 96.0613 58.3695 77.5925 0.0000 0.0000 0.0000
# 2 58.3695 121.6083 76.7983 0.0000 0.0000 0.0000
# 3 77.5925 76.7983 186.3231 0.0000 0.0000 0.0000
# 4 0.0000 0.0000 0.0000 30.4709 0.0000 0.0000
# 5 0.0000 0.0000 0.0000 0.0000 40.5729 0.0000
# 6 0.0000 0.0000 0.0000 0.0000 0.0000 31.6706
#
#
#
# Elastic Compliance Matrix: (Units=1/GPa)
#
#
# Indices 1 2 3 4 5 6 
#
# 1 0.017855 -0.005238 -0.005277 0.000000 0.000000 0.000000
# 2 -0.005238 0.012653 -0.003034 0.000000 0.000000 0.000000
# 3 -0.005277 -0.003034 0.008815 0.000000 0.000000 0.000000
# 4 0.000000 0.000000 0.000000 0.032818 0.000000 0.000000
# 5 0.000000 0.000000 0.000000 0.000000 0.024647 0.000000
# 6 0.000000 0.000000 0.000000 0.000000 0.000000 0.031575
#
#
# Mechanical properties :
#
#
# Convention : Reuss Voigt Hill
#
# Bulk Modulus (GPa) = 81.79214 92.16814 86.98014
# Shear Modulus (GPa) = 31.34102 33.29170 32.31636
#
# Velocity S-wave (km/s) = 4.08268 4.20782 4.14572
# Velocity P-wave (km/s) = 8.10706 8.52208 8.31716
#
# Compressibility (1/GPa) = 0.01222611
#
# Stress axis : x y z
#
# Youngs Moduli (GPa) = 56.00790 79.03105 113.44229
#
# Poissons Ratio (x) = 0.41393 0.59859
# Poissons Ratio (y) = 0.29335 0.34421
# Poissons Ratio (z) = 0.29553 0.23980
#
# Static dielectric constant tensor:
#      x y z
#    x 3.489230 0.000000 0.000000 
#    y 0.000000 3.334170 0.000000 
#    z 0.000000 0.000000 3.640480 
# 
# 
# High freq. dielectric constant tensor:
#      x y z
#    x 1.738330 0.000000 0.000000 
#    y 0.000000 1.718110 0.000000 
#    z 0.000000 0.000000 1.749940 
# 
# From -- ./inp_files/21165.got.cif
#   From: 2010.03.12/outbox.cif.g09.slc.cpg/sg51_11_cif.got.tgz:21165.got - 2010.04.16 13:43:02.
