data_PCOD8211324
_publ_section_title
;
Structure prediction by ZEFSAII (Michael W. Deem and Ramdas Pophale) SiO2 
 PCOD8211324
Probable space group: P M M A
;
_chemical_formula_sum "Si O2"
_cell_formula_units_Z 52
_cell_length_a 9.328200
_cell_length_b 10.103614
_cell_length_c 28.765987
_cell_angle_alpha 90.000000
_cell_angle_beta 90.000000
_cell_angle_gamma 90.000000
_cell_volume 2711.152050
_symmetry_space_group_name_H-M "P M M A"
_symmetry_group_IT_number 51
_symmetry_cell_setting 'orthorhombic'
loop_
_space_group_symop_operation_xyz
x,y,z
1/2-x,-y,z
1/2+x,-y,-z
-x,y,-z
-x,-y,-z
1/2+x,y,-z
1/2-x,y,z
x,-y,z
loop_
_atom_site_type_symbol
_atom_site_label
_atom_site_fract_x
_atom_site_fract_y
_atom_site_fract_z
Si Si1 0.080154 0.348981 0.284277
Si Si2 0.912415 0.500000 0.546531
Si Si3 0.093427 0.149604 0.541129
Si Si4 0.582277 0.347711 0.952769
Si Si5 0.413998 0.848913 0.888873
Si Si6 0.085447 0.850413 0.779782
Si Si7 0.083996 0.740323 0.385917
O O1 0.250000 0.342268 0.279720
O O2 0.027200 0.500000 0.277437
O O3 0.030852 0.296909 0.334581
O O4 0.012806 0.256016 0.245441
O O5 0.750000 0.500000 0.530869
O O6 0.949184 0.622436 0.579073
O O7 0.000000 0.500000 0.500000
O O8 0.250000 0.219911 0.544248
O O9 0.000000 0.220222 0.500000
O O10 0.013950 0.145648 0.591506
O O11 0.118605 0.000000 0.525664
O O12 0.750000 0.319298 0.960067
O O13 0.555694 0.500000 0.937878
O O14 0.521968 0.251843 0.913265
O O15 0.500000 0.314315 0.000000
O O16 0.250000 0.814547 0.902269
O O17 0.437463 0.831735 0.834316
O O18 0.448942 0.000000 0.903805
O O19 0.250000 0.824717 0.766202
O O20 0.041174 0.000000 0.765275
O O21 0.250000 0.782608 0.385123
#
# Coordination Sequence:
#
# PCOD8211324 Si02
#       7
#     8   4   8   8   8   8   8
#     4  10  21  38  58  81 112 147 183 227 278 333
#     4  10  20  34  52  74 100 130 164 204 251 302
#     4  10  21  36  53  75 103 133 167 208 253 305
#     4  10  21  36  55  82 117 156 197 240 287 340
#     4   9  19  37  59  82 111 149 192 238 289 343
#     4   9  20  39  60  83 113 148 188 236 287 339
#     4  10  20  36  55  74 102 136 169 209 258 311
#
# _framework density 19.180039000000001
#
# number of rings (size 3 to 8) (size 9 to 14) (size 15 to 20)
#    0.000    2.308    0.769    2.308    0.000    7.385 
#    0.000    7.692    0.000    0.000    0.000    0.000 
#    0.000    0.000    0.000    0.000    0.000    0.000 
#
# Total GULP energy -644634.429666 kJ/mol
# GULP energy per Si atom -12396.815955 kJ/mol
# Density = 1.913638 g / cm^3
# Si number density = 19.180039 Si / 1000 Ang^3
#
#
#
# Elastic Constant Matrix: (Units=GPa)
#
#
# Indices 1 2 3 4 5 6 
#
# 1 94.5969 49.1807 52.0436 0.0000 0.0000 0.0000
# 2 49.1807 84.5131 52.3138 0.0000 0.0000 0.0000
# 3 52.0436 52.3138 88.9024 0.0000 0.0000 0.0000
# 4 0.0000 0.0000 0.0000 36.2199 0.0000 0.0000
# 5 0.0000 0.0000 0.0000 0.0000 38.5468 0.0000
# 6 0.0000 0.0000 0.0000 0.0000 0.0000 31.2973
#
#
#
# Elastic Compliance Matrix: (Units=1/GPa)
#
#
# Indices 1 2 3 4 5 6 
#
# 1 0.017324 -0.005983 -0.006621 0.000000 0.000000 0.000000
# 2 -0.005983 0.020678 -0.008665 0.000000 0.000000 0.000000
# 3 -0.006621 -0.008665 0.020223 0.000000 0.000000 0.000000
# 4 0.000000 0.000000 0.000000 0.027609 0.000000 0.000000
# 5 0.000000 0.000000 0.000000 0.000000 0.025942 0.000000
# 6 0.000000 0.000000 0.000000 0.000000 0.000000 0.031952
#
#
# Mechanical properties :
#
#
# Convention : Reuss Voigt Hill
#
# Bulk Modulus (GPa) = 63.74766 63.89873 63.82320
# Shear Modulus (GPa) = 26.11007 28.84442 27.47725
#
# Velocity S-wave (km/s) = 3.69360 3.88219 3.78907
# Velocity P-wave (km/s) = 7.17627 7.31319 7.24506
#
# Compressibility (1/GPa) = 0.01568685
#
# Stress axis : x y z
#
# Youngs Moduli (GPa) = 57.72192 48.36030 49.44805
#
# Poissons Ratio (x) = 0.28935 0.32739
# Poissons Ratio (y) = 0.34536 0.42848
# Poissons Ratio (z) = 0.38218 0.41906
#
# Static dielectric constant tensor:
#      x y z
#    x 3.354760 0.000000 0.000000 
#    y 0.000000 3.192330 0.000000 
#    z 0.000000 0.000000 3.208270 
# 
# 
# High freq. dielectric constant tensor:
#      x y z
#    x 1.746640 0.000000 0.000000 
#    y 0.000000 1.748580 0.000000 
#    z 0.000000 0.000000 1.742110 
# 
# From -- ./inp_files/36202.got.cif
#   From: 2010.03.12/outbox.cif.g09.slc.cpg/sg51_19_cif.got.tgz:36202.got - 2010.04.16 13:43:02.
