data_PCOD8211865
_publ_section_title
;
Structure prediction by ZEFSAII (Michael W. Deem and Ramdas Pophale) SiO2 
 PCOD8211865
Probable space group: P M M A
;
_chemical_formula_sum "Si O2"
_cell_formula_units_Z 56
_cell_length_a 15.751188
_cell_length_b 9.239645
_cell_length_c 19.530132
_cell_angle_alpha 90.000000
_cell_angle_beta 90.000000
_cell_angle_gamma 90.000000
_cell_volume 2842.325288
_symmetry_space_group_name_H-M "P M M A"
_symmetry_group_IT_number 51
_symmetry_cell_setting 'orthorhombic'
loop_
_space_group_symop_operation_xyz
x,y,z
1/2-x,-y,z
1/2+x,-y,-z
-x,y,-z
-x,-y,-z
1/2+x,y,-z
1/2-x,y,z
x,-y,z
loop_
_atom_site_type_symbol
_atom_site_label
_atom_site_fract_x
_atom_site_fract_y
_atom_site_fract_z
Si Si1 0.649841 0.164615 0.060044
Si Si2 0.655417 0.333386 0.668157
Si Si3 0.850414 0.333770 0.927423
Si Si4 0.403757 0.835634 0.792894
Si Si5 0.655361 0.667659 0.333058
Si Si6 0.098028 0.834413 0.204748
Si Si7 0.000246 0.672097 0.576547
O O1 0.750000 0.175054 0.068199
O O2 0.608223 0.223699 0.130063
O O3 0.620988 0.000000 0.044801
O O4 0.617163 0.265825 0.998673
O O5 0.750000 0.317747 0.635968
O O6 0.635910 0.500000 0.686900
O O7 0.654474 0.242511 0.737879
O O8 0.585490 0.274772 0.614551
O O9 0.750000 0.317456 0.920316
O O10 0.879227 0.500000 0.924217
O O11 0.893763 0.245907 0.866928
O O12 0.348549 0.743682 0.740321
O O13 0.501273 0.824853 0.770731
O O14 0.370316 0.000000 0.790197
O O15 0.750000 0.691742 0.363930
O O16 0.636741 0.500000 0.320163
O O17 0.584557 0.731010 0.384989
O O18 0.128181 0.000000 0.196182
O O19 0.002307 0.500000 0.572983
O O20 0.000000 0.737541 0.500000
#
# Coordination Sequence:
#
# PCOD8211865 Si02
#       7
#     8   8   8   8   8   8   8
#     4   9  18  34  54  74 100 137 181 228 275 326
#     4  10  20  35  57  83 111 147 188 228 274 328
#     4  10  21  36  53  75 105 141 182 229 281 335
#     4  10  21  36  55  79 108 145 187 230 277 331
#     4  10  20  34  56  85 114 146 185 229 277 328
#     4  11  22  35  54  79 108 144 186 232 280 329
#     4   9  18  34  56  84 118 149 179 223 275 327
#
# _framework density 19.702179000000001
#
# number of rings (size 3 to 8) (size 9 to 14) (size 15 to 20)
#    0.000    2.143    1.429    1.714    0.000    6.000 
#    0.000    7.143    0.000    1.714    0.000    2.000 
#    0.000    0.000    0.000    0.000    0.000    0.000 
#
# Total GULP energy -694489.729145 kJ/mol
# GULP energy per Si atom -12401.602306 kJ/mol
# Density = 1.965734 g / cm^3
# Si number density = 19.702179 Si / 1000 Ang^3
#
#
#
# Elastic Constant Matrix: (Units=GPa)
#
#
# Indices 1 2 3 4 5 6 
#
# 1 100.0355 32.1520 56.6965 0.0000 0.0000 0.0000
# 2 32.1520 78.5510 49.7731 0.0000 0.0000 0.0000
# 3 56.6965 49.7731 141.9699 0.0000 0.0000 0.0000
# 4 0.0000 0.0000 0.0000 2.1717 0.0000 0.0000
# 5 0.0000 0.0000 0.0000 0.0000 27.4146 0.0000
# 6 0.0000 0.0000 0.0000 0.0000 0.0000 20.5296
#
#
#
# Elastic Compliance Matrix: (Units=1/GPa)
#
#
# Indices 1 2 3 4 5 6 
#
# 1 0.013346 -0.002681 -0.004390 0.000000 0.000000 0.000000
# 2 -0.002681 0.016905 -0.004856 0.000000 0.000000 0.000000
# 3 -0.004390 -0.004856 0.010499 0.000000 0.000000 0.000000
# 4 0.000000 0.000000 0.000000 0.460476 0.000000 0.000000
# 5 0.000000 0.000000 0.000000 0.000000 0.036477 0.000000
# 6 0.000000 0.000000 0.000000 0.000000 0.000000 0.048710
#
#
# Mechanical properties :
#
#
# Convention : Reuss Voigt Hill
#
# Bulk Modulus (GPa) = 59.18403 66.42218 62.80311
# Shear Modulus (GPa) = 8.11820 22.15215 15.13518
#
# Velocity S-wave (km/s) = 2.03209 3.35677 2.77465
# Velocity P-wave (km/s) = 5.96745 6.98643 6.49695
#
# Compressibility (1/GPa) = 0.01689645
#
# Stress axis : x y z
#
# Youngs Moduli (GPa) = 74.92750 59.15426 95.24427
#
# Poissons Ratio (x) = 0.15860 0.41811
# Poissons Ratio (y) = 0.20089 0.46250
# Poissons Ratio (z) = 0.32892 0.28725
#
# Static dielectric constant tensor:
#      x y z
#    x 3.627200 0.000000 0.000000 
#    y 0.000000 3.427300 0.000000 
#    z 0.000000 0.000000 3.598790 
# 
# 
# High freq. dielectric constant tensor:
#      x y z
#    x 1.773630 0.000000 0.000000 
#    y 0.000000 1.745160 0.000000 
#    z 0.000000 0.000000 1.763640 
# 
# From -- ./inp_files/33467.got.cif
#   From: 2010.03.12/outbox.cif.g09.slc.cpg/sg51_17_cif.got.tgz:33467.got - 2010.04.16 13:43:02.
