data_PCOD8211326
_publ_section_title
;
Structure prediction by ZEFSAII (Michael W. Deem and Ramdas Pophale) SiO2 
 PCOD8211326
Probable space group: P M M A
;
_chemical_formula_sum "Si O2"
_cell_formula_units_Z 40
_cell_length_a 8.917638
_cell_length_b 25.908342
_cell_length_c 9.460300
_cell_angle_alpha 90.000000
_cell_angle_beta 90.000000
_cell_angle_gamma 90.000000
_cell_volume 2185.719208
_symmetry_space_group_name_H-M "P M M A"
_symmetry_group_IT_number 51
_symmetry_cell_setting 'orthorhombic'
loop_
_space_group_symop_operation_xyz
x,y,z
1/2-x,-y,z
1/2+x,-y,-z
-x,y,-z
-x,-y,-z
1/2+x,y,-z
1/2-x,y,z
x,-y,z
loop_
_atom_site_type_symbol
_atom_site_label
_atom_site_fract_x
_atom_site_fract_y
_atom_site_fract_z
Si Si1 0.572619 0.851455 0.347801
Si Si2 0.575037 0.767233 0.847118
Si Si3 0.077262 0.347267 0.150685
Si Si4 0.925317 0.444006 0.153364
Si Si5 0.925595 0.058045 0.143793
O O1 0.500000 0.853147 0.500000
O O2 0.750000 0.844811 0.360735
O O3 0.506873 0.803790 0.262386
O O4 0.527193 0.904729 0.271108
O O5 0.750000 0.781621 0.861900
O O6 0.556164 0.709419 0.781326
O O7 0.500000 0.773110 0.000000
O O8 0.250000 0.361255 0.132914
O O9 0.998612 0.394910 0.237370
O O10 0.000000 0.343968 0.000000
O O11 0.750000 0.434159 0.137884
O O12 0.955673 0.500000 0.227734
O O13 0.000000 0.445307 0.000000
O O14 0.750000 0.059535 0.117859
O O15 0.980793 0.000000 0.180298
O O16 0.000000 0.078479 0.000000
#
# Coordination Sequence:
#
# PCOD8211326 Si02
#       5
#     8   8   8   8   8
#     4  11  23  37  54  76 104 137 171 210 256 303
#     4  10  20  34  52  74 100 131 170 213 256 303
#     4   9  16  25  39  59  84 117 156 198 242 290
#     4   9  15  21  31  50  79 115 152 191 237 289
#     4   9  19  36  57  81 107 135 169 207 247 294
#
# _framework density 18.300613999999999
#
# number of rings (size 3 to 8) (size 9 to 14) (size 15 to 20)
#    0.000    2.400    0.000    4.200    0.000    7.200 
#    0.000    0.000    0.000    0.000    0.000    0.000 
#    0.000    0.800    0.000    2.600    0.000   11.200 
#
# Total GULP energy -495625.274643 kJ/mol
# GULP energy per Si atom -12390.631866 kJ/mol
# Density = 1.825896 g / cm^3
# Si number density = 18.300614 Si / 1000 Ang^3
#
#
#
# Elastic Constant Matrix: (Units=GPa)
#
#
# Indices 1 2 3 4 5 6 
#
# 1 115.6180 77.0654 46.3895 0.0000 0.0000 0.0000
# 2 77.0654 159.6543 68.6206 0.0000 0.0000 0.0000
# 3 46.3895 68.6206 89.1276 0.0000 0.0000 0.0000
# 4 0.0000 0.0000 0.0000 -4.0802 0.0000 0.0000
# 5 0.0000 0.0000 0.0000 0.0000 23.2098 0.0000
# 6 0.0000 0.0000 0.0000 0.0000 0.0000 32.0174
#
#
#
# Elastic Compliance Matrix: (Units=1/GPa)
#
#
# Indices 1 2 3 4 5 6 
#
# 1 0.013251 -0.005129 -0.002948 0.000000 0.000000 0.000000
# 2 -0.005129 0.011347 -0.006066 0.000000 0.000000 0.000000
# 3 -0.002948 -0.006066 0.017425 0.000000 0.000000 0.000000
# 4 0.000000 0.000000 0.000000 -0.245086 0.000000 0.000000
# 5 0.000000 0.000000 0.000000 0.000000 0.043085 0.000000
# 6 0.000000 0.000000 0.000000 0.000000 0.000000 0.031233
#
#
# Mechanical properties :
#
#
# Convention : Reuss Voigt Hill
#
# Bulk Modulus (GPa) = 72.80363 83.17233 77.98798
# Shear Modulus (GPa) = -52.14816 21.71770 -15.21523
#
# Velocity S-wave (km/s) = -5.34389 3.44862 -2.88654
# Velocity P-wave (km/s) = 1.33873 7.83606 5.62121
#
# Compressibility (1/GPa) = 0.01373558
#
# Stress axis : x y z
#
# Youngs Moduli (GPa) = 75.46722 88.13076 57.38965
#
# Poissons Ratio (x) = 0.45204 0.16917
# Poissons Ratio (y) = 0.38709 0.34815
# Poissons Ratio (z) = 0.22246 0.53463
#
# Static dielectric constant tensor:
#      x y z
#    x 3.547220 0.000000 0.000000 
#    y 0.000000 4.708230 0.000000 
#    z 0.000000 0.000000 2.825350 
# 
# 
# High freq. dielectric constant tensor:
#      x y z
#    x 1.726380 0.000000 0.000000 
#    y 0.000000 1.743670 0.000000 
#    z 0.000000 0.000000 1.639480 
# 
# From -- ./inp_files/5488.got.cif
#   From: 2010.03.12/outbox.cif.g09.slc.cpg/sg51_3_cif.got.tgz:5488.got - 2010.04.16 13:43:02.
