data_PCOD8211693
_publ_section_title
;
Structure prediction by ZEFSAII (Michael W. Deem and Ramdas Pophale) SiO2 
 PCOD8211693
Probable space group: P M M A
;
_chemical_formula_sum "Si O2"
_cell_formula_units_Z 56
_cell_length_a 8.808072
_cell_length_b 14.350993
_cell_length_c 23.819214
_cell_angle_alpha 90.000000
_cell_angle_beta 90.000000
_cell_angle_gamma 90.000000
_cell_volume 3010.857732
_symmetry_space_group_name_H-M "P M M A"
_symmetry_group_IT_number 51
_symmetry_cell_setting 'orthorhombic'
loop_
_space_group_symop_operation_xyz
x,y,z
1/2-x,-y,z
1/2+x,-y,-z
-x,y,-z
-x,-y,-z
1/2+x,y,-z
1/2-x,y,z
x,-y,z
loop_
_atom_site_type_symbol
_atom_site_label
_atom_site_fract_x
_atom_site_fract_y
_atom_site_fract_z
Si Si1 0.070935 0.750578 0.138106
Si Si2 0.075593 0.109161 0.942165
Si Si3 0.570130 0.243905 0.560958
Si Si4 0.427784 0.392719 0.942426
Si Si5 0.571442 0.891768 0.352664
Si Si6 0.570991 0.603521 0.647984
Si Si7 0.929027 0.242176 0.733042
O O1 0.250000 0.744772 0.131426
O O2 0.020688 0.752255 0.202654
O O3 0.010039 0.844202 0.109576
O O4 0.996887 0.660334 0.110287
O O5 0.250000 0.141068 0.943202
O O6 0.057673 0.000000 0.933618
O O7 0.000000 0.142454 0.000000
O O8 0.500000 0.247853 0.500000
O O9 0.750000 0.235979 0.557098
O O10 0.509459 0.153607 0.593569
O O11 0.519005 0.338059 0.593372
O O12 0.250000 0.374977 0.945514
O O13 0.470272 0.500000 0.933942
O O14 0.500000 0.354173 0.000000
O O15 0.750000 0.876728 0.358523
O O16 0.514006 0.844648 0.295242
O O17 0.527396 0.000000 0.350666
O O18 0.750000 0.592176 0.647472
O O19 0.495624 0.500000 0.647965
O O20 0.521217 0.660900 0.703397
O O21 0.750000 0.225621 0.725747
#
# Coordination Sequence:
#
# PCOD8211693 Si02
#       7
#     8   8   8   8   8   8   8
#     4  11  22  35  54  80 109 141 177 218 267 321
#     4  10  21  37  56  77 103 136 174 218 269 324
#     4  10  20  34  54  81 112 143 176 216 260 308
#     4  10  21  37  56  78 106 140 178 221 269 322
#     4  10  21  37  57  79 105 140 178 218 266 313
#     4   8  15  31  54  77 103 137 175 213 254 300
#     4   9  20  36  54  78 106 139 177 217 260 307
#
# _framework density 18.599352
#
# number of rings (size 3 to 8) (size 9 to 14) (size 15 to 20)
#    0.000    2.286    0.000    3.429    0.000    5.714 
#    0.000    4.286    0.000   10.286    0.000    0.000 
#    0.000    0.000    0.000    0.000    0.000    0.000 
#
# Total GULP energy -694482.302240 kJ/mol
# GULP energy per Si atom -12401.469683 kJ/mol
# Density = 1.855702 g / cm^3
# Si number density = 18.599352 Si / 1000 Ang^3
#
#
#
# Elastic Constant Matrix: (Units=GPa)
#
#
# Indices 1 2 3 4 5 6 
#
# 1 64.8228 38.4909 51.3044 0.0000 0.0000 0.0000
# 2 38.4909 137.6417 75.9647 0.0000 0.0000 0.0000
# 3 51.3044 75.9647 177.3912 0.0000 0.0000 0.0000
# 4 0.0000 0.0000 0.0000 -37.0920 0.0000 0.0000
# 5 0.0000 0.0000 0.0000 0.0000 32.5474 0.0000
# 6 0.0000 0.0000 0.0000 0.0000 0.0000 27.7335
#
#
#
# Elastic Compliance Matrix: (Units=1/GPa)
#
#
# Indices 1 2 3 4 5 6 
#
# 1 0.021102 -0.003317 -0.004683 0.000000 0.000000 0.000000
# 2 -0.003317 0.010035 -0.003338 0.000000 0.000000 0.000000
# 3 -0.004683 -0.003338 0.008421 0.000000 0.000000 0.000000
# 4 0.000000 0.000000 0.000000 -0.026960 0.000000 0.000000
# 5 0.000000 0.000000 0.000000 0.000000 0.030724 0.000000
# 6 0.000000 0.000000 0.000000 0.000000 0.000000 0.036057
#
#
# Mechanical properties :
#
#
# Convention : Reuss Voigt Hill
#
# Bulk Modulus (GPa) = 59.23035 79.04173 69.13604
# Shear Modulus (GPa) = 46.43243 18.91082 32.67163
#
# Velocity S-wave (km/s) = 5.00187 3.19211 4.19573
# Velocity P-wave (km/s) = 8.07916 7.49502 7.79257
#
# Compressibility (1/GPa) = 0.01688324
#
# Stress axis : x y z
#
# Youngs Moduli (GPa) = 47.38809 99.65079 118.74958
#
# Poissons Ratio (x) = 0.33051 0.55608
# Poissons Ratio (y) = 0.15717 0.39640
# Poissons Ratio (z) = 0.22191 0.33264
#
# Static dielectric constant tensor:
#      x y z
#    x 3.392730 0.000000 0.000000 
#    y 0.000000 3.594380 0.000000 
#    z 0.000000 0.000000 3.614900 
# 
# 
# High freq. dielectric constant tensor:
#      x y z
#    x 1.719800 0.000000 0.000000 
#    y 0.000000 1.730860 0.000000 
#    z 0.000000 0.000000 1.723370 
# 
# From -- ./inp_files/31902.got.cif
#   From: 2010.03.12/outbox.cif.g09.slc.cpg/sg51_16_cif.got.tgz:31902.got - 2010.04.16 13:43:02.
