data_PCOD8211831
_publ_section_title
;
Structure prediction by ZEFSAII (Michael W. Deem and Ramdas Pophale) SiO2 
 PCOD8211831
Probable space group: P M M A
;
_chemical_formula_sum "Si O2"
_cell_formula_units_Z 64
_cell_length_a 14.386179
_cell_length_b 8.852532
_cell_length_c 24.429953
_cell_angle_alpha 90.000000
_cell_angle_beta 90.000000
_cell_angle_gamma 90.000000
_cell_volume 3111.254921
_symmetry_space_group_name_H-M "P M M A"
_symmetry_group_IT_number 51
_symmetry_cell_setting 'orthorhombic'
loop_
_space_group_symop_operation_xyz
x,y,z
1/2-x,-y,z
1/2+x,-y,-z
-x,y,-z
-x,-y,-z
1/2+x,y,-z
1/2-x,y,z
x,-y,z
loop_
_atom_site_type_symbol
_atom_site_label
_atom_site_fract_x
_atom_site_fract_y
_atom_site_fract_z
Si Si1 0.500770 0.170204 0.064513
Si Si2 0.643303 0.677133 0.414644
Si Si3 0.643850 0.176041 0.844194
Si Si4 0.970959 0.822011 0.633146
Si Si5 0.648087 0.667597 0.127756
Si Si6 0.353763 0.174818 0.761641
Si Si7 0.459407 0.322769 0.258838
Si Si8 0.356933 0.172887 0.472195
O O1 0.404493 0.207750 0.096757
O O2 0.576544 0.292407 0.080893
O O3 0.530882 0.000000 0.080068
O O4 0.500000 0.188412 0.000000
O O5 0.750000 0.722702 0.401935
O O6 0.626967 0.500000 0.407992
O O7 0.577608 0.765341 0.372121
O O8 0.616729 0.724597 0.476275
O O9 0.750000 0.236647 0.846982
O O10 0.587532 0.257392 0.795706
O O11 0.643065 0.000000 0.830227
O O12 0.917733 0.747059 0.685177
O O13 0.916087 0.770263 0.579246
O O14 0.969720 0.000000 0.641553
O O15 0.750000 0.668056 0.100949
O O16 0.625318 0.500000 0.151774
O O17 0.641870 0.794793 0.173834
O O18 0.250000 0.215680 0.739511
O O19 0.431575 0.280328 0.735124
O O20 0.377614 0.000000 0.750750
O O21 0.444712 0.500000 0.258173
O O22 0.250000 0.190361 0.455725
O O23 0.381276 0.000000 0.487404
#
# Coordination Sequence:
#
# PCOD8211831 Si02
#       8
#     8   8   8   8   8   8   8   8
#     4  10  21  37  61  92 123 157 200 249 296 348
#     4  10  21  37  58  86 121 159 196 241 301 360
#     4  10  22  42  65  87 118 162 207 249 296 352
#     4  11  23  38  59  86 117 156 201 248 298 355
#     4  10  20  34  55  85 119 153 187 230 289 350
#     4  10  20  36  60  86 112 147 190 235 288 353
#     4  12  25  40  60  87 120 157 199 251 305 359
#     4   9  19  37  60  85 114 151 197 246 297 355
#
# _framework density 20.570477
#
# number of rings (size 3 to 8) (size 9 to 14) (size 15 to 20)
#    0.000    1.750    1.250    3.000    0.000    6.750 
#    0.000    2.500    0.000    0.000    0.000    0.000 
#    0.000    0.000    0.000    0.000    0.000    0.000 
#
# Total GULP energy -793435.932501 kJ/mol
# GULP energy per Si atom -12397.436445 kJ/mol
# Density = 2.052366 g / cm^3
# Si number density = 20.570477 Si / 1000 Ang^3
#
#
#
# Elastic Constant Matrix: (Units=GPa)
#
#
# Indices 1 2 3 4 5 6 
#
# 1 91.1940 31.2908 40.8011 0.0000 0.0000 0.0000
# 2 31.2908 75.1194 32.4266 0.0000 0.0000 0.0000
# 3 40.8011 32.4266 104.4771 0.0000 0.0000 0.0000
# 4 0.0000 0.0000 0.0000 19.7737 0.0000 0.0000
# 5 0.0000 0.0000 0.0000 0.0000 16.9809 0.0000
# 6 0.0000 0.0000 0.0000 0.0000 0.0000 25.6005
#
#
#
# Elastic Compliance Matrix: (Units=1/GPa)
#
#
# Indices 1 2 3 4 5 6 
#
# 1 0.014301 -0.004095 -0.004314 0.000000 0.000000 0.000000
# 2 -0.004095 0.016544 -0.003536 0.000000 0.000000 0.000000
# 3 -0.004314 -0.003536 0.012354 0.000000 0.000000 0.000000
# 4 0.000000 0.000000 0.000000 0.050572 0.000000 0.000000
# 5 0.000000 0.000000 0.000000 0.000000 0.058890 0.000000
# 6 0.000000 0.000000 0.000000 0.000000 0.000000 0.039062
#
#
# Mechanical properties :
#
#
# Convention : Reuss Voigt Hill
#
# Bulk Modulus (GPa) = 51.78767 53.31417 52.55092
# Shear Modulus (GPa) = 22.51770 23.55579 23.03675
#
# Velocity S-wave (km/s) = 3.31216 3.38764 3.35011
# Velocity P-wave (km/s) = 6.31328 6.42461 6.36919
#
# Compressibility (1/GPa) = 0.01930961
#
# Stress axis : x y z
#
# Youngs Moduli (GPa) = 69.92649 60.44474 80.94833
#
# Poissons Ratio (x) = 0.24751 0.34921
# Poissons Ratio (y) = 0.28633 0.28621
# Poissons Ratio (z) = 0.30166 0.21371
#
# Static dielectric constant tensor:
#      x y z
#    x 3.913010 0.000000 0.000000 
#    y 0.000000 3.675030 0.000000 
#    z 0.000000 0.000000 3.672530 
# 
# 
# High freq. dielectric constant tensor:
#      x y z
#    x 1.804630 0.000000 0.000000 
#    y 0.000000 1.802430 0.000000 
#    z 0.000000 0.000000 1.802340 
# 
# From -- ./inp_files/35790.got.cif
#   From: 2010.03.12/outbox.cif.g09.slc.cpg/sg51_18_cif.got.tgz:35790.got - 2010.04.16 13:43:02.
