data_PCOD8211764
_publ_section_title
;
Structure prediction by ZEFSAII (Michael W. Deem and Ramdas Pophale) SiO2 
 PCOD8211764
Probable space group: P M M A
;
_chemical_formula_sum "Si O2"
_cell_formula_units_Z 48
_cell_length_a 19.099494
_cell_length_b 9.029031
_cell_length_c 15.179480
_cell_angle_alpha 90.000000
_cell_angle_beta 90.000000
_cell_angle_gamma 90.000000
_cell_volume 2617.700163
_symmetry_space_group_name_H-M "P M M A"
_symmetry_group_IT_number 51
_symmetry_cell_setting 'orthorhombic'
loop_
_space_group_symop_operation_xyz
x,y,z
1/2-x,-y,z
1/2+x,-y,-z
-x,y,-z
-x,-y,-z
1/2+x,y,-z
1/2-x,y,z
x,-y,z
loop_
_atom_site_type_symbol
_atom_site_label
_atom_site_fract_x
_atom_site_fract_y
_atom_site_fract_z
Si Si1 0.060653 0.824384 0.238588
Si Si2 0.085473 0.675663 0.731709
Si Si3 0.830897 0.826340 0.112908
Si Si4 0.170134 0.673569 0.560853
Si Si5 0.929246 0.174587 0.958362
Si Si6 0.670554 0.826049 0.616014
O O1 0.080938 0.766564 0.140948
O O2 0.123453 0.774713 0.302156
O O3 0.990802 0.745668 0.270994
O O4 0.048409 0.000000 0.240471
O O5 0.080170 0.500000 0.739034
O O6 0.129850 0.734443 0.813213
O O7 0.123788 0.726711 0.642622
O O8 0.750000 0.781528 0.112004
O O9 0.841983 0.000000 0.131681
O O10 0.862808 0.781446 0.018003
O O11 0.250000 0.721644 0.579995
O O12 0.163921 0.500000 0.545945
O O13 0.141626 0.751404 0.472828
O O14 0.937909 0.000000 0.954448
O O15 0.000000 0.244160 0.000000
O O16 0.750000 0.774552 0.635574
O O17 0.666202 0.000000 0.601991
#
# Coordination Sequence:
#
# PCOD8211764 Si02
#       6
#     8   8   8   8   8   8
#     4  10  20  35  56  79 108 142 176 217 266 318
#     4  11  22  35  53  78 109 142 179 220 265 317
#     4  10  20  34  55  82 107 137 180 223 265 316
#     4   9  19  36  55  73 100 141 179 214 263 319
#     4   9  16  31  54  76 103 138 172 209 257 313
#     4   9  19  35  55  80 106 134 173 222 270 313
#
# _framework density 18.336706
#
# number of rings (size 3 to 8) (size 9 to 14) (size 15 to 20)
#    0.000    2.333    1.667    1.000    0.000    4.333 
#    0.000   10.000    0.000    0.000    0.000    2.333 
#    0.000    0.000    0.000    0.000    0.000    0.000 
#
# Total GULP energy -595237.355377 kJ/mol
# GULP energy per Si atom -12400.778237 kJ/mol
# Density = 1.829497 g / cm^3
# Si number density = 18.336706 Si / 1000 Ang^3
#
#
#
# Elastic Constant Matrix: (Units=GPa)
#
#
# Indices 1 2 3 4 5 6 
#
# 1 121.7882 34.6070 85.8418 0.0000 0.0000 0.0000
# 2 34.6070 32.1719 41.5035 0.0000 0.0000 0.0000
# 3 85.8418 41.5035 185.0411 0.0000 0.0000 0.0000
# 4 0.0000 0.0000 0.0000 1.8772 0.0000 0.0000
# 5 0.0000 0.0000 0.0000 0.0000 38.4474 0.0000
# 6 0.0000 0.0000 0.0000 0.0000 0.0000 21.6054
#
#
#
# Elastic Compliance Matrix: (Units=1/GPa)
#
#
# Indices 1 2 3 4 5 6 
#
# 1 0.013956 -0.009372 -0.004372 0.000000 0.000000 0.000000
# 2 -0.009372 0.050032 -0.006874 0.000000 0.000000 0.000000
# 3 -0.004372 -0.006874 0.008974 0.000000 0.000000 0.000000
# 4 0.000000 0.000000 0.000000 0.532699 0.000000 0.000000
# 5 0.000000 0.000000 0.000000 0.000000 0.026010 0.000000
# 6 0.000000 0.000000 0.000000 0.000000 0.000000 0.046285
#
#
# Mechanical properties :
#
#
# Convention : Reuss Voigt Hill
#
# Bulk Modulus (GPa) = 31.51988 73.65620 52.58804
# Shear Modulus (GPa) = 6.85150 24.18925 15.52037
#
# Velocity S-wave (km/s) = 1.93510 3.63598 2.91247
# Velocity P-wave (km/s) = 4.71377 7.60809 6.32861
#
# Compressibility (1/GPa) = 0.03172601
#
# Stress axis : x y z
#
# Youngs Moduli (GPa) = 71.65535 19.98707 111.42899
#
# Poissons Ratio (x) = 0.18731 0.48718
# Poissons Ratio (y) = 0.67154 0.76600
# Poissons Ratio (z) = 0.31329 0.13740
#
# Static dielectric constant tensor:
#      x y z
#    x 3.531580 0.000000 0.000000 
#    y 0.000000 3.137060 0.000000 
#    z 0.000000 0.000000 3.647530 
# 
# 
# High freq. dielectric constant tensor:
#      x y z
#    x 1.714530 0.000000 0.000000 
#    y 0.000000 1.685580 0.000000 
#    z 0.000000 0.000000 1.724400 
# 
# From -- ./inp_files/24700.got.cif
#   From: 2010.03.12/outbox.cif.g09.slc.cpg/sg51_13_cif.got.tgz:24700.got - 2010.04.16 13:43:02.
