data_PCOD8211164
_publ_section_title
;
Structure prediction by ZEFSAII (Michael W. Deem and Ramdas Pophale) SiO2 
 PCOD8211164
Probable space group: P M M A
;
_chemical_formula_sum "Si O2"
_cell_formula_units_Z 64
_cell_length_a 17.236534
_cell_length_b 15.919364
_cell_length_c 12.145197
_cell_angle_alpha 90.000000
_cell_angle_beta 90.000000
_cell_angle_gamma 90.000000
_cell_volume 3332.577187
_symmetry_space_group_name_H-M "P M M A"
_symmetry_group_IT_number 51
_symmetry_cell_setting 'orthorhombic'
loop_
_space_group_symop_operation_xyz
x,y,z
1/2-x,-y,z
1/2+x,-y,-z
-x,y,-z
-x,-y,-z
1/2+x,y,-z
1/2-x,y,z
x,-y,z
loop_
_atom_site_type_symbol
_atom_site_label
_atom_site_fract_x
_atom_site_fract_y
_atom_site_fract_z
Si Si1 0.335771 0.596727 0.765463
Si Si2 0.563318 0.668287 0.423127
Si Si3 0.577196 0.233367 0.928360
Si Si4 0.162276 0.197884 0.482885
Si Si5 0.908371 0.593518 0.004295
Si Si6 0.116108 0.095391 0.690852
Si Si7 0.534649 0.182746 0.684813
Si Si8 0.160109 0.905649 0.932263
O O1 0.250000 0.641190 0.752808
O O2 0.318747 0.500000 0.771002
O O3 0.395138 0.610674 0.665653
O O4 0.378971 0.624563 0.876357
O O5 0.500000 0.618554 0.500000
O O6 0.631811 0.707431 0.497876
O O7 0.515366 0.742500 0.366449
O O8 0.616913 0.327311 0.927095
O O9 0.562536 0.208316 0.804273
O O10 0.500000 0.241137 0.000000
O O11 0.628372 0.159747 0.979416
O O12 0.250000 0.200610 0.438883
O O13 0.159266 0.147464 0.596880
O O14 0.108180 0.156101 0.389319
O O15 0.873348 0.500000 0.972420
O O16 0.000000 0.582947 0.000000
O O17 0.144165 0.129233 0.809551
O O18 0.022661 0.102982 0.687170
O O19 0.141615 0.000000 0.674664
O O20 0.250000 0.912212 0.954539
O O21 0.123306 0.000000 0.946266
#
# Coordination Sequence:
#
# PCOD8211164 Si02
#       8
#     8   8   8   8   8   8   8   8
#     4  10  20  33  52  82 114 140 178 238 294 338
#     4   9  18  34  54  77 105 143 188 226 273 340
#     4  11  20  35  58  81 110 150 191 228 286 348
#     4  10  21  35  54  78 109 144 181 231 286 334
#     4   9  19  34  53  80 114 148 187 235 287 347
#     4  10  20  37  58  80 108 143 186 236 284 336
#     4  10  21  36  54  82 110 142 189 234 271 342
#     4  10  22  37  54  82 114 144 187 236 281 337
#
# _framework density 19.204357000000002
#
# number of rings (size 3 to 8) (size 9 to 14) (size 15 to 20)
#    0.000    2.125    1.250    3.375    1.750    3.750 
#    0.000    0.000    0.000    0.750    0.000    0.000 
#    0.000    0.000    0.000    0.000    0.000    0.000 
#
# Total GULP energy -793006.702634 kJ/mol
# GULP energy per Si atom -12390.729729 kJ/mol
# Density = 1.916065 g / cm^3
# Si number density = 19.204357 Si / 1000 Ang^3
#
#
#
# Elastic Constant Matrix: (Units=GPa)
#
#
# Indices 1 2 3 4 5 6 
#
# 1 108.3766 18.9027 36.7238 0.0000 0.0000 0.0000
# 2 18.9027 55.3284 16.7881 0.0000 0.0000 0.0000
# 3 36.7238 16.7881 76.4477 0.0000 0.0000 0.0000
# 4 0.0000 0.0000 0.0000 -34.1540 0.0000 0.0000
# 5 0.0000 0.0000 0.0000 0.0000 23.6959 0.0000
# 6 0.0000 0.0000 0.0000 0.0000 0.0000 10.6246
#
#
#
# Elastic Compliance Matrix: (Units=1/GPa)
#
#
# Indices 1 2 3 4 5 6 
#
# 1 0.011304 -0.002372 -0.004909 0.000000 0.000000 0.000000
# 2 -0.002372 0.019862 -0.003222 0.000000 0.000000 0.000000
# 3 -0.004909 -0.003222 0.016147 0.000000 0.000000 0.000000
# 4 0.000000 0.000000 0.000000 -0.029279 0.000000 0.000000
# 5 0.000000 0.000000 0.000000 0.000000 0.042201 0.000000
# 6 0.000000 0.000000 0.000000 0.000000 0.000000 0.094121
#
#
# Mechanical properties :
#
#
# Convention : Reuss Voigt Hill
#
# Bulk Modulus (GPa) = 38.01498 42.77577 40.39538
# Shear Modulus (GPa) = 27.15427 11.21583 19.18505
#
# Velocity S-wave (km/s) = 3.76435 2.41928 3.16412
# Velocity P-wave (km/s) = 6.22348 5.48874 5.86762
#
# Compressibility (1/GPa) = 0.02630542
#
# Stress axis : x y z
#
# Youngs Moduli (GPa) = 88.46069 50.34708 61.93178
#
# Poissons Ratio (x) = 0.11945 0.30405
# Poissons Ratio (y) = 0.20987 0.19955
# Poissons Ratio (z) = 0.43429 0.16222
#
# Static dielectric constant tensor:
#      x y z
#    x 3.686960 0.000000 0.000000 
#    y 0.000000 3.734750 0.000000 
#    z 0.000000 0.000000 3.656340 
# 
# 
# High freq. dielectric constant tensor:
#      x y z
#    x 1.745220 0.000000 0.000000 
#    y 0.000000 1.737090 0.000000 
#    z 0.000000 0.000000 1.739870 
# 
# From -- ./inp_files/16859.got.cif
#   From: 2010.03.12/outbox.cif.g09.slc.cpg/sg51_9_cif.got.tgz:16859.got - 2010.04.16 13:43:02.
