data_PCOD8211084
_publ_section_title
;
Structure prediction by ZEFSAII (Michael W. Deem and Ramdas Pophale) SiO2 
 PCOD8211084
Probable space group: P M M A
;
_chemical_formula_sum "Si O2"
_cell_formula_units_Z 40
_cell_length_a 10.119644
_cell_length_b 13.542860
_cell_length_c 15.296988
_cell_angle_alpha 90.000000
_cell_angle_beta 90.000000
_cell_angle_gamma 90.000000
_cell_volume 2096.435714
_symmetry_space_group_name_H-M "P M M A"
_symmetry_group_IT_number 51
_symmetry_cell_setting 'orthorhombic'
loop_
_space_group_symop_operation_xyz
x,y,z
1/2-x,-y,z
1/2+x,-y,-z
-x,y,-z
-x,-y,-z
1/2+x,y,-z
1/2-x,y,z
x,-y,z
loop_
_atom_site_type_symbol
_atom_site_label
_atom_site_fract_x
_atom_site_fract_y
_atom_site_fract_z
Si Si1 0.401525 0.110542 0.260261
Si Si2 0.394860 0.616029 0.566955
Si Si3 0.109581 0.112024 0.058026
Si Si4 0.096511 0.385280 0.920262
Si Si5 0.402278 0.278245 0.740665
O O1 0.250000 0.141766 0.280904
O O2 0.429864 0.110886 0.157820
O O3 0.507260 0.188404 0.295834
O O4 0.427716 0.000000 0.297425
O O5 0.500000 0.664843 0.500000
O O6 0.250000 0.658353 0.542103
O O7 0.396930 0.500000 0.555323
O O8 0.425576 0.637915 0.668207
O O9 0.250000 0.166509 0.043078
O O10 0.122867 0.000000 0.023729
O O11 0.000000 0.168894 0.000000
O O12 0.250000 0.366157 0.945472
O O13 0.075755 0.500000 0.896176
O O14 0.054584 0.321068 0.835093
O O15 0.000000 0.355040 0.000000
O O16 0.250000 0.243115 0.744251
#
# Coordination Sequence:
#
# PCOD8211084 Si02
#       5
#     8   8   8   8   8
#     4   9  19  34  48  65  94 131 169 211 257 299
#     4   9  18  34  56  82 110 135 160 197 249 307
#     4   8  14  25  40  57  79 111 153 200 247 290
#     4   9  18  33  51  72 102 139 175 210 250 299
#     4  10  20  33  52  77 103 134 171 210 253 301
#
# _framework density 19.080003999999999
#
# number of rings (size 3 to 8) (size 9 to 14) (size 15 to 20)
#    0.000    3.000    0.000    1.800    0.000    6.000 
#    0.000    6.000    0.000    6.600    0.000    0.000 
#    0.000    0.000    0.000    0.000    0.000    0.000 
#
# Total GULP energy -495609.126433 kJ/mol
# GULP energy per Si atom -12390.228161 kJ/mol
# Density = 1.903658 g / cm^3
# Si number density = 19.080004 Si / 1000 Ang^3
#
#
#
# Elastic Constant Matrix: (Units=GPa)
#
#
# Indices 1 2 3 4 5 6 
#
# 1 96.4635 31.3506 48.2953 0.0000 0.0000 0.0000
# 2 31.3506 54.2841 12.9181 0.0000 0.0000 0.0000
# 3 48.2953 12.9181 81.4867 0.0000 0.0000 0.0000
# 4 0.0000 0.0000 0.0000 12.1695 0.0000 0.0000
# 5 0.0000 0.0000 0.0000 0.0000 29.6317 0.0000
# 6 0.0000 0.0000 0.0000 0.0000 0.0000 22.9384
#
#
#
# Elastic Compliance Matrix: (Units=1/GPa)
#
#
# Indices 1 2 3 4 5 6 
#
# 1 0.017516 -0.007945 -0.009122 0.000000 0.000000 0.000000
# 2 -0.007945 0.022748 0.001103 0.000000 0.000000 0.000000
# 3 -0.009122 0.001103 0.017503 0.000000 0.000000 0.000000
# 4 0.000000 0.000000 0.000000 0.082172 0.000000 0.000000
# 5 0.000000 0.000000 0.000000 0.000000 0.033748 0.000000
# 6 0.000000 0.000000 0.000000 0.000000 0.000000 0.043595
#
#
# Mechanical properties :
#
#
# Convention : Reuss Voigt Hill
#
# Bulk Modulus (GPa) = 38.70175 46.37359 42.53767
# Shear Modulus (GPa) = 19.39321 22.25928 20.82624
#
# Velocity S-wave (km/s) = 3.19159 3.41930 3.30740
# Velocity P-wave (km/s) = 5.82319 6.32032 6.07684
#
# Compressibility (1/GPa) = 0.02583863
#
# Stress axis : x y z
#
# Youngs Moduli (GPa) = 57.09223 43.96057 57.13217
#
# Poissons Ratio (x) = 0.34927 0.52113
# Poissons Ratio (y) = 0.45360 -0.06300
# Poissons Ratio (z) = 0.52077 -0.04847
#
# Static dielectric constant tensor:
#      x y z
#    x 3.882480 0.000000 0.000000 
#    y 0.000000 3.429440 0.000000 
#    z 0.000000 0.000000 3.209510 
# 
# 
# High freq. dielectric constant tensor:
#      x y z
#    x 1.751270 0.000000 0.000000 
#    y 0.000000 1.727570 0.000000 
#    z 0.000000 0.000000 1.710200 
# 
# From -- ./inp_files/20488.got.cif
#   From: 2010.03.12/outbox.cif.g09.slc.cpg/sg51_11_cif.got.tgz:20488.got - 2010.04.16 13:43:02.
