data_PCOD8211407
_publ_section_title
;
Structure prediction by ZEFSAII (Michael W. Deem and Ramdas Pophale) SiO2 
 PCOD8211407
Probable space group: P M M A
;
_chemical_formula_sum "Si O2"
_cell_formula_units_Z 56
_cell_length_a 22.909058
_cell_length_b 9.114331
_cell_length_c 15.291010
_cell_angle_alpha 90.000000
_cell_angle_beta 90.000000
_cell_angle_gamma 90.000000
_cell_volume 3192.774165
_symmetry_space_group_name_H-M "P M M A"
_symmetry_group_IT_number 51
_symmetry_cell_setting 'orthorhombic'
loop_
_space_group_symop_operation_xyz
x,y,z
1/2-x,-y,z
1/2+x,-y,-z
-x,y,-z
-x,-y,-z
1/2+x,y,-z
1/2-x,y,z
x,-y,z
loop_
_atom_site_type_symbol
_atom_site_label
_atom_site_fract_x
_atom_site_fract_y
_atom_site_fract_z
Si Si1 0.317704 0.827117 0.329508
Si Si2 0.988823 0.168117 0.900383
Si Si3 0.315250 0.329606 0.993945
Si Si4 0.819283 0.334774 0.496877
Si Si5 0.817820 0.171489 0.324809
Si Si6 0.883040 0.832240 0.153495
Si Si7 0.878607 0.328918 0.829156
O O1 0.250000 0.787162 0.312962
O O2 0.340868 0.756534 0.419515
O O3 0.356851 0.761822 0.253261
O O4 0.327231 0.000000 0.335118
O O5 0.047377 0.185122 0.843225
O O6 0.942344 0.274744 0.856587
O O7 0.966220 0.000000 0.899163
O O8 0.000000 0.217980 0.000000
O O9 0.250000 0.268025 0.980251
O O10 0.318142 0.500000 0.971932
O O11 0.333231 0.298815 0.093294
O O12 0.359798 0.250548 0.930691
O O13 0.750000 0.335149 0.494842
O O14 0.844130 0.500000 0.501856
O O15 0.842260 0.257371 0.408934
O O16 0.750000 0.206011 0.306636
O O17 0.854766 0.230396 0.242287
O O18 0.827955 0.000000 0.341865
O O19 0.863974 0.000000 0.142425
O O20 0.881814 0.500000 0.805005
#
# Coordination Sequence:
#
# PCOD8211407 Si02
#       7
#     8   8   8   8   8   8   8
#     4  10  20  34  54  80 108 138 172 211 258 311
#     4  10  20  36  55  74 100 135 181 227 264 306
#     4  10  21  34  48  71 104 137 167 207 259 311
#     4   9  17  30  50  76 106 138 169 204 251 308
#     4   9  17  30  49  75 105 135 169 208 254 309
#     4  10  20  34  53  75 101 136 176 219 260 304
#     4  11  22  35  53  75 104 139 177 218 261 311
#
# _framework density 17.539605000000002
#
# number of rings (size 3 to 8) (size 9 to 14) (size 15 to 20)
#    0.000    2.143    1.429    2.143    0.000    6.000 
#    0.000    1.429    0.000    0.857    0.000    6.000 
#    0.000    0.000    0.000    0.000    0.000    0.000 
#
# Total GULP energy -694549.059329 kJ/mol
# GULP energy per Si atom -12402.661774 kJ/mol
# Density = 1.749968 g / cm^3
# Si number density = 17.539605 Si / 1000 Ang^3
#
#
#
# Elastic Constant Matrix: (Units=GPa)
#
#
# Indices 1 2 3 4 5 6 
#
# 1 58.4809 27.5537 25.6210 0.0000 0.0000 0.0000
# 2 27.5537 76.3675 50.7319 0.0000 0.0000 0.0000
# 3 25.6210 50.7319 107.2584 0.0000 0.0000 0.0000
# 4 0.0000 0.0000 0.0000 29.0552 0.0000 0.0000
# 5 0.0000 0.0000 0.0000 0.0000 15.2157 0.0000
# 6 0.0000 0.0000 0.0000 0.0000 0.0000 22.8047
#
#
#
# Elastic Compliance Matrix: (Units=1/GPa)
#
#
# Indices 1 2 3 4 5 6 
#
# 1 0.020915 -0.006164 -0.002080 0.000000 0.000000 0.000000
# 2 -0.006164 0.020911 -0.008418 0.000000 0.000000 0.000000
# 3 -0.002080 -0.008418 0.013802 0.000000 0.000000 0.000000
# 4 0.000000 0.000000 0.000000 0.034417 0.000000 0.000000
# 5 0.000000 0.000000 0.000000 0.000000 0.065722 0.000000
# 6 0.000000 0.000000 0.000000 0.000000 0.000000 0.043851
#
#
# Mechanical properties :
#
#
# Convention : Reuss Voigt Hill
#
# Bulk Modulus (GPa) = 44.83804 49.99110 47.41457
# Shear Modulus (GPa) = 20.80059 22.62847 21.71453
#
# Velocity S-wave (km/s) = 3.44746 3.59574 3.52238
# Velocity P-wave (km/s) = 6.43941 6.76778 6.60564
#
# Compressibility (1/GPa) = 0.02230249
#
# Stress axis : x y z
#
# Youngs Moduli (GPa) = 47.81167 47.82186 72.45368
#
# Poissons Ratio (x) = 0.29479 0.15074
# Poissons Ratio (y) = 0.29472 0.60993
# Poissons Ratio (z) = 0.09947 0.40257
#
# Static dielectric constant tensor:
#      x y z
#    x 3.123060 0.000000 0.000000 
#    y 0.000000 3.322230 0.000000 
#    z 0.000000 0.000000 3.336850 
# 
# 
# High freq. dielectric constant tensor:
#      x y z
#    x 1.653940 0.000000 0.000000 
#    y 0.000000 1.682400 0.000000 
#    z 0.000000 0.000000 1.683380 
# 
# From -- ./inp_files/25641.got.cif
#   From: 2010.03.12/outbox.cif.g09.slc.cpg/sg51_13_cif.got.tgz:25641.got - 2010.04.16 13:43:02.
