data_PCOD8211359
_publ_section_title
;
Structure prediction by ZEFSAII (Michael W. Deem and Ramdas Pophale) SiO2 
 PCOD8211359
Probable space group: P M M A
;
_chemical_formula_sum "Si O2"
_cell_formula_units_Z 64
_cell_length_a 18.407256
_cell_length_b 9.115810
_cell_length_c 20.707082
_cell_angle_alpha 90.000000
_cell_angle_beta 90.000000
_cell_angle_gamma 90.000000
_cell_volume 3474.587239
_symmetry_space_group_name_H-M "P M M A"
_symmetry_group_IT_number 51
_symmetry_cell_setting 'orthorhombic'
loop_
_space_group_symop_operation_xyz
x,y,z
1/2-x,-y,z
1/2+x,-y,-z
-x,y,-z
-x,-y,-z
1/2+x,y,-z
1/2-x,y,z
x,-y,z
loop_
_atom_site_type_symbol
_atom_site_label
_atom_site_fract_x
_atom_site_fract_y
_atom_site_fract_z
Si Si1 0.836128 0.667919 0.699731
Si Si2 0.428397 0.326228 0.808933
Si Si3 0.832911 0.171809 0.940768
Si Si4 0.917749 0.174222 0.813807
Si Si5 0.163485 0.835454 0.426855
Si Si6 0.836502 0.663462 0.450544
Si Si7 0.669206 0.674456 0.308714
Si Si8 0.167160 0.328551 0.931021
O O1 0.750000 0.678656 0.705402
O O2 0.862870 0.500000 0.703323
O O3 0.869593 0.761361 0.756917
O O4 0.863897 0.735882 0.632325
O O5 0.442762 0.500000 0.806540
O O6 0.502615 0.239502 0.811547
O O7 0.385956 0.269367 0.745619
O O8 0.381342 0.280446 0.870768
O O9 0.750000 0.219761 0.926854
O O10 0.881598 0.223438 0.881006
O O11 0.838929 0.000000 0.952094
O O12 0.862862 0.249207 0.005122
O O13 0.920051 0.000000 0.806635
O O14 0.250000 0.836548 0.428759
O O15 0.132262 0.768908 0.493672
O O16 0.133056 0.000000 0.418699
O O17 0.750000 0.656855 0.453623
O O18 0.867919 0.500000 0.461910
O O19 0.859320 0.724242 0.379668
O O20 0.750000 0.738490 0.295085
O O21 0.674117 0.500000 0.307141
O O22 0.250000 0.281170 0.916355
O O23 0.161610 0.500000 0.943700
#
# Coordination Sequence:
#
# PCOD8211359 Si02
#       8
#     8   8   8   8   8   8   8   8
#     4  10  20  34  54  78 101 128 166 211 255 300
#     4  10  20  34  52  75 104 136 171 210 252 299
#     4   9  19  36  56  75  97 129 167 205 247 300
#     4  11  23  37  52  72 102 138 173 208 250 301
#     4   9  16  26  43  70 103 134 162 198 248 301
#     4   8  13  23  42  69  98 127 163 206 248 292
#     4   8  14  27  50  76 100 131 171 212 253 299
#     4   9  18  33  55  81 105 130 164 209 256 299
#
# _framework density 18.419454999999999
#
# number of rings (size 3 to 8) (size 9 to 14) (size 15 to 20)
#    0.000    2.750    0.000    2.625    0.000    6.250 
#    0.000    4.375    0.000    2.625    0.000    5.250 
#    0.000    0.000    0.000    0.000    0.000    0.000 
#
# Total GULP energy -793511.338607 kJ/mol
# GULP energy per Si atom -12398.614666 kJ/mol
# Density = 1.837753 g / cm^3
# Si number density = 18.419455 Si / 1000 Ang^3
#
#
#
# Elastic Constant Matrix: (Units=GPa)
#
#
# Indices 1 2 3 4 5 6 
#
# 1 40.8229 28.0814 41.6652 0.0000 0.0000 0.0000
# 2 28.0814 67.4115 57.1391 0.0000 0.0000 0.0000
# 3 41.6652 57.1391 166.3283 0.0000 0.0000 0.0000
# 4 0.0000 0.0000 0.0000 11.4594 0.0000 0.0000
# 5 0.0000 0.0000 0.0000 0.0000 2.4864 0.0000
# 6 0.0000 0.0000 0.0000 0.0000 0.0000 22.9037
#
#
#
# Elastic Compliance Matrix: (Units=1/GPa)
#
#
# Indices 1 2 3 4 5 6 
#
# 1 0.037852 -0.010907 -0.005735 0.000000 0.000000 0.000000
# 2 -0.010907 0.024071 -0.005537 0.000000 0.000000 0.000000
# 3 -0.005735 -0.005537 0.009351 0.000000 0.000000 0.000000
# 4 0.000000 0.000000 0.000000 0.087264 0.000000 0.000000
# 5 0.000000 0.000000 0.000000 0.000000 0.402193 0.000000
# 6 0.000000 0.000000 0.000000 0.000000 0.000000 0.043661
#
#
# Mechanical properties :
#
#
# Convention : Reuss Voigt Hill
#
# Bulk Modulus (GPa) = 37.15224 58.70380 47.92802
# Shear Modulus (GPa) = 7.60199 17.21502 12.40851
#
# Velocity S-wave (km/s) = 2.03374 3.06046 2.59832
# Velocity P-wave (km/s) = 5.07235 6.66545 5.92271
#
# Compressibility (1/GPa) = 0.02691628
#
# Stress axis : x y z
#
# Youngs Moduli (GPa) = 26.41856 41.54389 106.94051
#
# Poissons Ratio (x) = 0.45311 0.61332
# Poissons Ratio (y) = 0.28814 0.59213
# Poissons Ratio (z) = 0.15151 0.23003
#
# Static dielectric constant tensor:
#      x y z
#    x 2.854040 0.000000 0.000000 
#    y 0.000000 3.328400 0.000000 
#    z 0.000000 0.000000 3.748730 
# 
# 
# High freq. dielectric constant tensor:
#      x y z
#    x 1.679670 0.000000 0.000000 
#    y 0.000000 1.701290 0.000000 
#    z 0.000000 0.000000 1.733700 
# 
# From -- ./inp_files/33757.got.cif
#   From: 2010.03.12/outbox.cif.g09.slc.cpg/sg51_17_cif.got.tgz:33757.got - 2010.04.16 13:43:02.
