data_PCOD8211096
_publ_section_title
;
Structure prediction by ZEFSAII (Michael W. Deem and Ramdas Pophale) SiO2 
 PCOD8211096
Probable space group: P M M A
;
_chemical_formula_sum "Si O2"
_cell_formula_units_Z 64
_cell_length_a 17.243912
_cell_length_b 8.897278
_cell_length_c 22.818486
_cell_angle_alpha 90.000000
_cell_angle_beta 90.000000
_cell_angle_gamma 90.000000
_cell_volume 3500.900632
_symmetry_space_group_name_H-M "P M M A"
_symmetry_group_IT_number 51
_symmetry_cell_setting 'orthorhombic'
loop_
_space_group_symop_operation_xyz
x,y,z
1/2-x,-y,z
1/2+x,-y,-z
-x,y,-z
-x,-y,-z
1/2+x,y,-z
1/2-x,y,z
x,-y,z
loop_
_atom_site_type_symbol
_atom_site_label
_atom_site_fract_x
_atom_site_fract_y
_atom_site_fract_z
Si Si1 0.558651 0.327454 0.133352
Si Si2 0.398939 0.671603 0.069975
Si Si3 0.428671 0.165105 0.456339
Si Si4 0.837829 0.822107 0.435968
Si Si5 0.489687 0.824259 0.243557
Si Si6 0.974348 0.676695 0.365385
Si Si7 0.663788 0.828014 0.820316
Si Si8 0.660110 0.825781 0.043317
O O1 0.570914 0.500000 0.152183
O O2 0.487898 0.310773 0.088319
O O3 0.544571 0.227756 0.190733
O O4 0.634547 0.265648 0.100885
O O5 0.378131 0.500000 0.054756
O O6 0.343923 0.724773 0.122686
O O7 0.386739 0.772601 0.013310
O O8 0.500000 0.151377 0.500000
O O9 0.357380 0.224897 0.496452
O O10 0.450232 0.276039 0.403486
O O11 0.409922 0.000000 0.429671
O O12 0.750000 0.772852 0.422096
O O13 0.894241 0.742774 0.389985
O O14 0.849728 0.000000 0.429306
O O15 0.514094 0.732199 0.299979
O O16 0.399878 0.785404 0.228641
O O17 0.502094 0.000000 0.255147
O O18 0.967609 0.500000 0.366432
O O19 0.750000 0.804462 0.793636
O O20 0.650792 0.000000 0.840367
O O21 0.750000 0.793930 0.032367
O O22 0.642374 0.000000 0.054021
#
# Coordination Sequence:
#
# PCOD8211096 Si02
#       8
#     8   8   8   8   8   8   8   8
#     4  10  21  37  55  76 102 131 168 214 261 311
#     4  10  20  33  52  78 104 131 164 204 256 316
#     4   8  15  30  52  76 102 133 168 204 246 297
#     4   9  18  34  56  81 108 138 174 217 261 303
#     4  10  20  36  57  76 100 138 179 216 254 301
#     4  11  21  33  52  78 108 141 177 215 254 301
#     4   9  18  33  53  77 102 129 166 212 259 307
#     4  11  23  36  51  74 103 134 170 211 255 307
#
# _framework density 18.281009999999998
#
# number of rings (size 3 to 8) (size 9 to 14) (size 15 to 20)
#    0.000    2.250    0.000    4.125    0.000    8.750 
#    0.000    1.250    0.000    7.500    0.000    0.000 
#    0.000    0.000    0.000    0.000    0.000    0.000 
#
# Total GULP energy -793605.586284 kJ/mol
# GULP energy per Si atom -12400.087286 kJ/mol
# Density = 1.823940 g / cm^3
# Si number density = 18.281010 Si / 1000 Ang^3
#
#
#
# Elastic Constant Matrix: (Units=GPa)
#
#
# Indices 1 2 3 4 5 6 
#
# 1 67.5662 41.9778 48.7456 0.0000 0.0000 0.0000
# 2 41.9778 72.9362 32.1936 0.0000 0.0000 0.0000
# 3 48.7456 32.1936 93.2124 0.0000 0.0000 0.0000
# 4 0.0000 0.0000 0.0000 16.9198 0.0000 0.0000
# 5 0.0000 0.0000 0.0000 0.0000 17.8901 0.0000
# 6 0.0000 0.0000 0.0000 0.0000 0.0000 17.3530
#
#
#
# Elastic Compliance Matrix: (Units=1/GPa)
#
#
# Indices 1 2 3 4 5 6 
#
# 1 0.031398 -0.012770 -0.012009 0.000000 0.000000 0.000000
# 2 -0.012770 0.021371 -0.000703 0.000000 0.000000 0.000000
# 3 -0.012009 -0.000703 0.017251 0.000000 0.000000 0.000000
# 4 0.000000 0.000000 0.000000 0.059102 0.000000 0.000000
# 5 0.000000 0.000000 0.000000 0.000000 0.055897 0.000000
# 6 0.000000 0.000000 0.000000 0.000000 0.000000 0.057627
#
#
# Mechanical properties :
#
#
# Convention : Reuss Voigt Hill
#
# Bulk Modulus (GPa) = 52.47789 53.28321 52.88055
# Shear Modulus (GPa) = 16.66875 17.81909 17.24392
#
# Velocity S-wave (km/s) = 3.02289 3.12546 3.07460
# Velocity P-wave (km/s) = 6.39940 6.49882 6.44930
#
# Compressibility (1/GPa) = 0.01905565
#
# Stress axis : x y z
#
# Youngs Moduli (GPa) = 31.84883 46.79328 57.96708
#
# Poissons Ratio (x) = 0.59756 0.69614
# Poissons Ratio (y) = 0.40672 0.04073
# Poissons Ratio (z) = 0.38248 0.03288
#
# Static dielectric constant tensor:
#      x y z
#    x 3.548480 0.000000 0.000000 
#    y 0.000000 3.410930 0.000000 
#    z 0.000000 0.000000 3.309130 
# 
# 
# High freq. dielectric constant tensor:
#      x y z
#    x 1.699800 0.000000 0.000000 
#    y 0.000000 1.713550 0.000000 
#    z 0.000000 0.000000 1.696590 
# 
# From -- ./inp_files/33921.got.cif
#   From: 2010.03.12/outbox.cif.g09.slc.cpg/sg51_17_cif.got.tgz:33921.got - 2010.04.16 13:43:02.
