data_PCOD8211354
_publ_section_title
;
Structure prediction by ZEFSAII (Michael W. Deem and Ramdas Pophale) SiO2 
 PCOD8211354
Probable space group: P M M A
;
_chemical_formula_sum "Si O2"
_cell_formula_units_Z 48
_cell_length_a 8.945830
_cell_length_b 31.112871
_cell_length_c 9.256431
_cell_angle_alpha 90.000000
_cell_angle_beta 90.000000
_cell_angle_gamma 90.000000
_cell_volume 2576.346650
_symmetry_space_group_name_H-M "P M M A"
_symmetry_group_IT_number 51
_symmetry_cell_setting 'orthorhombic'
loop_
_space_group_symop_operation_xyz
x,y,z
1/2-x,-y,z
1/2+x,-y,-z
-x,y,-z
-x,-y,-z
1/2+x,y,-z
1/2-x,y,z
x,-y,z
loop_
_atom_site_type_symbol
_atom_site_label
_atom_site_fract_x
_atom_site_fract_y
_atom_site_fract_z
Si Si1 0.424400 0.277626 0.155977
Si Si2 0.424762 0.546651 0.843552
Si Si3 0.424789 0.124711 0.847446
Si Si4 0.926567 0.206047 0.345580
Si Si5 0.577756 0.626941 0.846298
Si Si6 0.074232 0.951514 0.649822
O O1 0.250000 0.265641 0.139481
O O2 0.504698 0.247560 0.270238
O O3 0.442833 0.325806 0.222746
O O4 0.500000 0.272308 0.000000
O O5 0.250000 0.555091 0.859807
O O6 0.454038 0.500000 0.767436
O O7 0.498693 0.587394 0.757546
O O8 0.500000 0.545458 0.000000
O O9 0.250000 0.122376 0.874094
O O10 0.468850 0.164355 0.746753
O O11 0.483122 0.080627 0.774041
O O12 0.500000 0.131450 0.000000
O O13 0.750000 0.212149 0.362042
O O14 0.000000 0.199675 0.500000
O O15 0.750000 0.615191 0.864563
O O16 0.500000 0.629678 0.000000
O O17 0.250000 0.946893 0.627396
O O18 0.000000 0.937907 0.500000
O O19 0.028582 0.000000 0.694398
#
# Coordination Sequence:
#
# PCOD8211354 Si02
#       6
#     8   8   8   8   8   8
#     4  10  20  34  52  75 102 132 169 211 256 307
#     4   9  15  21  31  50  79 116 156 196 238 287
#     4  10  22  37  54  79 108 138 173 213 257 305
#     4  11  23  38  56  77 102 133 169 211 259 310
#     4   9  16  25  39  59  85 119 157 198 243 292
#     4   9  18  34  55  79 108 141 177 216 257 302
#
# _framework density 18.631032999999999
#
# number of rings (size 3 to 8) (size 9 to 14) (size 15 to 20)
#    0.000    2.333    0.000    4.000    0.000    6.667 
#    0.000    0.000    0.000    0.000    0.000    0.000 
#    0.000    0.667    0.000    2.167    0.000    9.333 
#
# Total GULP energy -594862.553182 kJ/mol
# GULP energy per Si atom -12392.969858 kJ/mol
# Density = 1.858863 g / cm^3
# Si number density = 18.631033 Si / 1000 Ang^3
#
#
#
# Elastic Constant Matrix: (Units=GPa)
#
#
# Indices 1 2 3 4 5 6 
#
# 1 102.2907 74.0346 51.4488 0.0000 0.0000 0.0000
# 2 74.0346 165.4727 71.1055 0.0000 0.0000 0.0000
# 3 51.4488 71.1055 100.9707 0.0000 0.0000 0.0000
# 4 0.0000 0.0000 0.0000 16.4992 0.0000 0.0000
# 5 0.0000 0.0000 0.0000 0.0000 26.0985 0.0000
# 6 0.0000 0.0000 0.0000 0.0000 0.0000 18.3183
#
#
#
# Elastic Compliance Matrix: (Units=1/GPa)
#
#
# Indices 1 2 3 4 5 6 
#
# 1 0.015701 -0.005143 -0.004378 0.000000 0.000000 0.000000
# 2 -0.005143 0.010351 -0.004668 0.000000 0.000000 0.000000
# 3 -0.004378 -0.004668 0.015422 0.000000 0.000000 0.000000
# 4 0.000000 0.000000 0.000000 0.060609 0.000000 0.000000
# 5 0.000000 0.000000 0.000000 0.000000 0.038316 0.000000
# 6 0.000000 0.000000 0.000000 0.000000 0.000000 0.054590
#
#
# Mechanical properties :
#
#
# Convention : Reuss Voigt Hill
#
# Bulk Modulus (GPa) = 76.37146 84.65689 80.51418
# Shear Modulus (GPa) = 21.95552 23.65955 22.80754
#
# Velocity S-wave (km/s) = 3.43656 3.56743 3.50261
# Velocity P-wave (km/s) = 7.53838 7.90608 7.72442
#
# Compressibility (1/GPa) = 0.01309390
#
# Stress axis : x y z
#
# Youngs Moduli (GPa) = 63.69142 96.61358 64.84171
#
# Poissons Ratio (x) = 0.49692 0.28388
# Poissons Ratio (y) = 0.32759 0.30270
# Poissons Ratio (z) = 0.27885 0.45102
#
# Static dielectric constant tensor:
#      x y z
#    x 3.529770 0.000000 0.000000 
#    y 0.000000 4.519240 0.000000 
#    z 0.000000 0.000000 2.850620 
# 
# 
# High freq. dielectric constant tensor:
#      x y z
#    x 1.734500 0.000000 0.000000 
#    y 0.000000 1.755550 0.000000 
#    z 0.000000 0.000000 1.667930 
# 
# From -- ./inp_files/6035.got.cif
#   From: 2010.03.12/outbox.cif.g09.slc.cpg/sg51_4_cif.got.tgz:6035.got - 2010.04.16 13:43:02.
