data_PCOD8211713
_publ_section_title
;
Structure prediction by ZEFSAII (Michael W. Deem and Ramdas Pophale) SiO2 
 PCOD8211713
Probable space group: P M M A
;
_chemical_formula_sum "Si O2"
_cell_formula_units_Z 56
_cell_length_a 9.047221
_cell_length_b 14.179309
_cell_length_c 23.530054
_cell_angle_alpha 90.000000
_cell_angle_beta 90.000000
_cell_angle_gamma 90.000000
_cell_volume 3018.513968
_symmetry_space_group_name_H-M "P M M A"
_symmetry_group_IT_number 51
_symmetry_cell_setting 'orthorhombic'
loop_
_space_group_symop_operation_xyz
x,y,z
1/2-x,-y,z
1/2+x,-y,-z
-x,y,-z
-x,-y,-z
1/2+x,y,-z
1/2-x,y,z
x,-y,z
loop_
_atom_site_type_symbol
_atom_site_label
_atom_site_fract_x
_atom_site_fract_y
_atom_site_fract_z
Si Si1 0.923971 0.763526 0.143686
Si Si2 0.918063 0.111592 0.943460
Si Si3 0.421854 0.260074 0.559453
Si Si4 0.422127 0.394086 0.943959
Si Si5 0.579488 0.891593 0.346958
Si Si6 0.578778 0.608146 0.643376
Si Si7 0.922435 0.239490 0.736700
O O1 0.750000 0.782352 0.146731
O O2 0.964578 0.668610 0.109930
O O3 0.999853 0.851393 0.112485
O O4 0.987276 0.750507 0.205957
O O5 0.750000 0.148641 0.945260
O O6 0.923737 0.000000 0.940111
O O7 0.000000 0.148695 0.000000
O O8 0.500000 0.244653 0.500000
O O9 0.250000 0.276980 0.549108
O O10 0.453759 0.166218 0.595835
O O11 0.485001 0.352219 0.590874
O O12 0.250000 0.391529 0.956413
O O13 0.477935 0.500000 0.931004
O O14 0.500000 0.352868 0.000000
O O15 0.750000 0.879656 0.328687
O O16 0.477458 0.853262 0.296339
O O17 0.538623 0.000000 0.358603
O O18 0.750000 0.617918 0.626927
O O19 0.533701 0.500000 0.654567
O O20 0.543328 0.666910 0.700196
O O21 0.750000 0.228042 0.750096
#
# Coordination Sequence:
#
# PCOD8211713 Si02
#       7
#     8   8   8   8   8   8   8
#     4  11  22  35  54  78 105 139 176 215 260 310
#     4  10  21  37  56  78 105 136 171 214 264 317
#     4  10  20  34  54  82 113 142 175 215 258 306
#     4   9  19  35  53  75 103 134 169 209 255 308
#     4   9  19  37  58  78 104 140 178 215 258 308
#     4   9  19  37  58  78 104 140 179 219 264 311
#     4  10  21  36  54  78 106 135 173 220 265 311
#
# _framework density 18.552174999999998
#
# number of rings (size 3 to 8) (size 9 to 14) (size 15 to 20)
#    0.000    2.286    0.000    2.143    0.000    6.571 
#    0.000    0.000    0.000    0.000    0.000    0.000 
#    0.000    0.000    0.000    0.000    0.000    0.000 
#
# Total GULP energy -694611.377813 kJ/mol
# GULP energy per Si atom -12403.774604 kJ/mol
# Density = 1.850995 g / cm^3
# Si number density = 18.552175 Si / 1000 Ang^3
#
#
#
# Elastic Constant Matrix: (Units=GPa)
#
#
# Indices 1 2 3 4 5 6 
#
# 1 107.1586 50.5796 74.3615 0.0000 0.0000 0.0000
# 2 50.5796 104.8227 53.6320 0.0000 0.0000 0.0000
# 3 74.3615 53.6320 142.3186 0.0000 0.0000 0.0000
# 4 0.0000 0.0000 0.0000 17.9646 0.0000 0.0000
# 5 0.0000 0.0000 0.0000 0.0000 39.2376 0.0000
# 6 0.0000 0.0000 0.0000 0.0000 0.0000 24.9930
#
#
#
# Elastic Compliance Matrix: (Units=1/GPa)
#
#
# Indices 1 2 3 4 5 6 
#
# 1 0.016054 -0.004280 -0.006775 0.000000 0.000000 0.000000
# 2 -0.004280 0.012960 -0.002648 0.000000 0.000000 0.000000
# 3 -0.006775 -0.002648 0.011564 0.000000 0.000000 0.000000
# 4 0.000000 0.000000 0.000000 0.055665 0.000000 0.000000
# 5 0.000000 0.000000 0.000000 0.000000 0.025486 0.000000
# 6 0.000000 0.000000 0.000000 0.000000 0.000000 0.040011
#
#
# Mechanical properties :
#
#
# Convention : Reuss Voigt Hill
#
# Bulk Modulus (GPa) = 75.91641 79.04957 77.48299
# Shear Modulus (GPa) = 25.83507 28.15418 26.99462
#
# Velocity S-wave (km/s) = 3.73575 3.89982 3.81867
# Velocity P-wave (km/s) = 7.72121 7.93599 7.82934
#
# Compressibility (1/GPa) = 0.01317238
#
# Stress axis : x y z
#
# Youngs Moduli (GPa) = 62.29125 77.16266 86.47322
#
# Poissons Ratio (x) = 0.33024 0.58587
# Poissons Ratio (y) = 0.26659 0.22895
# Poissons Ratio (z) = 0.42204 0.20430
#
# Static dielectric constant tensor:
#      x y z
#    x 3.545070 0.000000 0.000000 
#    y 0.000000 3.529360 0.000000 
#    z 0.000000 0.000000 3.376050 
# 
# 
# High freq. dielectric constant tensor:
#      x y z
#    x 1.728930 0.000000 0.000000 
#    y 0.000000 1.723860 0.000000 
#    z 0.000000 0.000000 1.717780 
# 
# From -- ./inp_files/31874.got.cif
#   From: 2010.03.12/outbox.cif.g09.slc.cpg/sg51_16_cif.got.tgz:31874.got - 2010.04.16 13:43:02.
