data_PCOD8211194
_publ_section_title
;
Structure prediction by ZEFSAII (Michael W. Deem and Ramdas Pophale) SiO2 
 PCOD8211194
Probable space group: P M M A
;
_chemical_formula_sum "Si O2"
_cell_formula_units_Z 48
_cell_length_a 8.874452
_cell_length_b 14.187588
_cell_length_c 20.724330
_cell_angle_alpha 90.000000
_cell_angle_beta 90.000000
_cell_angle_gamma 90.000000
_cell_volume 2609.339641
_symmetry_space_group_name_H-M "P M M A"
_symmetry_group_IT_number 51
_symmetry_cell_setting 'orthorhombic'
loop_
_space_group_symop_operation_xyz
x,y,z
1/2-x,-y,z
1/2+x,-y,-z
-x,y,-z
-x,-y,-z
1/2+x,y,-z
1/2-x,y,z
x,-y,z
loop_
_atom_site_type_symbol
_atom_site_label
_atom_site_fract_x
_atom_site_fract_y
_atom_site_fract_z
Si Si1 0.927293 0.107425 0.934896
Si Si2 0.925863 0.890297 0.311932
Si Si3 0.072063 0.214497 0.191871
Si Si4 0.578023 0.395135 0.632969
Si Si5 0.425185 0.393449 0.766915
Si Si6 0.074218 0.205756 0.432977
O O1 0.750000 0.115009 0.942274
O O2 0.985040 0.166624 0.873903
O O3 0.980204 0.000000 0.924272
O O4 0.000000 0.149231 0.000000
O O5 0.750000 0.867722 0.316892
O O6 0.993631 0.834444 0.252109
O O7 0.004484 0.858073 0.377377
O O8 0.958091 0.000000 0.301056
O O9 0.250000 0.205000 0.200223
O O10 0.022361 0.323648 0.188491
O O11 0.750000 0.384059 0.657893
O O12 0.551988 0.500000 0.603635
O O13 0.467438 0.377447 0.692465
O O14 0.542132 0.316866 0.579260
O O15 0.250000 0.370696 0.775302
O O16 0.463454 0.500000 0.788344
O O17 0.250000 0.183920 0.436612
O O18 0.000000 0.176050 0.500000
#
# Coordination Sequence:
#
# PCOD8211194 Si02
#       6
#     8   8   8   8   8   8
#     4   9  19  35  55  82 116 151 186 223 268 323
#     4  11  24  40  58  81 108 140 183 233 279 328
#     4  11  21  35  58  86 115 148 183 225 274 327
#     4   9  18  34  55  79 107 140 178 220 272 331
#     4  10  20  33  53  82 113 145 182 226 273 322
#     4  11  23  38  57  79 107 145 183 228 280 333
#
# _framework density 18.39546
#
# number of rings (size 3 to 8) (size 9 to 14) (size 15 to 20)
#    0.000    1.833    1.667    2.500    0.000    5.667 
#    0.000    1.667    0.000    0.500    0.000    0.000 
#    0.000    0.000    0.000    0.000    0.000    0.000 
#
# Total GULP energy -595314.667289 kJ/mol
# GULP energy per Si atom -12402.388902 kJ/mol
# Density = 1.835359 g / cm^3
# Si number density = 18.395460 Si / 1000 Ang^3
#
#
#
# Elastic Constant Matrix: (Units=GPa)
#
#
# Indices 1 2 3 4 5 6 
#
# 1 77.4671 45.3878 43.4643 0.0000 0.0000 0.0000
# 2 45.3878 96.3092 54.6659 0.0000 0.0000 0.0000
# 3 43.4643 54.6659 127.7243 0.0000 0.0000 0.0000
# 4 0.0000 0.0000 0.0000 39.4094 0.0000 0.0000
# 5 0.0000 0.0000 0.0000 0.0000 32.2107 0.0000
# 6 0.0000 0.0000 0.0000 0.0000 0.0000 29.8859
#
#
#
# Elastic Compliance Matrix: (Units=1/GPa)
#
#
# Indices 1 2 3 4 5 6 
#
# 1 0.018926 -0.006953 -0.003465 0.000000 0.000000 0.000000
# 2 -0.006953 0.016269 -0.004597 0.000000 0.000000 0.000000
# 3 -0.003465 -0.004597 0.010976 0.000000 0.000000 0.000000
# 4 0.000000 0.000000 0.000000 0.025375 0.000000 0.000000
# 5 0.000000 0.000000 0.000000 0.000000 0.031046 0.000000
# 6 0.000000 0.000000 0.000000 0.000000 0.000000 0.033461
#
#
# Mechanical properties :
#
#
# Convention : Reuss Voigt Hill
#
# Bulk Modulus (GPa) = 61.95010 65.39296 63.67153
# Shear Modulus (GPa) = 29.16083 30.83336 29.99710
#
# Velocity S-wave (km/s) = 3.98580 4.09851 4.04255
# Velocity P-wave (km/s) = 7.41162 7.61726 7.51514
#
# Compressibility (1/GPa) = 0.01614202
#
# Stress axis : x y z
#
# Youngs Moduli (GPa) = 52.83645 61.46541 91.10753
#
# Poissons Ratio (x) = 0.42736 0.31567
# Poissons Ratio (y) = 0.36736 0.41884
# Poissons Ratio (z) = 0.18307 0.28257
#
# Static dielectric constant tensor:
#      x y z
#    x 3.465750 0.000000 0.000000 
#    y 0.000000 3.681320 0.000000 
#    z 0.000000 0.000000 3.231890 
# 
# 
# High freq. dielectric constant tensor:
#      x y z
#    x 1.722960 0.000000 0.000000 
#    y 0.000000 1.721570 0.000000 
#    z 0.000000 0.000000 1.693180 
# 
# From -- ./inp_files/27558.got.cif
#   From: 2010.03.12/outbox.cif.g09.slc.cpg/sg51_14_cif.got.tgz:27558.got - 2010.04.16 13:43:02.
