data_PCOD8211697
_publ_section_title
;
Structure prediction by ZEFSAII (Michael W. Deem and Ramdas Pophale) SiO2 
 PCOD8211697
Probable space group: P M M A
;
_chemical_formula_sum "Si O2"
_cell_formula_units_Z 52
_cell_length_a 8.874947
_cell_length_b 10.525178
_cell_length_c 29.716355
_cell_angle_alpha 90.000000
_cell_angle_beta 90.000000
_cell_angle_gamma 90.000000
_cell_volume 2775.816515
_symmetry_space_group_name_H-M "P M M A"
_symmetry_group_IT_number 51
_symmetry_cell_setting 'orthorhombic'
loop_
_space_group_symop_operation_xyz
x,y,z
1/2-x,-y,z
1/2+x,-y,-z
-x,y,-z
-x,-y,-z
1/2+x,y,-z
1/2-x,y,z
x,-y,z
loop_
_atom_site_type_symbol
_atom_site_label
_atom_site_fract_x
_atom_site_fract_y
_atom_site_fract_z
Si Si1 0.584074 0.145262 0.042561
Si Si2 0.917235 0.350041 0.295855
Si Si3 0.928043 0.500000 0.048885
Si Si4 0.927638 0.713749 0.890429
Si Si5 0.572452 0.352977 0.612515
Si Si6 0.420676 0.650770 0.208011
Si Si7 0.427345 0.855949 0.548285
O O1 0.750000 0.208681 0.048680
O O2 0.480044 0.153205 0.087847
O O3 0.608085 0.000000 0.030991
O O4 0.500000 0.211573 0.000000
O O5 0.750000 0.294188 0.304288
O O6 0.910086 0.500000 0.290728
O O7 0.024911 0.313792 0.337167
O O8 0.982500 0.293069 0.249394
O O9 0.750000 0.500000 0.044035
O O10 0.981958 0.620031 0.077284
O O11 0.000000 0.500000 0.000000
O O12 0.750000 0.687262 0.892607
O O13 0.983106 0.706665 0.838837
O O14 0.750000 0.337510 0.607603
O O15 0.524515 0.500000 0.601869
O O16 0.492105 0.253511 0.580020
O O17 0.250000 0.694685 0.216330
O O18 0.431565 0.500000 0.205053
O O19 0.500000 0.835221 0.500000
O O20 0.250000 0.835715 0.544153
O O21 0.463693 0.000000 0.565807
#
# Coordination Sequence:
#
# PCOD8211697 Si02
#       7
#     8   8   4   8   8   8   8
#     4  10  21  37  55  74  95 123 162 205 249 299
#     4   9  17  29  48  75 105 137 174 218 265 310
#     4  12  24  36  50  70 102 136 166 200 247 302
#     4  11  21  35  53  75 102 131 165 203 250 302
#     4  10  20  34  54  81 112 147 187 231 280 329
#     4   9  17  31  49  71 102 136 168 205 253 310
#     4  10  21  37  57  81 111 149 191 233 279 333
#
# _framework density 18.733225999999998
#
# number of rings (size 3 to 8) (size 9 to 14) (size 15 to 20)
#    0.000    2.000    0.769    3.462    0.000    6.154 
#    0.000    0.000    0.000    0.923    0.000    4.308 
#    0.000    0.000    0.000    0.000    0.000    0.000 
#
# Total GULP energy -644481.959667 kJ/mol
# GULP energy per Si atom -12393.883840 kJ/mol
# Density = 1.869059 g / cm^3
# Si number density = 18.733226 Si / 1000 Ang^3
#
#
#
# Elastic Constant Matrix: (Units=GPa)
#
#
# Indices 1 2 3 4 5 6 
#
# 1 118.8833 38.9905 71.1595 0.0000 0.0000 0.0000
# 2 38.9905 61.5034 56.0092 0.0000 0.0000 0.0000
# 3 71.1595 56.0092 155.9441 0.0000 0.0000 0.0000
# 4 0.0000 0.0000 0.0000 14.2335 0.0000 0.0000
# 5 0.0000 0.0000 0.0000 0.0000 38.0753 0.0000
# 6 0.0000 0.0000 0.0000 0.0000 0.0000 23.3459
#
#
#
# Elastic Compliance Matrix: (Units=1/GPa)
#
#
# Indices 1 2 3 4 5 6 
#
# 1 0.012187 -0.003956 -0.004141 0.000000 0.000000 0.000000
# 2 -0.003956 0.025446 -0.007334 0.000000 0.000000 0.000000
# 3 -0.004141 -0.007334 0.010936 0.000000 0.000000 0.000000
# 4 0.000000 0.000000 0.000000 0.070257 0.000000 0.000000
# 5 0.000000 0.000000 0.000000 0.000000 0.026264 0.000000
# 6 0.000000 0.000000 0.000000 0.000000 0.000000 0.042834
#
#
# Mechanical properties :
#
#
# Convention : Reuss Voigt Hill
#
# Bulk Modulus (GPa) = 56.46947 74.29438 65.38192
# Shear Modulus (GPa) = 22.25311 26.47570 24.36440
#
# Velocity S-wave (km/s) = 3.45032 3.76347 3.61029
# Velocity P-wave (km/s) = 6.78840 7.65703 7.23577
#
# Compressibility (1/GPa) = 0.01770869
#
# Stress axis : x y z
#
# Youngs Moduli (GPa) = 82.05241 39.29896 91.43999
#
# Poissons Ratio (x) = 0.15545 0.37861
# Poissons Ratio (y) = 0.32456 0.67064
# Poissons Ratio (z) = 0.33974 0.28823
#
# Static dielectric constant tensor:
#      x y z
#    x 3.798370 0.000000 0.000000 
#    y 0.000000 12.655830 0.000000 
#    z 0.000000 0.000000 3.217280 
# 
# 
# High freq. dielectric constant tensor:
#      x y z
#    x 1.743430 0.000000 0.000000 
#    y 0.000000 1.695220 0.000000 
#    z 0.000000 0.000000 1.731510 
# 
# From -- ./inp_files/36252.got.cif
#   From: 2010.03.12/outbox.cif.g09.slc.cpg/sg51_19_cif.got.tgz:36252.got - 2010.04.16 13:43:02.
