data_PCOD8211516
_publ_section_title
;
Structure prediction by ZEFSAII (Michael W. Deem and Ramdas Pophale) SiO2 
 PCOD8211516
Probable space group: P M M A
;
_chemical_formula_sum "Si O2"
_cell_formula_units_Z 64
_cell_length_a 9.181025
_cell_length_b 15.150646
_cell_length_c 23.649134
_cell_angle_alpha 90.000000
_cell_angle_beta 90.000000
_cell_angle_gamma 90.000000
_cell_volume 3289.558112
_symmetry_space_group_name_H-M "P M M A"
_symmetry_group_IT_number 51
_symmetry_cell_setting 'orthorhombic'
loop_
_space_group_symop_operation_xyz
x,y,z
1/2-x,-y,z
1/2+x,-y,-z
-x,y,-z
-x,-y,-z
1/2+x,y,-z
1/2-x,y,z
x,-y,z
loop_
_atom_site_type_symbol
_atom_site_label
_atom_site_fract_x
_atom_site_fract_y
_atom_site_fract_z
Si Si1 0.414001 0.103107 0.054569
Si Si2 0.591840 0.663147 0.152099
Si Si3 0.414090 0.402960 0.731104
Si Si4 0.921656 0.399128 0.558377
Si Si5 0.581019 0.098052 0.716244
Si Si6 0.415675 0.139230 0.829296
Si Si7 0.921052 0.274016 0.657870
Si Si8 0.418288 0.399395 0.053545
O O1 0.250000 0.144651 0.057721
O O2 0.500830 0.119632 0.112485
O O3 0.398057 0.000000 0.045018
O O4 0.500000 0.143694 0.000000
O O5 0.750000 0.649598 0.122212
O O6 0.572039 0.591338 0.201133
O O7 0.585518 0.757186 0.182351
O O8 0.462383 0.657373 0.107469
O O9 0.250000 0.374818 0.713358
O O10 0.450615 0.500000 0.706963
O O11 0.530632 0.332798 0.710371
O O12 0.750000 0.389090 0.549451
O O13 0.958302 0.500000 0.578589
O O14 0.982713 0.324106 0.601920
O O15 0.000000 0.378035 0.500000
O O16 0.750000 0.116544 0.730648
O O17 0.494219 0.097003 0.775208
O O18 0.526225 0.172688 0.670602
O O19 0.561182 0.000000 0.689050
O O20 0.250000 0.102403 0.833807
O O21 0.750000 0.275767 0.653223
O O22 0.250000 0.390351 0.042267
O O23 0.467764 0.500000 0.063815
O O24 0.500000 0.358779 0.000000
#
# Coordination Sequence:
#
# PCOD8211516 Si02
#       8
#     8   8   8   8   8   8   8   8
#     4  10  21  37  56  77 101 130 168 217 276 342
#     4  10  21  36  52  72 102 136 171 214 265 323
#     4  10  20  34  53  78 110 146 180 219 271 327
#     4   9  18  33  54  83 118 155 193 231 274 323
#     4  10  21  37  57  81 110 147 189 233 284 337
#     4  11  22  36  55  78 105 138 178 224 277 336
#     4  10  20  35  56  82 114 149 189 235 276 320
#     4  10  21  36  54  74  95 126 171 219 268 324
#
# _framework density 19.455501999999999
#
# number of rings (size 3 to 8) (size 9 to 14) (size 15 to 20)
#    0.000    2.000    1.250    2.250    0.000    7.000 
#    0.000    1.250    0.000    0.375    0.000    0.000 
#    0.000    0.000    0.000    0.000    0.000    0.000 
#
# Total GULP energy -793167.545576 kJ/mol
# GULP energy per Si atom -12393.242900 kJ/mol
# Density = 1.941122 g / cm^3
# Si number density = 19.455502 Si / 1000 Ang^3
#
#
#
# Elastic Constant Matrix: (Units=GPa)
#
#
# Indices 1 2 3 4 5 6 
#
# 1 60.8273 25.6895 42.6243 0.0000 0.0000 0.0000
# 2 25.6895 105.0084 53.0460 0.0000 0.0000 0.0000
# 3 42.6243 53.0460 108.4555 0.0000 0.0000 0.0000
# 4 0.0000 0.0000 0.0000 27.3792 0.0000 0.0000
# 5 0.0000 0.0000 0.0000 0.0000 30.8556 0.0000
# 6 0.0000 0.0000 0.0000 0.0000 0.0000 20.2818
#
#
#
# Elastic Compliance Matrix: (Units=1/GPa)
#
#
# Indices 1 2 3 4 5 6 
#
# 1 0.022842 -0.001399 -0.008293 0.000000 0.000000 0.000000
# 2 -0.001399 0.012734 -0.005678 0.000000 0.000000 0.000000
# 3 -0.008293 -0.005678 0.015257 0.000000 0.000000 0.000000
# 4 0.000000 0.000000 0.000000 0.036524 0.000000 0.000000
# 5 0.000000 0.000000 0.000000 0.000000 0.032409 0.000000
# 6 0.000000 0.000000 0.000000 0.000000 0.000000 0.049305
#
#
# Mechanical properties :
#
#
# Convention : Reuss Voigt Hill
#
# Bulk Modulus (GPa) = 49.77037 57.44565 53.60801
# Shear Modulus (GPa) = 24.21204 25.89875 25.05539
#
# Velocity S-wave (km/s) = 3.53155 3.65249 3.59253
# Velocity P-wave (km/s) = 6.50125 6.88319 6.69495
#
# Compressibility (1/GPa) = 0.02009227
#
# Stress axis : x y z
#
# Youngs Moduli (GPa) = 43.77900 78.53153 65.54403
#
# Poissons Ratio (x) = 0.10985 0.54356
# Poissons Ratio (y) = 0.06124 0.37218
# Poissons Ratio (z) = 0.36306 0.44593
#
# Static dielectric constant tensor:
#      x y z
#    x 3.637320 0.000000 0.000000 
#    y 0.000000 3.799140 0.000000 
#    z 0.000000 0.000000 3.396080 
# 
# 
# High freq. dielectric constant tensor:
#      x y z
#    x 1.758110 0.000000 0.000000 
#    y 0.000000 1.759980 0.000000 
#    z 0.000000 0.000000 1.733450 
# 
# From -- ./inp_files/34993.got.cif
#   From: 2010.03.12/outbox.cif.g09.slc.cpg/sg51_18_cif.got.tgz:34993.got - 2010.04.16 13:43:02.
