data_PCOD8211967
_publ_section_title
;
Structure prediction by ZEFSAII (Michael W. Deem and Ramdas Pophale) SiO2 
 PCOD8211967
Probable space group: P M M A
;
_chemical_formula_sum "Si O2"
_cell_formula_units_Z 48
_cell_length_a 8.927903
_cell_length_b 19.292596
_cell_length_c 15.469435
_cell_angle_alpha 90.000000
_cell_angle_beta 90.000000
_cell_angle_gamma 90.000000
_cell_volume 2664.493009
_symmetry_space_group_name_H-M "P M M A"
_symmetry_group_IT_number 51
_symmetry_cell_setting 'orthorhombic'
loop_
_space_group_symop_operation_xyz
x,y,z
1/2-x,-y,z
1/2+x,-y,-z
-x,y,-z
-x,-y,-z
1/2+x,y,-z
1/2-x,y,z
x,-y,z
loop_
_atom_site_type_symbol
_atom_site_label
_atom_site_fract_x
_atom_site_fract_y
_atom_site_fract_z
Si Si1 0.578489 0.082252 0.772703
Si Si2 0.575669 0.921503 0.582232
Si Si3 0.427595 0.825748 0.909951
Si Si4 0.918595 0.582559 0.415321
Si Si5 0.074751 0.578832 0.242865
Si Si6 0.428129 0.680543 0.090011
O O1 0.750000 0.101739 0.795989
O O2 0.538702 0.111068 0.676316
O O3 0.463877 0.116857 0.838680
O O4 0.557560 0.000000 0.776680
O O5 0.500000 0.882180 0.500000
O O6 0.750000 0.919458 0.565634
O O7 0.515112 0.000000 0.584721
O O8 0.250000 0.817622 0.920675
O O9 0.500541 0.753231 0.880983
O O10 0.500000 0.850368 0.000000
O O11 0.750000 0.610166 0.416308
O O12 0.926527 0.500000 0.417215
O O13 0.000000 0.613245 0.500000
O O14 0.996589 0.609864 0.328157
O O15 0.250000 0.582835 0.260252
O O16 0.023312 0.500000 0.224706
O O17 0.026722 0.623837 0.160765
O O18 0.250000 0.688484 0.079906
O O19 0.500000 0.655660 0.000000
#
# Coordination Sequence:
#
# PCOD8211967 Si02
#       6
#     8   8   8   8   8   8
#     4   9  18  33  52  75 103 132 163 202 247 291
#     4   8  14  25  43  68  98 130 160 192 232 279
#     4  11  22  36  54  73  96 128 166 205 245 294
#     4   9  16  26  43  68  98 131 164 199 240 288
#     4   9  18  32  50  74 102 130 162 202 247 291
#     4  10  20  35  54  73  97 130 165 201 243 293
#
# _framework density 18.014685
#
# number of rings (size 3 to 8) (size 9 to 14) (size 15 to 20)
#    0.000    2.667    0.000    4.500    0.000    5.000 
#    0.000    1.667    0.000    1.000    0.000    4.667 
#    0.000    0.000    0.000    0.000    0.000    0.000 
#
# Total GULP energy -595010.732204 kJ/mol
# GULP energy per Si atom -12396.056921 kJ/mol
# Density = 1.797368 g / cm^3
# Si number density = 18.014685 Si / 1000 Ang^3
#
#
#
# Elastic Constant Matrix: (Units=GPa)
#
#
# Indices 1 2 3 4 5 6 
#
# 1 91.9612 29.8578 68.7127 0.0000 0.0000 0.0000
# 2 29.8578 42.4376 55.0344 0.0000 0.0000 0.0000
# 3 68.7127 55.0344 155.4055 0.0000 0.0000 0.0000
# 4 0.0000 0.0000 0.0000 1.0893 0.0000 0.0000
# 5 0.0000 0.0000 0.0000 0.0000 38.3780 0.0000
# 6 0.0000 0.0000 0.0000 0.0000 0.0000 21.2839
#
#
#
# Elastic Compliance Matrix: (Units=1/GPa)
#
#
# Indices 1 2 3 4 5 6 
#
# 1 0.016598 -0.003996 -0.005924 0.000000 0.000000 0.000000
# 2 -0.003996 0.044539 -0.014006 0.000000 0.000000 0.000000
# 3 -0.005924 -0.014006 0.014014 0.000000 0.000000 0.000000
# 4 0.000000 0.000000 0.000000 0.918046 0.000000 0.000000
# 5 0.000000 0.000000 0.000000 0.000000 0.026057 0.000000
# 6 0.000000 0.000000 0.000000 0.000000 0.000000 0.046984
#
#
# Mechanical properties :
#
#
# Convention : Reuss Voigt Hill
#
# Bulk Modulus (GPa) = 36.63054 66.33490 51.48272
# Shear Modulus (GPa) = 4.45162 21.23021 12.84092
#
# Velocity S-wave (km/s) = 1.57368 3.43665 2.67273
# Velocity P-wave (km/s) = 4.86619 7.25603 6.17778
#
# Compressibility (1/GPa) = 0.02729963
#
# Stress axis : x y z
#
# Youngs Moduli (GPa) = 60.24999 22.45246 71.35754
#
# Poissons Ratio (x) = 0.08971 0.42270
# Poissons Ratio (y) = 0.24073 0.99943
# Poissons Ratio (z) = 0.35690 0.31447
#
# Static dielectric constant tensor:
#      x y z
#    x 3.348990 0.000000 0.000000 
#    y 0.000000 2.946310 0.000000 
#    z 0.000000 0.000000 3.594270 
# 
# 
# High freq. dielectric constant tensor:
#      x y z
#    x 1.701690 0.000000 0.000000 
#    y 0.000000 1.648930 0.000000 
#    z 0.000000 0.000000 1.715710 
# 
# From -- ./inp_files/21413.got.cif
#   From: 2010.03.12/outbox.cif.g09.slc.cpg/sg51_11_cif.got.tgz:21413.got - 2010.04.16 13:43:02.
