data_PCOD8211202
_publ_section_title
;
Structure prediction by ZEFSAII (Michael W. Deem and Ramdas Pophale) SiO2 
 PCOD8211202
Probable space group: P M M A
;
_chemical_formula_sum "Si O2"
_cell_formula_units_Z 40
_cell_length_a 15.797303
_cell_length_b 9.474753
_cell_length_c 14.465706
_cell_angle_alpha 90.000000
_cell_angle_beta 90.000000
_cell_angle_gamma 90.000000
_cell_volume 2165.162415
_symmetry_space_group_name_H-M "P M M A"
_symmetry_group_IT_number 51
_symmetry_cell_setting 'orthorhombic'
loop_
_space_group_symop_operation_xyz
x,y,z
1/2-x,-y,z
1/2+x,-y,-z
-x,y,-z
-x,-y,-z
1/2+x,y,-z
1/2-x,y,z
x,-y,z
loop_
_atom_site_type_symbol
_atom_site_label
_atom_site_fract_x
_atom_site_fract_y
_atom_site_fract_z
Si Si1 0.391567 0.663463 0.596825
Si Si2 0.913661 0.661853 0.613527
Si Si3 0.250000 0.832720 0.915048
Si Si4 0.591000 0.168513 0.968985
Si Si5 0.152521 0.842629 0.224597
Si Si6 0.250000 0.831526 0.701768
O O1 0.366363 0.500000 0.613559
O O2 0.382782 0.701946 0.488965
O O3 0.487324 0.691876 0.627941
O O4 0.333141 0.767357 0.654964
O O5 0.893476 0.500000 0.632880
O O6 0.859975 0.751115 0.684828
O O7 0.250000 0.785439 0.808598
O O8 0.250000 0.000000 0.922933
O O9 0.165410 0.771982 0.964548
O O10 0.603905 0.221449 0.863898
O O11 0.592882 0.000000 0.971852
O O12 0.500000 0.228318 0.000000
O O13 0.250000 0.845913 0.196571
O O14 0.119360 0.000000 0.246348
O O15 0.250000 0.000000 0.689487
#
# Coordination Sequence:
#
# PCOD8211202 Si02
#       6
#     8   8   4   8   8   4
#     4   9  20  40  58  75 105 147 187 219 261 323
#     4   9  20  38  59  78 102 143 189 224 261 319
#     4   9  18  33  48  75 110 138 179 221 258 325
#     4   9  17  31  52  74 104 146 181 214 266 328
#     4  10  20  33  53  83 113 139 173 224 279 323
#     4  11  23  33  54  87 114 138 175 225 274 315
#
# _framework density 18.474364999999999
#
# number of rings (size 3 to 8) (size 9 to 14) (size 15 to 20)
#    0.000    2.600    1.000    1.500    4.200    2.000 
#    0.000    2.000    0.000    3.000    0.000    0.000 
#    0.000    0.000    0.000    0.000    0.000    0.000 
#
# Total GULP energy -495961.842420 kJ/mol
# GULP energy per Si atom -12399.046060 kJ/mol
# Density = 1.843232 g / cm^3
# Si number density = 18.474365 Si / 1000 Ang^3
#
#
#
# Elastic Constant Matrix: (Units=GPa)
#
#
# Indices 1 2 3 4 5 6 
#
# 1 95.5092 24.1449 51.1642 0.0000 0.0000 0.0000
# 2 24.1449 46.7493 41.9095 0.0000 0.0000 0.0000
# 3 51.1642 41.9095 122.8044 0.0000 0.0000 0.0000
# 4 0.0000 0.0000 0.0000 -14.3676 0.0000 0.0000
# 5 0.0000 0.0000 0.0000 0.0000 36.4246 0.0000
# 6 0.0000 0.0000 0.0000 0.0000 0.0000 25.4585
#
#
#
# Elastic Compliance Matrix: (Units=1/GPa)
#
#
# Indices 1 2 3 4 5 6 
#
# 1 0.013733 -0.002829 -0.004756 0.000000 0.000000 0.000000
# 2 -0.002829 0.031402 -0.009538 0.000000 0.000000 0.000000
# 3 -0.004756 -0.009538 0.013380 0.000000 0.000000 0.000000
# 4 0.000000 0.000000 0.000000 -0.069601 0.000000 0.000000
# 5 0.000000 0.000000 0.000000 0.000000 0.027454 0.000000
# 6 0.000000 0.000000 0.000000 0.000000 0.000000 0.039280
#
#
# Mechanical properties :
#
#
# Convention : Reuss Voigt Hill
#
# Bulk Modulus (GPa) = 41.20530 55.50001 48.35265
# Shear Modulus (GPa) = 51.02867 19.35941 35.19404
#
# Velocity S-wave (km/s) = 5.26130 3.24065 4.36939
# Velocity P-wave (km/s) = 7.69811 6.64148 7.18923
#
# Compressibility (1/GPa) = 0.02426873
#
# Stress axis : x y z
#
# Youngs Moduli (GPa) = 72.81563 31.84462 74.74007
#
# Poissons Ratio (x) = 0.09009 0.35548
# Poissons Ratio (y) = 0.20600 0.71288
# Poissons Ratio (z) = 0.34633 0.30374
#
# Static dielectric constant tensor:
#      x y z
#    x 3.484550 0.000000 0.000000 
#    y 0.000000 3.020850 0.000000 
#    z 0.000000 0.000000 3.437210 
# 
# 
# High freq. dielectric constant tensor:
#      x y z
#    x 1.726890 0.000000 0.000000 
#    y 0.000000 1.676400 0.000000 
#    z 0.000000 0.000000 1.726830 
# 
# From -- ./inp_files/23789.got.cif
#   From: 2010.03.12/outbox.cif.g09.slc.cpg/sg51_12_cif.got.tgz:23789.got - 2010.04.16 13:43:02.
