data_PCOD8211814
_publ_section_title
;
Structure prediction by ZEFSAII (Michael W. Deem and Ramdas Pophale) SiO2 
 PCOD8211814
Probable space group: P M M A
;
_chemical_formula_sum "Si O2"
_cell_formula_units_Z 48
_cell_length_a 17.689768
_cell_length_b 10.778961
_cell_length_c 12.191197
_cell_angle_alpha 90.000000
_cell_angle_beta 90.000000
_cell_angle_gamma 90.000000
_cell_volume 2324.584764
_symmetry_space_group_name_H-M "P M M A"
_symmetry_group_IT_number 51
_symmetry_cell_setting 'orthorhombic'
loop_
_space_group_symop_operation_xyz
x,y,z
1/2-x,-y,z
1/2+x,-y,-z
-x,y,-z
-x,-y,-z
1/2+x,y,-z
1/2-x,y,z
x,-y,z
loop_
_atom_site_type_symbol
_atom_site_label
_atom_site_fract_x
_atom_site_fract_y
_atom_site_fract_z
Si Si1 0.910976 0.250965 0.501804
Si Si2 0.162043 0.139580 0.291506
Si Si3 0.660238 0.500000 0.755297
Si Si4 0.338444 0.715099 0.093325
Si Si5 0.339599 0.500000 0.491048
Si Si6 0.659915 0.356454 0.142559
Si Si7 0.161632 0.139151 0.695371
O O1 0.884370 0.226744 0.626344
O O2 0.873833 0.377238 0.453646
O O3 0.882412 0.143474 0.420238
O O4 0.000000 0.261153 0.500000
O O5 0.250000 0.172151 0.310400
O O6 0.143109 0.158330 0.160671
O O7 0.142159 0.000000 0.321911
O O8 0.750000 0.500000 0.749493
O O9 0.628692 0.616716 0.820801
O O10 0.629123 0.500000 0.632898
O O11 0.250000 0.696618 0.074806
O O12 0.374697 0.693958 0.973539
O O13 0.250000 0.500000 0.506343
O O14 0.750000 0.356191 0.141097
O O15 0.632588 0.500000 0.166033
O O16 0.630921 0.251853 0.227997
O O17 0.250000 0.157269 0.672655
O O18 0.147102 0.000000 0.745526
#
# Coordination Sequence:
#
# PCOD8211814 Si02
#       7
#     8   8   4   8   4   8   8
#     4  12  25  39  57  84 117 152 195 242 294 351
#     4  10  20  34  55  84 114 149 196 244 293 350
#     4   9  14  25  50  81 111 137 166 213 281 345
#     4   9  15  27  50  83 115 141 179 236 295 346
#     4  11  21  37  62  89 117 148 185 235 299 356
#     4   9  17  30  53  85 117 150 192 243 296 349
#     4  10  22  39  58  82 115 158 204 246 292 348
#
# _framework density 20.648848000000001
#
# number of rings (size 3 to 8) (size 9 to 14) (size 15 to 20)
#    0.000    2.000    2.500    2.250    1.167    3.333 
#    0.000    3.333    0.000    1.000    0.000    4.667 
#    0.000    0.000    0.000    0.000    0.000    0.000 
#
# Total GULP energy -594648.849853 kJ/mol
# GULP energy per Si atom -12388.517705 kJ/mol
# Density = 2.060185 g / cm^3
# Si number density = 20.648848 Si / 1000 Ang^3
#
#
#
# Elastic Constant Matrix: (Units=GPa)
#
#
# Indices 1 2 3 4 5 6 
#
# 1 60.9698 40.1136 19.1081 0.0000 0.0000 0.0000
# 2 40.1136 131.0680 47.8348 0.0000 0.0000 0.0000
# 3 19.1081 47.8348 98.1993 0.0000 0.0000 0.0000
# 4 0.0000 0.0000 0.0000 26.4861 0.0000 0.0000
# 5 0.0000 0.0000 0.0000 0.0000 5.3323 0.0000
# 6 0.0000 0.0000 0.0000 0.0000 0.0000 12.4852
#
#
#
# Elastic Compliance Matrix: (Units=1/GPa)
#
#
# Indices 1 2 3 4 5 6 
#
# 1 0.020642 -0.005901 -0.001142 0.000000 0.000000 0.000000
# 2 -0.005901 0.010966 -0.004194 0.000000 0.000000 0.000000
# 3 -0.001142 -0.004194 0.012448 0.000000 0.000000 0.000000
# 4 0.000000 0.000000 0.000000 0.037756 0.000000 0.000000
# 5 0.000000 0.000000 0.000000 0.000000 0.187537 0.000000
# 6 0.000000 0.000000 0.000000 0.000000 0.000000 0.080095
#
#
# Mechanical properties :
#
#
# Convention : Reuss Voigt Hill
#
# Bulk Modulus (GPa) = 46.33223 56.03891 51.18557
# Shear Modulus (GPa) = 13.18876 21.07276 17.13076
#
# Velocity S-wave (km/s) = 2.53003 3.19804 2.88344
# Velocity P-wave (km/s) = 5.56970 6.39019 5.99400
#
# Compressibility (1/GPa) = 0.02158325
#
# Stress axis : x y z
#
# Youngs Moduli (GPa) = 48.44566 91.19092 80.33142
#
# Poissons Ratio (x) = 0.53808 0.09176
# Poissons Ratio (y) = 0.28586 0.33688
# Poissons Ratio (z) = 0.05534 0.38242
#
# Static dielectric constant tensor:
#      x y z
#    x 3.068210 0.000000 0.000000 
#    y 0.000000 4.094470 0.000000 
#    z 0.000000 0.000000 3.892130 
# 
# 
# High freq. dielectric constant tensor:
#      x y z
#    x 1.737090 0.000000 0.000000 
#    y 0.000000 1.822290 0.000000 
#    z 0.000000 0.000000 1.812310 
# 
# From -- ./inp_files/18177.got.cif
#   From: 2010.03.12/outbox.cif.g09.slc.cpg/sg51_10_cif.got.tgz:18177.got - 2010.04.16 13:43:02.
