data_PCOD8211881
_publ_section_title
;
Structure prediction by ZEFSAII (Michael W. Deem and Ramdas Pophale) SiO2 
 PCOD8211881
Probable space group: P M M A
;
_chemical_formula_sum "Si O2"
_cell_formula_units_Z 64
_cell_length_a 9.027844
_cell_length_b 23.364151
_cell_length_c 15.542842
_cell_angle_alpha 90.000000
_cell_angle_beta 90.000000
_cell_angle_gamma 90.000000
_cell_volume 3278.419185
_symmetry_space_group_name_H-M "P M M A"
_symmetry_group_IT_number 51
_symmetry_cell_setting 'orthorhombic'
loop_
_space_group_symop_operation_xyz
x,y,z
1/2-x,-y,z
1/2+x,-y,-z
-x,y,-z
-x,-y,-z
1/2+x,y,-z
1/2-x,y,z
x,-y,z
loop_
_atom_site_type_symbol
_atom_site_label
_atom_site_fract_x
_atom_site_fract_y
_atom_site_fract_z
Si Si1 0.423727 0.434519 0.413545
Si Si2 0.425554 0.368703 0.243443
Si Si3 0.578915 0.178131 0.414874
Si Si4 0.921713 0.064772 0.846886
Si Si5 0.576424 0.751994 0.247697
Si Si6 0.918997 0.063588 0.330264
Si Si7 0.921529 0.567225 0.087411
Si Si8 0.576836 0.171264 0.083687
O O1 0.500000 0.410701 0.500000
O O2 0.250000 0.429154 0.427255
O O3 0.471791 0.500000 0.396280
O O4 0.477548 0.397050 0.332972
O O5 0.250000 0.372950 0.231874
O O6 0.476803 0.303736 0.242172
O O7 0.502193 0.401940 0.166480
O O8 0.500000 0.201253 0.500000
O O9 0.750000 0.188092 0.430482
O O10 0.526078 0.213829 0.332342
O O11 0.540808 0.110957 0.401442
O O12 0.750000 0.081172 0.852826
O O13 0.971391 0.071549 0.748684
O O14 0.015169 0.107071 0.906309
O O15 0.951055 0.000000 0.878692
O O16 0.750000 0.736082 0.249374
O O17 0.537209 0.790985 0.166211
O O18 0.750000 0.073887 0.297443
O O19 0.936018 0.000000 0.370739
O O20 0.750000 0.584819 0.082585
O O21 0.942574 0.500000 0.100767
O O22 0.000000 0.587826 0.000000
O O23 0.750000 0.167799 0.067483
O O24 0.500000 0.199507 0.000000
#
# Coordination Sequence:
#
# PCOD8211881 Si02
#       8
#     8   8   8   8   8   8   8   8
#     4   9  19  36  58  86 120 155 192 236 285 338
#     4  11  23  38  60  88 119 157 199 243 293 345
#     4  10  21  38  58  83 112 150 193 239 293 348
#     4  10  20  34  56  87 118 147 183 230 285 346
#     4  10  23  43  60  79 114 154 197 245 293 343
#     4   9  17  33  57  82 112 150 188 230 288 351
#     4  10  21  38  62  92 125 160 196 237 287 341
#     4  11  23  41  63  85 111 148 191 238 291 347
#
# _framework density 19.521602999999999
#
# number of rings (size 3 to 8) (size 9 to 14) (size 15 to 20)
#    0.000    2.000    1.250    1.875    0.000    6.500 
#    0.000    5.000    0.000    0.000    0.000    0.000 
#    0.000    0.000    0.000    0.000    0.000    0.000 
#
# Total GULP energy -793754.900771 kJ/mol
# GULP energy per Si atom -12402.420325 kJ/mol
# Density = 1.947717 g / cm^3
# Si number density = 19.521603 Si / 1000 Ang^3
#
#
#
# Elastic Constant Matrix: (Units=GPa)
#
#
# Indices 1 2 3 4 5 6 
#
# 1 90.6839 58.2965 73.9633 0.0000 0.0000 0.0000
# 2 58.2965 81.5336 65.9884 0.0000 0.0000 0.0000
# 3 73.9633 65.9884 170.0782 0.0000 0.0000 0.0000
# 4 0.0000 0.0000 0.0000 7.6264 0.0000 0.0000
# 5 0.0000 0.0000 0.0000 0.0000 38.1521 0.0000
# 6 0.0000 0.0000 0.0000 0.0000 0.0000 30.7844
#
#
#
# Elastic Compliance Matrix: (Units=1/GPa)
#
#
# Indices 1 2 3 4 5 6 
#
# 1 0.023335 -0.012349 -0.005356 0.000000 0.000000 0.000000
# 2 -0.012349 0.024415 -0.004102 0.000000 0.000000 0.000000
# 3 -0.005356 -0.004102 0.009801 0.000000 0.000000 0.000000
# 4 0.000000 0.000000 0.000000 0.131123 0.000000 0.000000
# 5 0.000000 0.000000 0.000000 0.000000 0.026211 0.000000
# 6 0.000000 0.000000 0.000000 0.000000 0.000000 0.032484
#
#
# Mechanical properties :
#
#
# Convention : Reuss Voigt Hill
#
# Bulk Modulus (GPa) = 71.76481 82.08802 76.92642
# Shear Modulus (GPa) = 16.91308 24.91574 20.91441
#
# Velocity S-wave (km/s) = 2.94662 3.57643 3.27669
# Velocity P-wave (km/s) = 6.95833 7.69387 7.33532
#
# Compressibility (1/GPa) = 0.01393441
#
# Stress axis : x y z
#
# Youngs Moduli (GPa) = 42.85420 40.95902 102.03386
#
# Poissons Ratio (x) = 0.50581 0.54654
# Poissons Ratio (y) = 0.52922 0.41856
# Poissons Ratio (z) = 0.22955 0.16802
#
# Static dielectric constant tensor:
#      x y z
#    x 3.585350 0.000000 0.000000 
#    y 0.000000 3.625300 0.000000 
#    z 0.000000 0.000000 3.623950 
# 
# 
# High freq. dielectric constant tensor:
#      x y z
#    x 1.762030 0.000000 0.000000 
#    y 0.000000 1.758240 0.000000 
#    z 0.000000 0.000000 1.763690 
# 
# From -- ./inp_files/22359.got.cif
#   From: 2010.03.12/outbox.cif.g09.slc.cpg/sg51_12_cif.got.tgz:22359.got - 2010.04.16 13:43:02.
