data_PCOD8211186
_publ_section_title
;
Structure prediction by ZEFSAII (Michael W. Deem and Ramdas Pophale) SiO2 
 PCOD8211186
Probable space group: P M M A
;
_chemical_formula_sum "Si O2"
_cell_formula_units_Z 64
_cell_length_a 33.194699
_cell_length_b 9.398369
_cell_length_c 10.732604
_cell_angle_alpha 90.000000
_cell_angle_beta 90.000000
_cell_angle_gamma 90.000000
_cell_volume 3348.315188
_symmetry_space_group_name_H-M "P M M A"
_symmetry_group_IT_number 51
_symmetry_cell_setting 'orthorhombic'
loop_
_space_group_symop_operation_xyz
x,y,z
1/2-x,-y,z
1/2+x,-y,-z
-x,y,-z
-x,-y,-z
1/2+x,y,-z
1/2-x,y,z
x,-y,z
loop_
_atom_site_type_symbol
_atom_site_label
_atom_site_fract_x
_atom_site_fract_y
_atom_site_fract_z
Si Si1 0.579447 0.159132 0.239209
Si Si2 0.007957 0.341939 0.856612
Si Si3 0.296075 0.669204 0.477488
Si Si4 0.705214 0.668761 0.018003
Si Si5 0.044464 0.843023 0.490804
Si Si6 0.339070 0.331557 0.225594
Si Si7 0.427737 0.667051 0.278372
Si Si8 0.839474 0.668752 0.267890
O O1 0.545193 0.236598 0.159192
O O2 0.564073 0.144212 0.377088
O O3 0.619044 0.253207 0.240822
O O4 0.587443 0.000000 0.184820
O O5 0.017691 0.500000 0.801428
O O6 0.966998 0.278867 0.796129
O O7 0.000000 0.358312 0.000000
O O8 0.250000 0.726172 0.478778
O O9 0.295893 0.500000 0.476930
O O10 0.318590 0.728426 0.353138
O O11 0.319030 0.721680 0.602882
O O12 0.750000 0.730558 0.008867
O O13 0.704933 0.500000 0.008490
O O14 0.681156 0.732600 0.899205
O O15 0.688124 0.714873 0.151699
O O16 0.072881 0.740255 0.412440
O O17 0.000000 0.774330 0.500000
O O18 0.041298 0.000000 0.428529
O O19 0.333930 0.500000 0.228483
O O20 0.385988 0.288004 0.213123
O O21 0.428970 0.500000 0.298684
O O22 0.847140 0.500000 0.271296
#
# Coordination Sequence:
#
# PCOD8211186 Si02
#       8
#     8   8   8   8   8   8   8   8
#     4  11  23  38  56  78 107 143 185 225 270 324
#     4  10  22  37  55  78 109 147 184 224 271 319
#     4   9  16  28  48  76 109 141 173 215 269 326
#     4   9  17  30  51  79 109 142 176 214 268 329
#     4  10  20  36  54  73 102 139 179 224 270 314
#     4   9  17  28  46  75 111 142 172 216 267 323
#     4  10  20  33  53  81 109 140 179 222 269 320
#     4  10  20  33  54  81 110 139 177 227 272 319
#
# _framework density 19.114091999999999
#
# number of rings (size 3 to 8) (size 9 to 14) (size 15 to 20)
#    0.000    2.250    1.250    1.875    1.750    5.500 
#    0.000    0.000    0.000    1.500    0.000    0.000 
#    0.000    3.000    0.000    0.000    0.000    0.000 
#
# Total GULP energy -793321.553366 kJ/mol
# GULP energy per Si atom -12395.649271 kJ/mol
# Density = 1.907059 g / cm^3
# Si number density = 19.114092 Si / 1000 Ang^3
#
#
#
# Elastic Constant Matrix: (Units=GPa)
#
#
# Indices 1 2 3 4 5 6 
#
# 1 125.1632 28.4286 32.4070 0.0000 0.0000 0.0000
# 2 28.4286 31.5861 11.8710 0.0000 0.0000 0.0000
# 3 32.4070 11.8710 101.3938 0.0000 0.0000 0.0000
# 4 0.0000 0.0000 0.0000 9.4497 0.0000 0.0000
# 5 0.0000 0.0000 0.0000 0.0000 33.2716 0.0000
# 6 0.0000 0.0000 0.0000 0.0000 0.0000 1.0724
#
#
#
# Elastic Compliance Matrix: (Units=1/GPa)
#
#
# Indices 1 2 3 4 5 6 
#
# 1 0.010559 -0.008614 -0.002366 0.000000 0.000000 0.000000
# 2 -0.008614 0.040144 -0.001947 0.000000 0.000000 0.000000
# 3 -0.002366 -0.001947 0.010847 0.000000 0.000000 0.000000
# 4 0.000000 0.000000 0.000000 0.105824 0.000000 0.000000
# 5 0.000000 0.000000 0.000000 0.000000 0.030056 0.000000
# 6 0.000000 0.000000 0.000000 0.000000 0.000000 0.932448
#
#
# Mechanical properties :
#
#
# Convention : Reuss Voigt Hill
#
# Bulk Modulus (GPa) = 28.01474 44.83959 36.42716
# Shear Modulus (GPa) = 4.28218 21.12117 12.70168
#
# Velocity S-wave (km/s) = 1.49840 3.32777 2.58062
# Velocity P-wave (km/s) = 4.20500 6.18670 5.28948
#
# Compressibility (1/GPa) = 0.03569550
#
# Stress axis : x y z
#
# Youngs Moduli (GPa) = 94.70846 24.91031 92.19351
#
# Poissons Ratio (x) = 0.21458 0.21815
# Poissons Ratio (y) = 0.81581 0.17949
# Poissons Ratio (z) = 0.22410 0.04850
#
# Static dielectric constant tensor:
#      x y z
#    x 3.654090 0.000000 0.000000 
#    y 0.000000 3.337170 0.000000 
#    z 0.000000 0.000000 3.623520 
# 
# 
# High freq. dielectric constant tensor:
#      x y z
#    x 1.758030 0.000000 0.000000 
#    y 0.000000 1.691370 0.000000 
#    z 0.000000 0.000000 1.749720 
# 
# From -- ./inp_files/19652.got.cif
#   From: 2010.03.12/outbox.cif.g09.slc.cpg/sg51_10_cif.got.tgz:19652.got - 2010.04.16 13:43:02.
