data_PCOD8211857
_publ_section_title
;
Structure prediction by ZEFSAII (Michael W. Deem and Ramdas Pophale) SiO2 
 PCOD8211857
Probable space group: P M M A
;
_chemical_formula_sum "Si O2"
_cell_formula_units_Z 64
_cell_length_a 9.014299
_cell_length_b 25.224378
_cell_length_c 14.330440
_cell_angle_alpha 90.000000
_cell_angle_beta 90.000000
_cell_angle_gamma 90.000000
_cell_volume 3258.456671
_symmetry_space_group_name_H-M "P M M A"
_symmetry_group_IT_number 51
_symmetry_cell_setting 'orthorhombic'
loop_
_space_group_symop_operation_xyz
x,y,z
1/2-x,-y,z
1/2+x,-y,-z
-x,y,-z
-x,-y,-z
1/2+x,y,-z
1/2-x,y,z
x,-y,z
loop_
_atom_site_type_symbol
_atom_site_label
_atom_site_fract_x
_atom_site_fract_y
_atom_site_fract_z
Si Si1 0.083532 0.936828 0.090177
Si Si2 0.420667 0.940375 0.726488
Si Si3 0.576603 0.844422 0.401028
Si Si4 0.425804 0.755534 0.279648
Si Si5 0.076620 0.345966 0.401570
Si Si6 0.579674 0.440271 0.726753
Si Si7 0.077583 0.401687 0.905776
Si Si8 0.075682 0.721726 0.904471
O O1 0.250000 0.915080 0.087796
O O2 0.008876 0.916620 0.185390
O O3 0.077537 0.000000 0.087588
O O4 0.000000 0.913206 0.000000
O O5 0.250000 0.940406 0.756757
O O6 0.447982 0.904007 0.636444
O O7 0.473797 0.000000 0.701014
O O8 0.500000 0.839264 0.500000
O O9 0.750000 0.830201 0.409757
O O10 0.497345 0.804967 0.330960
O O11 0.250000 0.762800 0.271260
O O12 0.468404 0.702446 0.335204
O O13 0.497898 0.754006 0.177799
O O14 0.250000 0.347428 0.420735
O O15 0.021279 0.400296 0.352945
O O16 0.000000 0.338321 0.500000
O O17 0.750000 0.426463 0.751260
O O18 0.562992 0.500000 0.688167
O O19 0.484789 0.435073 0.820055
O O20 0.250000 0.413361 0.916061
O O21 0.043481 0.340140 0.888053
O O22 0.000000 0.421696 0.000000
O O23 0.250000 0.734205 0.907420
O O24 0.000000 0.740901 0.000000
#
# Coordination Sequence:
#
# PCOD8211857 Si02
#       8
#     8   8   8   8   8   8   8   8
#     4   9  16  27  48  79 113 149 189 232 277 329
#     4   9  19  37  59  83 115 155 195 237 286 340
#     4  11  24  41  61  87 118 151 193 242 292 346
#     4  11  22  39  63  88 117 152 190 237 288 343
#     4  10  22  38  58  83 109 143 188 235 288 344
#     4  10  21  38  57  79 112 151 192 240 290 342
#     4  10  20  34  56  84 115 151 190 233 281 340
#     4  10  20  35  59  90 121 154 190 233 284 343
#
# _framework density 19.641200999999999
#
# number of rings (size 3 to 8) (size 9 to 14) (size 15 to 20)
#    0.000    2.000    1.250    2.250    0.000    7.000 
#    0.000    0.625    0.000    3.000    0.000    0.000 
#    0.000    0.000    0.000    0.000    0.000    0.000 
#
# Total GULP energy -793831.712069 kJ/mol
# GULP energy per Si atom -12403.620501 kJ/mol
# Density = 1.959650 g / cm^3
# Si number density = 19.641201 Si / 1000 Ang^3
#
#
#
# Elastic Constant Matrix: (Units=GPa)
#
#
# Indices 1 2 3 4 5 6 
#
# 1 100.7518 41.7689 62.1662 0.0000 0.0000 0.0000
# 2 41.7689 83.5857 50.4907 0.0000 0.0000 0.0000
# 3 62.1662 50.4907 142.5242 0.0000 0.0000 0.0000
# 4 0.0000 0.0000 0.0000 19.2835 0.0000 0.0000
# 5 0.0000 0.0000 0.0000 0.0000 41.8494 0.0000
# 6 0.0000 0.0000 0.0000 0.0000 0.0000 23.7401
#
#
#
# Elastic Compliance Matrix: (Units=1/GPa)
#
#
# Indices 1 2 3 4 5 6 
#
# 1 0.014771 -0.004439 -0.004870 0.000000 0.000000 0.000000
# 2 -0.004439 0.016555 -0.003928 0.000000 0.000000 0.000000
# 3 -0.004870 -0.003928 0.010532 0.000000 0.000000 0.000000
# 4 0.000000 0.000000 0.000000 0.051858 0.000000 0.000000
# 5 0.000000 0.000000 0.000000 0.000000 0.023895 0.000000
# 6 0.000000 0.000000 0.000000 0.000000 0.000000 0.042123
#
#
# Mechanical properties :
#
#
# Convention : Reuss Voigt Hill
#
# Bulk Modulus (GPa) = 65.00905 70.63481 67.82193
# Shear Modulus (GPa) = 26.13187 28.47032 27.30109
#
# Velocity S-wave (km/s) = 3.65151 3.81139 3.73230
# Velocity P-wave (km/s) = 7.13780 7.44376 7.29238
#
# Compressibility (1/GPa) = 0.01538247
#
# Stress axis : x y z
#
# Youngs Moduli (GPa) = 67.70148 60.40391 94.94641
#
# Poissons Ratio (x) = 0.26816 0.46239
# Poissons Ratio (y) = 0.30055 0.37300
# Poissons Ratio (z) = 0.32971 0.23730
#
# Static dielectric constant tensor:
#      x y z
#    x 3.629980 0.000000 0.000000 
#    y 0.000000 3.532120 0.000000 
#    z 0.000000 0.000000 3.557510 
# 
# 
# High freq. dielectric constant tensor:
#      x y z
#    x 1.771750 0.000000 0.000000 
#    y 0.000000 1.752190 0.000000 
#    z 0.000000 0.000000 1.770490 
# 
# From -- ./inp_files/22256.got.cif
#   From: 2010.03.12/outbox.cif.g09.slc.cpg/sg51_12_cif.got.tgz:22256.got - 2010.04.16 13:43:02.
