data_PCOD8211664
_publ_section_title
;
Structure prediction by ZEFSAII (Michael W. Deem and Ramdas Pophale) SiO2 
 PCOD8211664
Probable space group: P M M A
;
_chemical_formula_sum "Si O2"
_cell_formula_units_Z 64
_cell_length_a 25.697772
_cell_length_b 9.194150
_cell_length_c 14.499239
_cell_angle_alpha 90.000000
_cell_angle_beta 90.000000
_cell_angle_gamma 90.000000
_cell_volume 3425.723170
_symmetry_space_group_name_H-M "P M M A"
_symmetry_group_IT_number 51
_symmetry_cell_setting 'orthorhombic'
loop_
_space_group_symop_operation_xyz
x,y,z
1/2-x,-y,z
1/2+x,-y,-z
-x,y,-z
-x,-y,-z
1/2+x,y,-z
1/2-x,y,z
x,-y,z
loop_
_atom_site_type_symbol
_atom_site_label
_atom_site_fract_x
_atom_site_fract_y
_atom_site_fract_z
Si Si1 0.309500 0.169135 0.255312
Si Si2 0.362986 0.328189 0.093771
Si Si3 0.970970 0.830031 0.907522
Si Si4 0.100291 0.826759 0.595485
Si Si5 0.899918 0.172726 0.611333
Si Si6 0.808692 0.828745 0.275939
Si Si7 0.690494 0.668053 0.094240
Si Si8 0.497083 0.829526 0.708777
O O1 0.250000 0.196852 0.285538
O O2 0.321769 0.261514 0.164674
O O3 0.346800 0.222042 0.338444
O O4 0.319495 0.000000 0.232596
O O5 0.365199 0.500000 0.108873
O O6 0.419214 0.260469 0.108736
O O7 0.344573 0.286273 0.991746
O O8 0.007224 0.797941 0.818417
O O9 0.956483 0.000000 0.914088
O O10 0.000000 0.777004 0.000000
O O11 0.098750 0.762759 0.492147
O O12 0.154333 0.775842 0.641426
O O13 0.052316 0.761678 0.655242
O O14 0.097036 0.000000 0.593671
O O15 0.949378 0.236111 0.667305
O O16 0.902309 0.000000 0.606945
O O17 0.750000 0.777346 0.298999
O O18 0.829174 0.759136 0.181424
O O19 0.811752 0.000000 0.262386
O O20 0.750000 0.705980 0.070027
O O21 0.683890 0.500000 0.118943
O O22 0.497737 0.000000 0.690398
#
# Coordination Sequence:
#
# PCOD8211664 Si02
#       8
#     8   8   8   8   8   8   8   8
#     4  10  20  34  54  80 109 142 179 221 270 322
#     4  11  22  36  55  77 106 141 178 221 267 319
#     4  10  21  35  54  80 109 140 174 219 271 320
#     4   9  17  27  47  77 105 136 170 211 264 315
#     4   9  16  29  48  74 106 135 170 217 263 311
#     4   9  18  31  48  75 107 132 163 212 261 306
#     4   9  19  35  52  70  96 133 172 206 249 308
#     4   9  16  29  48  73 103 135 172 211 256 311
#
# _framework density 18.682186000000002
#
# number of rings (size 3 to 8) (size 9 to 14) (size 15 to 20)
#    0.000    2.500    1.250    1.125    1.750    4.000 
#    0.000    3.750    0.000    0.750    0.000    2.625 
#    0.000    0.000    0.000    0.000    0.000    0.000 
#
# Total GULP energy -793556.040186 kJ/mol
# GULP energy per Si atom -12399.313128 kJ/mol
# Density = 1.863966 g / cm^3
# Si number density = 18.682186 Si / 1000 Ang^3
#
#
#
# Elastic Constant Matrix: (Units=GPa)
#
#
# Indices 1 2 3 4 5 6 
#
# 1 119.1735 19.9693 72.2844 0.0000 0.0000 0.0000
# 2 19.9693 24.3973 25.2662 0.0000 0.0000 0.0000
# 3 72.2844 25.2662 155.4986 0.0000 0.0000 0.0000
# 4 0.0000 0.0000 0.0000 7.3105 0.0000 0.0000
# 5 0.0000 0.0000 0.0000 0.0000 35.6228 0.0000
# 6 0.0000 0.0000 0.0000 0.0000 0.0000 13.1069
#
#
#
# Elastic Compliance Matrix: (Units=1/GPa)
#
#
# Indices 1 2 3 4 5 6 
#
# 1 0.012160 -0.004928 -0.004852 0.000000 0.000000 0.000000
# 2 -0.004928 0.051278 -0.006041 0.000000 0.000000 0.000000
# 3 -0.004852 -0.006041 0.009668 0.000000 0.000000 0.000000
# 4 0.000000 0.000000 0.000000 0.136790 0.000000 0.000000
# 5 0.000000 0.000000 0.000000 0.000000 0.028072 0.000000
# 6 0.000000 0.000000 0.000000 0.000000 0.000000 0.076296
#
#
# Mechanical properties :
#
#
# Convention : Reuss Voigt Hill
#
# Bulk Modulus (GPa) = 24.11750 59.34546 41.73148
# Shear Modulus (GPa) = 13.89943 23.31133 18.60538
#
# Velocity S-wave (km/s) = 2.73058 3.53623 3.15919
# Velocity P-wave (km/s) = 4.78318 6.96477 5.97440
#
# Compressibility (1/GPa) = 0.04146367
#
# Stress axis : x y z
#
# Youngs Moduli (GPa) = 82.23854 19.50150 103.43550
#
# Poissons Ratio (x) = 0.09611 0.50184
# Poissons Ratio (y) = 0.40529 0.62485
# Poissons Ratio (z) = 0.39900 0.11781
#
# Static dielectric constant tensor:
#      x y z
#    x 3.569690 0.000000 0.000000 
#    y 0.000000 2.969010 0.000000 
#    z 0.000000 0.000000 3.671900 
# 
# 
# High freq. dielectric constant tensor:
#      x y z
#    x 1.733090 0.000000 0.000000 
#    y 0.000000 1.673310 0.000000 
#    z 0.000000 0.000000 1.735690 
# 
# From -- ./inp_files/26289.got.cif
#   From: 2010.03.12/outbox.cif.g09.slc.cpg/sg51_14_cif.got.tgz:26289.got - 2010.04.16 13:43:02.
