data_PCOD8211879
_publ_section_title
;
Structure prediction by ZEFSAII (Michael W. Deem and Ramdas Pophale) SiO2 
 PCOD8211879
Probable space group: P M M A
;
_chemical_formula_sum "Si O2"
_cell_formula_units_Z 64
_cell_length_a 9.167842
_cell_length_b 23.476031
_cell_length_c 15.551788
_cell_angle_alpha 90.000000
_cell_angle_beta 90.000000
_cell_angle_gamma 90.000000
_cell_volume 3347.126465
_symmetry_space_group_name_H-M "P M M A"
_symmetry_group_IT_number 51
_symmetry_cell_setting 'orthorhombic'
loop_
_space_group_symop_operation_xyz
x,y,z
1/2-x,-y,z
1/2+x,-y,-z
-x,y,-z
-x,-y,-z
1/2+x,y,-z
1/2-x,y,z
x,-y,z
loop_
_atom_site_type_symbol
_atom_site_label
_atom_site_fract_x
_atom_site_fract_y
_atom_site_fract_z
Si Si1 0.578000 0.668890 0.083494
Si Si2 0.077039 0.135838 0.249318
Si Si3 0.079134 0.744629 0.752051
Si Si4 0.084362 0.436631 0.670097
Si Si5 0.918017 0.676864 0.416009
Si Si6 0.419318 0.564839 0.155597
Si Si7 0.079210 0.934509 0.084947
Si Si8 0.421079 0.065461 0.414029
O O1 0.750000 0.664827 0.068357
O O2 0.537926 0.707316 0.165180
O O3 0.513423 0.605551 0.094780
O O4 0.500000 0.696407 0.000000
O O5 0.250000 0.141277 0.249769
O O6 0.023027 0.100687 0.166657
O O7 0.022699 0.103235 0.334591
O O8 0.008167 0.197424 0.244580
O O9 0.250000 0.757892 0.749688
O O10 0.027337 0.710489 0.667870
O O11 0.250000 0.426586 0.705081
O O12 0.068419 0.500000 0.630302
O O13 0.049861 0.390414 0.596763
O O14 0.972326 0.427824 0.746972
O O15 0.750000 0.689166 0.432296
O O16 0.000000 0.699463 0.500000
O O17 0.250000 0.582064 0.151134
O O18 0.444150 0.500000 0.124621
O O19 0.250000 0.926748 0.070735
O O20 0.037341 0.000000 0.101679
O O21 0.000000 0.910860 0.000000
O O22 0.500000 0.087394 0.500000
O O23 0.250000 0.072698 0.428231
O O24 0.462038 0.000000 0.394374
#
# Coordination Sequence:
#
# PCOD8211879 Si02
#       8
#     8   8   8   8   8   8   8   8
#     4  11  23  41  62  83 109 146 188 232 282 336
#     4  10  21  36  57  82 109 146 189 227 272 327
#     4  10  23  42  58  77 111 148 187 234 281 326
#     4   9  17  33  57  81 110 147 182 222 278 338
#     4  10  21  38  57  81 109 144 186 228 279 333
#     4  10  20  34  56  87 117 144 179 225 278 336
#     4   9  18  34  56  83 115 147 180 221 268 322
#     4   9  18  34  56  83 115 148 183 226 275 327
#
# _framework density 19.120878999999999
#
# number of rings (size 3 to 8) (size 9 to 14) (size 15 to 20)
#    0.000    2.250    1.250    1.125    0.000    6.750 
#    0.000    5.000    0.000    3.750    0.000    0.000 
#    0.000    0.000    0.000    0.000    0.000    0.000 
#
# Total GULP energy -793708.804756 kJ/mol
# GULP energy per Si atom -12401.700074 kJ/mol
# Density = 1.907736 g / cm^3
# Si number density = 19.120879 Si / 1000 Ang^3
#
#
#
# Elastic Constant Matrix: (Units=GPa)
#
#
# Indices 1 2 3 4 5 6 
#
# 1 61.4781 47.6711 60.1864 0.0000 0.0000 0.0000
# 2 47.6711 110.6860 77.0207 0.0000 0.0000 0.0000
# 3 60.1864 77.0207 170.8901 0.0000 0.0000 0.0000
# 4 0.0000 0.0000 0.0000 11.1514 0.0000 0.0000
# 5 0.0000 0.0000 0.0000 0.0000 35.5040 0.0000
# 6 0.0000 0.0000 0.0000 0.0000 0.0000 31.4171
#
#
#
# Elastic Compliance Matrix: (Units=1/GPa)
#
#
# Indices 1 2 3 4 5 6 
#
# 1 0.028798 -0.007788 -0.006632 0.000000 0.000000 0.000000
# 2 -0.007788 0.015269 -0.004139 0.000000 0.000000 0.000000
# 3 -0.006632 -0.004139 0.010053 0.000000 0.000000 0.000000
# 4 0.000000 0.000000 0.000000 0.089675 0.000000 0.000000
# 5 0.000000 0.000000 0.000000 0.000000 0.028166 0.000000
# 6 0.000000 0.000000 0.000000 0.000000 0.000000 0.031830
#
#
# Mechanical properties :
#
#
# Convention : Reuss Voigt Hill
#
# Bulk Modulus (GPa) = 58.81849 79.20117 69.00983
# Shear Modulus (GPa) = 20.27783 26.15957 23.21870
#
# Velocity S-wave (km/s) = 3.26008 3.70282 3.48848
# Velocity P-wave (km/s) = 6.70813 7.73255 7.23849
#
# Compressibility (1/GPa) = 0.01700146
#
# Stress axis : x y z
#
# Youngs Moduli (GPa) = 34.72497 65.49375 99.47251
#
# Poissons Ratio (x) = 0.51004 0.65975
# Poissons Ratio (y) = 0.27043 0.41170
# Poissons Ratio (z) = 0.23031 0.27107
#
# Static dielectric constant tensor:
#      x y z
#    x 3.412660 0.000000 0.000000 
#    y 0.000000 3.498140 0.000000 
#    z 0.000000 0.000000 3.562350 
# 
# 
# High freq. dielectric constant tensor:
#      x y z
#    x 1.737460 0.000000 0.000000 
#    y 0.000000 1.741270 0.000000 
#    z 0.000000 0.000000 1.745990 
# 
# From -- ./inp_files/22331.got.cif
#   From: 2010.03.12/outbox.cif.g09.slc.cpg/sg51_12_cif.got.tgz:22331.got - 2010.04.16 13:43:02.
