data_PCOD8211614
_publ_section_title
;
Structure prediction by ZEFSAII (Michael W. Deem and Ramdas Pophale) SiO2 
 PCOD8211614
Probable space group: P M M A
;
_chemical_formula_sum "Si O2"
_cell_formula_units_Z 40
_cell_length_a 9.033733
_cell_length_b 9.432939
_cell_length_c 25.789979
_cell_angle_alpha 90.000000
_cell_angle_beta 90.000000
_cell_angle_gamma 90.000000
_cell_volume 2197.684094
_symmetry_space_group_name_H-M "P M M A"
_symmetry_group_IT_number 51
_symmetry_cell_setting 'orthorhombic'
loop_
_space_group_symop_operation_xyz
x,y,z
1/2-x,-y,z
1/2+x,-y,-z
-x,y,-z
-x,-y,-z
1/2+x,y,-z
1/2-x,y,z
x,-y,z
loop_
_atom_site_type_symbol
_atom_site_label
_atom_site_fract_x
_atom_site_fract_y
_atom_site_fract_z
Si Si1 0.416798 0.331497 0.746567
Si Si2 0.577545 0.664870 0.849097
Si Si3 0.576978 0.836246 0.446572
Si Si4 0.576510 0.837241 0.948090
Si Si5 0.079255 0.667739 0.356287
O O1 0.250000 0.272284 0.742249
O O2 0.417884 0.500000 0.747330
O O3 0.490641 0.274779 0.799346
O O4 0.511379 0.276828 0.697799
O O5 0.750000 0.693819 0.839315
O O6 0.545105 0.500000 0.858211
O O7 0.518269 0.747568 0.899343
O O8 0.500000 0.792199 0.500000
O O9 0.750000 0.804434 0.451690
O O10 0.509717 0.740273 0.402051
O O11 0.545645 0.000000 0.433335
O O12 0.750000 0.817039 0.955370
O O13 0.532480 0.000000 0.938350
O O14 0.500000 0.778530 0.000000
O O15 0.250000 0.713508 0.358403
O O16 0.060487 0.500000 0.361976
#
# Coordination Sequence:
#
# PCOD8211614 Si02
#       5
#     8   8   8   8   8
#     4   9  17  30  49  73 100 129 161 200 246 292
#     4   9  17  30  48  69  93 122 157 196 237 284
#     4  10  21  37  56  77 103 136 172 210 254 302
#     4   9  18  32  48  66  91 123 156 191 235 285
#     4  10  20  34  54  79 105 135 171 209 250 298
#
# _framework density 18.200977999999999
#
# number of rings (size 3 to 8) (size 9 to 14) (size 15 to 20)
#    0.000    2.600    0.000    1.800    0.000    6.400 
#    0.000    1.000    0.000    3.600    0.000    0.000 
#    0.000    0.000    0.000    0.000    0.000    0.000 
#
# Total GULP energy -496079.364950 kJ/mol
# GULP energy per Si atom -12401.984124 kJ/mol
# Density = 1.815955 g / cm^3
# Si number density = 18.200978 Si / 1000 Ang^3
#
#
#
# Elastic Constant Matrix: (Units=GPa)
#
#
# Indices 1 2 3 4 5 6 
#
# 1 102.9269 33.0757 77.7277 0.0000 0.0000 0.0000
# 2 33.0757 36.8677 51.4785 0.0000 0.0000 0.0000
# 3 77.7277 51.4785 180.6280 0.0000 0.0000 0.0000
# 4 0.0000 0.0000 0.0000 -22.0097 0.0000 0.0000
# 5 0.0000 0.0000 0.0000 0.0000 42.0543 0.0000
# 6 0.0000 0.0000 0.0000 0.0000 0.0000 20.0017
#
#
#
# Elastic Compliance Matrix: (Units=1/GPa)
#
#
# Indices 1 2 3 4 5 6 
#
# 1 0.015600 -0.007677 -0.004525 0.000000 0.000000 0.000000
# 2 -0.007677 0.048830 -0.010613 0.000000 0.000000 0.000000
# 3 -0.004525 -0.010613 0.010508 0.000000 0.000000 0.000000
# 4 0.000000 0.000000 0.000000 -0.045435 0.000000 0.000000
# 5 0.000000 0.000000 0.000000 0.000000 0.023779 0.000000
# 6 0.000000 0.000000 0.000000 0.000000 0.000000 0.049996
#
#
# Mechanical properties :
#
#
# Convention : Reuss Voigt Hill
#
# Bulk Modulus (GPa) = 34.12001 71.66515 52.89258
# Shear Modulus (GPa) = 31.51041 18.55198 25.03119
#
# Velocity S-wave (km/s) = 4.16534 3.19609 3.71248
# Velocity P-wave (km/s) = 6.47459 7.28559 6.89203
#
# Compressibility (1/GPa) = 0.02930831
#
# Stress axis : x y z
#
# Youngs Moduli (GPa) = 64.10340 20.47902 95.16502
#
# Poissons Ratio (x) = 0.15722 0.43061
# Poissons Ratio (y) = 0.49213 1.00998
# Poissons Ratio (z) = 0.29006 0.21734
#
# Static dielectric constant tensor:
#      x y z
#    x 3.591830 0.000000 0.000000 
#    y 0.000000 3.116370 0.000000 
#    z 0.000000 0.000000 3.588760 
# 
# 
# High freq. dielectric constant tensor:
#      x y z
#    x 1.713040 0.000000 0.000000 
#    y 0.000000 1.674340 0.000000 
#    z 0.000000 0.000000 1.720340 
# 
# From -- ./inp_files/27004.got.cif
#   From: 2010.03.12/outbox.cif.g09.slc.cpg/sg51_14_cif.got.tgz:27004.got - 2010.04.16 13:43:02.
