data_PCOD8211274
_publ_section_title
;
Structure prediction by ZEFSAII (Michael W. Deem and Ramdas Pophale) SiO2 
 PCOD8211274
Probable space group: P M M A
;
_chemical_formula_sum "Si O2"
_cell_formula_units_Z 52
_cell_length_a 9.475811
_cell_length_b 20.282375
_cell_length_c 14.770757
_cell_angle_alpha 90.000000
_cell_angle_beta 90.000000
_cell_angle_gamma 90.000000
_cell_volume 2838.820622
_symmetry_space_group_name_H-M "P M M A"
_symmetry_group_IT_number 51
_symmetry_cell_setting 'orthorhombic'
loop_
_space_group_symop_operation_xyz
x,y,z
1/2-x,-y,z
1/2+x,-y,-z
-x,y,-z
-x,-y,-z
1/2+x,y,-z
1/2-x,y,z
x,-y,z
loop_
_atom_site_type_symbol
_atom_site_label
_atom_site_fract_x
_atom_site_fract_y
_atom_site_fract_z
Si Si1 0.414542 0.182020 0.911942
Si Si2 0.917130 0.072252 0.223794
Si Si3 0.583936 0.378716 0.280635
Si Si4 0.912485 0.730631 0.415153
Si Si5 0.913577 0.116815 0.414414
Si Si6 0.414956 0.665852 0.910303
Si Si7 0.580296 0.500000 0.403436
O O1 0.250000 0.169461 0.930167
O O2 0.476098 0.132370 0.836016
O O3 0.442245 0.257705 0.884710
O O4 0.500000 0.162573 0.000000
O O5 0.750000 0.078811 0.225809
O O6 0.971149 0.078686 0.326730
O O7 0.963834 0.000000 0.186515
O O8 0.750000 0.385278 0.273923
O O9 0.539910 0.309972 0.327045
O O10 0.529203 0.377016 0.176060
O O11 0.527603 0.438241 0.342851
O O12 0.750000 0.717289 0.438229
O O13 0.943346 0.806511 0.395542
O O14 0.000000 0.703961 0.500000
O O15 0.750000 0.103126 0.433779
O O16 0.000000 0.090502 0.500000
O O17 0.250000 0.653587 0.929766
O O18 0.500000 0.644498 0.000000
O O19 0.750000 0.500000 0.420090
O O20 0.500000 0.500000 0.500000
#
# Coordination Sequence:
#
# PCOD8211274 Si02
#       7
#     8   8   8   8   8   8   4
#     4   9  17  30  49  70  91 116 147 185 227 269
#     4   9  17  29  45  64  86 116 152 183 216 268
#     4   9  17  30  49  69  92 124 156 184 220 268
#     4   9  16  27  44  66  89 114 146 184 225 267
#     4   9  17  29  45  64  86 113 147 186 225 265
#     4   9  17  31  50  71  93 118 151 189 227 267
#     4  10  20  34  51  72  98 128 159 188 221 264
#
# _framework density 18.317467000000001
#
# number of rings (size 3 to 8) (size 9 to 14) (size 15 to 20)
#    0.000    2.923    0.000    1.385    0.000    4.308 
#    0.000    2.692    0.000    8.308    0.000    0.000 
#    0.000    0.000    0.000    0.000    0.000    0.000 
#
# Total GULP energy -644460.359098 kJ/mol
# GULP energy per Si atom -12393.468444 kJ/mol
# Density = 1.827578 g / cm^3
# Si number density = 18.317467 Si / 1000 Ang^3
#
#
#
# Elastic Constant Matrix: (Units=GPa)
#
#
# Indices 1 2 3 4 5 6 
#
# 1 33.0399 19.4508 39.5360 0.0000 0.0000 0.0000
# 2 19.4508 64.5546 56.3727 0.0000 0.0000 0.0000
# 3 39.5360 56.3727 155.9816 0.0000 0.0000 0.0000
# 4 0.0000 0.0000 0.0000 23.5422 0.0000 0.0000
# 5 0.0000 0.0000 0.0000 0.0000 31.3004 0.0000
# 6 0.0000 0.0000 0.0000 0.0000 0.0000 11.8724
#
#
#
# Elastic Compliance Matrix: (Units=1/GPa)
#
#
# Indices 1 2 3 4 5 6 
#
# 1 0.044611 -0.005213 -0.009424 0.000000 0.000000 0.000000
# 2 -0.005213 0.023243 -0.007079 0.000000 0.000000 0.000000
# 3 -0.009424 -0.007079 0.011358 0.000000 0.000000 0.000000
# 4 0.000000 0.000000 0.000000 0.042477 0.000000 0.000000
# 5 0.000000 0.000000 0.000000 0.000000 0.031948 0.000000
# 6 0.000000 0.000000 0.000000 0.000000 0.000000 0.084229
#
#
# Mechanical properties :
#
#
# Convention : Reuss Voigt Hill
#
# Bulk Modulus (GPa) = 27.94683 53.81056 40.87869
# Shear Modulus (GPa) = 17.05178 22.55745 19.80462
#
# Velocity S-wave (km/s) = 3.05438 3.51304 3.29171
# Velocity P-wave (km/s) = 5.26584 6.77464 6.06732
#
# Compressibility (1/GPa) = 0.03578224
#
# Stress axis : x y z
#
# Youngs Moduli (GPa) = 22.41576 43.02348 88.04380
#
# Poissons Ratio (x) = 0.22426 0.82969
# Poissons Ratio (y) = 0.11684 0.62326
# Poissons Ratio (z) = 0.21124 0.30456
#
# Static dielectric constant tensor:
#      x y z
#    x 3.063960 0.000000 0.000000 
#    y 0.000000 3.474240 0.000000 
#    z 0.000000 0.000000 3.631130 
# 
# 
# High freq. dielectric constant tensor:
#      x y z
#    x 1.666050 0.000000 0.000000 
#    y 0.000000 1.707060 0.000000 
#    z 0.000000 0.000000 1.718730 
# 
# From -- ./inp_files/21644.got.cif
#   From: 2010.03.12/outbox.cif.g09.slc.cpg/sg51_11_cif.got.tgz:21644.got - 2010.04.16 13:43:02.
