data_PCOD8211268
_publ_section_title
;
Structure prediction by ZEFSAII (Michael W. Deem and Ramdas Pophale) SiO2 
 PCOD8211268
Probable space group: P M M A
;
_chemical_formula_sum "Si O2"
_cell_formula_units_Z 64
_cell_length_a 9.288480
_cell_length_b 19.352962
_cell_length_c 20.384441
_cell_angle_alpha 90.000000
_cell_angle_beta 90.000000
_cell_angle_gamma 90.000000
_cell_volume 3664.298970
_symmetry_space_group_name_H-M "P M M A"
_symmetry_group_IT_number 51
_symmetry_cell_setting 'orthorhombic'
loop_
_space_group_symop_operation_xyz
x,y,z
1/2-x,-y,z
1/2+x,-y,-z
-x,y,-z
-x,-y,-z
1/2+x,y,-z
1/2-x,y,z
x,-y,z
loop_
_atom_site_type_symbol
_atom_site_label
_atom_site_fract_x
_atom_site_fract_y
_atom_site_fract_z
Si Si1 0.084883 0.581283 0.672395
Si Si2 0.081725 0.079324 0.316386
Si Si3 0.917790 0.832178 0.064357
Si Si4 0.920769 0.576396 0.180389
Si Si5 0.417271 0.079689 0.812918
Si Si6 0.582785 0.826135 0.564762
Si Si7 0.918645 0.333368 0.565918
Si Si8 0.081335 0.672891 0.935164
O O1 0.250000 0.604600 0.660358
O O2 0.069624 0.500000 0.659434
O O3 0.034521 0.599594 0.746411
O O4 0.978150 0.621830 0.625333
O O5 0.250000 0.089510 0.304129
O O6 0.026382 0.126797 0.375737
O O7 0.001411 0.104605 0.251254
O O8 0.043430 0.000000 0.332948
O O9 0.750000 0.844626 0.052061
O O10 0.974184 0.876176 0.125795
O O11 0.953399 0.752574 0.079164
O O12 0.000000 0.858423 0.000000
O O13 0.750000 0.573534 0.177574
O O14 0.983063 0.500000 0.164879
O O15 0.980230 0.630059 0.126673
O O16 0.250000 0.093640 0.800016
O O17 0.449211 0.000000 0.828598
O O18 0.500000 0.849997 0.500000
O O19 0.750000 0.838982 0.551517
O O20 0.550401 0.746629 0.581955
O O21 0.750000 0.348077 0.556685
O O22 0.000000 0.356189 0.500000
O O23 0.250000 0.660169 0.945850
O O24 0.000000 0.646880 0.000000
#
# Coordination Sequence:
#
# PCOD8211268 Si02
#       8
#     8   8   8   8   8   8   8   8
#     4   9  18  33  52  73  96 123 158 198 237 280
#     4   9  18  33  51  71  97 127 157 191 234 283
#     4   9  18  31  46  66  92 121 153 190 230 272
#     4   8  15  29  48  68  91 120 152 186 226 273
#     4   9  18  32  48  68  94 121 153 194 234 274
#     4   9  19  34  50  71  98 126 158 195 233 276
#     4  10  20  34  51  71  97 127 158 194 235 279
#     4   9  17  30  47  67  92 121 153 188 227 272
#
# _framework density 17.465824000000001
#
# number of rings (size 3 to 8) (size 9 to 14) (size 15 to 20)
#    0.000    3.000    0.000    1.125    0.000    3.750 
#    0.000    1.875    0.000    0.750    0.000    0.000 
#    0.000    0.000    0.000    0.000    0.000    0.000 
#
# Total GULP energy -793638.217706 kJ/mol
# GULP energy per Si atom -12400.597152 kJ/mol
# Density = 1.742607 g / cm^3
# Si number density = 17.465824 Si / 1000 Ang^3
#
#
#
# Elastic Constant Matrix: (Units=GPa)
#
#
# Indices 1 2 3 4 5 6 
#
# 1 53.2630 38.4540 63.0697 0.0000 0.0000 0.0000
# 2 38.4540 75.1413 88.4826 0.0000 0.0000 0.0000
# 3 63.0697 88.4826 181.9060 0.0000 0.0000 0.0000
# 4 0.0000 0.0000 0.0000 39.0804 0.0000 0.0000
# 5 0.0000 0.0000 0.0000 0.0000 34.7262 0.0000
# 6 0.0000 0.0000 0.0000 0.0000 0.0000 20.5213
#
#
#
# Elastic Compliance Matrix: (Units=1/GPa)
#
#
# Indices 1 2 3 4 5 6 
#
# 1 0.033884 -0.008207 -0.007756 0.000000 0.000000 0.000000
# 2 -0.008207 0.033139 -0.013274 0.000000 0.000000 0.000000
# 3 -0.007756 -0.013274 0.014643 0.000000 0.000000 0.000000
# 4 0.000000 0.000000 0.000000 0.025588 0.000000 0.000000
# 5 0.000000 0.000000 0.000000 0.000000 0.028797 0.000000
# 6 0.000000 0.000000 0.000000 0.000000 0.000000 0.048730
#
#
# Mechanical properties :
#
#
# Convention : Reuss Voigt Hill
#
# Bulk Modulus (GPa) = 43.11842 76.70255 59.91048
# Shear Modulus (GPa) = 19.92141 26.88582 23.40362
#
# Velocity S-wave (km/s) = 3.38093 3.92770 3.66453
# Velocity P-wave (km/s) = 6.32312 8.03618 7.23056
#
# Compressibility (1/GPa) = 0.02319195
#
# Stress axis : x y z
#
# Youngs Moduli (GPa) = 29.51236 30.17589 68.29151
#
# Poissons Ratio (x) = 0.24766 0.52966
# Poissons Ratio (y) = 0.24222 0.90649
# Poissons Ratio (z) = 0.22890 0.40055
#
# Static dielectric constant tensor:
#      x y z
#    x 3.077710 0.000000 0.000000 
#    y 0.000000 3.299010 0.000000 
#    z 0.000000 0.000000 3.416320 
# 
# 
# High freq. dielectric constant tensor:
#      x y z
#    x 1.658420 0.000000 0.000000 
#    y 0.000000 1.671950 0.000000 
#    z 0.000000 0.000000 1.682220 
# 
# From -- ./inp_files/28436.got.cif
#   From: 2010.03.12/outbox.cif.g09.slc.cpg/sg51_15_cif.got.tgz:28436.got - 2010.04.16 13:43:02.
