data_PCOD8211048
_publ_section_title
;
Structure prediction by ZEFSAII (Michael W. Deem and Ramdas Pophale) SiO2 
 PCOD8211048
Probable space group: P M M A
;
_chemical_formula_sum "Si O2"
_cell_formula_units_Z 64
_cell_length_a 24.685122
_cell_length_b 9.398835
_cell_length_c 13.596473
_cell_angle_alpha 90.000000
_cell_angle_beta 90.000000
_cell_angle_gamma 90.000000
_cell_volume 3154.536581
_symmetry_space_group_name_H-M "P M M A"
_symmetry_group_IT_number 51
_symmetry_cell_setting 'orthorhombic'
loop_
_space_group_symop_operation_xyz
x,y,z
1/2-x,-y,z
1/2+x,-y,-z
-x,y,-z
-x,-y,-z
1/2+x,y,-z
1/2-x,y,z
x,-y,z
loop_
_atom_site_type_symbol
_atom_site_label
_atom_site_fract_x
_atom_site_fract_y
_atom_site_fract_z
Si Si1 0.312303 0.166843 0.736646
Si Si2 0.455803 0.838271 0.425556
Si Si3 0.189442 0.654987 0.341840
Si Si4 0.594547 0.663435 0.162910
Si Si5 0.160884 0.160590 0.515503
Si Si6 0.101814 0.662631 0.061914
Si Si7 0.021403 0.332586 0.234293
Si Si8 0.313947 0.163892 0.162502
O O1 0.250000 0.212270 0.756548
O O2 0.352312 0.246779 0.810590
O O3 0.329320 0.209769 0.626557
O O4 0.319832 0.000000 0.753982
O O5 0.500000 0.775070 0.500000
O O6 0.401379 0.829267 0.487546
O O7 0.452223 0.744394 0.327866
O O8 0.469845 0.000000 0.395078
O O9 0.250000 0.627903 0.305945
O O10 0.159570 0.500000 0.346391
O O11 0.192733 0.729989 0.447184
O O12 0.162844 0.758879 0.260978
O O13 0.607318 0.500000 0.188139
O O14 0.541207 0.716062 0.221576
O O15 0.580242 0.681597 0.048216
O O16 0.183261 0.000000 0.500106
O O17 0.119362 0.500000 0.082468
O O18 0.054509 0.710370 0.136549
O O19 0.154788 0.762399 0.072653
O O20 0.024378 0.500000 0.252294
O O21 0.250000 0.180361 0.145745
O O22 0.330546 0.000000 0.171554
#
# Coordination Sequence:
#
# PCOD8211048 Si02
#       8
#     8   8   8   8   8   8   8   8
#     4  10  22  40  61  85 115 153 196 241 289 342
#     4  10  21  36  55  81 113 147 182 222 271 329
#     4  10  20  33  51  77 108 141 177 219 268 323
#     4  10  22  40  61  84 112 148 190 238 293 349
#     4  10  20  35  56  80 108 145 186 226 272 328
#     4  10  21  38  60  84 111 146 190 241 294 346
#     4  10  21  38  60  86 116 150 190 237 289 345
#     4  10  21  36  54  79 113 150 187 230 282 343
#
# _framework density 20.288242
#
# number of rings (size 3 to 8) (size 9 to 14) (size 15 to 20)
#    0.000    2.000    0.000    3.000    0.000   10.000 
#    0.000    2.500    0.000    2.250    0.000    0.000 
#    0.000    0.000    0.000    0.000    0.000    0.000 
#
# Total GULP energy -793614.305524 kJ/mol
# GULP energy per Si atom -12400.223524 kJ/mol
# Density = 2.024207 g / cm^3
# Si number density = 20.288242 Si / 1000 Ang^3
#
#
#
# Elastic Constant Matrix: (Units=GPa)
#
#
# Indices 1 2 3 4 5 6 
#
# 1 95.9598 34.5879 27.9209 0.0000 0.0000 0.0000
# 2 34.5879 82.6898 26.3318 0.0000 0.0000 0.0000
# 3 27.9209 26.3318 68.2214 0.0000 0.0000 0.0000
# 4 0.0000 0.0000 0.0000 34.4104 0.0000 0.0000
# 5 0.0000 0.0000 0.0000 0.0000 35.1440 0.0000
# 6 0.0000 0.0000 0.0000 0.0000 0.0000 25.1331
#
#
#
# Elastic Compliance Matrix: (Units=1/GPa)
#
#
# Indices 1 2 3 4 5 6 
#
# 1 0.013035 -0.004280 -0.003683 0.000000 0.000000 0.000000
# 2 -0.004280 0.015193 -0.004113 0.000000 0.000000 0.000000
# 3 -0.003683 -0.004113 0.017753 0.000000 0.000000 0.000000
# 4 0.000000 0.000000 0.000000 0.029061 0.000000 0.000000
# 5 0.000000 0.000000 0.000000 0.000000 0.028454 0.000000
# 6 0.000000 0.000000 0.000000 0.000000 0.000000 0.039788
#
#
# Mechanical properties :
#
#
# Convention : Reuss Voigt Hill
#
# Bulk Modulus (GPa) = 45.80736 47.17246 46.48991
# Shear Modulus (GPa) = 28.61847 29.47286 29.04567
#
# Velocity S-wave (km/s) = 3.75986 3.81557 3.78782
# Velocity P-wave (km/s) = 6.44019 6.53552 6.48803
#
# Compressibility (1/GPa) = 0.02183055
#
# Stress axis : x y z
#
# Youngs Moduli (GPa) = 76.71526 65.81924 56.32877
#
# Poissons Ratio (x) = 0.28168 0.20746
# Poissons Ratio (y) = 0.32831 0.23166
# Poissons Ratio (z) = 0.28255 0.27069
#
# Static dielectric constant tensor:
#      x y z
#    x 3.684730 0.000000 0.000000 
#    y 0.000000 3.725710 0.000000 
#    z 0.000000 0.000000 3.587500 
# 
# 
# High freq. dielectric constant tensor:
#      x y z
#    x 1.799170 0.000000 0.000000 
#    y 0.000000 1.787150 0.000000 
#    z 0.000000 0.000000 1.788090 
# 
# From -- ./inp_files/26206.got.cif
#   From: 2010.03.12/outbox.cif.g09.slc.cpg/sg51_14_cif.got.tgz:26206.got - 2010.04.16 13:43:02.
