data_PCOD8211756
_publ_section_title
;
Structure prediction by ZEFSAII (Michael W. Deem and Ramdas Pophale) SiO2 
 PCOD8211756
Probable space group: P M M A
;
_chemical_formula_sum "Si O2"
_cell_formula_units_Z 48
_cell_length_a 15.452874
_cell_length_b 15.758912
_cell_length_c 9.123842
_cell_angle_alpha 90.000000
_cell_angle_beta 90.000000
_cell_angle_gamma 90.000000
_cell_volume 2221.842397
_symmetry_space_group_name_H-M "P M M A"
_symmetry_group_IT_number 51
_symmetry_cell_setting 'orthorhombic'
loop_
_space_group_symop_operation_xyz
x,y,z
1/2-x,-y,z
1/2+x,-y,-z
-x,y,-z
-x,-y,-z
1/2+x,y,-z
1/2-x,y,z
x,-y,z
loop_
_atom_site_type_symbol
_atom_site_label
_atom_site_fract_x
_atom_site_fract_y
_atom_site_fract_z
Si Si1 0.147410 0.904604 0.088782
Si Si2 0.592894 0.751738 0.423255
Si Si3 0.650017 0.595471 0.887632
Si Si4 0.904799 0.591774 0.568393
Si Si5 0.150039 0.091262 0.411218
Si Si6 0.147166 0.747566 0.898831
O O1 0.250000 0.898029 0.087954
O O2 0.110081 0.884278 0.252093
O O3 0.118502 0.000000 0.039808
O O4 0.112441 0.832182 0.980055
O O5 0.500000 0.752895 0.500000
O O6 0.644850 0.669921 0.489156
O O7 0.637605 0.839766 0.463533
O O8 0.591787 0.742960 0.249265
O O9 0.750000 0.609462 0.842844
O O10 0.635748 0.500000 0.950688
O O11 0.592191 0.609346 0.742596
O O12 0.622204 0.663972 0.008701
O O13 0.858845 0.500000 0.540618
O O14 0.000000 0.588137 0.500000
O O15 0.250000 0.079117 0.382358
O O16 0.111435 0.000000 0.463677
O O17 0.250000 0.750702 0.866059
#
# Coordination Sequence:
#
# PCOD8211756 Si02
#       6
#     8   8   8   8   8   8
#     4   8  15  30  53  78 100 127 171 222 267 320
#     4  11  23  36  51  77 114 150 187 232 280 333
#     4   9  18  34  58  86 112 141 183 237 289 330
#     4   9  19  37  57  78 109 149 189 224 270 337
#     4   9  18  35  59  82 106 143 188 231 281 342
#     4  10  20  34  55  81 108 141 181 228 282 336
#
# _framework density 21.603693
#
# number of rings (size 3 to 8) (size 9 to 14) (size 15 to 20)
#    0.000    2.667    0.000    2.500    0.000    4.333 
#    0.000    9.167    0.000   11.000    0.000    0.000 
#    0.000    0.000    0.000    0.000    0.000    0.000 
#
# Total GULP energy -594681.242506 kJ/mol
# GULP energy per Si atom -12389.192552 kJ/mol
# Density = 2.155452 g / cm^3
# Si number density = 21.603693 Si / 1000 Ang^3
#
#
#
# Elastic Constant Matrix: (Units=GPa)
#
#
# Indices 1 2 3 4 5 6 
#
# 1 32.0811 11.5424 32.2321 0.0000 0.0000 0.0000
# 2 11.5424 213.5660 108.9971 0.0000 0.0000 0.0000
# 3 32.2321 108.9971 170.4382 0.0000 0.0000 0.0000
# 4 0.0000 0.0000 0.0000 69.8657 0.0000 0.0000
# 5 0.0000 0.0000 0.0000 0.0000 29.9866 0.0000
# 6 0.0000 0.0000 0.0000 0.0000 0.0000 9.6032
#
#
#
# Elastic Compliance Matrix: (Units=1/GPa)
#
#
# Indices 1 2 3 4 5 6 
#
# 1 0.039349 0.002481 -0.009028 0.000000 0.000000 0.000000
# 2 0.002481 0.007108 -0.005015 0.000000 0.000000 0.000000
# 3 -0.009028 -0.005015 0.010781 0.000000 0.000000 0.000000
# 4 0.000000 0.000000 0.000000 0.014313 0.000000 0.000000
# 5 0.000000 0.000000 0.000000 0.000000 0.033348 0.000000
# 6 0.000000 0.000000 0.000000 0.000000 0.000000 0.104132
#
#
# Mechanical properties :
#
#
# Convention : Reuss Voigt Hill
#
# Bulk Modulus (GPa) = 29.31293 80.18093 54.74693
# Shear Modulus (GPa) = 20.53171 39.44535 29.98853
#
# Velocity S-wave (km/s) = 3.08617 4.27765 3.72979
# Velocity P-wave (km/s) = 5.12808 7.84810 6.62910
#
# Compressibility (1/GPa) = 0.03411463
#
# Stress axis : x y z
#
# Youngs Moduli (GPa) = 25.41372 140.69513 92.75242
#
# Poissons Ratio (x) = -0.34905 0.83737
# Poissons Ratio (y) = -0.06305 0.46511
# Poissons Ratio (z) = 0.22943 0.70552
#
# Static dielectric constant tensor:
#      x y z
#    x 3.360410 0.000000 0.000000 
#    y 0.000000 5.550120 0.000000 
#    z 0.000000 0.000000 3.830890 
# 
# 
# High freq. dielectric constant tensor:
#      x y z
#    x 1.801490 0.000000 0.000000 
#    y 0.000000 1.879640 0.000000 
#    z 0.000000 0.000000 1.839260 
# 
# From -- ./inp_files/9558.got.cif
#   From: 2010.03.12/outbox.cif.g09.slc.cpg/sg51_5_cif.got.tgz:9558.got - 2010.04.16 13:43:02.
