data_PCOD8211079
_publ_section_title
;
Structure prediction by ZEFSAII (Michael W. Deem and Ramdas Pophale) SiO2 
 PCOD8211079
Probable space group: P M M A
;
_chemical_formula_sum "Si O2"
_cell_formula_units_Z 36
_cell_length_a 8.806152
_cell_length_b 15.970144
_cell_length_c 13.537155
_cell_angle_alpha 90.000000
_cell_angle_beta 90.000000
_cell_angle_gamma 90.000000
_cell_volume 1903.804772
_symmetry_space_group_name_H-M "P M M A"
_symmetry_group_IT_number 51
_symmetry_cell_setting 'orthorhombic'
loop_
_space_group_symop_operation_xyz
x,y,z
1/2-x,-y,z
1/2+x,-y,-z
-x,y,-z
-x,-y,-z
1/2+x,y,-z
1/2-x,y,z
x,-y,z
loop_
_atom_site_type_symbol
_atom_site_label
_atom_site_fract_x
_atom_site_fract_y
_atom_site_fract_z
Si Si1 0.569718 0.500000 0.891728
Si Si2 0.073586 0.169867 0.896198
Si Si3 0.929263 0.659748 0.209706
Si Si4 0.425183 0.092993 0.285439
Si Si5 0.429649 0.742261 0.394757
O O1 0.750000 0.500000 0.900953
O O2 0.515330 0.419663 0.832283
O O3 0.500000 0.500000 0.000000
O O4 0.250000 0.158014 0.908635
O O5 0.031330 0.263644 0.862789
O O6 0.017470 0.103927 0.815261
O O7 0.000000 0.148599 0.000000
O O8 0.750000 0.642907 0.216364
O O9 0.994322 0.678472 0.318064
O O10 0.250000 0.105096 0.258003
O O11 0.473562 0.161991 0.366422
O O12 0.458042 0.000000 0.328285
O O13 0.500000 0.721374 0.500000
O O14 0.250000 0.728069 0.396585
#
# Coordination Sequence:
#
# PCOD8211079 Si02
#       5
#     4   8   8   8   8
#     4  12  24  38  59  88 119 150 182 218 264 316
#     4  10  20  33  52  76 104 141 181 221 268 322
#     4  10  21  38  58  82 111 143 182 226 271 320
#     4   9  19  35  53  75 105 140 180 226 272 320
#     4  10  20  36  58  82 109 143 182 224 273 326
#
# _framework density 18.909502
#
# number of rings (size 3 to 8) (size 9 to 14) (size 15 to 20)
#    0.000    2.000    0.000    3.667    0.000    6.667 
#    0.000    0.556    0.000    0.000    0.000    0.000 
#    0.000    0.000    0.000    0.000    0.000    0.000 
#
# Total GULP energy -446501.320383 kJ/mol
# GULP energy per Si atom -12402.814455 kJ/mol
# Density = 1.886646 g / cm^3
# Si number density = 18.909502 Si / 1000 Ang^3
#
#
#
# Elastic Constant Matrix: (Units=GPa)
#
#
# Indices 1 2 3 4 5 6 
#
# 1 87.1005 44.1263 45.7811 0.0000 0.0000 0.0000
# 2 44.1263 104.8729 42.4628 0.0000 0.0000 0.0000
# 3 45.7811 42.4628 128.2132 0.0000 0.0000 0.0000
# 4 0.0000 0.0000 0.0000 173.4035 0.0000 0.0000
# 5 0.0000 0.0000 0.0000 0.0000 33.9310 0.0000
# 6 0.0000 0.0000 0.0000 0.0000 0.0000 27.9887
#
#
#
# Elastic Compliance Matrix: (Units=1/GPa)
#
#
# Indices 1 2 3 4 5 6 
#
# 1 0.016256 -0.005185 -0.004087 0.000000 0.000000 0.000000
# 2 -0.005185 0.012666 -0.002343 0.000000 0.000000 0.000000
# 3 -0.004087 -0.002343 0.010035 0.000000 0.000000 0.000000
# 4 0.000000 0.000000 0.000000 0.005767 0.000000 0.000000
# 5 0.000000 0.000000 0.000000 0.000000 0.029472 0.000000
# 6 0.000000 0.000000 0.000000 0.000000 0.000000 0.035729
#
#
# Mechanical properties :
#
#
# Convention : Reuss Voigt Hill
#
# Bulk Modulus (GPa) = 63.59061 64.99190 64.29126
# Shear Modulus (GPa) = 36.12782 59.58573 47.85677
#
# Velocity S-wave (km/s) = 4.37574 5.61956 5.03620
# Velocity P-wave (km/s) = 7.69619 8.74931 8.23960
#
# Compressibility (1/GPa) = 0.01572559
#
# Stress axis : x y z
#
# Youngs Moduli (GPa) = 61.51528 78.95281 99.65026
#
# Poissons Ratio (x) = 0.40937 0.40731
# Poissons Ratio (y) = 0.31895 0.23352
# Poissons Ratio (z) = 0.25144 0.18502
#
# Static dielectric constant tensor:
#      x y z
#    x 3.578920 0.000000 0.000000 
#    y 0.000000 3.528270 0.000000 
#    z 0.000000 0.000000 3.420450 
# 
# 
# High freq. dielectric constant tensor:
#      x y z
#    x 1.748520 0.000000 0.000000 
#    y 0.000000 1.731480 0.000000 
#    z 0.000000 0.000000 1.733560 
# 
# From -- ./inp_files/20317.got.cif
#   From: 2010.03.12/outbox.cif.g09.slc.cpg/sg51_11_cif.got.tgz:20317.got - 2010.04.16 13:43:02.
