data_PCOD8211177
_publ_section_title
;
Structure prediction by ZEFSAII (Michael W. Deem and Ramdas Pophale) SiO2 
 PCOD8211177
Probable space group: P M M A
;
_chemical_formula_sum "Si O2"
_cell_formula_units_Z 40
_cell_length_a 8.690210
_cell_length_b 25.619092
_cell_length_c 9.194500
_cell_angle_alpha 90.000000
_cell_angle_beta 90.000000
_cell_angle_gamma 90.000000
_cell_volume 2047.020169
_symmetry_space_group_name_H-M "P M M A"
_symmetry_group_IT_number 51
_symmetry_cell_setting 'orthorhombic'
loop_
_space_group_symop_operation_xyz
x,y,z
1/2-x,-y,z
1/2+x,-y,-z
-x,y,-z
-x,-y,-z
1/2+x,y,-z
1/2-x,y,z
x,-y,z
loop_
_atom_site_type_symbol
_atom_site_label
_atom_site_fract_x
_atom_site_fract_y
_atom_site_fract_z
Si Si1 0.429512 0.560773 0.153248
Si Si2 0.569277 0.840303 0.659387
Si Si3 0.930328 0.056451 0.340510
Si Si4 0.432314 0.260154 0.158548
Si Si5 0.932197 0.646736 0.342140
O O1 0.250000 0.574287 0.152255
O O2 0.461132 0.500000 0.179688
O O3 0.512240 0.590591 0.284627
O O4 0.500000 0.579199 0.000000
O O5 0.500000 0.832967 0.500000
O O6 0.750000 0.844222 0.645161
O O7 0.507139 0.893500 0.738327
O O8 0.517832 0.791435 0.755008
O O9 0.750000 0.066270 0.351474
O O10 0.000000 0.054509 0.500000
O O11 0.964673 0.000000 0.263429
O O12 0.250000 0.267784 0.153731
O O13 0.508167 0.309864 0.232445
O O14 0.500000 0.254063 0.000000
O O15 0.750000 0.648032 0.351517
O O16 0.000000 0.657911 0.500000
#
# Coordination Sequence:
#
# PCOD8211177 Si02
#       5
#     8   8   8   8   8
#     4  10  21  39  63  90 121 157 195 234 278 330
#     4  10  20  33  53  80 109 142 180 225 275 327
#     4   9  16  26  44  72 105 140 177 219 268 322
#     4  11  24  41  60  83 111 146 188 231 281 338
#     4  12  25  41  62  87 117 151 189 235 284 334
#
# _framework density 19.540599
#
# number of rings (size 3 to 8) (size 9 to 14) (size 15 to 20)
#    0.000    1.600    0.000    6.600    0.000    7.600 
#    0.000    0.000    0.000    0.600    0.000    0.000 
#    0.000    0.000    0.000    0.000    0.000    0.000 
#
# Total GULP energy -495975.722660 kJ/mol
# GULP energy per Si atom -12399.393067 kJ/mol
# Density = 1.949612 g / cm^3
# Si number density = 19.540599 Si / 1000 Ang^3
#
#
#
# Elastic Constant Matrix: (Units=GPa)
#
#
# Indices 1 2 3 4 5 6 
#
# 1 118.3483 58.6584 43.6557 0.0000 0.0000 0.0000
# 2 58.6584 129.9200 52.3383 0.0000 0.0000 0.0000
# 3 43.6557 52.3383 92.7200 0.0000 0.0000 0.0000
# 4 0.0000 0.0000 0.0000 11.6716 0.0000 0.0000
# 5 0.0000 0.0000 0.0000 0.0000 32.0094 0.0000
# 6 0.0000 0.0000 0.0000 0.0000 0.0000 10.4898
#
#
#
# Elastic Compliance Matrix: (Units=1/GPa)
#
#
# Indices 1 2 3 4 5 6 
#
# 1 0.011592 -0.003928 -0.003240 0.000000 0.000000 0.000000
# 2 -0.003928 0.011294 -0.004525 0.000000 0.000000 0.000000
# 3 -0.003240 -0.004525 0.014865 0.000000 0.000000 0.000000
# 4 0.000000 0.000000 0.000000 0.085678 0.000000 0.000000
# 5 0.000000 0.000000 0.000000 0.000000 0.031241 0.000000
# 6 0.000000 0.000000 0.000000 0.000000 0.000000 0.095331
#
#
# Mechanical properties :
#
#
# Convention : Reuss Voigt Hill
#
# Bulk Modulus (GPa) = 69.62508 72.25481 70.93994
# Shear Modulus (GPa) = 17.97417 23.25655 20.61536
#
# Velocity S-wave (km/s) = 3.03617 3.45362 3.25160
# Velocity P-wave (km/s) = 6.92816 7.27739 7.10492
#
# Compressibility (1/GPa) = 0.01436264
#
# Stress axis : x y z
#
# Youngs Moduli (GPa) = 86.26634 88.54441 67.27029
#
# Poissons Ratio (x) = 0.34783 0.21799
# Poissons Ratio (y) = 0.33888 0.30443
# Poissons Ratio (z) = 0.27954 0.40071
#
# Static dielectric constant tensor:
#      x y z
#    x 3.739240 0.000000 0.000000 
#    y 0.000000 4.253600 0.000000 
#    z 0.000000 0.000000 3.434390 
# 
# 
# High freq. dielectric constant tensor:
#      x y z
#    x 1.780700 0.000000 0.000000 
#    y 0.000000 1.788210 0.000000 
#    z 0.000000 0.000000 1.729800 
# 
# From -- ./inp_files/5268.got.cif
#   From: 2010.03.12/outbox.cif.g09.slc.cpg/sg51_3_cif.got.tgz:5268.got - 2010.04.16 13:43:02.
