data_PCOD8211796
_publ_section_title
;
Structure prediction by ZEFSAII (Michael W. Deem and Ramdas Pophale) SiO2 
 PCOD8211796
Probable space group: P M M A
;
_chemical_formula_sum "Si O2"
_cell_formula_units_Z 64
_cell_length_a 17.904241
_cell_length_b 9.066555
_cell_length_c 21.540803
_cell_angle_alpha 90.000000
_cell_angle_beta 90.000000
_cell_angle_gamma 90.000000
_cell_volume 3496.713936
_symmetry_space_group_name_H-M "P M M A"
_symmetry_group_IT_number 51
_symmetry_cell_setting 'orthorhombic'
loop_
_space_group_symop_operation_xyz
x,y,z
1/2-x,-y,z
1/2+x,-y,-z
-x,y,-z
-x,-y,-z
1/2+x,y,-z
1/2-x,y,z
x,-y,z
loop_
_atom_site_type_symbol
_atom_site_label
_atom_site_fract_x
_atom_site_fract_y
_atom_site_fract_z
Si Si1 0.547598 0.173484 0.815834
Si Si2 0.337848 0.168632 0.390811
Si Si3 0.588011 0.329616 0.495173
Si Si4 0.337490 0.670583 0.266083
Si Si5 0.837714 0.826883 0.380262
Si Si6 0.168037 0.330228 0.867578
Si Si7 0.981018 0.673368 0.069046
Si Si8 0.106095 0.828109 0.753687
O O1 0.621990 0.249412 0.790562
O O2 0.533543 0.238065 0.884040
O O3 0.479526 0.213096 0.769396
O O4 0.560370 0.000000 0.821160
O O5 0.250000 0.180343 0.400771
O O6 0.375978 0.238223 0.449908
O O7 0.364087 0.256298 0.330169
O O8 0.363869 0.000000 0.383265
O O9 0.500000 0.309237 0.500000
O O10 0.611560 0.500000 0.500701
O O11 0.618129 0.266203 0.430879
O O12 0.250000 0.693460 0.255513
O O13 0.359963 0.500000 0.268015
O O14 0.750000 0.789979 0.382670
O O15 0.872168 0.774045 0.314829
O O16 0.851641 0.000000 0.391746
O O17 0.250000 0.297249 0.896223
O O18 0.158194 0.500000 0.850482
O O19 0.105392 0.283986 0.917625
O O20 0.160826 0.245341 0.803055
O O21 0.996302 0.500000 0.077376
O O22 0.000000 0.726590 0.000000
O O23 0.120384 0.000000 0.759627
#
# Coordination Sequence:
#
# PCOD8211796 Si02
#       8
#     8   8   8   8   8   8   8   8
#     4  10  20  34  55  83 112 143 180 223 271 319
#     4  10  21  38  60  82 104 136 178 224 275 327
#     4  11  25  40  53  76 106 139 180 224 270 319
#     4  10  21  37  58  83 111 143 179 223 274 325
#     4  10  21  37  56  78 105 138 175 216 266 323
#     4   9  17  30  50  77 106 137 177 223 267 313
#     4   9  18  34  54  76 107 149 190 226 271 324
#     4   9  19  34  53  79 108 139 173 212 263 321
#
# _framework density 18.302897999999999
#
# number of rings (size 3 to 8) (size 9 to 14) (size 15 to 20)
#    0.000    2.250    0.000    2.250    1.750    6.250 
#    0.000    0.625    0.000    2.250    0.000    0.000 
#    0.000    0.000    0.000    0.000    0.000    0.000 
#
# Total GULP energy -793753.789183 kJ/mol
# GULP energy per Si atom -12402.402956 kJ/mol
# Density = 1.826124 g / cm^3
# Si number density = 18.302898 Si / 1000 Ang^3
#
#
#
# Elastic Constant Matrix: (Units=GPa)
#
#
# Indices 1 2 3 4 5 6 
#
# 1 68.1368 44.9903 71.5128 0.0000 0.0000 0.0000
# 2 44.9903 83.0021 58.8886 0.0000 0.0000 0.0000
# 3 71.5128 58.8886 140.3433 0.0000 0.0000 0.0000
# 4 0.0000 0.0000 0.0000 43.2348 0.0000 0.0000
# 5 0.0000 0.0000 0.0000 0.0000 26.2512 0.0000
# 6 0.0000 0.0000 0.0000 0.0000 0.0000 11.7072
#
#
#
# Elastic Compliance Matrix: (Units=1/GPa)
#
#
# Indices 1 2 3 4 5 6 
#
# 1 0.035912 -0.009231 -0.014426 0.000000 0.000000 0.000000
# 2 -0.009231 0.019528 -0.003490 0.000000 0.000000 0.000000
# 3 -0.014426 -0.003490 0.015941 0.000000 0.000000 0.000000
# 4 0.000000 0.000000 0.000000 0.023130 0.000000 0.000000
# 5 0.000000 0.000000 0.000000 0.000000 0.038094 0.000000
# 6 0.000000 0.000000 0.000000 0.000000 0.000000 0.085418
#
#
# Mechanical properties :
#
#
# Convention : Reuss Voigt Hill
#
# Bulk Modulus (GPa) = 58.52582 71.36283 64.94433
# Shear Modulus (GPa) = 17.98493 23.97800 20.98147
#
# Velocity S-wave (km/s) = 3.13809 3.62341 3.38945
# Velocity P-wave (km/s) = 6.72130 7.52197 7.13288
#
# Compressibility (1/GPa) = 0.01708647
#
# Stress axis : x y z
#
# Youngs Moduli (GPa) = 27.84579 51.20960 62.73229
#
# Poissons Ratio (x) = 0.47270 0.90497
# Poissons Ratio (y) = 0.25704 0.21895
# Poissons Ratio (z) = 0.40170 0.17874
#
# Static dielectric constant tensor:
#      x y z
#    x 3.468560 0.000000 0.000000 
#    y 0.000000 3.455250 0.000000 
#    z 0.000000 0.000000 3.370180 
# 
# 
# High freq. dielectric constant tensor:
#      x y z
#    x 1.713010 0.000000 0.000000 
#    y 0.000000 1.715430 0.000000 
#    z 0.000000 0.000000 1.705320 
# 
# From -- ./inp_files/33849.got.cif
#   From: 2010.03.12/outbox.cif.g09.slc.cpg/sg51_17_cif.got.tgz:33849.got - 2010.04.16 13:43:02.
