data_PCOD8211876
_publ_section_title
;
Structure prediction by ZEFSAII (Michael W. Deem and Ramdas Pophale) SiO2 
 PCOD8211876
Probable space group: P M M A
;
_chemical_formula_sum "Si O2"
_cell_formula_units_Z 40
_cell_length_a 15.515730
_cell_length_b 11.721434
_cell_length_c 10.206412
_cell_angle_alpha 90.000000
_cell_angle_beta 90.000000
_cell_angle_gamma 90.000000
_cell_volume 1856.205501
_symmetry_space_group_name_H-M "P M M A"
_symmetry_group_IT_number 51
_symmetry_cell_setting 'orthorhombic'
loop_
_space_group_symop_operation_xyz
x,y,z
1/2-x,-y,z
1/2+x,-y,-z
-x,y,-z
-x,-y,-z
1/2+x,y,-z
1/2-x,y,z
x,-y,z
loop_
_atom_site_type_symbol
_atom_site_label
_atom_site_fract_x
_atom_site_fract_y
_atom_site_fract_z
Si Si1 0.606401 0.869417 0.258954
Si Si2 0.593610 0.500000 0.934092
Si Si3 0.603216 0.256667 0.001745
Si Si4 0.897994 0.269822 0.508920
Si Si5 0.152228 0.500000 0.360197
Si Si6 0.901094 0.873731 0.750107
O O1 0.641095 0.807426 0.128270
O O2 0.639028 0.788025 0.376736
O O3 0.504021 0.874477 0.253362
O O4 0.642086 0.000000 0.270823
O O5 0.592065 0.500000 0.772165
O O6 0.500000 0.500000 0.000000
O O7 0.640298 0.385739 0.987635
O O8 0.500000 0.259782 0.000000
O O9 0.636631 0.187748 0.877040
O O10 0.863262 0.394829 0.541610
O O11 0.864707 0.188584 0.623603
O O12 0.000000 0.277016 0.500000
O O13 0.250000 0.500000 0.308798
O O14 0.863562 0.000000 0.750064
#
# Coordination Sequence:
#
# PCOD8211876 Si02
#       6
#     8   4   8   8   4   8
#     4   9  17  28  48  84 121 150 188 249 302 345
#     4  10  20  34  58  84 114 155 209 253 291 351
#     4   9  16  27  47  78 117 151 190 241 297 342
#     4  10  20  34  56  86 117 155 202 245 290 351
#     4  12  25  42  60  87 122 160 200 254 307 362
#     4   9  15  26  47  78 116 153 192 245 299 344
#
# _framework density 21.549339
#
# number of rings (size 3 to 8) (size 9 to 14) (size 15 to 20)
#    0.000    2.400    2.000    1.500    2.800    5.600 
#    0.000    0.000    0.000    4.800    0.000    0.000 
#    0.000    0.000    0.000    0.000    0.000    0.000 
#
# Total GULP energy -495682.973327 kJ/mol
# GULP energy per Si atom -12392.074333 kJ/mol
# Density = 2.150029 g / cm^3
# Si number density = 21.549339 Si / 1000 Ang^3
#
#
#
# Elastic Constant Matrix: (Units=GPa)
#
#
# Indices 1 2 3 4 5 6 
#
# 1 23.3142 12.1545 18.3261 0.0000 0.0000 0.0000
# 2 12.1545 241.5473 112.2071 0.0000 0.0000 0.0000
# 3 18.3261 112.2071 207.2482 0.0000 0.0000 0.0000
# 4 0.0000 0.0000 0.0000 46.1357 0.0000 0.0000
# 5 0.0000 0.0000 0.0000 0.0000 0.5132 0.0000
# 6 0.0000 0.0000 0.0000 0.0000 0.0000 -7.2840
#
#
#
# Elastic Compliance Matrix: (Units=1/GPa)
#
#
# Indices 1 2 3 4 5 6 
#
# 1 0.046155 -0.000570 -0.003773 0.000000 0.000000 0.000000
# 2 -0.000570 0.005538 -0.002948 0.000000 0.000000 0.000000
# 3 -0.003773 -0.002948 0.006755 0.000000 0.000000 0.000000
# 4 0.000000 0.000000 0.000000 0.021675 0.000000 0.000000
# 5 0.000000 0.000000 0.000000 0.000000 1.948609 0.000000
# 6 0.000000 0.000000 0.000000 0.000000 0.000000 -0.137286
#
#
# Mechanical properties :
#
#
# Convention : Reuss Voigt Hill
#
# Bulk Modulus (GPa) = 22.79642 84.16500 53.48071
# Shear Modulus (GPa) = 2.60329 29.83445 16.21887
#
# Velocity S-wave (km/s) = 1.10031 3.72489 2.74640
# Velocity P-wave (km/s) = 3.49513 7.59219 5.91005
#
# Compressibility (1/GPa) = 0.04386654
#
# Stress axis : x y z
#
# Youngs Moduli (GPa) = 21.66617 180.56703 148.04213
#
# Poissons Ratio (x) = 0.10291 0.55852
# Poissons Ratio (y) = 0.01235 0.43643
# Poissons Ratio (z) = 0.08174 0.53231
#
# Static dielectric constant tensor:
#      x y z
#    x 3.102240 0.000000 0.000000 
#    y 0.000000 4.333630 0.000000 
#    z 0.000000 0.000000 4.111370 
# 
# 
# High freq. dielectric constant tensor:
#      x y z
#    x 1.781330 0.000000 0.000000 
#    y 0.000000 1.869720 0.000000 
#    z 0.000000 0.000000 1.855010 
# 
# From -- ./inp_files/10679.got.cif
#   From: 2010.03.12/outbox.cif.g09.slc.cpg/sg51_6_cif.got.tgz:10679.got - 2010.04.16 13:43:02.
