data_PCOD8211147
_publ_section_title
;
Structure prediction by ZEFSAII (Michael W. Deem and Ramdas Pophale) SiO2 
 PCOD8211147
Probable space group: P M M A
;
_chemical_formula_sum "Si O2"
_cell_formula_units_Z 48
_cell_length_a 9.319883
_cell_length_b 13.028266
_cell_length_c 18.493532
_cell_angle_alpha 90.000000
_cell_angle_beta 90.000000
_cell_angle_gamma 90.000000
_cell_volume 2245.520067
_symmetry_space_group_name_H-M "P M M A"
_symmetry_group_IT_number 51
_symmetry_cell_setting 'orthorhombic'
loop_
_space_group_symop_operation_xyz
x,y,z
1/2-x,-y,z
1/2+x,-y,-z
-x,y,-z
-x,-y,-z
1/2+x,y,-z
1/2-x,y,z
x,-y,z
loop_
_atom_site_type_symbol
_atom_site_label
_atom_site_fract_x
_atom_site_fract_y
_atom_site_fract_z
Si Si1 0.089944 0.740507 0.805685
Si Si2 0.913680 0.122609 0.429896
Si Si3 0.417145 0.380741 0.073695
Si Si4 0.250000 0.621711 0.383567
Si Si5 0.250000 0.377998 0.543641
Si Si6 0.414385 0.878684 0.289451
Si Si7 0.047129 0.379255 0.666731
O O1 0.250000 0.771474 0.834243
O O2 0.997938 0.682879 0.865516
O O3 0.996525 0.839182 0.782071
O O4 0.118434 0.668117 0.736981
O O5 0.750000 0.166528 0.431531
O O6 0.000000 0.160827 0.500000
O O7 0.997332 0.163339 0.358893
O O8 0.907882 0.000000 0.428118
O O9 0.250000 0.347812 0.067203
O O10 0.428572 0.500000 0.094313
O O11 0.500000 0.356975 0.000000
O O12 0.250000 0.500000 0.394134
O O13 0.250000 0.671875 0.463812
O O14 0.382801 0.656309 0.334814
O O15 0.250000 0.500000 0.535867
O O16 0.387661 0.340806 0.590045
O O17 0.250000 0.839205 0.293736
O O18 0.416837 0.000000 0.286681
O O19 0.070533 0.500000 0.672198
#
# Coordination Sequence:
#
# PCOD8211147 Si02
#       7
#     8   8   8   4   4   8   8
#     4  12  24  38  60  88 123 159 199 246 301 365
#     4   9  16  29  52  79 107 143 190 247 312 375
#     4  10  22  41  67  99 134 169 202 238 287 350
#     4   9  18  30  50  72 102 152 202 245 290 344
#     4   9  16  32  50  70 104 150 198 241 290 348
#     4  10  22  40  61  84 113 152 202 260 318 373
#     4  10  20  33  52  80 112 149 194 242 294 348
#
# _framework density 21.375895
#
# number of rings (size 3 to 8) (size 9 to 14) (size 15 to 20)
#    0.000    2.000    0.833    3.000    2.333    6.667 
#    0.000    1.667    0.000    0.500    0.000    0.000 
#    0.000    0.000    0.000    0.000    0.000    0.000 
#
# Total GULP energy -595171.979750 kJ/mol
# GULP energy per Si atom -12399.416245 kJ/mol
# Density = 2.132724 g / cm^3
# Si number density = 21.375895 Si / 1000 Ang^3
#
#
#
# Elastic Constant Matrix: (Units=GPa)
#
#
# Indices 1 2 3 4 5 6 
#
# 1 207.6297 38.7650 57.7724 0.0000 0.0000 0.0000
# 2 38.7650 28.0231 24.3585 0.0000 0.0000 0.0000
# 3 57.7724 24.3585 103.5830 0.0000 0.0000 0.0000
# 4 0.0000 0.0000 0.0000 29.8241 0.0000 0.0000
# 5 0.0000 0.0000 0.0000 0.0000 6.7162 0.0000
# 6 0.0000 0.0000 0.0000 0.0000 0.0000 30.2468
#
#
#
# Elastic Compliance Matrix: (Units=1/GPa)
#
#
# Indices 1 2 3 4 5 6 
#
# 1 0.006804 -0.007684 -0.001988 0.000000 0.000000 0.000000
# 2 -0.007684 0.053532 -0.008303 0.000000 0.000000 0.000000
# 3 -0.001988 -0.008303 0.012715 0.000000 0.000000 0.000000
# 4 0.000000 0.000000 0.000000 0.033530 0.000000 0.000000
# 5 0.000000 0.000000 0.000000 0.000000 0.148893 0.000000
# 6 0.000000 0.000000 0.000000 0.000000 0.000000 0.033061
#
#
# Mechanical properties :
#
#
# Convention : Reuss Voigt Hill
#
# Bulk Modulus (GPa) = 26.95316 64.55862 45.75589
# Shear Modulus (GPa) = 14.84332 27.91340 21.37836
#
# Velocity S-wave (km/s) = 2.63800 3.61755 3.16589
# Velocity P-wave (km/s) = 4.68137 6.90768 5.90048
#
# Compressibility (1/GPa) = 0.03710140
#
# Stress axis : x y z
#
# Youngs Moduli (GPa) = 146.97081 18.68052 78.64576
#
# Poissons Ratio (x) = 0.14355 0.15634
# Poissons Ratio (y) = 1.12937 0.65297
# Poissons Ratio (z) = 0.29216 0.15510
#
# Static dielectric constant tensor:
#      x y z
#    x 5.887360 0.000000 0.000000 
#    y 0.000000 3.750370 0.000000 
#    z 0.000000 0.000000 3.663130 
# 
# 
# High freq. dielectric constant tensor:
#      x y z
#    x 1.866470 0.000000 0.000000 
#    y 0.000000 1.845830 0.000000 
#    z 0.000000 0.000000 1.807800 
# 
# From -- ./inp_files/27666.got.cif
#   From: 2010.03.12/outbox.cif.g09.slc.cpg/sg51_14_cif.got.tgz:27666.got - 2010.04.16 13:43:02.
