data_PCOD8211921
_publ_section_title
;
Structure prediction by ZEFSAII (Michael W. Deem and Ramdas Pophale) SiO2 
 PCOD8211921
Probable space group: P M M A
;
_chemical_formula_sum "Si O2"
_cell_formula_units_Z 48
_cell_length_a 13.498364
_cell_length_b 13.621367
_cell_length_c 13.624961
_cell_angle_alpha 90.000000
_cell_angle_beta 90.000000
_cell_angle_gamma 90.000000
_cell_volume 2505.169395
_symmetry_space_group_name_H-M "P M M A"
_symmetry_group_IT_number 51
_symmetry_cell_setting 'orthorhombic'
loop_
_space_group_symop_operation_xyz
x,y,z
1/2-x,-y,z
1/2+x,-y,-z
-x,y,-z
-x,-y,-z
1/2+x,y,-z
1/2-x,y,z
x,-y,z
loop_
_atom_site_type_symbol
_atom_site_label
_atom_site_fract_x
_atom_site_fract_y
_atom_site_fract_z
Si Si1 0.951001 0.696820 0.142667
Si Si2 0.633739 0.111625 0.208266
Si Si3 0.137160 0.614361 0.048305
Si Si4 0.635331 0.699282 0.531297
Si Si5 0.367088 0.106581 0.570828
Si Si6 0.034024 0.613944 0.649516
O O1 0.923174 0.656344 0.249703
O O2 0.926592 0.813092 0.138991
O O3 0.883296 0.639236 0.065059
O O4 0.066735 0.679363 0.118239
O O5 0.750000 0.135368 0.200137
O O6 0.593573 0.127109 0.319336
O O7 0.612473 0.000000 0.173793
O O8 0.250000 0.640026 0.074928
O O9 0.114296 0.500000 0.066296
O O10 0.750000 0.692298 0.560107
O O11 0.599753 0.810119 0.505637
O O12 0.614200 0.631803 0.436218
O O13 0.570972 0.664653 0.623479
O O14 0.250000 0.106111 0.579600
O O15 0.404710 0.000000 0.532864
O O16 0.013444 0.500000 0.661703
#
# Coordination Sequence:
#
# PCOD8211921 Si02
#       6
#     8   8   8   8   8   8
#     4  11  20  37  60  81 110 142 183 232 281 332
#     4   9  17  31  55  87 117 145 182 227 275 328
#     4  10  22  39  59  84 111 142 184 233 285 338
#     4  10  20  35  51  73 109 148 182 219 265 317
#     4   8  14  28  51  77 105 139 181 225 265 308
#     4  11  23  35  50  77 109 142 184 226 269 321
#
# _framework density 19.160381000000001
#
# number of rings (size 3 to 8) (size 9 to 14) (size 15 to 20)
#    0.000    2.167    1.667    4.500    0.000    2.667 
#    0.000    4.167    0.000    1.500    0.000    0.000 
#    0.000    0.000    0.000    0.000    0.000    0.000 
#
# Total GULP energy -595112.020502 kJ/mol
# GULP energy per Si atom -12398.167094 kJ/mol
# Density = 1.911677 g / cm^3
# Si number density = 19.160381 Si / 1000 Ang^3
#
#
#
# Elastic Constant Matrix: (Units=GPa)
#
#
# Indices 1 2 3 4 5 6 
#
# 1 73.0960 46.4589 0.6518 0.0000 0.0000 0.0000
# 2 46.4589 145.4369 26.4501 0.0000 0.0000 0.0000
# 3 0.6518 26.4501 50.7447 0.0000 0.0000 0.0000
# 4 0.0000 0.0000 0.0000 19.2699 0.0000 0.0000
# 5 0.0000 0.0000 0.0000 0.0000 18.7064 0.0000
# 6 0.0000 0.0000 0.0000 0.0000 0.0000 25.6973
#
#
#
# Elastic Compliance Matrix: (Units=1/GPa)
#
#
# Indices 1 2 3 4 5 6 
#
# 1 0.017565 -0.006153 0.002982 0.000000 0.000000 0.000000
# 2 -0.006153 0.009752 -0.005004 0.000000 0.000000 0.000000
# 3 0.002982 -0.005004 0.022276 0.000000 0.000000 0.000000
# 4 0.000000 0.000000 0.000000 0.051894 0.000000 0.000000
# 5 0.000000 0.000000 0.000000 0.000000 0.053458 0.000000
# 6 0.000000 0.000000 0.000000 0.000000 0.000000 0.038915
#
#
# Mechanical properties :
#
#
# Convention : Reuss Voigt Hill
#
# Bulk Modulus (GPa) = 30.08233 46.26656 38.17445
# Shear Modulus (GPa) = 22.59469 25.78251 24.18860
#
# Velocity S-wave (km/s) = 3.43773 3.67224 3.55692
# Velocity P-wave (km/s) = 5.61175 6.49461 6.06925
#
# Compressibility (1/GPa) = 0.03324211
#
# Stress axis : x y z
#
# Youngs Moduli (GPa) = 56.93130 102.54830 44.89058
#
# Poissons Ratio (x) = 0.63101 -0.13385
# Poissons Ratio (y) = 0.35032 0.22462
# Poissons Ratio (z) = -0.16975 0.51313
#
# Static dielectric constant tensor:
#      x y z
#    x 3.360290 0.000000 0.000000 
#    y 0.000000 3.888830 0.000000 
#    z 0.000000 0.000000 3.291460 
# 
# 
# High freq. dielectric constant tensor:
#      x y z
#    x 1.735640 0.000000 0.000000 
#    y 0.000000 1.757010 0.000000 
#    z 0.000000 0.000000 1.721010 
# 
# From -- ./inp_files/24037.got.cif
#   From: 2010.03.12/outbox.cif.g09.slc.cpg/sg51_13_cif.got.tgz:24037.got - 2010.04.16 13:43:02.
