data_PCOD8211107
_publ_section_title
;
Structure prediction by ZEFSAII (Michael W. Deem and Ramdas Pophale) SiO2 
 PCOD8211107
Probable space group: P M M A
;
_chemical_formula_sum "Si O2"
_cell_formula_units_Z 40
_cell_length_a 8.823507
_cell_length_b 25.810562
_cell_length_c 9.211375
_cell_angle_alpha 90.000000
_cell_angle_beta 90.000000
_cell_angle_gamma 90.000000
_cell_volume 2097.795544
_symmetry_space_group_name_H-M "P M M A"
_symmetry_group_IT_number 51
_symmetry_cell_setting 'orthorhombic'
loop_
_space_group_symop_operation_xyz
x,y,z
1/2-x,-y,z
1/2+x,-y,-z
-x,y,-z
-x,-y,-z
1/2+x,y,-z
1/2-x,y,z
x,-y,z
loop_
_atom_site_type_symbol
_atom_site_label
_atom_site_fract_x
_atom_site_fract_y
_atom_site_fract_z
Si Si1 0.927745 0.342657 0.342547
Si Si2 0.927644 0.443878 0.657815
Si Si3 0.927627 0.941959 0.850615
Si Si4 0.571219 0.242672 0.156866
Si Si5 0.571035 0.152333 0.656929
O O1 0.750000 0.349106 0.361682
O O2 0.970886 0.294433 0.243274
O O3 0.000000 0.333667 0.500000
O O4 0.994433 0.394640 0.263327
O O5 0.750000 0.433457 0.644498
O O6 0.958220 0.500000 0.735252
O O7 0.000000 0.445967 0.500000
O O8 0.750000 0.941298 0.875964
O O9 0.973336 0.904176 0.719247
O O10 0.985513 0.000000 0.812422
O O11 0.000000 0.921737 0.000000
O O12 0.750000 0.233869 0.145522
O O13 0.496968 0.194468 0.236415
O O14 0.500000 0.248145 0.000000
O O15 0.500000 0.158886 0.500000
O O16 0.750000 0.160140 0.646020
#
# Coordination Sequence:
#
# PCOD8211107 Si02
#       5
#     8   8   8   8   8
#     4  10  20  33  52  78 106 138 175 217 265 315
#     4   9  16  26  44  72 104 137 172 212 259 310
#     4   9  19  36  57  82 112 146 184 224 267 318
#     4  11  24  40  58  80 107 141 181 224 273 327
#     4  11  23  38  58  83 112 145 182 226 274 323
#
# _framework density 19.067634999999999
#
# number of rings (size 3 to 8) (size 9 to 14) (size 15 to 20)
#    0.000    2.000    0.000    4.800    0.000    9.600 
#    0.000    0.000    0.000    0.600    0.000    0.000 
#    0.000    0.000    0.000    0.000    0.000    0.000 
#
# Total GULP energy -495873.314014 kJ/mol
# GULP energy per Si atom -12396.832850 kJ/mol
# Density = 1.902424 g / cm^3
# Si number density = 19.067635 Si / 1000 Ang^3
#
#
#
# Elastic Constant Matrix: (Units=GPa)
#
#
# Indices 1 2 3 4 5 6 
#
# 1 91.1329 69.1204 47.5409 0.0000 0.0000 0.0000
# 2 69.1204 152.1346 64.2297 0.0000 0.0000 0.0000
# 3 47.5409 64.2297 101.2530 0.0000 0.0000 0.0000
# 4 0.0000 0.0000 0.0000 -53.0512 0.0000 0.0000
# 5 0.0000 0.0000 0.0000 0.0000 30.5027 0.0000
# 6 0.0000 0.0000 0.0000 0.0000 0.0000 11.4288
#
#
#
# Elastic Compliance Matrix: (Units=1/GPa)
#
#
# Indices 1 2 3 4 5 6 
#
# 1 0.018122 -0.006339 -0.004488 0.000000 0.000000 0.000000
# 2 -0.006339 0.011195 -0.004125 0.000000 0.000000 0.000000
# 3 -0.004488 -0.004125 0.014600 0.000000 0.000000 0.000000
# 4 0.000000 0.000000 0.000000 -0.018850 0.000000 0.000000
# 5 0.000000 0.000000 0.000000 0.000000 0.032784 0.000000
# 6 0.000000 0.000000 0.000000 0.000000 0.000000 0.087498
#
#
# Mechanical properties :
#
#
# Convention : Reuss Voigt Hill
#
# Bulk Modulus (GPa) = 71.35999 78.47803 74.91901
# Shear Modulus (GPa) = 27.78970 8.68469 18.23720
#
# Velocity S-wave (km/s) = 3.82177 2.13648 3.09600
# Velocity P-wave (km/s) = 7.54854 6.87991 7.22197
#
# Compressibility (1/GPa) = 0.01401345
#
# Stress axis : x y z
#
# Youngs Moduli (GPa) = 55.18249 89.32863 68.49289
#
# Poissons Ratio (x) = 0.56623 0.30737
# Poissons Ratio (y) = 0.34979 0.28254
# Poissons Ratio (z) = 0.24764 0.36849
#
# Static dielectric constant tensor:
#      x y z
#    x 3.618650 0.000000 0.000000 
#    y 0.000000 4.364550 0.000000 
#    z 0.000000 0.000000 3.257110 
# 
# 
# High freq. dielectric constant tensor:
#      x y z
#    x 1.754990 0.000000 0.000000 
#    y 0.000000 1.769190 0.000000 
#    z 0.000000 0.000000 1.708820 
# 
# From -- ./inp_files/5228.got.cif
#   From: 2010.03.12/outbox.cif.g09.slc.cpg/sg51_3_cif.got.tgz:5228.got - 2010.04.16 13:43:02.
