data_PCOD8211731
_publ_section_title
;
Structure prediction by ZEFSAII (Michael W. Deem and Ramdas Pophale) SiO2 
 PCOD8211731
Probable space group: P M M A
;
_chemical_formula_sum "Si O2"
_cell_formula_units_Z 64
_cell_length_a 22.151621
_cell_length_b 8.911773
_cell_length_c 17.412527
_cell_angle_alpha 90.000000
_cell_angle_beta 90.000000
_cell_angle_gamma 90.000000
_cell_volume 3437.410750
_symmetry_space_group_name_H-M "P M M A"
_symmetry_group_IT_number 51
_symmetry_cell_setting 'orthorhombic'
loop_
_space_group_symop_operation_xyz
x,y,z
1/2-x,-y,z
1/2+x,-y,-z
-x,y,-z
-x,-y,-z
1/2+x,y,-z
1/2-x,y,z
x,-y,z
loop_
_atom_site_type_symbol
_atom_site_label
_atom_site_fract_x
_atom_site_fract_y
_atom_site_fract_z
Si Si1 0.820041 0.828914 0.572671
Si Si2 0.913924 0.822690 0.142848
Si Si3 0.591611 0.328451 0.686553
Si Si4 0.145561 0.823866 0.597488
Si Si5 0.928896 0.668604 0.988981
Si Si6 0.948363 0.823458 0.836568
Si Si7 0.976618 0.328543 0.417654
Si Si8 0.182259 0.327087 0.746945
O O1 0.750000 0.815405 0.591828
O O2 0.854446 0.725738 0.632793
O O3 0.832389 0.771366 0.486384
O O4 0.842869 0.000000 0.580654
O O5 0.865513 0.765418 0.203714
O O6 0.981351 0.772721 0.168583
O O7 0.909150 0.000000 0.136741
O O8 0.897590 0.753699 0.059930
O O9 0.603752 0.500000 0.709284
O O10 0.588704 0.229821 0.762858
O O11 0.528854 0.310119 0.643485
O O12 0.075726 0.782447 0.609044
O O13 0.184095 0.735507 0.660444
O O14 0.155473 0.000000 0.609638
O O15 0.903141 0.500000 0.985618
O O16 0.914388 0.752371 0.909675
O O17 0.000000 0.669283 0.000000
O O18 0.943695 0.000000 0.844657
O O19 0.953010 0.500000 0.422317
O O20 0.000000 0.274094 0.500000
O O21 0.250000 0.309920 0.780885
O O22 0.161895 0.500000 0.746267
#
# Coordination Sequence:
#
# PCOD8211731 Si02
#       8
#     8   8   8   8   8   8   8   8
#     4  10  22  39  56  74 100 137 180 226 274 323
#     4  10  20  35  57  84 113 146 181 221 271 324
#     4  11  22  35  54  79 108 142 181 224 271 322
#     4  11  22  36  57  81 107 140 182 230 277 328
#     4   9  17  31  54  83 114 145 175 210 257 315
#     4  10  20  34  54  83 116 145 179 222 272 327
#     4  10  20  35  53  77 110 143 177 221 274 329
#     4  11  24  39  55  77 108 148 191 233 276 326
#
# _framework density 18.618666000000001
#
# number of rings (size 3 to 8) (size 9 to 14) (size 15 to 20)
#    0.000    1.750    1.250    3.375    0.000    8.500 
#    0.000    0.000    0.000    0.750    0.000    0.000 
#    0.000    0.000    0.000    0.000    0.000    0.000 
#
# Total GULP energy -793837.761040 kJ/mol
# GULP energy per Si atom -12403.715016 kJ/mol
# Density = 1.857629 g / cm^3
# Si number density = 18.618666 Si / 1000 Ang^3
#
#
#
# Elastic Constant Matrix: (Units=GPa)
#
#
# Indices 1 2 3 4 5 6 
#
# 1 60.0839 29.0690 26.5933 0.0000 0.0000 0.0000
# 2 29.0690 89.1517 47.6902 0.0000 0.0000 0.0000
# 3 26.5933 47.6902 123.9742 0.0000 0.0000 0.0000
# 4 0.0000 0.0000 0.0000 37.2135 0.0000 0.0000
# 5 0.0000 0.0000 0.0000 0.0000 13.8129 0.0000
# 6 0.0000 0.0000 0.0000 0.0000 0.0000 56.1120
#
#
#
# Elastic Compliance Matrix: (Units=1/GPa)
#
#
# Indices 1 2 3 4 5 6 
#
# 1 0.020256 -0.005390 -0.002272 0.000000 0.000000 0.000000
# 2 -0.005390 0.015557 -0.004828 0.000000 0.000000 0.000000
# 3 -0.002272 -0.004828 0.010411 0.000000 0.000000 0.000000
# 4 0.000000 0.000000 0.000000 0.026872 0.000000 0.000000
# 5 0.000000 0.000000 0.000000 0.000000 0.072396 0.000000
# 6 0.000000 0.000000 0.000000 0.000000 0.000000 0.017821
#
#
# Mechanical properties :
#
#
# Convention : Reuss Voigt Hill
#
# Bulk Modulus (GPa) = 47.07046 53.32388 50.19717
# Shear Modulus (GPa) = 25.59183 32.75150 29.17167
#
# Velocity S-wave (km/s) = 3.71148 4.19867 3.96257
# Velocity P-wave (km/s) = 6.61082 7.22547 6.92497
#
# Compressibility (1/GPa) = 0.02124474
#
# Stress axis : x y z
#
# Youngs Moduli (GPa) = 49.36702 64.27973 96.05314
#
# Poissons Ratio (x) = 0.34644 0.21822
# Poissons Ratio (y) = 0.26607 0.46378
# Poissons Ratio (z) = 0.11216 0.31037
#
# Static dielectric constant tensor:
#      x y z
#    x 3.180330 0.000000 0.000000 
#    y 0.000000 3.521380 0.000000 
#    z 0.000000 0.000000 3.535040 
# 
# 
# High freq. dielectric constant tensor:
#      x y z
#    x 1.695780 0.000000 0.000000 
#    y 0.000000 1.733610 0.000000 
#    z 0.000000 0.000000 1.728280 
# 
# From -- ./inp_files/30584.got.cif
#   From: 2010.03.12/outbox.cif.g09.slc.cpg/sg51_16_cif.got.tgz:30584.got - 2010.04.16 13:43:02.
