data_PCOD8211161
_publ_section_title
;
Structure prediction by ZEFSAII (Michael W. Deem and Ramdas Pophale) SiO2 
 PCOD8211161
Probable space group: P M M A
;
_chemical_formula_sum "Si O2"
_cell_formula_units_Z 64
_cell_length_a 19.403128
_cell_length_b 8.641971
_cell_length_c 19.934791
_cell_angle_alpha 90.000000
_cell_angle_beta 90.000000
_cell_angle_gamma 90.000000
_cell_volume 3342.691062
_symmetry_space_group_name_H-M "P M M A"
_symmetry_group_IT_number 51
_symmetry_cell_setting 'orthorhombic'
loop_
_space_group_symop_operation_xyz
x,y,z
1/2-x,-y,z
1/2+x,-y,-z
-x,y,-z
-x,-y,-z
1/2+x,y,-z
1/2-x,y,z
x,-y,z
loop_
_atom_site_type_symbol
_atom_site_label
_atom_site_fract_x
_atom_site_fract_y
_atom_site_fract_z
Si Si1 0.043263 0.681384 0.408183
Si Si2 0.327890 0.321279 0.648935
Si Si3 0.170087 0.681610 0.169954
Si Si4 0.330018 0.821446 0.886551
Si Si5 0.560985 0.819664 0.733665
Si Si6 0.094483 0.180424 0.535483
Si Si7 0.920063 0.681557 0.227419
Si Si8 0.331425 0.670421 0.021496
O O1 0.028148 0.500000 0.411443
O O2 0.070343 0.725875 0.335193
O O3 0.099060 0.728895 0.464712
O O4 0.973138 0.772430 0.423036
O O5 0.250000 0.293611 0.672904
O O6 0.342480 0.500000 0.633065
O O7 0.340328 0.224509 0.581135
O O8 0.377071 0.261362 0.708124
O O9 0.250000 0.724312 0.180098
O O10 0.157662 0.500000 0.182673
O O11 0.127097 0.783501 0.221521
O O12 0.143723 0.726713 0.094911
O O13 0.250000 0.774847 0.876522
O O14 0.376719 0.718175 0.838704
O O15 0.342299 0.000000 0.870101
O O16 0.353740 0.788703 0.963125
O O17 0.492456 0.769727 0.773544
O O18 0.557712 0.000000 0.717264
O O19 0.093692 0.000000 0.519767
O O20 0.934479 0.500000 0.230665
O O21 0.250000 0.656784 0.025745
O O22 0.362008 0.500000 0.005191
#
# Coordination Sequence:
#
# PCOD8211161 Si02
#       8
#     8   8   8   8   8   8   8   8
#     4  11  21  37  60  82 109 147 189 230 273 330
#     4  10  21  37  57  82 114 154 197 238 282 337
#     4   9  19  38  63  88 113 145 186 231 282 345
#     4  10  20  33  52  81 117 153 190 236 288 336
#     4  12  24  38  58  87 119 149 184 234 289 342
#     4  11  21  35  57  85 113 143 184 234 284 330
#     4  11  22  37  57  80 111 154 199 238 278 335
#     4   8  15  31  56  82 108 143 189 233 275 334
#
# _framework density 19.146249999999998
#
# number of rings (size 3 to 8) (size 9 to 14) (size 15 to 20)
#    0.000    1.750    1.250    6.000    0.000    2.750 
#    0.000    2.500    0.000    7.500    0.000    0.000 
#    0.000    0.000    0.000    0.000    0.000    0.000 
#
# Total GULP energy -793703.693964 kJ/mol
# GULP energy per Si atom -12401.620218 kJ/mol
# Density = 1.910267 g / cm^3
# Si number density = 19.146250 Si / 1000 Ang^3
#
#
#
# Elastic Constant Matrix: (Units=GPa)
#
#
# Indices 1 2 3 4 5 6 
#
# 1 69.0879 23.0523 35.7960 0.0000 0.0000 0.0000
# 2 23.0523 71.5603 23.3025 0.0000 0.0000 0.0000
# 3 35.7960 23.3025 115.9873 0.0000 0.0000 0.0000
# 4 0.0000 0.0000 0.0000 28.9799 0.0000 0.0000
# 5 0.0000 0.0000 0.0000 0.0000 28.7367 0.0000
# 6 0.0000 0.0000 0.0000 0.0000 0.0000 24.8425
#
#
#
# Elastic Compliance Matrix: (Units=1/GPa)
#
#
# Indices 1 2 3 4 5 6 
#
# 1 0.018423 -0.004369 -0.004808 0.000000 0.000000 0.000000
# 2 -0.004369 0.015989 -0.001864 0.000000 0.000000 0.000000
# 3 -0.004808 -0.001864 0.010480 0.000000 0.000000 0.000000
# 4 0.000000 0.000000 0.000000 0.034507 0.000000 0.000000
# 5 0.000000 0.000000 0.000000 0.000000 0.034799 0.000000
# 6 0.000000 0.000000 0.000000 0.000000 0.000000 0.040254
#
#
# Mechanical properties :
#
#
# Convention : Reuss Voigt Hill
#
# Bulk Modulus (GPa) = 43.84066 46.77080 45.30573
# Shear Modulus (GPa) = 27.15382 28.14413 27.64897
#
# Velocity S-wave (km/s) = 3.77003 3.83816 3.80425
# Velocity P-wave (km/s) = 6.47289 6.64253 6.55826
#
# Compressibility (1/GPa) = 0.02280988
#
# Stress axis : x y z
#
# Youngs Moduli (GPa) = 54.27905 62.54447 95.42053
#
# Poissons Ratio (x) = 0.27327 0.45878
# Poissons Ratio (y) = 0.23716 0.17784
# Poissons Ratio (z) = 0.26097 0.11657
#
# Static dielectric constant tensor:
#      x y z
#    x 3.261470 0.000000 0.000000 
#    y 0.000000 3.477140 0.000000 
#    z 0.000000 0.000000 3.754920 
# 
# 
# High freq. dielectric constant tensor:
#      x y z
#    x 1.715300 0.000000 0.000000 
#    y 0.000000 1.746980 0.000000 
#    z 0.000000 0.000000 1.755690 
# 
# From -- ./inp_files/33942.got.cif
#   From: 2010.03.12/outbox.cif.g09.slc.cpg/sg51_17_cif.got.tgz:33942.got - 2010.04.16 13:43:02.
