data_PCOD8211257
_publ_section_title
;
Structure prediction by ZEFSAII (Michael W. Deem and Ramdas Pophale) SiO2 
 PCOD8211257
Probable space group: P M M A
;
_chemical_formula_sum "Si O2"
_cell_formula_units_Z 64
_cell_length_a 9.234865
_cell_length_b 18.987864
_cell_length_c 20.638299
_cell_angle_alpha 90.000000
_cell_angle_beta 90.000000
_cell_angle_gamma 90.000000
_cell_volume 3618.933173
_symmetry_space_group_name_H-M "P M M A"
_symmetry_group_IT_number 51
_symmetry_cell_setting 'orthorhombic'
loop_
_space_group_symop_operation_xyz
x,y,z
1/2-x,-y,z
1/2+x,-y,-z
-x,y,-z
-x,-y,-z
1/2+x,y,-z
1/2-x,y,z
x,-y,z
loop_
_atom_site_type_symbol
_atom_site_label
_atom_site_fract_x
_atom_site_fract_y
_atom_site_fract_z
Si Si1 0.589598 0.083605 0.817276
Si Si2 0.413647 0.583805 0.186882
Si Si3 0.918251 0.418128 0.313290
Si Si4 0.417802 0.917696 0.327898
Si Si5 0.087636 0.915947 0.938153
Si Si6 0.081893 0.330345 0.563584
Si Si7 0.585804 0.583984 0.062623
Si Si8 0.080576 0.167409 0.564576
O O1 0.750000 0.113771 0.831055
O O2 0.538812 0.105202 0.745202
O O3 0.482107 0.114053 0.871827
O O4 0.595478 0.000000 0.821578
O O5 0.250000 0.613313 0.184340
O O6 0.412955 0.500000 0.184516
O O7 0.490518 0.609939 0.252353
O O8 0.503699 0.613447 0.125935
O O9 0.750000 0.403789 0.298530
O O10 0.947454 0.500000 0.326740
O O11 0.973213 0.375263 0.375492
O O12 0.250000 0.899453 0.341427
O O13 0.522051 0.875350 0.374762
O O14 0.445823 0.000000 0.338651
O O15 0.250000 0.886648 0.942704
O O16 0.086194 0.000000 0.937734
O O17 0.000000 0.887152 0.000000
O O18 0.250000 0.343286 0.551088
O O19 0.046700 0.249054 0.577471
O O20 0.000000 0.357623 0.500000
O O21 0.750000 0.613035 0.061547
O O22 0.587591 0.500000 0.063147
O O23 0.500000 0.612198 0.000000
O O24 0.250000 0.152737 0.555981
O O25 0.000000 0.141010 0.500000
#
# Coordination Sequence:
#
# PCOD8211257 Si02
#       8
#     8   8   8   8   8   8   8   8
#     4   8  14  25  39  55  79 110 141 176 219 262
#     4   9  16  25  37  56  83 113 146 184 224 266
#     4   9  17  30  47  66  90 120 151 184 225 271
#     4   9  18  32  49  69  93 120 150 186 228 272
#     4   9  15  21  31  49  75 109 147 182 215 255
#     4   9  19  34  50  69  92 118 149 185 225 268
#     4   9  15  22  33  50  75 110 149 185 222 265
#     4  10  20  34  51  69  91 119 150 185 224 268
#
# _framework density 17.68477
#
# number of rings (size 3 to 8) (size 9 to 14) (size 15 to 20)
#    0.000    3.000    0.000    2.250    0.000    6.750 
#    0.000    1.250    0.000    0.000    0.000    0.000 
#    0.000    1.000    0.000    5.250    0.000    8.750 
#
# Total GULP energy -793498.508365 kJ/mol
# GULP energy per Si atom -12398.414193 kJ/mol
# Density = 1.764452 g / cm^3
# Si number density = 17.684770 Si / 1000 Ang^3
#
#
#
# Elastic Constant Matrix: (Units=GPa)
#
#
# Indices 1 2 3 4 5 6 
#
# 1 133.9325 26.8484 100.8842 0.0000 0.0000 0.0000
# 2 26.8484 22.6559 37.6312 0.0000 0.0000 0.0000
# 3 100.8842 37.6312 186.0040 0.0000 0.0000 0.0000
# 4 0.0000 0.0000 0.0000 -1.4308 0.0000 0.0000
# 5 0.0000 0.0000 0.0000 0.0000 41.4952 0.0000
# 6 0.0000 0.0000 0.0000 0.0000 0.0000 12.8289
#
#
#
# Elastic Compliance Matrix: (Units=1/GPa)
#
#
# Indices 1 2 3 4 5 6 
#
# 1 0.013079 -0.005598 -0.005961 0.000000 0.000000 0.000000
# 2 -0.005598 0.068874 -0.010898 0.000000 0.000000 0.000000
# 3 -0.005961 -0.010898 0.010814 0.000000 0.000000 0.000000
# 4 0.000000 0.000000 0.000000 -0.698908 0.000000 0.000000
# 5 0.000000 0.000000 0.000000 0.000000 0.024099 0.000000
# 6 0.000000 0.000000 0.000000 0.000000 0.000000 0.077949
#
#
# Mechanical properties :
#
#
# Convention : Reuss Voigt Hill
#
# Bulk Modulus (GPa) = 20.89736 74.81334 47.85535
# Shear Modulus (GPa) = -11.28087 22.39390 5.55652
#
# Velocity S-wave (km/s) = -2.52838 3.56235 1.77449
# Velocity P-wave (km/s) = 1.82171 7.70169 5.59619
#
# Compressibility (1/GPa) = 0.04785292
#
# Stress axis : x y z
#
# Youngs Moduli (GPa) = 76.45982 14.51937 92.47062
#
# Poissons Ratio (x) = 0.08127 0.55123
# Poissons Ratio (y) = 0.42799 1.00775
# Poissons Ratio (z) = 0.45579 0.15823
#
# Static dielectric constant tensor:
#      x y z
#    x 3.433720 0.000000 0.000000 
#    y 0.000000 2.695230 0.000000 
#    z 0.000000 0.000000 3.515570 
# 
# 
# High freq. dielectric constant tensor:
#      x y z
#    x 1.692190 0.000000 0.000000 
#    y 0.000000 1.615080 0.000000 
#    z 0.000000 0.000000 1.700700 
# 
# From -- ./inp_files/28622.got.cif
#   From: 2010.03.12/outbox.cif.g09.slc.cpg/sg51_15_cif.got.tgz:28622.got - 2010.04.16 13:43:02.
