data_PCOD8211448
_publ_section_title
;
Structure prediction by ZEFSAII (Michael W. Deem and Ramdas Pophale) SiO2 
 PCOD8211448
Probable space group: P M M A
;
_chemical_formula_sum "Si O2"
_cell_formula_units_Z 48
_cell_length_a 8.140275
_cell_length_b 29.738964
_cell_length_c 9.140226
_cell_angle_alpha 90.000000
_cell_angle_beta 90.000000
_cell_angle_gamma 90.000000
_cell_volume 2212.696486
_symmetry_space_group_name_H-M "P M M A"
_symmetry_group_IT_number 51
_symmetry_cell_setting 'orthorhombic'
loop_
_space_group_symop_operation_xyz
x,y,z
1/2-x,-y,z
1/2+x,-y,-z
-x,y,-z
-x,-y,-z
1/2+x,y,-z
1/2-x,y,z
x,-y,z
loop_
_atom_site_type_symbol
_atom_site_label
_atom_site_fract_x
_atom_site_fract_y
_atom_site_fract_z
Si Si1 0.055500 0.549797 0.339684
Si Si2 0.444334 0.366342 0.163884
Si Si3 0.557277 0.194158 0.834870
Si Si4 0.250000 0.052822 0.036816
Si Si5 0.444651 0.280037 0.334571
Si Si6 0.067742 0.098239 0.276261
Si Si7 0.750000 0.052503 0.304788
O O1 0.250000 0.548836 0.334117
O O2 0.985201 0.500000 0.300907
O O3 0.984447 0.586479 0.226083
O O4 0.000000 0.564798 0.500000
O O5 0.250000 0.366887 0.173252
O O6 0.515309 0.325164 0.259444
O O7 0.500000 0.359413 0.000000
O O8 0.750000 0.198276 0.837311
O O9 0.480369 0.237027 0.750974
O O10 0.507255 0.149228 0.747709
O O11 0.500000 0.192539 0.000000
O O12 0.088962 0.073558 0.118126
O O13 0.250000 0.000000 0.063344
O O14 0.250000 0.064937 0.866906
O O15 0.500000 0.278231 0.500000
O O16 0.250000 0.279466 0.325699
O O17 0.250000 0.095867 0.356303
O O18 0.920448 0.073988 0.367780
O O19 0.750000 0.000000 0.340965
#
# Coordination Sequence:
#
# PCOD8211448 Si02
#       7
#     8   8   8   4   8   8   4
#     4   9  18  33  53  79 112 151 194 238 282 330
#     4  10  21  36  55  81 113 146 185 232 282 337
#     4  10  20  34  53  76 105 137 174 219 270 328
#     4   9  16  26  38  58  93 133 167 205 254 309
#     4  10  22  39  57  80 107 138 179 226 277 332
#     4   9  20  29  42  66 100 137 176 220 268 325
#     4  11  18  26  42  64  97 141 181 215 264 327
#
# _framework density 21.692989000000001
#
# number of rings (size 3 to 8) (size 9 to 14) (size 15 to 20)
#    0.500    1.833    0.000    3.000    1.167    3.667 
#    0.000    0.000    0.000    0.000    0.000    0.000 
#    0.000    4.000    0.000    0.000    0.000    0.000 
#
# Total GULP energy -594927.054263 kJ/mol
# GULP energy per Si atom -12394.313630 kJ/mol
# Density = 2.164361 g / cm^3
# Si number density = 21.692989 Si / 1000 Ang^3
#
#
#
# Elastic Constant Matrix: (Units=GPa)
#
#
# Indices 1 2 3 4 5 6 
#
# 1 49.9570 53.6334 35.7989 0.0000 0.0000 0.0000
# 2 53.6334 178.9397 39.4500 0.0000 0.0000 0.0000
# 3 35.7989 39.4500 48.1110 0.0000 0.0000 0.0000
# 4 0.0000 0.0000 0.0000 -35.1231 0.0000 0.0000
# 5 0.0000 0.0000 0.0000 0.0000 29.4555 0.0000
# 6 0.0000 0.0000 0.0000 0.0000 0.0000 17.0662
#
#
#
# Elastic Compliance Matrix: (Units=1/GPa)
#
#
# Indices 1 2 3 4 5 6 
#
# 1 0.051818 -0.008582 -0.031520 0.000000 0.000000 0.000000
# 2 -0.008582 0.008243 -0.000373 0.000000 0.000000 0.000000
# 3 -0.031520 -0.000373 0.044545 0.000000 0.000000 0.000000
# 4 0.000000 0.000000 0.000000 -0.028471 0.000000 0.000000
# 5 0.000000 0.000000 0.000000 0.000000 0.033949 0.000000
# 6 0.000000 0.000000 0.000000 0.000000 0.000000 0.058595
#
#
# Mechanical properties :
#
#
# Convention : Reuss Voigt Hill
#
# Bulk Modulus (GPa) = 42.27393 59.41913 50.84653
# Shear Modulus (GPa) = 19.41629 12.15476 15.78553
#
# Velocity S-wave (km/s) = 2.99498 2.36965 2.70048
# Velocity P-wave (km/s) = 5.61156 5.91079 5.76311
#
# Compressibility (1/GPa) = 0.02365524
#
# Stress axis : x y z
#
# Youngs Moduli (GPa) = 19.29826 121.31332 22.44925
#
# Poissons Ratio (x) = 1.04115 0.70760
# Poissons Ratio (y) = 0.16562 0.00838
# Poissons Ratio (z) = 0.60828 0.04527
#
# Static dielectric constant tensor:
#      x y z
#    x 3.847540 0.000000 0.000000 
#    y 0.000000 4.553070 0.000000 
#    z 0.000000 0.000000 3.691050 
# 
# 
# High freq. dielectric constant tensor:
#      x y z
#    x 1.841790 0.000000 0.000000 
#    y 0.000000 1.868490 0.000000 
#    z 0.000000 0.000000 1.832380 
# 
# From -- ./inp_files/6279.got.cif
#   From: 2010.03.12/outbox.cif.g09.slc.cpg/sg51_4_cif.got.tgz:6279.got - 2010.04.16 13:43:02.
