data_PCOD8211300
_publ_section_title
;
Structure prediction by ZEFSAII (Michael W. Deem and Ramdas Pophale) SiO2 
 PCOD8211300
Probable space group: P M M A
;
_chemical_formula_sum "Si O2"
_cell_formula_units_Z 48
_cell_length_a 21.562316
_cell_length_b 8.669527
_cell_length_c 15.073966
_cell_angle_alpha 90.000000
_cell_angle_beta 90.000000
_cell_angle_gamma 90.000000
_cell_volume 2817.853051
_symmetry_space_group_name_H-M "P M M A"
_symmetry_group_IT_number 51
_symmetry_cell_setting 'orthorhombic'
loop_
_space_group_symop_operation_xyz
x,y,z
1/2-x,-y,z
1/2+x,-y,-z
-x,y,-z
-x,-y,-z
1/2+x,y,-z
1/2-x,y,z
x,-y,z
loop_
_atom_site_type_symbol
_atom_site_label
_atom_site_fract_x
_atom_site_fract_y
_atom_site_fract_z
Si Si1 0.179027 0.320273 0.683068
Si Si2 0.955621 0.680836 0.616865
Si Si3 0.082529 0.819291 0.558787
Si Si4 0.539795 0.178309 0.797525
Si Si5 0.070833 0.670563 0.030248
Si Si6 0.409814 0.319902 0.840317
O O1 0.250000 0.267748 0.688728
O O2 0.172488 0.500000 0.660038
O O3 0.147090 0.222763 0.605220
O O4 0.148354 0.282336 0.778072
O O5 0.948033 0.500000 0.601955
O O6 0.914335 0.769844 0.544117
O O7 0.932115 0.727764 0.714484
O O8 0.027750 0.726720 0.607636
O O9 0.068936 0.000000 0.566210
O O10 0.579731 0.216978 0.885881
O O11 0.467810 0.219198 0.809253
O O12 0.546349 0.000000 0.776050
O O13 0.091414 0.500000 0.060800
O O14 0.109204 0.722806 0.942305
O O15 0.000000 0.670034 0.000000
O O16 0.429427 0.500000 0.835337
#
# Coordination Sequence:
#
# PCOD8211300 Si02
#       6
#     8   8   8   8   8   8
#     4  10  20  34  52  72  96 132 172 203 236 285
#     4  11  20  32  50  69  95 130 162 197 245 302
#     4  11  21  33  48  71  98 125 160 204 250 294
#     4  11  19  27  43  70  98 125 155 196 242 292
#     4   8  15  27  42  62  90 126 159 189 230 282
#     4   9  17  30  46  64  93 129 163 198 235 282
#
# _framework density 17.034244999999999
#
# number of rings (size 3 to 8) (size 9 to 14) (size 15 to 20)
#    0.000    2.000    1.667    6.500    0.000    3.333 
#    0.000    0.000    0.000    0.000    0.000    1.167 
#    0.000    6.667    0.000    0.000    0.000    0.000 
#
# Total GULP energy -595119.776555 kJ/mol
# GULP energy per Si atom -12398.328678 kJ/mol
# Density = 1.699547 g / cm^3
# Si number density = 17.034245 Si / 1000 Ang^3
#
#
#
# Elastic Constant Matrix: (Units=GPa)
#
#
# Indices 1 2 3 4 5 6 
#
# 1 60.1073 17.0020 40.0489 0.0000 0.0000 0.0000
# 2 17.0020 75.8458 31.1577 0.0000 0.0000 0.0000
# 3 40.0489 31.1577 136.2338 0.0000 0.0000 0.0000
# 4 0.0000 0.0000 0.0000 22.4828 0.0000 0.0000
# 5 0.0000 0.0000 0.0000 0.0000 18.9959 0.0000
# 6 0.0000 0.0000 0.0000 0.0000 0.0000 10.9095
#
#
#
# Elastic Compliance Matrix: (Units=1/GPa)
#
#
# Indices 1 2 3 4 5 6 
#
# 1 0.021080 -0.002406 -0.005647 0.000000 0.000000 0.000000
# 2 -0.002406 0.014826 -0.002684 0.000000 0.000000 0.000000
# 3 -0.005647 -0.002684 0.009614 0.000000 0.000000 0.000000
# 4 0.000000 0.000000 0.000000 0.044478 0.000000 0.000000
# 5 0.000000 0.000000 0.000000 0.000000 0.052643 0.000000
# 6 0.000000 0.000000 0.000000 0.000000 0.000000 0.091664
#
#
# Mechanical properties :
#
#
# Convention : Reuss Voigt Hill
#
# Bulk Modulus (GPa) = 41.58334 49.84490 45.71412
# Shear Modulus (GPa) = 18.95425 22.74286 20.84855
#
# Velocity S-wave (km/s) = 3.33936 3.65790 3.50225
# Velocity P-wave (km/s) = 6.27160 6.86771 6.57641
#
# Compressibility (1/GPa) = 0.02404809
#
# Stress axis : x y z
#
# Youngs Moduli (GPa) = 47.43904 67.44731 104.01438
#
# Poissons Ratio (x) = 0.16226 0.58733
# Poissons Ratio (y) = 0.11412 0.27914
# Poissons Ratio (z) = 0.26787 0.18101
#
# Static dielectric constant tensor:
#      x y z
#    x 2.721720 0.000000 0.000000 
#    y 0.000000 3.140830 0.000000 
#    z 0.000000 0.000000 3.669380 
# 
# 
# High freq. dielectric constant tensor:
#      x y z
#    x 1.585030 0.000000 0.000000 
#    y 0.000000 1.660380 0.000000 
#    z 0.000000 0.000000 1.679580 
# 
# From -- ./inp_files/26026.got.cif
#   From: 2010.03.12/outbox.cif.g09.slc.cpg/sg51_14_cif.got.tgz:26026.got - 2010.04.16 13:43:02.
