data_PCOD8211304
_publ_section_title
;
Structure prediction by ZEFSAII (Michael W. Deem and Ramdas Pophale) SiO2 
 PCOD8211304
Probable space group: P M M A
;
_chemical_formula_sum "Si O2"
_cell_formula_units_Z 64
_cell_length_a 18.778060
_cell_length_b 9.416957
_cell_length_c 20.428701
_cell_angle_alpha 90.000000
_cell_angle_beta 90.000000
_cell_angle_gamma 90.000000
_cell_volume 3612.451805
_symmetry_space_group_name_H-M "P M M A"
_symmetry_group_IT_number 51
_symmetry_cell_setting 'orthorhombic'
loop_
_space_group_symop_operation_xyz
x,y,z
1/2-x,-y,z
1/2+x,-y,-z
-x,y,-z
-x,-y,-z
1/2+x,y,-z
1/2-x,y,z
x,-y,z
loop_
_atom_site_type_symbol
_atom_site_label
_atom_site_fract_x
_atom_site_fract_y
_atom_site_fract_z
Si Si1 0.328130 0.331616 0.044009
Si Si2 0.831664 0.834931 0.218137
Si Si3 0.094344 0.836995 0.299650
Si Si4 0.566512 0.163695 0.335212
Si Si5 0.664809 0.659469 0.095763
Si Si6 0.833818 0.836074 0.566974
Si Si7 0.924742 0.667460 0.467340
Si Si8 0.833752 0.335010 0.814121
O O1 0.250000 0.261558 0.045493
O O2 0.319687 0.500000 0.041585
O O3 0.364759 0.290760 0.113450
O O4 0.366281 0.285815 0.975323
O O5 0.750000 0.790847 0.230860
O O6 0.875510 0.790042 0.281817
O O7 0.863675 0.757027 0.154392
O O8 0.839647 0.000000 0.203692
O O9 0.130917 0.780885 0.365993
O O10 0.122571 0.751383 0.238433
O O11 0.010354 0.813917 0.303602
O O12 0.115158 0.000000 0.288866
O O13 0.577286 0.267695 0.395506
O O14 0.576855 0.000000 0.357557
O O15 0.750000 0.665079 0.091565
O O16 0.638435 0.500000 0.110271
O O17 0.750000 0.816075 0.572451
O O18 0.861891 0.739183 0.508406
O O19 0.854826 0.000000 0.553560
O O20 0.911214 0.500000 0.463449
O O21 0.000000 0.704488 0.500000
O O22 0.750000 0.300036 0.809168
O O23 0.847226 0.500000 0.800615
#
# Coordination Sequence:
#
# PCOD8211304 Si02
#       8
#     8   8   8   8   8   8   8   8
#     4   7  11  22  41  66  95 128 166 203 245 301
#     4   9  18  32  50  75 103 127 160 209 258 301
#     4  10  20  34  52  73 100 135 175 212 245 295
#     4  10  21  37  57  75  99 139 175 204 248 308
#     4   8  13  24  45  70  96 128 164 203 249 301
#     4  10  21  37  58  81 104 136 176 212 250 302
#     4  11  23  38  57  81 107 133 166 212 261 306
#     4   9  17  29  47  72 102 134 167 209 259 303
#
# _framework density 17.7165
#
# number of rings (size 3 to 8) (size 9 to 14) (size 15 to 20)
#    0.000    2.750    1.250    2.250    0.000    3.500 
#    0.000    1.875    0.000    3.000    0.000    5.250 
#    0.000    0.000    0.000    0.000    0.000    0.000 
#
# Total GULP energy -793207.639085 kJ/mol
# GULP energy per Si atom -12393.869361 kJ/mol
# Density = 1.767618 g / cm^3
# Si number density = 17.716500 Si / 1000 Ang^3
#
#
#
# Elastic Constant Matrix: (Units=GPa)
#
#
# Indices 1 2 3 4 5 6 
#
# 1 56.7525 31.0769 47.1410 0.0000 0.0000 0.0000
# 2 31.0769 62.3449 70.2890 0.0000 0.0000 0.0000
# 3 47.1410 70.2890 168.3044 0.0000 0.0000 0.0000
# 4 0.0000 0.0000 0.0000 9.1537 0.0000 0.0000
# 5 0.0000 0.0000 0.0000 0.0000 13.2003 0.0000
# 6 0.0000 0.0000 0.0000 0.0000 0.0000 20.0743
#
#
#
# Elastic Compliance Matrix: (Units=1/GPa)
#
#
# Indices 1 2 3 4 5 6 
#
# 1 0.025242 -0.008715 -0.003431 0.000000 0.000000 0.000000
# 2 -0.008715 0.033321 -0.011475 0.000000 0.000000 0.000000
# 3 -0.003431 -0.011475 0.011695 0.000000 0.000000 0.000000
# 4 0.000000 0.000000 0.000000 0.109245 0.000000 0.000000
# 5 0.000000 0.000000 0.000000 0.000000 0.075756 0.000000
# 6 0.000000 0.000000 0.000000 0.000000 0.000000 0.049815
#
#
# Mechanical properties :
#
#
# Convention : Reuss Voigt Hill
#
# Bulk Modulus (GPa) = 43.44538 64.93504 54.19021
# Shear Modulus (GPa) = 13.88943 17.74532 15.81737
#
# Velocity S-wave (km/s) = 2.80301 3.16828 2.99123
# Velocity P-wave (km/s) = 5.92044 7.07926 6.52562
#
# Compressibility (1/GPa) = 0.02301741
#
# Stress axis : x y z
#
# Youngs Moduli (GPa) = 39.61653 30.01136 85.50834
#
# Poissons Ratio (x) = 0.26153 0.29335
# Poissons Ratio (y) = 0.34524 0.98120
# Poissons Ratio (z) = 0.13591 0.34438
#
# Static dielectric constant tensor:
#      x y z
#    x 3.053290 0.000000 0.000000 
#    y 0.000000 3.149110 0.000000 
#    z 0.000000 0.000000 3.596180 
# 
# 
# High freq. dielectric constant tensor:
#      x y z
#    x 1.655070 0.000000 0.000000 
#    y 0.000000 1.667520 0.000000 
#    z 0.000000 0.000000 1.704910 
# 
# From -- ./inp_files/33955.got.cif
#   From: 2010.03.12/outbox.cif.g09.slc.cpg/sg51_17_cif.got.tgz:33955.got - 2010.04.16 13:43:02.
