data_PCOD8211680
_publ_section_title
;
Structure prediction by ZEFSAII (Michael W. Deem and Ramdas Pophale) SiO2 
 PCOD8211680
Probable space group: P M M A
;
_chemical_formula_sum "Si O2"
_cell_formula_units_Z 48
_cell_length_a 7.683893
_cell_length_b 9.444196
_cell_length_c 34.193758
_cell_angle_alpha 90.000000
_cell_angle_beta 90.000000
_cell_angle_gamma 90.000000
_cell_volume 2481.379180
_symmetry_space_group_name_H-M "P M M A"
_symmetry_group_IT_number 51
_symmetry_cell_setting 'orthorhombic'
loop_
_space_group_symop_operation_xyz
x,y,z
1/2-x,-y,z
1/2+x,-y,-z
-x,y,-z
-x,-y,-z
1/2+x,y,-z
1/2-x,y,z
x,-y,z
loop_
_atom_site_type_symbol
_atom_site_label
_atom_site_fract_x
_atom_site_fract_y
_atom_site_fract_z
Si Si1 0.250000 0.665484 0.746176
Si Si2 0.043448 0.162118 0.614751
Si Si3 0.546283 0.342650 0.957841
Si Si4 0.045889 0.342038 0.542550
Si Si5 0.750000 0.165064 0.174350
Si Si6 0.945527 0.338914 0.688694
Si Si7 0.049753 0.835287 0.115145
O O1 0.250000 0.500000 0.755809
O O2 0.250000 0.748958 0.786105
O O3 0.421322 0.710671 0.722091
O O4 0.250000 0.173868 0.617792
O O5 0.970130 0.238472 0.575755
O O6 0.958979 0.237793 0.651653
O O7 0.981428 0.000000 0.613707
O O8 0.750000 0.352941 0.953152
O O9 0.462277 0.500000 0.954724
O O10 0.475413 0.245161 0.922965
O O11 0.500000 0.274992 0.000000
O O12 0.250000 0.351489 0.547814
O O13 0.963970 0.500000 0.546893
O O14 0.000000 0.278635 0.500000
O O15 0.574924 0.206752 0.150961
O O16 0.750000 0.000000 0.184532
O O17 0.750000 0.328652 0.705724
O O18 0.989988 0.500000 0.675720
O O19 0.250000 0.794290 0.125506
O O20 0.034228 0.000000 0.105380
#
# Coordination Sequence:
#
# PCOD8211680 Si02
#       7
#     4   8   8   8   4   8   8
#     4  10  22  40  60  86 116 142 178 230 280 330
#     4  10  20  34  54  80 111 147 185 228 280 333
#     4   9  18  31  48  74 106 139 177 224 274 320
#     4   9  18  32  50  72 102 143 189 233 275 323
#     4  10  22  38  58  82 108 144 184 222 272 332
#     4  10  21  38  61  86 112 145 184 226 275 333
#     4   9  19  36  54  75 106 142 182 225 267 318
#
# _framework density 19.344079000000001
#
# number of rings (size 3 to 8) (size 9 to 14) (size 15 to 20)
#    0.000    2.500    0.833    0.500    1.167    4.333 
#    0.000    1.667    0.000    0.000    0.000    0.000 
#    0.000    0.000    0.000    0.000    0.000    0.000 
#
# Total GULP energy -595160.390604 kJ/mol
# GULP energy per Si atom -12399.174804 kJ/mol
# Density = 1.930005 g / cm^3
# Si number density = 19.344079 Si / 1000 Ang^3
#
#
#
# Elastic Constant Matrix: (Units=GPa)
#
#
# Indices 1 2 3 4 5 6 
#
# 1 82.2652 38.8699 60.3653 0.0000 0.0000 0.0000
# 2 38.8699 89.6055 84.1891 0.0000 0.0000 0.0000
# 3 60.3653 84.1891 181.6151 0.0000 0.0000 0.0000
# 4 0.0000 0.0000 0.0000 37.8060 0.0000 0.0000
# 5 0.0000 0.0000 0.0000 0.0000 25.9145 0.0000
# 6 0.0000 0.0000 0.0000 0.0000 0.0000 16.9386
#
#
#
# Elastic Compliance Matrix: (Units=1/GPa)
#
#
# Indices 1 2 3 4 5 6 
#
# 1 0.016706 -0.003596 -0.003886 0.000000 0.000000 0.000000
# 2 -0.003596 0.020545 -0.008329 0.000000 0.000000 0.000000
# 3 -0.003886 -0.008329 0.010659 0.000000 0.000000 0.000000
# 4 0.000000 0.000000 0.000000 0.026451 0.000000 0.000000
# 5 0.000000 0.000000 0.000000 0.000000 0.038588 0.000000
# 6 0.000000 0.000000 0.000000 0.000000 0.000000 0.059037
#
#
# Mechanical properties :
#
#
# Convention : Reuss Voigt Hill
#
# Bulk Modulus (GPa) = 61.39132 80.03714 70.71423
# Shear Modulus (GPa) = 23.91927 27.46926 25.69426
#
# Velocity S-wave (km/s) = 3.52023 3.77242 3.64851
# Velocity P-wave (km/s) = 6.95184 7.77433 7.37456
#
# Compressibility (1/GPa) = 0.01628895
#
# Stress axis : x y z
#
# Youngs Moduli (GPa) = 59.85754 48.67341 93.82155
#
# Poissons Ratio (x) = 0.17503 0.36458
# Poissons Ratio (y) = 0.21525 0.78140
# Poissons Ratio (z) = 0.23260 0.40538
#
# Static dielectric constant tensor:
#      x y z
#    x 3.413500 0.000000 0.000000 
#    y 0.000000 3.684490 0.000000 
#    z 0.000000 0.000000 3.473580 
# 
# 
# High freq. dielectric constant tensor:
#      x y z
#    x 1.754510 0.000000 0.000000 
#    y 0.000000 1.744870 0.000000 
#    z 0.000000 0.000000 1.746680 
# 
# From -- ./inp_files/37100.got.cif
#   From: 2010.03.12/outbox.cif.g09.slc.cpg/sg51_19_cif.got.tgz:37100.got - 2010.04.16 13:43:02.
