data_PCOD8211911
_publ_section_title
;
Structure prediction by ZEFSAII (Michael W. Deem and Ramdas Pophale) SiO2 
 PCOD8211911
Probable space group: P M M A
;
_chemical_formula_sum "Si O2"
_cell_formula_units_Z 52
_cell_length_a 8.830573
_cell_length_b 20.417427
_cell_length_c 14.173988
_cell_angle_alpha 90.000000
_cell_angle_beta 90.000000
_cell_angle_gamma 90.000000
_cell_volume 2555.535730
_symmetry_space_group_name_H-M "P M M A"
_symmetry_group_IT_number 51
_symmetry_cell_setting 'orthorhombic'
loop_
_space_group_symop_operation_xyz
x,y,z
1/2-x,-y,z
1/2+x,-y,-z
-x,y,-z
-x,-y,-z
1/2+x,y,-z
1/2-x,y,z
x,-y,z
loop_
_atom_site_type_symbol
_atom_site_label
_atom_site_fract_x
_atom_site_fract_y
_atom_site_fract_z
Si Si1 0.916280 0.703954 0.358303
Si Si2 0.580970 0.252564 0.144650
Si Si3 0.925775 0.170367 0.592520
Si Si4 0.930084 0.875039 0.798517
Si Si5 0.071112 0.381937 0.092451
Si Si6 0.930374 0.000000 0.104104
Si Si7 0.073869 0.572565 0.719495
O O1 0.750000 0.710466 0.406234
O O2 0.903775 0.724616 0.250917
O O3 0.973883 0.627887 0.358136
O O4 0.033186 0.752102 0.409539
O O5 0.750000 0.242777 0.101773
O O6 0.485852 0.185510 0.137973
O O7 0.488679 0.307422 0.089183
O O8 0.750000 0.162384 0.581416
O O9 0.980091 0.135575 0.689010
O O10 0.000000 0.136566 0.500000
O O11 0.750000 0.882571 0.807733
O O12 0.014297 0.938172 0.836737
O O13 0.250000 0.382575 0.086298
O O14 0.021354 0.420954 0.185106
O O15 0.000000 0.417107 0.000000
O O16 0.750000 0.000000 0.095760
O O17 0.000000 0.000000 0.000000
O O18 0.250000 0.583553 0.745222
O O19 0.045258 0.500000 0.676950
#
# Coordination Sequence:
#
# PCOD8211911 Si02
#       7
#     8   8   8   8   8   4   8
#     4   8  15  29  50  75 104 135 170 215 266 323
#     4   9  17  32  53  76 101 133 173 219 273 329
#     4  10  20  34  58  89 120 151 185 229 281 337
#     4  10  21  39  61  88 120 153 191 237 284 333
#     4  11  21  32  46  67  96 130 172 225 282 337
#     4  12  26  44  65  88 117 158 201 240 280 328
#     4   9  18  33  51  70  95 132 176 221 275 339
#
# _framework density 20.347985999999999
#
# number of rings (size 3 to 8) (size 9 to 14) (size 15 to 20)
#    0.000    2.308    0.000    4.385    0.000    6.769 
#    0.000    3.462    0.000    0.462    0.000    0.000 
#    0.000    0.000    0.000    0.000    0.000    0.000 
#
# Total GULP energy -644509.999062 kJ/mol
# GULP energy per Si atom -12394.423059 kJ/mol
# Density = 2.030167 g / cm^3
# Si number density = 20.347986 Si / 1000 Ang^3
#
#
#
# Elastic Constant Matrix: (Units=GPa)
#
#
# Indices 1 2 3 4 5 6 
#
# 1 114.0275 32.9893 34.2393 0.0000 0.0000 0.0000
# 2 32.9893 123.2001 26.6022 0.0000 0.0000 0.0000
# 3 34.2393 26.6022 71.9918 0.0000 0.0000 0.0000
# 4 0.0000 0.0000 0.0000 11.6957 0.0000 0.0000
# 5 0.0000 0.0000 0.0000 0.0000 29.5032 0.0000
# 6 0.0000 0.0000 0.0000 0.0000 0.0000 30.2155
#
#
#
# Elastic Compliance Matrix: (Units=1/GPa)
#
#
# Indices 1 2 3 4 5 6 
#
# 1 0.010628 -0.001906 -0.004350 0.000000 0.000000 0.000000
# 2 -0.001906 0.009163 -0.002479 0.000000 0.000000 0.000000
# 3 -0.004350 -0.002479 0.016875 0.000000 0.000000 0.000000
# 4 0.000000 0.000000 0.000000 0.085502 0.000000 0.000000
# 5 0.000000 0.000000 0.000000 0.000000 0.033895 0.000000
# 6 0.000000 0.000000 0.000000 0.000000 0.000000 0.033096
#
#
# Mechanical properties :
#
#
# Convention : Reuss Voigt Hill
#
# Bulk Modulus (GPa) = 52.09801 55.20899 53.65350
# Shear Modulus (GPa) = 23.47124 28.64210 26.05667
#
# Velocity S-wave (km/s) = 3.39999 3.75589 3.58236
# Velocity P-wave (km/s) = 6.40877 6.78235 6.59821
#
# Compressibility (1/GPa) = 0.01919459
#
# Stress axis : x y z
#
# Youngs Moduli (GPa) = 94.09499 109.13857 59.25786
#
# Poissons Ratio (x) = 0.20807 0.25777
# Poissons Ratio (y) = 0.17939 0.14690
# Poissons Ratio (z) = 0.40931 0.27056
#
# Static dielectric constant tensor:
#      x y z
#    x 3.733430 0.000000 0.000000 
#    y 0.000000 3.896200 0.000000 
#    z 0.000000 0.000000 3.766920 
# 
# 
# High freq. dielectric constant tensor:
#      x y z
#    x 1.799580 0.000000 0.000000 
#    y 0.000000 1.785020 0.000000 
#    z 0.000000 0.000000 1.780290 
# 
# From -- ./inp_files/21549.got.cif
#   From: 2010.03.12/outbox.cif.g09.slc.cpg/sg51_11_cif.got.tgz:21549.got - 2010.04.16 13:43:02.
