data_PCOD8211982
_publ_section_title
;
Structure prediction by ZEFSAII (Michael W. Deem and Ramdas Pophale) SiO2 
 PCOD8211982
Probable space group: P M M A
;
_chemical_formula_sum "Si O2"
_cell_formula_units_Z 40
_cell_length_a 8.991150
_cell_length_b 25.127067
_cell_length_c 10.141614
_cell_angle_alpha 90.000000
_cell_angle_beta 90.000000
_cell_angle_gamma 90.000000
_cell_volume 2291.205893
_symmetry_space_group_name_H-M "P M M A"
_symmetry_group_IT_number 51
_symmetry_cell_setting 'orthorhombic'
loop_
_space_group_symop_operation_xyz
x,y,z
1/2-x,-y,z
1/2+x,-y,-z
-x,y,-z
-x,-y,-z
1/2+x,y,-z
1/2-x,y,z
x,-y,z
loop_
_atom_site_type_symbol
_atom_site_label
_atom_site_fract_x
_atom_site_fract_y
_atom_site_fract_z
Si Si1 0.421770 0.437577 0.865009
Si Si2 0.075133 0.627288 0.364006
Si Si3 0.925553 0.828334 0.858447
Si Si4 0.423293 0.056113 0.139043
Si Si5 0.923753 0.250210 0.634661
O O1 0.250000 0.420246 0.870544
O O2 0.438831 0.500000 0.839905
O O3 0.505201 0.407900 0.749174
O O4 0.500000 0.420280 0.000000
O O5 0.250000 0.616521 0.373258
O O6 0.038701 0.688694 0.333240
O O7 0.000000 0.609475 0.500000
O O8 0.750000 0.821736 0.878348
O O9 0.966998 0.887009 0.795909
O O10 0.986804 0.784962 0.755271
O O11 0.000000 0.818825 0.000000
O O12 0.250000 0.057080 0.111345
O O13 0.464481 0.000000 0.216494
O O14 0.500000 0.053906 0.000000
O O15 0.750000 0.240780 0.615935
O O16 0.000000 0.231414 0.500000
#
# Coordination Sequence:
#
# PCOD8211982 Si02
#       5
#     8   8   8   8   8
#     4  10  21  37  56  78 104 133 163 196 238 286
#     4  10  20  35  54  75  99 128 165 205 243 286
#     4   9  17  29  45  68  95 120 153 195 236 281
#     4   8  13  22  38  60  86 116 148 185 230 276
#     4   9  19  34  50  69  94 126 161 196 236 282
#
# _framework density 17.458055999999999
#
# number of rings (size 3 to 8) (size 9 to 14) (size 15 to 20)
#    0.000    2.800    0.000    1.200    0.000    4.000 
#    0.000    2.000    0.000    0.600    0.000    0.000 
#    0.000    0.000    0.000    0.000    0.000    0.000 
#
# Total GULP energy -495595.932379 kJ/mol
# GULP energy per Si atom -12389.898309 kJ/mol
# Density = 1.741832 g / cm^3
# Si number density = 17.458056 Si / 1000 Ang^3
#
#
#
# Elastic Constant Matrix: (Units=GPa)
#
#
# Indices 1 2 3 4 5 6 
#
# 1 65.9414 42.6908 52.5472 0.0000 0.0000 0.0000
# 2 42.6908 81.2606 74.7006 0.0000 0.0000 0.0000
# 3 52.5472 74.7006 127.7482 0.0000 0.0000 0.0000
# 4 0.0000 0.0000 0.0000 -23.0718 0.0000 0.0000
# 5 0.0000 0.0000 0.0000 0.0000 30.4125 0.0000
# 6 0.0000 0.0000 0.0000 0.0000 0.0000 81.4121
#
#
#
# Elastic Compliance Matrix: (Units=1/GPa)
#
#
# Indices 1 2 3 4 5 6 
#
# 1 0.024680 -0.007857 -0.005557 0.000000 0.000000 0.000000
# 2 -0.007857 0.029112 -0.013791 0.000000 0.000000 0.000000
# 3 -0.005557 -0.013791 0.018178 0.000000 0.000000 0.000000
# 4 0.000000 0.000000 0.000000 -0.043343 0.000000 0.000000
# 5 0.000000 0.000000 0.000000 0.000000 0.032881 0.000000
# 6 0.000000 0.000000 0.000000 0.000000 0.000000 0.012283
#
#
# Mechanical properties :
#
#
# Convention : Reuss Voigt Hill
#
# Bulk Modulus (GPa) = 56.95145 68.31413 62.63279
# Shear Modulus (GPa) = 37.29789 24.75132 31.02460
#
# Velocity S-wave (km/s) = 4.62717 3.76940 4.22013
# Velocity P-wave (km/s) = 7.82561 7.62626 7.72658
#
# Compressibility (1/GPa) = 0.01755882
#
# Stress axis : x y z
#
# Youngs Moduli (GPa) = 40.51809 34.35048 55.01126
#
# Poissons Ratio (x) = 0.26990 0.30572
# Poissons Ratio (y) = 0.31836 0.75866
# Poissons Ratio (z) = 0.22517 0.47373
#
# Static dielectric constant tensor:
#      x y z
#    x 3.249560 0.000000 0.000000 
#    y 0.000000 3.814620 0.000000 
#    z 0.000000 0.000000 3.058480 
# 
# 
# High freq. dielectric constant tensor:
#      x y z
#    x 1.679290 0.000000 0.000000 
#    y 0.000000 1.690990 0.000000 
#    z 0.000000 0.000000 1.646600 
# 
# From -- ./inp_files/5194.got.cif
#   From: 2010.03.12/outbox.cif.g09.slc.cpg/sg51_3_cif.got.tgz:5194.got - 2010.04.16 13:43:02.
