data_PCOD8211452
_publ_section_title
;
Structure prediction by ZEFSAII (Michael W. Deem and Ramdas Pophale) SiO2 
 PCOD8211452
Probable space group: P M M A
;
_chemical_formula_sum "Si O2"
_cell_formula_units_Z 64
_cell_length_a 31.110423
_cell_length_b 8.963203
_cell_length_c 12.203233
_cell_angle_alpha 90.000000
_cell_angle_beta 90.000000
_cell_angle_gamma 90.000000
_cell_volume 3402.859767
_symmetry_space_group_name_H-M "P M M A"
_symmetry_group_IT_number 51
_symmetry_cell_setting 'orthorhombic'
loop_
_space_group_symop_operation_xyz
x,y,z
1/2-x,-y,z
1/2+x,-y,-z
-x,y,-z
-x,-y,-z
1/2+x,y,-z
1/2-x,y,z
x,-y,z
loop_
_atom_site_type_symbol
_atom_site_label
_atom_site_fract_x
_atom_site_fract_y
_atom_site_fract_z
Si Si1 0.200902 0.324243 0.536487
Si Si2 0.627113 0.323550 0.622736
Si Si3 0.435943 0.829674 0.751338
Si Si4 0.951511 0.323740 0.473595
Si Si5 0.867414 0.677368 0.094595
Si Si6 0.480741 0.830990 0.113421
Si Si7 0.200024 0.171135 0.763076
Si Si8 0.106461 0.676124 0.142427
O O1 0.250000 0.284633 0.503023
O O2 0.195534 0.500000 0.556097
O O3 0.168558 0.262502 0.443415
O O4 0.187129 0.242835 0.647590
O O5 0.629945 0.500000 0.622376
O O6 0.581357 0.275730 0.569971
O O7 0.629962 0.262169 0.747697
O O8 0.432845 0.754669 0.633570
O O9 0.406917 0.741519 0.837122
O O10 0.484814 0.821687 0.790273
O O11 0.419720 0.000000 0.744328
O O12 0.951252 0.500000 0.453363
O O13 0.000000 0.268311 0.500000
O O14 0.868036 0.500000 0.103082
O O15 0.822883 0.740737 0.139489
O O16 0.870883 0.733462 0.968516
O O17 0.442492 0.725813 0.148931
O O18 0.464102 0.000000 0.096042
O O19 0.500000 0.769577 0.000000
O O20 0.250000 0.188188 0.786257
O O21 0.185163 0.000000 0.762037
O O22 0.106645 0.500000 0.144309
#
# Coordination Sequence:
#
# PCOD8211452 Si02
#       8
#     8   8   8   8   8   8   8   8
#     4   9  17  32  57  84 108 138 176 219 269 323
#     4   9  18  34  53  76 107 139 176 223 272 322
#     4  11  22  35  54  78 107 141 180 226 271 320
#     4  10  20  34  53  76 106 143 180 223 275 328
#     4  11  22  35  54  81 109 138 177 222 267 316
#     4  10  20  35  52  73 105 143 181 221 269 318
#     4  10  21  37  58  83 111 141 173 215 268 325
#     4  10  21  36  55  78 105 141 185 227 265 315
#
# _framework density 18.80771
#
# number of rings (size 3 to 8) (size 9 to 14) (size 15 to 20)
#    0.000    2.000    1.250    2.625    0.000    4.750 
#    0.000    1.875    0.000    2.250    0.000    1.750 
#    0.000    0.000    0.000    0.000    0.000    0.000 
#
# Total GULP energy -793612.557141 kJ/mol
# GULP energy per Si atom -12400.196205 kJ/mol
# Density = 1.876490 g / cm^3
# Si number density = 18.807710 Si / 1000 Ang^3
#
#
#
# Elastic Constant Matrix: (Units=GPa)
#
#
# Indices 1 2 3 4 5 6 
#
# 1 104.3134 25.7261 71.8761 0.0000 0.0000 0.0000
# 2 25.7261 46.9949 48.4253 0.0000 0.0000 0.0000
# 3 71.8761 48.4253 167.6967 0.0000 0.0000 0.0000
# 4 0.0000 0.0000 0.0000 10.1870 0.0000 0.0000
# 5 0.0000 0.0000 0.0000 0.0000 32.2465 0.0000
# 6 0.0000 0.0000 0.0000 0.0000 0.0000 21.9244
#
#
#
# Elastic Compliance Matrix: (Units=1/GPa)
#
#
# Indices 1 2 3 4 5 6 
#
# 1 0.013744 -0.002070 -0.005293 0.000000 0.000000 0.000000
# 2 -0.002070 0.030604 -0.007951 0.000000 0.000000 0.000000
# 3 -0.005293 -0.007951 0.010528 0.000000 0.000000 0.000000
# 4 0.000000 0.000000 0.000000 0.098165 0.000000 0.000000
# 5 0.000000 0.000000 0.000000 0.000000 0.031011 0.000000
# 6 0.000000 0.000000 0.000000 0.000000 0.000000 0.045611
#
#
# Mechanical properties :
#
#
# Convention : Reuss Voigt Hill
#
# Bulk Modulus (GPa) = 41.23773 67.89556 54.56665
# Shear Modulus (GPa) = 18.63078 24.40339 21.51709
#
# Velocity S-wave (km/s) = 3.15078 3.60602 3.38606
# Velocity P-wave (km/s) = 5.93381 7.31547 6.66056
#
# Compressibility (1/GPa) = 0.02424964
#
# Stress axis : x y z
#
# Youngs Moduli (GPa) = 72.75830 32.67511 94.98734
#
# Poissons Ratio (x) = 0.06762 0.50279
# Poissons Ratio (y) = 0.15057 0.75520
# Poissons Ratio (z) = 0.38513 0.25978
#
# Static dielectric constant tensor:
#      x y z
#    x 3.484720 0.000000 0.000000 
#    y 0.000000 3.341970 0.000000 
#    z 0.000000 0.000000 3.784510 
# 
# 
# High freq. dielectric constant tensor:
#      x y z
#    x 1.728470 0.000000 0.000000 
#    y 0.000000 1.716840 0.000000 
#    z 0.000000 0.000000 1.737800 
# 
# From -- ./inp_files/19655.got.cif
#   From: 2010.03.12/outbox.cif.g09.slc.cpg/sg51_10_cif.got.tgz:19655.got - 2010.04.16 13:43:02.
