data_PCOD8211465
_publ_section_title
;
Structure prediction by ZEFSAII (Michael W. Deem and Ramdas Pophale) SiO2 
 PCOD8211465
Probable space group: P M M A
;
_chemical_formula_sum "Si O2"
_cell_formula_units_Z 56
_cell_length_a 8.999376
_cell_length_b 18.237384
_cell_length_c 18.974355
_cell_angle_alpha 90.000000
_cell_angle_beta 90.000000
_cell_angle_gamma 90.000000
_cell_volume 3114.167454
_symmetry_space_group_name_H-M "P M M A"
_symmetry_group_IT_number 51
_symmetry_cell_setting 'orthorhombic'
loop_
_space_group_symop_operation_xyz
x,y,z
1/2-x,-y,z
1/2+x,-y,-z
-x,y,-z
-x,-y,-z
1/2+x,y,-z
1/2-x,y,z
x,-y,z
loop_
_atom_site_type_symbol
_atom_site_label
_atom_site_fract_x
_atom_site_fract_y
_atom_site_fract_z
Si Si1 0.916919 0.912973 0.068300
Si Si2 0.425842 0.721927 0.425895
Si Si3 0.078258 0.581492 0.342776
Si Si4 0.074754 0.795443 0.703038
Si Si5 0.077424 0.914112 0.210201
Si Si6 0.075537 0.415620 0.928843
Si Si7 0.076254 0.349062 0.784314
O O1 0.750000 0.880438 0.072931
O O2 0.009795 0.888366 0.135981
O O3 0.909153 0.000000 0.062754
O O4 0.000000 0.880388 0.000000
O O5 0.500000 0.739210 0.500000
O O6 0.250000 0.733182 0.431124
O O7 0.470289 0.639324 0.402647
O O8 0.493284 0.778340 0.369934
O O9 0.250000 0.592169 0.325025
O O10 0.042772 0.500000 0.371361
O O11 0.993473 0.593694 0.269987
O O12 0.250000 0.801156 0.689879
O O13 0.035735 0.733870 0.761762
O O14 0.010780 0.872847 0.728459
O O15 0.250000 0.892848 0.211424
O O16 0.052997 0.000000 0.222711
O O17 0.250000 0.407310 0.938930
O O18 0.030226 0.500000 0.914808
O O19 0.017856 0.366484 0.863100
O O20 0.000000 0.385727 0.000000
O O21 0.250000 0.363289 0.781087
#
# Coordination Sequence:
#
# PCOD8211465 Si02
#       7
#     8   8   8   8   8   8   8
#     4   9  16  27  45  70 100 132 165 202 245 293
#     4  10  20  35  54  76 104 136 169 203 243 294
#     4   9  18  31  48  73 103 133 166 205 247 291
#     4  10  20  35  55  77 101 130 166 206 250 302
#     4  10  20  34  53  77 104 134 169 209 254 305
#     4   9  17  29  45  66  93 126 166 211 254 293
#     4   9  18  32  49  69  95 129 168 209 252 299
#
# _framework density 17.982333000000001
#
# number of rings (size 3 to 8) (size 9 to 14) (size 15 to 20)
#    0.000    2.571    0.000    2.143    0.000    5.429 
#    0.000    2.143    0.000    2.143    0.000    0.000 
#    0.000    0.000    0.000    0.000    0.000    0.000 
#
# Total GULP energy -694424.906458 kJ/mol
# GULP energy per Si atom -12400.444758 kJ/mol
# Density = 1.794140 g / cm^3
# Si number density = 17.982333 Si / 1000 Ang^3
#
#
#
# Elastic Constant Matrix: (Units=GPa)
#
#
# Indices 1 2 3 4 5 6 
#
# 1 83.9467 34.9160 58.6715 0.0000 0.0000 0.0000
# 2 34.9160 56.7080 50.4027 0.0000 0.0000 0.0000
# 3 58.6715 50.4027 153.8490 0.0000 0.0000 0.0000
# 4 0.0000 0.0000 0.0000 15.4717 0.0000 0.0000
# 5 0.0000 0.0000 0.0000 0.0000 35.3545 0.0000
# 6 0.0000 0.0000 0.0000 0.0000 0.0000 22.0899
#
#
#
# Elastic Compliance Matrix: (Units=1/GPa)
#
#
# Indices 1 2 3 4 5 6 
#
# 1 0.018036 -0.007042 -0.004571 0.000000 0.000000 0.000000
# 2 -0.007042 0.027628 -0.006366 0.000000 0.000000 0.000000
# 3 -0.004571 -0.006366 0.010329 0.000000 0.000000 0.000000
# 4 0.000000 0.000000 0.000000 0.064634 0.000000 0.000000
# 5 0.000000 0.000000 0.000000 0.000000 0.028285 0.000000
# 6 0.000000 0.000000 0.000000 0.000000 0.000000 0.045270
#
#
# Mechanical properties :
#
#
# Convention : Reuss Voigt Hill
#
# Bulk Modulus (GPa) = 49.91326 64.72046 57.31686
# Shear Modulus (GPa) = 21.11323 24.61743 22.86533
#
# Velocity S-wave (km/s) = 3.43025 3.70399 3.56974
# Velocity P-wave (km/s) = 6.59590 7.37306 6.99528
#
# Compressibility (1/GPa) = 0.02003476
#
# Stress axis : x y z
#
# Youngs Moduli (GPa) = 55.44388 36.19496 96.81882
#
# Poissons Ratio (x) = 0.25490 0.44257
# Poissons Ratio (y) = 0.39046 0.61632
# Poissons Ratio (z) = 0.25344 0.23040
#
# Static dielectric constant tensor:
#      x y z
#    x 3.388220 0.000000 0.000000 
#    y 0.000000 3.165790 0.000000 
#    z 0.000000 0.000000 3.337420 
# 
# 
# High freq. dielectric constant tensor:
#      x y z
#    x 1.704770 0.000000 0.000000 
#    y 0.000000 1.670990 0.000000 
#    z 0.000000 0.000000 1.692450 
# 
# From -- ./inp_files/28217.got.cif
#   From: 2010.03.12/outbox.cif.g09.slc.cpg/sg51_15_cif.got.tgz:28217.got - 2010.04.16 13:43:02.
