data_PCOD8211251
_publ_section_title
;
Structure prediction by ZEFSAII (Michael W. Deem and Ramdas Pophale) SiO2 
 PCOD8211251
Probable space group: P M M A
;
_chemical_formula_sum "Si O2"
_cell_formula_units_Z 40
_cell_length_a 7.772934
_cell_length_b 9.542799
_cell_length_c 29.287971
_cell_angle_alpha 90.000000
_cell_angle_beta 90.000000
_cell_angle_gamma 90.000000
_cell_volume 2172.451264
_symmetry_space_group_name_H-M "P M M A"
_symmetry_group_IT_number 51
_symmetry_cell_setting 'orthorhombic'
loop_
_space_group_symop_operation_xyz
x,y,z
1/2-x,-y,z
1/2+x,-y,-z
-x,y,-z
-x,-y,-z
1/2+x,y,-z
1/2-x,y,z
x,-y,z
loop_
_atom_site_type_symbol
_atom_site_label
_atom_site_fract_x
_atom_site_fract_y
_atom_site_fract_z
Si Si1 0.750000 0.832787 0.794209
Si Si2 0.250000 0.337766 0.297694
Si Si3 0.549269 0.158516 0.952115
Si Si4 0.548347 0.155863 0.450842
Si Si5 0.559762 0.834367 0.143505
Si Si6 0.051939 0.337914 0.633361
O O1 0.750000 0.762367 0.745358
O O2 0.581702 0.777275 0.821225
O O3 0.750000 0.000000 0.788072
O O4 0.250000 0.500000 0.282727
O O5 0.424412 0.302298 0.325205
O O6 0.750000 0.162392 0.943680
O O7 0.463912 0.230832 0.907507
O O8 0.478148 0.000000 0.955622
O O9 0.500000 0.235783 0.000000
O O10 0.500000 0.221629 0.500000
O O11 0.750000 0.146098 0.446244
O O12 0.479728 0.253538 0.410281
O O13 0.466076 0.000000 0.446404
O O14 0.750000 0.795170 0.161739
O O15 0.532945 0.000000 0.139287
O O16 0.250000 0.297800 0.646405
O O17 0.039918 0.500000 0.620062
#
# Coordination Sequence:
#
# PCOD8211251 Si02
#       6
#     4   4   8   8   8   8
#     4  10  20  34  50  72  98 126 164 206 251 300
#     4  10  22  38  56  76  98 128 168 212 257 298
#     4   9  14  20  32  54  87 128 167 197 234 291
#     4   9  18  31  48  74 106 137 167 200 240 288
#     4   9  16  27  42  62  93 129 161 200 247 294
#     4   9  19  36  54  73  99 129 163 206 250 292
#
# _framework density 18.412382000000001
#
# number of rings (size 3 to 8) (size 9 to 14) (size 15 to 20)
#    0.000    2.800    1.000    0.600    1.400    4.400 
#    0.000    0.000    0.000    0.000    0.000    0.000 
#    0.000    0.800    0.000    0.000    0.000    0.000 
#
# Total GULP energy -495734.449378 kJ/mol
# GULP energy per Si atom -12393.361234 kJ/mol
# Density = 1.837047 g / cm^3
# Si number density = 18.412382 Si / 1000 Ang^3
#
#
#
# Elastic Constant Matrix: (Units=GPa)
#
#
# Indices 1 2 3 4 5 6 
#
# 1 110.0033 25.9114 69.5462 0.0000 0.0000 0.0000
# 2 25.9114 34.2071 50.2465 0.0000 0.0000 0.0000
# 3 69.5462 50.2465 163.7444 0.0000 0.0000 0.0000
# 4 0.0000 0.0000 0.0000 114.3899 0.0000 0.0000
# 5 0.0000 0.0000 0.0000 0.0000 31.0542 0.0000
# 6 0.0000 0.0000 0.0000 0.0000 0.0000 11.1137
#
#
#
# Elastic Compliance Matrix: (Units=1/GPa)
#
#
# Indices 1 2 3 4 5 6 
#
# 1 0.012602 -0.003066 -0.004412 0.000000 0.000000 0.000000
# 2 -0.003066 0.053970 -0.015259 0.000000 0.000000 0.000000
# 3 -0.004412 -0.015259 0.012663 0.000000 0.000000 0.000000
# 4 0.000000 0.000000 0.000000 0.008742 0.000000 0.000000
# 5 0.000000 0.000000 0.000000 0.000000 0.032202 0.000000
# 6 0.000000 0.000000 0.000000 0.000000 0.000000 0.089979
#
#
# Mechanical properties :
#
#
# Convention : Reuss Voigt Hill
#
# Bulk Modulus (GPa) = 29.61886 66.59590 48.10738
# Shear Modulus (GPa) = 18.73472 42.12829 30.43150
#
# Velocity S-wave (km/s) = 3.19330 4.78854 4.06984
# Velocity P-wave (km/s) = 5.45138 8.17441 6.94761
#
# Compressibility (1/GPa) = 0.03376227
#
# Stress axis : x y z
#
# Youngs Moduli (GPa) = 79.35350 18.52888 78.96896
#
# Poissons Ratio (x) = 0.05680 0.34838
# Poissons Ratio (y) = 0.24326 1.20500
# Poissons Ratio (z) = 0.35008 0.28273
#
# Static dielectric constant tensor:
#      x y z
#    x 3.547900 0.000000 0.000000 
#    y 0.000000 3.028360 0.000000 
#    z 0.000000 0.000000 3.489030 
# 
# 
# High freq. dielectric constant tensor:
#      x y z
#    x 1.726810 0.000000 0.000000 
#    y 0.000000 1.648280 0.000000 
#    z 0.000000 0.000000 1.719120 
# 
# From -- ./inp_files/36007.got.cif
#   From: 2010.03.12/outbox.cif.g09.slc.cpg/sg51_19_cif.got.tgz:36007.got - 2010.04.16 13:43:02.
