data_PCOD8211152
_publ_section_title
;
Structure prediction by ZEFSAII (Michael W. Deem and Ramdas Pophale) SiO2 
 PCOD8211152
Probable space group: P M M A
;
_chemical_formula_sum "Si O2"
_cell_formula_units_Z 52
_cell_length_a 8.864040
_cell_length_b 10.535723
_cell_length_c 29.633023
_cell_angle_alpha 90.000000
_cell_angle_beta 90.000000
_cell_angle_gamma 90.000000
_cell_volume 2767.400462
_symmetry_space_group_name_H-M "P M M A"
_symmetry_group_IT_number 51
_symmetry_cell_setting 'orthorhombic'
loop_
_space_group_symop_operation_xyz
x,y,z
1/2-x,-y,z
1/2+x,-y,-z
-x,y,-z
-x,-y,-z
1/2+x,y,-z
1/2-x,y,z
x,-y,z
loop_
_atom_site_type_symbol
_atom_site_label
_atom_site_fract_x
_atom_site_fract_y
_atom_site_fract_z
Si Si1 0.584305 0.144777 0.042307
Si Si2 0.916292 0.350497 0.297693
Si Si3 0.928751 0.500000 0.049472
Si Si4 0.926382 0.716464 0.890206
Si Si5 0.573589 0.352998 0.612056
Si Si6 0.573833 0.646817 0.198628
Si Si7 0.427552 0.856194 0.548291
O O1 0.750000 0.208561 0.048979
O O2 0.478755 0.151780 0.087137
O O3 0.609442 0.000000 0.030109
O O4 0.500000 0.212657 0.000000
O O5 0.750000 0.296181 0.310576
O O6 0.902001 0.500000 0.292175
O O7 0.968219 0.298662 0.248593
O O8 0.035258 0.314758 0.336437
O O9 0.750000 0.500000 0.044821
O O10 0.981247 0.619198 0.078877
O O11 0.000000 0.500000 0.000000
O O12 0.750000 0.690073 0.893349
O O13 0.975079 0.720143 0.838037
O O14 0.750000 0.337233 0.604071
O O15 0.523884 0.500000 0.602145
O O16 0.487759 0.253328 0.580878
O O17 0.750000 0.668011 0.189239
O O18 0.530189 0.500000 0.194460
O O19 0.500000 0.832047 0.500000
O O20 0.250000 0.839533 0.543711
O O21 0.467373 0.000000 0.565352
#
# Coordination Sequence:
#
# PCOD8211152 Si02
#       7
#     8   8   4   8   8   8   8
#     4  10  21  38  58  76  95 124 163 205 249 299
#     4   8  15  29  50  75 103 138 177 217 263 310
#     4  12  24  38  52  70 102 136 168 204 247 302
#     4  12  23  34  51  77 105 133 165 203 252 304
#     4  10  20  33  52  81 114 147 184 228 278 327
#     4   9  17  31  51  74 103 139 174 210 253 308
#     4  10  21  37  57  80 108 146 190 233 279 333
#
# _framework density 18.790195000000001
#
# number of rings (size 3 to 8) (size 9 to 14) (size 15 to 20)
#    0.000    2.000    0.769    4.846    0.000    3.692 
#    0.000    1.538    0.000    0.923    0.000    6.462 
#    0.000    0.000    0.000    0.000    0.000    0.000 
#
# Total GULP energy -644406.091311 kJ/mol
# GULP energy per Si atom -12392.424833 kJ/mol
# Density = 1.874743 g / cm^3
# Si number density = 18.790195 Si / 1000 Ang^3
#
#
#
# Elastic Constant Matrix: (Units=GPa)
#
#
# Indices 1 2 3 4 5 6 
#
# 1 121.7787 38.7048 68.9152 0.0000 0.0000 0.0000
# 2 38.7048 59.0233 50.5727 0.0000 0.0000 0.0000
# 3 68.9152 50.5727 142.0185 0.0000 0.0000 0.0000
# 4 0.0000 0.0000 0.0000 15.6567 0.0000 0.0000
# 5 0.0000 0.0000 0.0000 0.0000 39.0811 0.0000
# 6 0.0000 0.0000 0.0000 0.0000 0.0000 21.8544
#
#
#
# Elastic Compliance Matrix: (Units=1/GPa)
#
#
# Indices 1 2 3 4 5 6 
#
# 1 0.011984 -0.004139 -0.004341 0.000000 0.000000 0.000000
# 2 -0.004139 0.025811 -0.007183 0.000000 0.000000 0.000000
# 3 -0.004341 -0.007183 0.011706 0.000000 0.000000 0.000000
# 4 0.000000 0.000000 0.000000 0.063871 0.000000 0.000000
# 5 0.000000 0.000000 0.000000 0.000000 0.025588 0.000000
# 6 0.000000 0.000000 0.000000 0.000000 0.000000 0.045757
#
#
# Mechanical properties :
#
#
# Convention : Reuss Voigt Hill
#
# Bulk Modulus (GPa) = 55.02182 71.02285 63.02234
# Shear Modulus (GPa) = 22.51231 26.29361 24.40296
#
# Velocity S-wave (km/s) = 3.46510 3.74481 3.60767
# Velocity P-wave (km/s) = 6.73461 7.52184 7.13908
#
# Compressibility (1/GPa) = 0.01817461
#
# Stress axis : x y z
#
# Youngs Moduli (GPa) = 83.44569 38.74330 85.42685
#
# Poissons Ratio (x) = 0.16034 0.37088
# Poissons Ratio (y) = 0.34535 0.61362
# Poissons Ratio (z) = 0.36228 0.27829
#
# Static dielectric constant tensor:
#      x y z
#    x 3.689670 0.000000 0.000000 
#    y 0.000000 3.625480 0.000000 
#    z 0.000000 0.000000 3.736620 
# 
# 
# High freq. dielectric constant tensor:
#      x y z
#    x 1.739610 0.000000 0.000000 
#    y 0.000000 1.697550 0.000000 
#    z 0.000000 0.000000 1.734620 
# 
# From -- ./inp_files/36255.got.cif
#   From: 2010.03.12/outbox.cif.g09.slc.cpg/sg51_19_cif.got.tgz:36255.got - 2010.04.16 13:43:02.
