data_PCOD8211810
_publ_section_title
;
Structure prediction by ZEFSAII (Michael W. Deem and Ramdas Pophale) SiO2 
 PCOD8211810
Probable space group: P M M A
;
_chemical_formula_sum "Si O2"
_cell_formula_units_Z 48
_cell_length_a 14.982310
_cell_length_b 9.150410
_cell_length_c 18.903082
_cell_angle_alpha 90.000000
_cell_angle_beta 90.000000
_cell_angle_gamma 90.000000
_cell_volume 2591.504402
_symmetry_space_group_name_H-M "P M M A"
_symmetry_group_IT_number 51
_symmetry_cell_setting 'orthorhombic'
loop_
_space_group_symop_operation_xyz
x,y,z
1/2-x,-y,z
1/2+x,-y,-z
-x,y,-z
-x,-y,-z
1/2+x,y,-z
1/2-x,y,z
x,-y,z
loop_
_atom_site_type_symbol
_atom_site_label
_atom_site_fract_x
_atom_site_fract_y
_atom_site_fract_z
Si Si1 0.853549 0.332036 0.171582
Si Si2 0.750000 0.669337 0.567205
Si Si3 0.098297 0.333309 0.323136
Si Si4 0.750000 0.826537 0.420445
Si Si5 0.894499 0.331322 0.330032
Si Si6 0.150026 0.172761 0.182169
Si Si7 0.495025 0.826877 0.919870
O O1 0.750000 0.309009 0.155368
O O2 0.882616 0.500000 0.163763
O O3 0.876247 0.277253 0.250370
O O4 0.906804 0.237373 0.115279
O O5 0.750000 0.500000 0.543249
O O6 0.662380 0.707573 0.612326
O O7 0.750000 0.774682 0.500773
O O8 0.113860 0.500000 0.298903
O O9 0.118830 0.232615 0.256998
O O10 0.997699 0.308964 0.349621
O O11 0.661474 0.767306 0.383009
O O12 0.750000 0.000000 0.417420
O O13 0.864673 0.500000 0.338293
O O14 0.250000 0.227376 0.163837
O O15 0.083512 0.228648 0.120966
O O16 0.146991 0.000000 0.187842
O O17 0.486918 0.000000 0.917158
O O18 0.500000 0.769531 0.000000
#
# Coordination Sequence:
#
# PCOD8211810 Si02
#       7
#     8   4   8   4   8   8   8
#     4  10  20  36  60  87 114 148 191 241 294 342
#     4  10  22  40  60  86 119 150 187 236 287 344
#     4  10  20  36  63  90 111 146 194 237 283 342
#     4  12  26  40  58  86 119 156 193 234 285 344
#     4  10  20  38  62  87 116 151 190 240 291 340
#     4  10  20  34  55  83 116 153 191 237 290 340
#     4  10  22  38  56  83 119 158 196 236 285 342
#
# _framework density 18.52206
#
# number of rings (size 3 to 8) (size 9 to 14) (size 15 to 20)
#    0.000    1.833    3.333    0.750    0.000    4.000 
#    0.000    5.000    0.000    0.000    0.000    0.000 
#    0.000    0.000    0.000    0.000    0.000    0.000 
#
# Total GULP energy -595385.727531 kJ/mol
# GULP energy per Si atom -12403.869324 kJ/mol
# Density = 1.847990 g / cm^3
# Si number density = 18.522060 Si / 1000 Ang^3
#
#
#
# Elastic Constant Matrix: (Units=GPa)
#
#
# Indices 1 2 3 4 5 6 
#
# 1 132.5057 36.4027 68.0940 0.0000 0.0000 0.0000
# 2 36.4027 44.5882 43.9267 0.0000 0.0000 0.0000
# 3 68.0940 43.9267 136.9456 0.0000 0.0000 0.0000
# 4 0.0000 0.0000 0.0000 27.6610 0.0000 0.0000
# 5 0.0000 0.0000 0.0000 0.0000 29.2389 0.0000
# 6 0.0000 0.0000 0.0000 0.0000 0.0000 26.5096
#
#
#
# Elastic Compliance Matrix: (Units=1/GPa)
#
#
# Indices 1 2 3 4 5 6 
#
# 1 0.010906 -0.005207 -0.003753 0.000000 0.000000 0.000000
# 2 -0.005207 0.035275 -0.008726 0.000000 0.000000 0.000000
# 3 -0.003753 -0.008726 0.011967 0.000000 0.000000 0.000000
# 4 0.000000 0.000000 0.000000 0.036152 0.000000 0.000000
# 5 0.000000 0.000000 0.000000 0.000000 0.034201 0.000000
# 6 0.000000 0.000000 0.000000 0.000000 0.000000 0.037722
#
#
# Mechanical properties :
#
#
# Convention : Reuss Voigt Hill
#
# Bulk Modulus (GPa) = 43.90361 67.87627 55.88994
# Shear Modulus (GPa) = 23.90231 27.72298 25.81264
#
# Velocity S-wave (km/s) = 3.59622 3.87299 3.73717
# Velocity P-wave (km/s) = 6.40301 7.53165 6.99015
#
# Compressibility (1/GPa) = 0.02277717
#
# Stress axis : x y z
#
# Youngs Moduli (GPa) = 91.69529 28.34902 83.56361
#
# Poissons Ratio (x) = 0.14761 0.31358
# Poissons Ratio (y) = 0.47743 0.72915
# Poissons Ratio (z) = 0.34409 0.24737
#
# Static dielectric constant tensor:
#      x y z
#    x 3.957680 0.000000 0.000000 
#    y 0.000000 3.283200 0.000000 
#    z 0.000000 0.000000 3.381800 
# 
# 
# High freq. dielectric constant tensor:
#      x y z
#    x 1.737810 0.000000 0.000000 
#    y 0.000000 1.705980 0.000000 
#    z 0.000000 0.000000 1.715520 
# 
# From -- ./inp_files/29559.got.cif
#   From: 2010.03.12/outbox.cif.g09.slc.cpg/sg51_15_cif.got.tgz:29559.got - 2010.04.16 13:43:02.
