data_PCOD8211118
_publ_section_title
;
Structure prediction by ZEFSAII (Michael W. Deem and Ramdas Pophale) SiO2 
 PCOD8211118
Probable space group: P M M A
;
_chemical_formula_sum "Si O2"
_cell_formula_units_Z 64
_cell_length_a 23.200730
_cell_length_b 8.895380
_cell_length_c 17.179706
_cell_angle_alpha 90.000000
_cell_angle_beta 90.000000
_cell_angle_gamma 90.000000
_cell_volume 3545.535864
_symmetry_space_group_name_H-M "P M M A"
_symmetry_group_IT_number 51
_symmetry_cell_setting 'orthorhombic'
loop_
_space_group_symop_operation_xyz
x,y,z
1/2-x,-y,z
1/2+x,-y,-z
-x,y,-z
-x,-y,-z
1/2+x,y,-z
1/2-x,y,z
x,-y,z
loop_
_atom_site_type_symbol
_atom_site_label
_atom_site_fract_x
_atom_site_fract_y
_atom_site_fract_z
Si Si1 0.591261 0.163592 0.825589
Si Si2 0.001068 0.674495 0.910754
Si Si3 0.315379 0.674973 0.714288
Si Si4 0.387080 0.323743 0.415207
Si Si5 0.684570 0.825589 0.716704
Si Si6 0.815425 0.823358 0.451594
Si Si7 0.481902 0.834088 0.329455
Si Si8 0.578822 0.178860 0.216605
O O1 0.563125 0.291283 0.878851
O O2 0.657386 0.200524 0.803178
O O3 0.561577 0.154379 0.741881
O O4 0.585605 0.000000 0.867037
O O5 0.015157 0.500000 0.901048
O O6 0.048599 0.767453 0.863051
O O7 0.000000 0.725195 0.000000
O O8 0.250000 0.701015 0.743738
O O9 0.328995 0.500000 0.704347
O O10 0.325724 0.755822 0.632910
O O11 0.358229 0.746875 0.777977
O O12 0.388295 0.500000 0.428811
O O13 0.344036 0.282874 0.346049
O O14 0.363603 0.245916 0.492796
O O15 0.452783 0.270416 0.395630
O O16 0.750000 0.776691 0.724000
O O17 0.677636 0.000000 0.690300
O O18 0.750000 0.786897 0.480558
O O19 0.825471 0.000000 0.446881
O O20 0.541856 0.770384 0.293244
O O21 0.491842 0.000000 0.365499
O O22 0.583416 0.000000 0.212904
#
# Coordination Sequence:
#
# PCOD8211118 Si02
#       8
#     8   8   8   8   8   8   8   8
#     4   8  15  28  46  68  94 125 162 201 239 283
#     4  10  20  33  52  79 107 132 159 195 243 295
#     4  10  21  37  57  80 105 132 164 207 257 305
#     4  11  20  28  43  69  99 130 168 215 260 300
#     4   9  17  29  44  63  91 129 168 202 240 289
#     4  10  20  34  51  69  94 132 175 218 262 305
#     4   8  16  31  48  68  96 130 166 203 247 296
#     4  10  20  35  57  81 104 133 169 207 246 296
#
# _framework density 18.050868000000001
#
# number of rings (size 3 to 8) (size 9 to 14) (size 15 to 20)
#    0.000    2.500    0.000    4.500    0.000    9.250 
#    0.000    0.625    0.000    4.500    0.000    3.500 
#    0.000    0.000    0.000    0.000    0.000    0.000 
#
# Total GULP energy -793269.888887 kJ/mol
# GULP energy per Si atom -12394.842014 kJ/mol
# Density = 1.800978 g / cm^3
# Si number density = 18.050868 Si / 1000 Ang^3
#
#
#
# Elastic Constant Matrix: (Units=GPa)
#
#
# Indices 1 2 3 4 5 6 
#
# 1 88.1580 42.4780 34.5515 0.0000 0.0000 0.0000
# 2 42.4780 99.3152 44.6838 0.0000 0.0000 0.0000
# 3 34.5515 44.6838 66.5738 0.0000 0.0000 0.0000
# 4 0.0000 0.0000 0.0000 49.6179 0.0000 0.0000
# 5 0.0000 0.0000 0.0000 0.0000 17.9769 0.0000
# 6 0.0000 0.0000 0.0000 0.0000 0.0000 23.1353
#
#
#
# Elastic Compliance Matrix: (Units=1/GPa)
#
#
# Indices 1 2 3 4 5 6 
#
# 1 0.015418 -0.004290 -0.005123 0.000000 0.000000 0.000000
# 2 -0.004290 0.015619 -0.008257 0.000000 0.000000 0.000000
# 3 -0.005123 -0.008257 0.023221 0.000000 0.000000 0.000000
# 4 0.000000 0.000000 0.000000 0.020154 0.000000 0.000000
# 5 0.000000 0.000000 0.000000 0.000000 0.055627 0.000000
# 6 0.000000 0.000000 0.000000 0.000000 0.000000 0.043224
#
#
# Mechanical properties :
#
#
# Convention : Reuss Voigt Hill
#
# Bulk Modulus (GPa) = 52.85463 55.27485 54.06474
# Shear Modulus (GPa) = 23.26583 26.96827 25.11705
#
# Velocity S-wave (km/s) = 3.59403 3.86944 3.73427
# Velocity P-wave (km/s) = 6.82402 7.11700 6.97205
#
# Compressibility (1/GPa) = 0.01891982
#
# Stress axis : x y z
#
# Youngs Moduli (GPa) = 64.85979 64.02658 43.06360
#
# Poissons Ratio (x) = 0.27465 0.22060
# Poissons Ratio (y) = 0.27822 0.35557
# Poissons Ratio (z) = 0.33226 0.52865
#
# Static dielectric constant tensor:
#      x y z
#    x 3.706050 0.000000 0.000000 
#    y 0.000000 3.334960 0.000000 
#    z 0.000000 0.000000 3.061550 
# 
# 
# High freq. dielectric constant tensor:
#      x y z
#    x 1.699790 0.000000 0.000000 
#    y 0.000000 1.703020 0.000000 
#    z 0.000000 0.000000 1.662750 
# 
# From -- ./inp_files/30962.got.cif
#   From: 2010.03.12/outbox.cif.g09.slc.cpg/sg51_16_cif.got.tgz:30962.got - 2010.04.16 13:43:02.
