data_PCOD8211282
_publ_section_title
;
Structure prediction by ZEFSAII (Michael W. Deem and Ramdas Pophale) SiO2 
 PCOD8211282
Probable space group: P M M A
;
_chemical_formula_sum "Si O2"
_cell_formula_units_Z 48
_cell_length_a 14.793018
_cell_length_b 9.379810
_cell_length_c 18.899966
_cell_angle_alpha 90.000000
_cell_angle_beta 90.000000
_cell_angle_gamma 90.000000
_cell_volume 2622.477978
_symmetry_space_group_name_H-M "P M M A"
_symmetry_group_IT_number 51
_symmetry_cell_setting 'orthorhombic'
loop_
_space_group_symop_operation_xyz
x,y,z
1/2-x,-y,z
1/2+x,-y,-z
-x,y,-z
-x,-y,-z
1/2+x,y,-z
1/2-x,y,z
x,-y,z
loop_
_atom_site_type_symbol
_atom_site_label
_atom_site_fract_x
_atom_site_fract_y
_atom_site_fract_z
Si Si1 0.904963 0.843524 0.038965
Si Si2 0.061069 0.666030 0.681877
Si Si3 0.250000 0.163168 0.476804
Si Si4 0.651194 0.835142 0.892116
Si Si5 0.051525 0.165463 0.428975
Si Si6 0.250000 0.332128 0.619595
Si Si7 0.982485 0.333341 0.157551
O O1 0.908372 0.732619 0.103779
O O2 0.878277 0.000000 0.068951
O O3 0.838304 0.795136 0.975783
O O4 0.000000 0.850714 0.000000
O O5 0.047702 0.500000 0.665614
O O6 0.161232 0.718814 0.661450
O O7 0.050295 0.700426 0.764034
O O8 0.985482 0.749030 0.637847
O O9 0.159268 0.194483 0.432076
O O10 0.250000 0.264410 0.543233
O O11 0.250000 0.000000 0.503335
O O12 0.750000 0.812346 0.857458
O O13 0.580920 0.735705 0.851609
O O14 0.619562 0.000000 0.884956
O O15 0.000000 0.218066 0.500000
O O16 0.030414 0.000000 0.416649
O O17 0.250000 0.500000 0.609575
O O18 0.989770 0.500000 0.141791
#
# Coordination Sequence:
#
# PCOD8211282 Si02
#       7
#     8   8   4   8   8   4   8
#     4   8  15  30  52  74  97 130 169 210 255 305
#     4  10  22  38  55  78 109 144 180 217 263 319
#     4  10  20  36  56  84 112 133 170 223 274 315
#     4   9  18  34  55  77 102 136 178 220 262 312
#     4  10  20  35  58  83 109 139 174 221 268 314
#     4  10  20  36  58  78 102 141 180 215 262 321
#     4  10  20  34  51  75 108 141 173 214 263 312
#
# _framework density 18.303298999999999
#
# number of rings (size 3 to 8) (size 9 to 14) (size 15 to 20)
#    0.000    2.500    1.667    1.500    0.000    5.667 
#    3.000    0.000    0.000    0.000    0.000    0.000 
#    0.000    0.000    0.000    0.000    0.000    0.000 
#
# Total GULP energy -595019.112931 kJ/mol
# GULP energy per Si atom -12396.231519 kJ/mol
# Density = 1.826164 g / cm^3
# Si number density = 18.303299 Si / 1000 Ang^3
#
#
#
# Elastic Constant Matrix: (Units=GPa)
#
#
# Indices 1 2 3 4 5 6 
#
# 1 105.4645 31.1971 33.7903 0.0000 0.0000 0.0000
# 2 31.1971 60.5079 44.0757 0.0000 0.0000 0.0000
# 3 33.7903 44.0757 85.2079 0.0000 0.0000 0.0000
# 4 0.0000 0.0000 0.0000 22.7625 0.0000 0.0000
# 5 0.0000 0.0000 0.0000 0.0000 15.4102 0.0000
# 6 0.0000 0.0000 0.0000 0.0000 0.0000 20.7542
#
#
#
# Elastic Compliance Matrix: (Units=1/GPa)
#
#
# Indices 1 2 3 4 5 6 
#
# 1 0.011484 -0.004178 -0.002393 0.000000 0.000000 0.000000
# 2 -0.004178 0.028039 -0.012847 0.000000 0.000000 0.000000
# 3 -0.002393 -0.012847 0.019330 0.000000 0.000000 0.000000
# 4 0.000000 0.000000 0.000000 0.043932 0.000000 0.000000
# 5 0.000000 0.000000 0.000000 0.000000 0.064892 0.000000
# 6 0.000000 0.000000 0.000000 0.000000 0.000000 0.048183
#
#
# Mechanical properties :
#
#
# Convention : Reuss Voigt Hill
#
# Bulk Modulus (GPa) = 49.95589 52.14516 51.05052
# Shear Modulus (GPa) = 19.13001 21.25987 20.19494
#
# Velocity S-wave (km/s) = 3.23641 3.41182 3.32527
# Velocity P-wave (km/s) = 6.42794 6.63868 6.53416
#
# Compressibility (1/GPa) = 0.02001766
#
# Stress axis : x y z
#
# Youngs Moduli (GPa) = 87.07389 35.66466 51.73201
#
# Poissons Ratio (x) = 0.14901 0.12380
# Poissons Ratio (y) = 0.36380 0.66460
# Poissons Ratio (z) = 0.20838 0.45818
#
# Static dielectric constant tensor:
#      x y z
#    x 5.436860 0.000000 0.000000 
#    y 0.000000 3.323740 0.000000 
#    z 0.000000 0.000000 3.331980 
# 
# 
# High freq. dielectric constant tensor:
#      x y z
#    x 1.713800 0.000000 0.000000 
#    y 0.000000 1.704060 0.000000 
#    z 0.000000 0.000000 1.696270 
# 
# From -- ./inp_files/29662.got.cif
#   From: 2010.03.12/outbox.cif.g09.slc.cpg/sg51_15_cif.got.tgz:29662.got - 2010.04.16 13:43:02.
