data_PCOD8211983
_publ_section_title
;
Structure prediction by ZEFSAII (Michael W. Deem and Ramdas Pophale) SiO2 
 PCOD8211983
Probable space group: P M M A
;
_chemical_formula_sum "Si O2"
_cell_formula_units_Z 40
_cell_length_a 25.086394
_cell_length_b 8.912127
_cell_length_c 9.752570
_cell_angle_alpha 90.000000
_cell_angle_beta 90.000000
_cell_angle_gamma 90.000000
_cell_volume 2180.412594
_symmetry_space_group_name_H-M "P M M A"
_symmetry_group_IT_number 51
_symmetry_cell_setting 'orthorhombic'
loop_
_space_group_symop_operation_xyz
x,y,z
1/2-x,-y,z
1/2+x,-y,-z
-x,y,-z
-x,-y,-z
1/2+x,y,-z
1/2-x,y,z
x,-y,z
loop_
_atom_site_type_symbol
_atom_site_label
_atom_site_fract_x
_atom_site_fract_y
_atom_site_fract_z
Si Si1 0.041714 0.826141 0.113334
Si Si2 0.750000 0.679227 0.087990
Si Si3 0.458478 0.323366 0.392620
Si Si4 0.750000 0.677250 0.400158
Si Si5 0.163834 0.176078 0.101839
Si Si6 0.161611 0.677570 0.389646
O O1 0.024699 0.733619 0.244941
O O2 0.102086 0.789597 0.067819
O O3 0.035635 0.000000 0.148534
O O4 0.000000 0.773323 0.000000
O O5 0.750000 0.500000 0.081484
O O6 0.750000 0.740184 0.245172
O O7 0.697353 0.741408 0.014987
O O8 0.500000 0.251755 0.500000
O O9 0.463386 0.500000 0.392977
O O10 0.398327 0.273748 0.429208
O O11 0.750000 0.500000 0.391772
O O12 0.801951 0.732156 0.484025
O O13 0.179865 0.240183 0.250657
O O14 0.176672 0.000000 0.099857
O O15 0.166799 0.500000 0.363626
#
# Coordination Sequence:
#
# PCOD8211983 Si02
#       6
#     8   4   8   4   8   8
#     4   9  19  35  53  74 102 136 172 209 251 300
#     4  11  22  35  52  76 104 133 166 205 254 306
#     4   9  18  31  49  75 103 130 164 208 253 296
#     4   9  19  33  50  72  96 125 162 203 246 296
#     4  10  20  35  54  76 102 133 171 211 250 298
#     4   9  17  33  54  73  97 131 169 207 250 299
#
# _framework density 18.345151999999999
#
# number of rings (size 3 to 8) (size 9 to 14) (size 15 to 20)
#    0.000    2.600    0.000    1.500    0.000    4.000 
#    0.000    4.000    0.000    0.000    0.000    0.000 
#    0.000    0.000    0.000    0.000    0.000    0.000 
#
# Total GULP energy -495985.281698 kJ/mol
# GULP energy per Si atom -12399.632042 kJ/mol
# Density = 1.830340 g / cm^3
# Si number density = 18.345152 Si / 1000 Ang^3
#
#
#
# Elastic Constant Matrix: (Units=GPa)
#
#
# Indices 1 2 3 4 5 6 
#
# 1 121.0480 20.2439 93.1137 0.0000 0.0000 0.0000
# 2 20.2439 21.0330 23.4738 0.0000 0.0000 0.0000
# 3 93.1137 23.4738 150.0278 0.0000 0.0000 0.0000
# 4 0.0000 0.0000 0.0000 -38.7644 0.0000 0.0000
# 5 0.0000 0.0000 0.0000 0.0000 39.5738 0.0000
# 6 0.0000 0.0000 0.0000 0.0000 0.0000 23.6454
#
#
#
# Elastic Compliance Matrix: (Units=1/GPa)
#
#
# Indices 1 2 3 4 5 6 
#
# 1 0.016286 -0.005324 -0.009275 0.000000 0.000000 0.000000
# 2 -0.005324 0.059343 -0.005981 0.000000 0.000000 0.000000
# 3 -0.009275 -0.005981 0.013358 0.000000 0.000000 0.000000
# 4 0.000000 0.000000 0.000000 -0.025797 0.000000 0.000000
# 5 0.000000 0.000000 0.000000 0.000000 0.025269 0.000000
# 6 0.000000 0.000000 0.000000 0.000000 0.000000 0.042292
#
#
# Mechanical properties :
#
#
# Convention : Reuss Voigt Hill
#
# Bulk Modulus (GPa) = 20.90827 62.86353 41.88590
# Shear Modulus (GPa) = 26.61660 15.24277 20.92969
#
# Velocity S-wave (km/s) = 3.81317 2.88564 3.38136
# Velocity P-wave (km/s) = 5.55058 6.74122 6.17467
#
# Compressibility (1/GPa) = 0.04782798
#
# Stress axis : x y z
#
# Youngs Moduli (GPa) = 61.40251 16.85105 74.86411
#
# Poissons Ratio (x) = 0.08971 0.69435
# Poissons Ratio (y) = 0.32690 0.44775
# Poissons Ratio (z) = 0.56949 0.10078
#
# Static dielectric constant tensor:
#      x y z
#    x 3.648770 0.000000 0.000000 
#    y 0.000000 3.237790 0.000000 
#    z 0.000000 0.000000 3.495330 
# 
# 
# High freq. dielectric constant tensor:
#      x y z
#    x 1.723850 0.000000 0.000000 
#    y 0.000000 1.698650 0.000000 
#    z 0.000000 0.000000 1.708350 
# 
# From -- ./inp_files/12178.got.cif
#   From: 2010.03.12/outbox.cif.g09.slc.cpg/sg51_7_cif.got.tgz:12178.got - 2010.04.16 13:43:02.
