data_PCOD8211503
_publ_section_title
;
Structure prediction by ZEFSAII (Michael W. Deem and Ramdas Pophale) SiO2 
 PCOD8211503
Probable space group: P M M A
;
_chemical_formula_sum "Si O2"
_cell_formula_units_Z 52
_cell_length_a 8.681188
_cell_length_b 12.127119
_cell_length_c 27.619645
_cell_angle_alpha 90.000000
_cell_angle_beta 90.000000
_cell_angle_gamma 90.000000
_cell_volume 2907.735461
_symmetry_space_group_name_H-M "P M M A"
_symmetry_group_IT_number 51
_symmetry_cell_setting 'orthorhombic'
loop_
_space_group_symop_operation_xyz
x,y,z
1/2-x,-y,z
1/2+x,-y,-z
-x,y,-z
-x,-y,-z
1/2+x,y,-z
1/2-x,y,z
x,-y,z
loop_
_atom_site_type_symbol
_atom_site_label
_atom_site_fract_x
_atom_site_fract_y
_atom_site_fract_z
Si Si1 0.067922 0.676923 0.129482
Si Si2 0.572541 0.500000 0.703869
Si Si3 0.927712 0.871139 0.719717
Si Si4 0.430622 0.873693 0.822188
Si Si5 0.929149 0.624250 0.451138
Si Si6 0.568502 0.500000 0.947177
Si Si7 0.570521 0.500000 0.195540
Si Si8 0.429846 0.299315 0.651665
O O1 0.250000 0.689674 0.130540
O O2 0.014085 0.610505 0.081292
O O3 0.991406 0.798107 0.133315
O O4 0.011348 0.608895 0.175618
O O5 0.750000 0.500000 0.721158
O O6 0.452875 0.500000 0.747654
O O7 0.539287 0.392348 0.673027
O O8 0.750000 0.836127 0.716041
O O9 0.988539 0.835363 0.772532
O O10 0.025953 0.815214 0.677071
O O11 0.952073 0.000000 0.712352
O O12 0.250000 0.857332 0.815523
O O13 0.472430 0.000000 0.834943
O O14 0.750000 0.616905 0.459734
O O15 0.994061 0.500000 0.441552
O O16 0.966771 0.704072 0.405749
O O17 0.000000 0.675909 0.500000
O O18 0.750000 0.500000 0.951037
O O19 0.500000 0.500000 0.000000
O O20 0.750000 0.500000 0.181991
O O21 0.250000 0.326688 0.660452
#
# Coordination Sequence:
#
# PCOD8211503 Si02
#       8
#     8   4   8   8   8   4   4   8
#     4  10  20  35  53  77 107 138 175 215 260 308
#     4  12  23  33  47  71 103 137 168 202 252 306
#     4  10  21  36  53  75 104 139 177 214 253 301
#     4  10  20  34  53  78 106 139 179 217 255 302
#     4   9  18  33  51  72  98 126 159 201 252 307
#     4   9  20  36  56  81 108 139 174 217 263 312
#     4  11  21  33  49  70 101 138 172 209 254 302
#     4  11  21  35  52  73 102 131 165 208 254 306
#
# _framework density 17.883333
#
# number of rings (size 3 to 8) (size 9 to 14) (size 15 to 20)
#    0.000    1.846    0.769    4.615    0.000    4.923 
#    0.000    0.000    0.000    0.923    0.000    0.000 
#    0.000    0.000    0.000    0.000    0.000    0.000 
#
# Total GULP energy -644786.961421 kJ/mol
# GULP energy per Si atom -12399.749258 kJ/mol
# Density = 1.784263 g / cm^3
# Si number density = 17.883333 Si / 1000 Ang^3
#
#
#
# Elastic Constant Matrix: (Units=GPa)
#
#
# Indices 1 2 3 4 5 6 
#
# 1 62.0287 33.5419 35.2911 0.0000 0.0000 0.0000
# 2 33.5419 92.3387 56.7694 0.0000 0.0000 0.0000
# 3 35.2911 56.7694 126.4323 0.0000 0.0000 0.0000
# 4 0.0000 0.0000 0.0000 35.1279 0.0000 0.0000
# 5 0.0000 0.0000 0.0000 0.0000 31.2547 0.0000
# 6 0.0000 0.0000 0.0000 0.0000 0.0000 44.4207
#
#
#
# Elastic Compliance Matrix: (Units=1/GPa)
#
#
# Indices 1 2 3 4 5 6 
#
# 1 0.021055 -0.005574 -0.003375 0.000000 0.000000 0.000000
# 2 -0.005574 0.016435 -0.005824 0.000000 0.000000 0.000000
# 3 -0.003375 -0.005824 0.011466 0.000000 0.000000 0.000000
# 4 0.000000 0.000000 0.000000 0.028467 0.000000 0.000000
# 5 0.000000 0.000000 0.000000 0.000000 0.031995 0.000000
# 6 0.000000 0.000000 0.000000 0.000000 0.000000 0.022512
#
#
# Mechanical properties :
#
#
# Convention : Reuss Voigt Hill
#
# Bulk Modulus (GPa) = 51.51282 59.11159 55.31221
# Shear Modulus (GPa) = 29.77161 32.50716 31.13938
#
# Velocity S-wave (km/s) = 4.08458 4.26812 4.17736
# Velocity P-wave (km/s) = 7.14931 7.57726 7.36639
#
# Compressibility (1/GPa) = 0.01941264
#
# Stress axis : x y z
#
# Youngs Moduli (GPa) = 47.49358 60.84722 87.21332
#
# Poissons Ratio (x) = 0.33914 0.29431
# Poissons Ratio (y) = 0.26471 0.50789
# Poissons Ratio (z) = 0.16027 0.35434
#
# Static dielectric constant tensor:
#      x y z
#    x 3.334270 0.000000 0.000000 
#    y 0.000000 3.237650 0.000000 
#    z 0.000000 0.000000 28.354180 
# 
# 
# High freq. dielectric constant tensor:
#      x y z
#    x 1.703820 0.000000 0.000000 
#    y 0.000000 1.679740 0.000000 
#    z 0.000000 0.000000 1.676230 
# 
# From -- ./inp_files/37386.got.cif
#   From: 2010.03.12/outbox.cif.g09.slc.cpg/sg51_19_cif.got.tgz:37386.got - 2010.04.16 13:43:02.
