data_PCOD8211455
_publ_section_title
;
Structure prediction by ZEFSAII (Michael W. Deem and Ramdas Pophale) SiO2 
 PCOD8211455
Probable space group: P M M A
;
_chemical_formula_sum "Si O2"
_cell_formula_units_Z 64
_cell_length_a 18.017764
_cell_length_b 8.856418
_cell_length_c 20.816688
_cell_angle_alpha 90.000000
_cell_angle_beta 90.000000
_cell_angle_gamma 90.000000
_cell_volume 3321.778219
_symmetry_space_group_name_H-M "P M M A"
_symmetry_group_IT_number 51
_symmetry_cell_setting 'orthorhombic'
loop_
_space_group_symop_operation_xyz
x,y,z
1/2-x,-y,z
1/2+x,-y,-z
-x,y,-z
-x,-y,-z
1/2+x,y,-z
1/2-x,y,z
x,-y,z
loop_
_atom_site_type_symbol
_atom_site_label
_atom_site_fract_x
_atom_site_fract_y
_atom_site_fract_z
Si Si1 0.666307 0.320000 0.501786
Si Si2 0.081169 0.321729 0.116991
Si Si3 0.333374 0.679518 0.747163
Si Si4 0.333956 0.320187 0.242978
Si Si5 0.665053 0.822001 0.001057
Si Si6 0.913506 0.319893 0.629328
Si Si7 0.590086 0.678071 0.122541
Si Si8 0.081003 0.680169 0.623067
O O1 0.750000 0.258325 0.496656
O O2 0.665934 0.500000 0.501743
O O3 0.630134 0.258145 0.567299
O O4 0.619431 0.257929 0.441554
O O5 0.090627 0.500000 0.110582
O O6 0.121756 0.260814 0.180877
O O7 0.116552 0.246264 0.055383
O O8 0.995563 0.274441 0.119863
O O9 0.250000 0.744683 0.749549
O O10 0.331707 0.500000 0.744291
O O11 0.378086 0.733845 0.809485
O O12 0.374127 0.743814 0.684132
O O13 0.250000 0.258137 0.240193
O O14 0.334363 0.500000 0.244402
O O15 0.373671 0.256702 0.306816
O O16 0.750000 0.771028 0.991853
O O17 0.656639 0.000000 0.999921
O O18 0.636150 0.761771 0.068423
O O19 0.913257 0.500000 0.629968
O O20 0.997283 0.257974 0.626655
O O21 0.600125 0.500000 0.113068
O O22 0.081122 0.500000 0.623252
#
# Coordination Sequence:
#
# PCOD8211455 Si02
#       8
#     8   8   8   8   8   8   8   8
#     4   9  15  21  29  43  67 103 146 187 228 277
#     4  10  20  34  53  76  99 125 160 200 241 287
#     4   9  16  26  41  61  85 114 149 190 234 278
#     4   9  16  26  41  61  85 114 149 190 234 278
#     4  11  24  39  54  74 100 129 160 195 238 288
#     4   9  15  22  32  48  73 106 145 188 231 275
#     4  10  20  34  53  76  99 125 160 200 241 287
#     4   9  15  22  32  48  73 106 145 188 231 275
#
# _framework density 19.266787999999998
#
# number of rings (size 3 to 8) (size 9 to 14) (size 15 to 20)
#    0.000    2.500    0.000    3.375    0.000   11.500 
#    0.000    0.000    0.000    0.000    0.000    0.000 
#    0.000    0.000    0.000    1.125    0.000   22.000 
#
# Total GULP energy -793644.509034 kJ/mol
# GULP energy per Si atom -12400.695454 kJ/mol
# Density = 1.922294 g / cm^3
# Si number density = 19.266788 Si / 1000 Ang^3
#
#
#
# Elastic Constant Matrix: (Units=GPa)
#
#
# Indices 1 2 3 4 5 6 
#
# 1 108.4699 9.7969 13.4473 0.0000 0.0000 0.0000
# 2 9.7969 7.9411 5.1786 0.0000 0.0000 0.0000
# 3 13.4473 5.1786 105.3023 0.0000 0.0000 0.0000
# 4 0.0000 0.0000 0.0000 -4.3002 0.0000 0.0000
# 5 0.0000 0.0000 0.0000 0.0000 49.0317 0.0000
# 6 0.0000 0.0000 0.0000 0.0000 0.0000 10.2756
#
#
#
# Elastic Compliance Matrix: (Units=1/GPa)
#
#
# Indices 1 2 3 4 5 6 
#
# 1 0.010428 -0.012394 -0.000722 0.000000 0.000000 0.000000
# 2 -0.012394 0.144830 -0.005540 0.000000 0.000000 0.000000
# 3 -0.000722 -0.005540 0.009861 0.000000 0.000000 0.000000
# 4 0.000000 0.000000 0.000000 -0.232549 0.000000 0.000000
# 5 0.000000 0.000000 0.000000 0.000000 0.020395 0.000000
# 6 0.000000 0.000000 0.000000 0.000000 0.000000 0.097318
#
#
# Mechanical properties :
#
#
# Convention : Reuss Voigt Hill
#
# Bulk Modulus (GPa) = 7.82429 30.95099 19.38764
# Shear Modulus (GPa) = 38.40331 23.88746 31.14539
#
# Velocity S-wave (km/s) = 4.46941 3.52494 4.02497
# Velocity P-wave (km/s) = 5.54112 5.71543 5.62895
#
# Compressibility (1/GPa) = 0.12780715
#
# Stress axis : x y z
#
# Youngs Moduli (GPa) = 95.89486 6.90465 101.40826
#
# Poissons Ratio (x) = 0.08558 0.07323
# Poissons Ratio (y) = 1.18853 0.56178
# Poissons Ratio (z) = 0.06925 0.03825
#
# Static dielectric constant tensor:
#      x y z
#    x 3.808000 0.000000 0.000000 
#    y 0.000000 2.750010 0.000000 
#    z 0.000000 0.000000 3.769190 
# 
# 
# High freq. dielectric constant tensor:
#      x y z
#    x 1.772340 0.000000 0.000000 
#    y 0.000000 1.666630 0.000000 
#    z 0.000000 0.000000 1.771820 
# 
# From -- ./inp_files/30660.got.cif
#   From: 2010.03.12/outbox.cif.g09.slc.cpg/sg51_16_cif.got.tgz:30660.got - 2010.04.16 13:43:02.
