data_PCOD8211210
_publ_section_title
;
Structure prediction by ZEFSAII (Michael W. Deem and Ramdas Pophale) SiO2 
 PCOD8211210
Probable space group: P M M A
;
_chemical_formula_sum "Si O2"
_cell_formula_units_Z 56
_cell_length_a 9.260000
_cell_length_b 20.208769
_cell_length_c 15.410133
_cell_angle_alpha 90.000000
_cell_angle_beta 90.000000
_cell_angle_gamma 90.000000
_cell_volume 2883.747515
_symmetry_space_group_name_H-M "P M M A"
_symmetry_group_IT_number 51
_symmetry_cell_setting 'orthorhombic'
loop_
_space_group_symop_operation_xyz
x,y,z
1/2-x,-y,z
1/2+x,-y,-z
-x,y,-z
-x,-y,-z
1/2+x,y,-z
1/2-x,y,z
x,-y,z
loop_
_atom_site_type_symbol
_atom_site_label
_atom_site_fract_x
_atom_site_fract_y
_atom_site_fract_z
Si Si1 0.420062 0.574974 0.409449
Si Si2 0.584264 0.793403 0.916582
Si Si3 0.250000 0.427936 0.155659
Si Si4 0.089474 0.689022 0.685247
Si Si5 0.750000 0.427509 0.047595
Si Si6 0.581993 0.924725 0.585147
Si Si7 0.487271 0.654672 0.864548
Si Si8 0.419558 0.184492 0.278367
O O1 0.500000 0.582222 0.500000
O O2 0.250000 0.591810 0.418218
O O3 0.440613 0.500000 0.373808
O O4 0.497753 0.627160 0.347700
O O5 0.750000 0.810547 0.933032
O O6 0.562153 0.714373 0.916423
O O7 0.532917 0.823145 0.823120
O O8 0.500000 0.823887 0.000000
O O9 0.250000 0.500000 0.201482
O O10 0.391142 0.388470 0.184496
O O11 0.250000 0.436643 0.053593
O O12 0.250000 0.692346 0.642460
O O13 0.114220 0.681529 0.788367
O O14 0.002980 0.757273 0.670596
O O15 0.750000 0.500000 0.092935
O O16 0.895006 0.388966 0.070051
O O17 0.500000 0.897755 0.500000
O O18 0.750000 0.919057 0.563867
O O19 0.542245 0.882668 0.670663
O O20 0.535461 0.000000 0.605407
O O21 0.250000 0.201701 0.281413
#
# Coordination Sequence:
#
# PCOD8211210 Si02
#       8
#     8   8   4   8   4   8   8   8
#     4  10  22  40  61  81 102 133 176 226 282 345
#     4  10  20  33  54  76 101 141 187 234 284 332
#     4  11  22  34  50  68  93 129 172 223 279 341
#     4  11  23  38  55  78 108 142 180 228 280 328
#     4  11  22  36  48  66  95 129 170 221 279 339
#     4   9  18  35  61  92 124 157 188 218 262 323
#     4  11  22  36  50  72  99 132 176 225 280 339
#     4   9  20  37  56  82 117 150 188 234 277 331
#
# _framework density 19.419174999999999
#
# number of rings (size 3 to 8) (size 9 to 14) (size 15 to 20)
#    0.000    1.857    1.429    2.571    3.000    4.857 
#    0.000    1.429    0.000    0.429    0.000    0.000 
#    0.000    0.000    0.000    0.000    0.000    0.000 
#
# Total GULP energy -694165.296853 kJ/mol
# GULP energy per Si atom -12395.808872 kJ/mol
# Density = 1.937498 g / cm^3
# Si number density = 19.419175 Si / 1000 Ang^3
#
#
#
# Elastic Constant Matrix: (Units=GPa)
#
#
# Indices 1 2 3 4 5 6 
#
# 1 105.6152 37.7537 40.4332 0.0000 0.0000 0.0000
# 2 37.7537 87.8496 55.0229 0.0000 0.0000 0.0000
# 3 40.4332 55.0229 99.9141 0.0000 0.0000 0.0000
# 4 0.0000 0.0000 0.0000 21.4504 0.0000 0.0000
# 5 0.0000 0.0000 0.0000 0.0000 32.7235 0.0000
# 6 0.0000 0.0000 0.0000 0.0000 0.0000 21.9455
#
#
#
# Elastic Compliance Matrix: (Units=1/GPa)
#
#
# Indices 1 2 3 4 5 6 
#
# 1 0.011753 -0.003163 -0.003014 0.000000 0.000000 0.000000
# 2 -0.003163 0.018228 -0.008758 0.000000 0.000000 0.000000
# 3 -0.003014 -0.008758 0.016052 0.000000 0.000000 0.000000
# 4 0.000000 0.000000 0.000000 0.046619 0.000000 0.000000
# 5 0.000000 0.000000 0.000000 0.000000 0.030559 0.000000
# 6 0.000000 0.000000 0.000000 0.000000 0.000000 0.045567
#
#
# Mechanical properties :
#
#
# Convention : Reuss Voigt Hill
#
# Bulk Modulus (GPa) = 61.87519 62.19982 62.03751
# Shear Modulus (GPa) = 24.50546 25.90183 25.20365
#
# Velocity S-wave (km/s) = 3.55621 3.65612 3.60651
# Velocity P-wave (km/s) = 6.98529 7.06559 7.02556
#
# Compressibility (1/GPa) = 0.01616157
#
# Stress axis : x y z
#
# Youngs Moduli (GPa) = 85.08493 54.86100 62.29906
#
# Poissons Ratio (x) = 0.17352 0.18779
# Poissons Ratio (y) = 0.26911 0.54563
# Poissons Ratio (z) = 0.25648 0.48048
#
# Static dielectric constant tensor:
#      x y z
#    x 3.636640 0.000000 0.000000 
#    y 0.000000 3.467890 0.000000 
#    z 0.000000 0.000000 3.536810 
# 
# 
# High freq. dielectric constant tensor:
#      x y z
#    x 1.763500 0.000000 0.000000 
#    y 0.000000 1.727430 0.000000 
#    z 0.000000 0.000000 1.755940 
# 
# From -- ./inp_files/21890.got.cif
#   From: 2010.03.12/outbox.cif.g09.slc.cpg/sg51_11_cif.got.tgz:21890.got - 2010.04.16 13:43:02.
