data_PCOD8211793
_publ_section_title
;
Structure prediction by ZEFSAII (Michael W. Deem and Ramdas Pophale) SiO2 
 PCOD8211793
Probable space group: P M M A
;
_chemical_formula_sum "Si O2"
_cell_formula_units_Z 48
_cell_length_a 8.981289
_cell_length_b 9.206909
_cell_length_c 30.798545
_cell_angle_alpha 90.000000
_cell_angle_beta 90.000000
_cell_angle_gamma 90.000000
_cell_volume 2546.728930
_symmetry_space_group_name_H-M "P M M A"
_symmetry_group_IT_number 51
_symmetry_cell_setting 'orthorhombic'
loop_
_space_group_symop_operation_xyz
x,y,z
1/2-x,-y,z
1/2+x,-y,-z
-x,y,-z
-x,-y,-z
1/2+x,y,-z
1/2-x,y,z
x,-y,z
loop_
_atom_site_type_symbol
_atom_site_label
_atom_site_fract_x
_atom_site_fract_y
_atom_site_fract_z
Si Si1 0.575402 0.330932 0.701385
Si Si2 0.426455 0.160574 0.215140
Si Si3 0.076510 0.830095 0.622855
Si Si4 0.075941 0.666220 0.956583
Si Si5 0.924386 0.666885 0.545175
Si Si6 0.081631 0.828324 0.119167
O O1 0.750000 0.300382 0.693858
O O2 0.538711 0.500000 0.698524
O O3 0.520861 0.273674 0.748302
O O4 0.481838 0.247900 0.665592
O O5 0.250000 0.149395 0.214126
O O6 0.477954 0.213781 0.167405
O O7 0.491971 0.000000 0.225616
O O8 0.250000 0.796305 0.616946
O O9 0.989520 0.770896 0.581512
O O10 0.044252 0.000000 0.627344
O O11 0.250000 0.683544 0.962863
O O12 0.027413 0.500000 0.949399
O O13 0.027156 0.756127 0.915000
O O14 0.000000 0.729402 0.000000
O O15 0.750000 0.695079 0.540773
O O16 0.958357 0.500000 0.557762
O O17 0.000000 0.708883 0.500000
O O18 0.250000 0.771188 0.112022
O O19 0.076404 0.000000 0.113318
#
# Coordination Sequence:
#
# PCOD8211793 Si02
#       6
#     8   8   8   8   8   8
#     4  10  20  34  55  83 110 138 177 222 267 316
#     4   8  15  30  52  77 106 139 174 213 258 310
#     4  11  24  39  55  78 109 146 186 225 267 315
#     4  10  21  36  53  74 101 135 175 217 262 312
#     4  10  21  38  61  87 113 143 179 219 266 319
#     4   9  18  33  54  80 107 136 172 213 259 313
#
# _framework density 18.847705999999999
#
# number of rings (size 3 to 8) (size 9 to 14) (size 15 to 20)
#    0.000    2.333    0.000    3.500    0.000    8.000 
#    0.000    2.500    0.000    1.000    0.000    0.000 
#    0.000    0.000    0.000    0.000    0.000    0.000 
#
# Total GULP energy -595254.658562 kJ/mol
# GULP energy per Si atom -12401.138720 kJ/mol
# Density = 1.880481 g / cm^3
# Si number density = 18.847706 Si / 1000 Ang^3
#
#
#
# Elastic Constant Matrix: (Units=GPa)
#
#
# Indices 1 2 3 4 5 6 
#
# 1 68.2754 40.4554 54.5720 0.0000 0.0000 0.0000
# 2 40.4554 80.7443 68.7604 0.0000 0.0000 0.0000
# 3 54.5720 68.7604 158.7315 0.0000 0.0000 0.0000
# 4 0.0000 0.0000 0.0000 38.4746 0.0000 0.0000
# 5 0.0000 0.0000 0.0000 0.0000 33.0011 0.0000
# 6 0.0000 0.0000 0.0000 0.0000 0.0000 28.0947
#
#
#
# Elastic Compliance Matrix: (Units=1/GPa)
#
#
# Indices 1 2 3 4 5 6 
#
# 1 0.022746 -0.007506 -0.004569 0.000000 0.000000 0.000000
# 2 -0.007506 0.022101 -0.006993 0.000000 0.000000 0.000000
# 3 -0.004569 -0.006993 0.010900 0.000000 0.000000 0.000000
# 4 0.000000 0.000000 0.000000 0.025991 0.000000 0.000000
# 5 0.000000 0.000000 0.000000 0.000000 0.030302 0.000000
# 6 0.000000 0.000000 0.000000 0.000000 0.000000 0.035594
#
#
# Mechanical properties :
#
#
# Convention : Reuss Voigt Hill
#
# Bulk Modulus (GPa) = 56.78211 70.59188 63.68700
# Shear Modulus (GPa) = 26.09071 29.51162 27.80117
#
# Velocity S-wave (km/s) = 3.72464 3.96130 3.84479
# Velocity P-wave (km/s) = 6.97779 7.64576 7.31940
#
# Compressibility (1/GPa) = 0.01761118
#
# Stress axis : x y z
#
# Youngs Moduli (GPa) = 43.96456 45.24733 91.74295
#
# Poissons Ratio (x) = 0.33962 0.41913
# Poissons Ratio (y) = 0.32999 0.64158
# Poissons Ratio (z) = 0.20085 0.31643
#
# Static dielectric constant tensor:
#      x y z
#    x 3.302090 0.000000 0.000000 
#    y 0.000000 3.478940 0.000000 
#    z 0.000000 0.000000 3.901740 
# 
# 
# High freq. dielectric constant tensor:
#      x y z
#    x 1.717280 0.000000 0.000000 
#    y 0.000000 1.729640 0.000000 
#    z 0.000000 0.000000 1.748950 
# 
# From -- ./inp_files/36970.got.cif
#   From: 2010.03.12/outbox.cif.g09.slc.cpg/sg51_19_cif.got.tgz:36970.got - 2010.04.16 13:43:02.
