data_PCOD8211742
_publ_section_title
;
Structure prediction by ZEFSAII (Michael W. Deem and Ramdas Pophale) SiO2 
 PCOD8211742
Probable space group: P M M A
;
_chemical_formula_sum "Si O2"
_cell_formula_units_Z 64
_cell_length_a 18.318737
_cell_length_b 9.179683
_cell_length_c 21.068296
_cell_angle_alpha 90.000000
_cell_angle_beta 90.000000
_cell_angle_gamma 90.000000
_cell_volume 3542.848840
_symmetry_space_group_name_H-M "P M M A"
_symmetry_group_IT_number 51
_symmetry_cell_setting 'orthorhombic'
loop_
_space_group_symop_operation_xyz
x,y,z
1/2-x,-y,z
1/2+x,-y,-z
-x,y,-z
-x,-y,-z
1/2+x,y,-z
1/2-x,y,z
x,-y,z
loop_
_atom_site_type_symbol
_atom_site_label
_atom_site_fract_x
_atom_site_fract_y
_atom_site_fract_z
Si Si1 0.832306 0.830129 0.879151
Si Si2 0.666544 0.827974 0.618400
Si Si3 0.834295 0.170412 0.253211
Si Si4 0.584023 0.329415 0.505993
Si Si5 0.834471 0.333860 0.380080
Si Si6 0.961094 0.330174 0.936780
Si Si7 0.908771 0.169710 0.748996
Si Si8 0.460892 0.329295 0.806585
O O1 0.750000 0.774325 0.889125
O O2 0.883604 0.748626 0.929307
O O3 0.855106 0.794211 0.807178
O O4 0.838906 0.000000 0.893092
O O5 0.750000 0.772718 0.615522
O O6 0.619774 0.755130 0.563696
O O7 0.632514 0.780966 0.685621
O O8 0.663017 0.000000 0.609593
O O9 0.750000 0.204677 0.238012
O O10 0.856364 0.230309 0.322198
O O11 0.882348 0.253152 0.200792
O O12 0.851050 0.000000 0.251220
O O13 0.500000 0.285975 0.500000
O O14 0.595199 0.500000 0.518181
O O15 0.621537 0.279213 0.440941
O O16 0.750000 0.319131 0.397340
O O17 0.854722 0.500000 0.361946
O O18 0.944478 0.500000 0.942409
O O19 0.013192 0.294248 0.877635
O O20 0.000000 0.270610 0.000000
O O21 0.982826 0.262171 0.755635
O O22 0.929991 0.000000 0.747571
O O23 0.453847 0.500000 0.793614
#
# Coordination Sequence:
#
# PCOD8211742 Si02
#       8
#     8   8   8   8   8   8   8   8
#     4   9  17  31  53  80 109 141 177 215 257 307
#     4  10  21  36  54  77 105 137 172 211 257 309
#     4  10  21  36  55  79 105 134 171 217 266 313
#     4  10  22  37  52  74 104 137 173 215 261 310
#     4   9  18  34  54  73  97 134 175 215 261 311
#     4   9  19  36  55  77 107 143 180 216 256 303
#     4   9  18  33  53  78 108 140 171 209 258 310
#     4  10  20  34  55  80 106 137 173 214 257 305
#
# _framework density 18.064558999999999
#
# number of rings (size 3 to 8) (size 9 to 14) (size 15 to 20)
#    0.000    2.500    0.000    1.500    1.750    5.250 
#    0.000    1.875    0.000    6.000    0.000    0.000 
#    0.000    0.000    0.000    0.000    0.000    0.000 
#
# Total GULP energy -793808.228313 kJ/mol
# GULP energy per Si atom -12403.253567 kJ/mol
# Density = 1.802344 g / cm^3
# Si number density = 18.064559 Si / 1000 Ang^3
#
#
#
# Elastic Constant Matrix: (Units=GPa)
#
#
# Indices 1 2 3 4 5 6 
#
# 1 136.6558 58.3064 77.9440 0.0000 0.0000 0.0000
# 2 58.3064 64.1620 46.3448 0.0000 0.0000 0.0000
# 3 77.9440 46.3448 102.1788 0.0000 0.0000 0.0000
# 4 0.0000 0.0000 0.0000 28.2753 0.0000 0.0000
# 5 0.0000 0.0000 0.0000 0.0000 30.1524 0.0000
# 6 0.0000 0.0000 0.0000 0.0000 0.0000 25.4930
#
#
#
# Elastic Compliance Matrix: (Units=1/GPa)
#
#
# Indices 1 2 3 4 5 6 
#
# 1 0.015388 -0.008187 -0.008025 0.000000 0.000000 0.000000
# 2 -0.008187 0.027536 -0.006244 0.000000 0.000000 0.000000
# 3 -0.008025 -0.006244 0.018740 0.000000 0.000000 0.000000
# 4 0.000000 0.000000 0.000000 0.035366 0.000000 0.000000
# 5 0.000000 0.000000 0.000000 0.000000 0.033165 0.000000
# 6 0.000000 0.000000 0.000000 0.000000 0.000000 0.039227
#
#
# Mechanical properties :
#
#
# Convention : Reuss Voigt Hill
#
# Bulk Modulus (GPa) = 59.69412 74.24301 66.96856
# Shear Modulus (GPa) = 22.73583 24.81089 23.77336
#
# Velocity S-wave (km/s) = 3.55151 3.71004 3.63164
# Velocity P-wave (km/s) = 7.06641 7.71625 7.39847
#
# Compressibility (1/GPa) = 0.01675207
#
# Stress axis : x y z
#
# Youngs Moduli (GPa) = 64.98595 36.31666 53.36128
#
# Poissons Ratio (x) = 0.29733 0.42821
# Poissons Ratio (y) = 0.53206 0.33318
# Poissons Ratio (z) = 0.52150 0.22675
#
# Static dielectric constant tensor:
#      x y z
#    x 3.470330 0.000000 0.000000 
#    y 0.000000 3.283460 0.000000 
#    z 0.000000 0.000000 3.301610 
# 
# 
# High freq. dielectric constant tensor:
#      x y z
#    x 1.708350 0.000000 0.000000 
#    y 0.000000 1.696060 0.000000 
#    z 0.000000 0.000000 1.692410 
# 
# From -- ./inp_files/33848.got.cif
#   From: 2010.03.12/outbox.cif.g09.slc.cpg/sg51_17_cif.got.tgz:33848.got - 2010.04.16 13:43:02.
