data_PCOD8211398
_publ_section_title
;
Structure prediction by ZEFSAII (Michael W. Deem and Ramdas Pophale) SiO2 
 PCOD8211398
Probable space group: P M M A
;
_chemical_formula_sum "Si O2"
_cell_formula_units_Z 64
_cell_length_a 8.872471
_cell_length_b 14.530636
_cell_length_c 29.808295
_cell_angle_alpha 90.000000
_cell_angle_beta 90.000000
_cell_angle_gamma 90.000000
_cell_volume 3842.964280
_symmetry_space_group_name_H-M "P M M A"
_symmetry_group_IT_number 51
_symmetry_cell_setting 'orthorhombic'
loop_
_space_group_symop_operation_xyz
x,y,z
1/2-x,-y,z
1/2+x,-y,-z
-x,y,-z
-x,-y,-z
1/2+x,y,-z
1/2-x,y,z
x,-y,z
loop_
_atom_site_type_symbol
_atom_site_label
_atom_site_fract_x
_atom_site_fract_y
_atom_site_fract_z
Si Si1 0.920227 0.399542 0.368269
Si Si2 0.922914 0.104435 0.360465
Si Si3 0.072267 0.604755 0.230013
Si Si4 0.578843 0.852031 0.545884
Si Si5 0.582357 0.390852 0.140265
Si Si6 0.072567 0.604393 0.956639
Si Si7 0.074207 0.262466 0.307824
Si Si8 0.078147 0.634269 0.455424
O O1 0.750000 0.359152 0.364736
O O2 0.925876 0.500000 0.344857
O O3 0.044647 0.332076 0.348193
O O4 0.970875 0.411632 0.418968
O O5 0.750000 0.133822 0.366660
O O6 0.000312 0.111557 0.409048
O O7 0.993359 0.166848 0.320494
O O8 0.938541 0.000000 0.343302
O O9 0.250000 0.601834 0.234599
O O10 0.009246 0.500000 0.239203
O O11 0.008528 0.682809 0.264133
O O12 0.028254 0.638811 0.180251
O O13 0.500000 0.888449 0.500000
O O14 0.750000 0.888414 0.545440
O O15 0.572278 0.743350 0.547874
O O16 0.750000 0.354009 0.151549
O O17 0.587913 0.500000 0.135123
O O18 0.526770 0.350676 0.091771
O O19 0.250000 0.608591 0.961794
O O20 0.012114 0.500000 0.956790
O O21 0.000000 0.656264 0.000000
O O22 0.250000 0.241562 0.302774
O O23 0.250000 0.598753 0.451858
O O24 0.000000 0.598409 0.500000
#
# Coordination Sequence:
#
# PCOD8211398 Si02
#       8
#     8   8   8   8   8   8   8   8
#     4  11  23  36  52  74  98 125 155 186 221 264
#     4  11  24  40  58  79 101 124 150 183 223 271
#     4   9  18  31  47  68  93 121 155 194 235 277
#     4  10  20  35  57  81 102 126 150 177 216 262
#     4   8  14  24  37  55  81 113 152 196 237 276
#     4   8  13  20  30  47  73 107 148 193 237 277
#     4  11  22  37  55  74  96 123 152 190 234 274
#     4  10  20  34  53  74  96 124 152 181 217 258
#
# _framework density 16.653811000000001
#
# number of rings (size 3 to 8) (size 9 to 14) (size 15 to 20)
#    0.000    2.250    1.250    3.000    0.000    5.500 
#    0.000    3.750    0.000    0.000    0.000    0.000 
#    0.000    0.000    0.000    0.000    0.000    0.625 
#
# Total GULP energy -792949.128910 kJ/mol
# GULP energy per Si atom -12389.830139 kJ/mol
# Density = 1.661591 g / cm^3
# Si number density = 16.653811 Si / 1000 Ang^3
#
#
#
# Elastic Constant Matrix: (Units=GPa)
#
#
# Indices 1 2 3 4 5 6 
#
# 1 70.1017 22.9481 33.6909 0.0000 0.0000 0.0000
# 2 22.9481 63.0653 34.1684 0.0000 0.0000 0.0000
# 3 33.6909 34.1684 123.2186 0.0000 0.0000 0.0000
# 4 0.0000 0.0000 0.0000 6.1428 0.0000 0.0000
# 5 0.0000 0.0000 0.0000 0.0000 29.4983 0.0000
# 6 0.0000 0.0000 0.0000 0.0000 0.0000 4.6605
#
#
#
# Elastic Compliance Matrix: (Units=1/GPa)
#
#
# Indices 1 2 3 4 5 6 
#
# 1 0.017411 -0.004420 -0.003535 0.000000 0.000000 0.000000
# 2 -0.004420 0.019782 -0.004277 0.000000 0.000000 0.000000
# 3 -0.003535 -0.004277 0.010268 0.000000 0.000000 0.000000
# 4 0.000000 0.000000 0.000000 0.162793 0.000000 0.000000
# 5 0.000000 0.000000 0.000000 0.000000 0.033900 0.000000
# 6 0.000000 0.000000 0.000000 0.000000 0.000000 0.214568
#
#
# Mechanical properties :
#
#
# Convention : Reuss Voigt Hill
#
# Bulk Modulus (GPa) = 43.48375 48.66671 46.07523
# Shear Modulus (GPa) = 10.18636 19.09887 14.64261
#
# Velocity S-wave (km/s) = 2.47585 3.39014 2.96841
# Velocity P-wave (km/s) = 5.86005 6.67908 6.28292
#
# Compressibility (1/GPa) = 0.02299710
#
# Stress axis : x y z
#
# Youngs Moduli (GPa) = 57.43557 50.55025 97.38848
#
# Poissons Ratio (x) = 0.22345 0.34425
# Poissons Ratio (y) = 0.25388 0.41653
# Poissons Ratio (z) = 0.20302 0.21620
#
# Static dielectric constant tensor:
#      x y z
#    x 3.176550 0.000000 0.000000 
#    y 0.000000 2.866630 0.000000 
#    z 0.000000 0.000000 3.376980 
# 
# 
# High freq. dielectric constant tensor:
#      x y z
#    x 1.648070 0.000000 0.000000 
#    y 0.000000 1.594880 0.000000 
#    z 0.000000 0.000000 1.634400 
# 
# From -- ./inp_files/37654.got.cif
#   From: 2010.03.12/outbox.cif.g09.slc.cpg/sg51_19_cif.got.tgz:37654.got - 2010.04.16 13:43:02.
