data_PCOD8211068
_publ_section_title
;
Structure prediction by ZEFSAII (Michael W. Deem and Ramdas Pophale) SiO2 
 PCOD8211068
Probable space group: P M M A
;
_chemical_formula_sum "Si O2"
_cell_formula_units_Z 52
_cell_length_a 9.183694
_cell_length_b 10.293104
_cell_length_c 29.392252
_cell_angle_alpha 90.000000
_cell_angle_beta 90.000000
_cell_angle_gamma 90.000000
_cell_volume 2778.411884
_symmetry_space_group_name_H-M "P M M A"
_symmetry_group_IT_number 51
_symmetry_cell_setting 'orthorhombic'
loop_
_space_group_symop_operation_xyz
x,y,z
1/2-x,-y,z
1/2+x,-y,-z
-x,y,-z
-x,-y,-z
1/2+x,y,-z
1/2-x,y,z
x,-y,z
loop_
_atom_site_type_symbol
_atom_site_label
_atom_site_fract_x
_atom_site_fract_y
_atom_site_fract_z
Si Si1 0.913165 0.349141 0.195823
Si Si2 0.578051 0.849460 0.634893
Si Si3 0.586078 0.846321 0.456707
Si Si4 0.080225 0.739767 0.112148
Si Si5 0.908116 0.146733 0.040237
Si Si6 0.079945 0.649563 0.699485
Si Si7 0.419081 0.500000 0.047824
O O1 0.750000 0.297423 0.186677
O O2 0.921894 0.500000 0.184293
O O3 0.956604 0.324836 0.247901
O O4 0.026549 0.275317 0.163763
O O5 0.750000 0.830575 0.629430
O O6 0.501540 0.806849 0.588212
O O7 0.518308 0.752611 0.672990
O O8 0.541220 0.000000 0.647167
O O9 0.500000 0.787564 0.500000
O O10 0.750000 0.788252 0.454796
O O11 0.594964 0.000000 0.461526
O O12 0.250000 0.768935 0.113913
O O13 0.037161 0.620785 0.079456
O O14 0.994032 0.856873 0.088213
O O15 0.750000 0.216319 0.044620
O O16 0.881607 0.000000 0.024918
O O17 0.000000 0.218297 0.000000
O O18 0.250000 0.675074 0.689461
O O19 0.040844 0.500000 0.686520
O O20 0.250000 0.500000 0.036831
O O21 0.500000 0.500000 0.000000
#
# Coordination Sequence:
#
# PCOD8211068 Si02
#       7
#     8   8   8   8   8   8   4
#     4   9  18  34  55  77 101 133 171 211 257 308
#     4  10  20  33  51  79 113 146 183 227 274 324
#     4   9  16  27  46  73 106 144 184 226 273 324
#     4  11  21  34  52  76 104 130 162 201 245 297
#     4  10  21  37  55  74  97 128 167 205 243 292
#     4   9  19  36  57  80 105 137 182 228 272 328
#     4  10  22  34  46  72 104 130 154 188 235 290
#
# _framework density 18.715727999999999
#
# number of rings (size 3 to 8) (size 9 to 14) (size 15 to 20)
#    0.000    2.308    0.769    3.231    0.000    7.077 
#    0.000    2.308    0.000    1.385    0.000    0.000 
#    0.000    0.000    0.000    0.000    0.000    0.000 
#
# Total GULP energy -644588.735551 kJ/mol
# GULP energy per Si atom -12395.937222 kJ/mol
# Density = 1.867313 g / cm^3
# Si number density = 18.715728 Si / 1000 Ang^3
#
#
#
# Elastic Constant Matrix: (Units=GPa)
#
#
# Indices 1 2 3 4 5 6 
#
# 1 151.4194 38.6719 80.7012 0.0000 0.0000 0.0000
# 2 38.6719 44.4979 37.4556 0.0000 0.0000 0.0000
# 3 80.7012 37.4556 128.5878 0.0000 0.0000 0.0000
# 4 0.0000 0.0000 0.0000 23.3118 0.0000 0.0000
# 5 0.0000 0.0000 0.0000 0.0000 42.0815 0.0000
# 6 0.0000 0.0000 0.0000 0.0000 0.0000 22.0938
#
#
#
# Elastic Compliance Matrix: (Units=1/GPa)
#
#
# Indices 1 2 3 4 5 6 
#
# 1 0.010647 -0.004807 -0.005282 0.000000 0.000000 0.000000
# 2 -0.004807 0.031943 -0.006288 0.000000 0.000000 0.000000
# 3 -0.005282 -0.006288 0.012923 0.000000 0.000000 0.000000
# 4 0.000000 0.000000 0.000000 0.042897 0.000000 0.000000
# 5 0.000000 0.000000 0.000000 0.000000 0.023763 0.000000
# 6 0.000000 0.000000 0.000000 0.000000 0.000000 0.045261
#
#
# Mechanical properties :
#
#
# Convention : Reuss Voigt Hill
#
# Bulk Modulus (GPa) = 43.93618 70.90696 57.42157
# Shear Modulus (GPa) = 24.06455 28.67584 26.37020
#
# Velocity S-wave (km/s) = 3.58969 3.91855 3.75772
# Velocity P-wave (km/s) = 6.38025 7.64473 7.04094
#
# Compressibility (1/GPa) = 0.02276029
#
# Stress axis : x y z
#
# Youngs Moduli (GPa) = 93.92460 31.30548 77.38107
#
# Poissons Ratio (x) = 0.15049 0.40870
# Poissons Ratio (y) = 0.45150 0.48655
# Poissons Ratio (z) = 0.49608 0.19684
#
# Static dielectric constant tensor:
#      x y z
#    x 3.631030 0.000000 0.000000 
#    y 0.000000 3.189100 0.000000 
#    z 0.000000 0.000000 3.451200 
# 
# 
# High freq. dielectric constant tensor:
#      x y z
#    x 1.739690 0.000000 0.000000 
#    y 0.000000 1.691810 0.000000 
#    z 0.000000 0.000000 1.728210 
# 
# From -- ./inp_files/36221.got.cif
#   From: 2010.03.12/outbox.cif.g09.slc.cpg/sg51_19_cif.got.tgz:36221.got - 2010.04.16 13:43:02.
