data_PCOD8211349
_publ_section_title
;
Structure prediction by ZEFSAII (Michael W. Deem and Ramdas Pophale) SiO2 
 PCOD8211349
Probable space group: P M M A
;
_chemical_formula_sum "Si O2"
_cell_formula_units_Z 56
_cell_length_a 18.213125
_cell_length_b 9.199097
_cell_length_c 18.985395
_cell_angle_alpha 90.000000
_cell_angle_beta 90.000000
_cell_angle_gamma 90.000000
_cell_volume 3180.894783
_symmetry_space_group_name_H-M "P M M A"
_symmetry_group_IT_number 51
_symmetry_cell_setting 'orthorhombic'
loop_
_space_group_symop_operation_xyz
x,y,z
1/2-x,-y,z
1/2+x,-y,-z
-x,y,-z
-x,-y,-z
1/2+x,y,-z
1/2-x,y,z
x,-y,z
loop_
_atom_site_type_symbol
_atom_site_label
_atom_site_fract_x
_atom_site_fract_y
_atom_site_fract_z
Si Si1 0.830362 0.834437 0.375305
Si Si2 0.488965 0.664457 0.279521
Si Si3 0.923312 0.663896 0.860141
Si Si4 0.335290 0.171222 0.031948
Si Si5 0.591103 0.330900 0.095729
Si Si6 0.031820 0.667202 0.571172
Si Si7 0.377666 0.166429 0.773443
O O1 0.750000 0.802944 0.408029
O O2 0.889130 0.732650 0.412001
O O3 0.822036 0.807579 0.291022
O O4 0.854980 0.000000 0.388635
O O5 0.522129 0.500000 0.268329
O O6 0.420070 0.679690 0.225859
O O7 0.474026 0.686930 0.363300
O O8 0.543655 0.790893 0.257517
O O9 0.901979 0.500000 0.882380
O O10 0.864178 0.774791 0.892059
O O11 0.005497 0.698824 0.888188
O O12 0.250000 0.213244 0.022842
O O13 0.346864 0.000000 0.025766
O O14 0.386042 0.251060 0.975343
O O15 0.608333 0.500000 0.087556
O O16 0.641028 0.266185 0.159114
O O17 0.047261 0.500000 0.555783
O O18 0.000000 0.740739 0.500000
O O19 0.378211 0.000000 0.799205
#
# Coordination Sequence:
#
# PCOD8211349 Si02
#       7
#     8   8   8   8   8   8   8
#     4   9  18  31  46  67  98 134 167 197 233 283
#     4   8  15  29  48  71  97 121 150 191 235 281
#     4   9  18  33  53  73  93 121 159 200 239 285
#     4  11  24  37  48  67  95 125 160 205 252 292
#     4  10  20  34  52  74  98 125 160 199 240 291
#     4   9  17  30  50  76 103 129 159 198 241 284
#     4   9  16  27  45  69  96 125 156 191 232 278
#
# _framework density 17.60511
#
# number of rings (size 3 to 8) (size 9 to 14) (size 15 to 20)
#    0.000    2.714    0.000    2.571    0.000    7.429 
#    0.000    1.429    0.000    0.857    0.000    6.000 
#    0.000    0.000    0.000    0.000    0.000    0.000 
#
# Total GULP energy -693829.450344 kJ/mol
# GULP energy per Si atom -12389.811613 kJ/mol
# Density = 1.756504 g / cm^3
# Si number density = 17.605110 Si / 1000 Ang^3
#
#
#
# Elastic Constant Matrix: (Units=GPa)
#
#
# Indices 1 2 3 4 5 6 
#
# 1 47.5359 33.3921 34.8471 0.0000 0.0000 0.0000
# 2 33.3921 74.3241 42.1825 0.0000 0.0000 0.0000
# 3 34.8471 42.1825 122.4038 0.0000 0.0000 0.0000
# 4 0.0000 0.0000 0.0000 23.2055 0.0000 0.0000
# 5 0.0000 0.0000 0.0000 0.0000 15.2237 0.0000
# 6 0.0000 0.0000 0.0000 0.0000 0.0000 21.3092
#
#
#
# Elastic Compliance Matrix: (Units=1/GPa)
#
#
# Indices 1 2 3 4 5 6 
#
# 1 0.033369 -0.011935 -0.005387 0.000000 0.000000 0.000000
# 2 -0.011935 0.020994 -0.003837 0.000000 0.000000 0.000000
# 3 -0.005387 -0.003837 0.011026 0.000000 0.000000 0.000000
# 4 0.000000 0.000000 0.000000 0.043093 0.000000 0.000000
# 5 0.000000 0.000000 0.000000 0.000000 0.065687 0.000000
# 6 0.000000 0.000000 0.000000 0.000000 0.000000 0.046928
#
#
# Mechanical properties :
#
#
# Convention : Reuss Voigt Hill
#
# Bulk Modulus (GPa) = 43.34368 51.67859 47.51114
# Shear Modulus (GPa) = 18.44292 20.87048 19.65670
#
# Velocity S-wave (km/s) = 3.24016 3.44681 3.34508
# Velocity P-wave (km/s) = 6.21865 6.72746 6.47805
#
# Compressibility (1/GPa) = 0.02307141
#
# Stress axis : x y z
#
# Youngs Moduli (GPa) = 29.96756 47.63160 90.69690
#
# Poissons Ratio (x) = 0.56847 0.48859
# Poissons Ratio (y) = 0.35765 0.34804
# Poissons Ratio (z) = 0.16144 0.18278
#
# Static dielectric constant tensor:
#      x y z
#    x 2.986510 0.000000 0.000000 
#    y 0.000000 3.305770 0.000000 
#    z 0.000000 0.000000 3.578730 
# 
# 
# High freq. dielectric constant tensor:
#      x y z
#    x 1.636830 0.000000 0.000000 
#    y 0.000000 1.686740 0.000000 
#    z 0.000000 0.000000 1.682610 
# 
# From -- ./inp_files/30343.got.cif
#   From: 2010.03.12/outbox.cif.g09.slc.cpg/sg51_16_cif.got.tgz:30343.got - 2010.04.16 13:43:02.
