data_PCOD8211591
_publ_section_title
;
Structure prediction by ZEFSAII (Michael W. Deem and Ramdas Pophale) SiO2 
 PCOD8211591
Probable space group: P M M A
;
_chemical_formula_sum "Si O2"
_cell_formula_units_Z 64
_cell_length_a 9.250939
_cell_length_b 23.613440
_cell_length_c 15.202648
_cell_angle_alpha 90.000000
_cell_angle_beta 90.000000
_cell_angle_gamma 90.000000
_cell_volume 3320.965140
_symmetry_space_group_name_H-M "P M M A"
_symmetry_group_IT_number 51
_symmetry_cell_setting 'orthorhombic'
loop_
_space_group_symop_operation_xyz
x,y,z
1/2-x,-y,z
1/2+x,-y,-z
-x,y,-z
-x,-y,-z
1/2+x,y,-z
1/2-x,y,z
x,-y,z
loop_
_atom_site_type_symbol
_atom_site_label
_atom_site_fract_x
_atom_site_fract_y
_atom_site_fract_z
Si Si1 0.916060 0.065052 0.272924
Si Si2 0.094772 0.435958 0.425958
Si Si3 0.418978 0.860378 0.411022
Si Si4 0.582316 0.684266 0.243283
Si Si5 0.082708 0.107589 0.914865
Si Si6 0.412942 0.439152 0.746492
Si Si7 0.919047 0.237820 0.085952
Si Si8 0.079684 0.270468 0.409662
O O1 0.750000 0.085199 0.285604
O O2 0.961473 0.072092 0.171028
O O3 0.020799 0.102506 0.331646
O O4 0.934786 0.000000 0.300337
O O5 0.250000 0.404783 0.418977
O O6 0.119874 0.500000 0.457743
O O7 0.000000 0.403664 0.500000
O O8 0.020620 0.435077 0.333150
O O9 0.500000 0.878331 0.500000
O O10 0.250000 0.872867 0.423748
O O11 0.449248 0.795210 0.387438
O O12 0.750000 0.696845 0.266089
O O13 0.564472 0.620181 0.201826
O O14 0.524363 0.727087 0.169629
O O15 0.487835 0.691517 0.331611
O O16 0.250000 0.100988 0.936604
O O17 0.040716 0.172721 0.896724
O O18 0.000000 0.083525 0.000000
O O19 0.250000 0.440385 0.709605
O O20 0.441917 0.500000 0.797640
O O21 0.750000 0.247367 0.071324
O O22 0.000000 0.260952 0.000000
O O23 0.250000 0.282658 0.418296
O O24 0.000000 0.286752 0.500000
#
# Coordination Sequence:
#
# PCOD8211591 Si02
#       8
#     8   8   8   8   8   8   8   8
#     4  10  21  36  54  78 109 145 183 221 261 306
#     4   9  16  26  41  60  83 115 156 199 240 283
#     4  10  21  37  57  79 104 138 179 223 270 315
#     4  10  20  34  54  78 104 136 172 213 262 312
#     4   9  18  33  53  77 106 138 171 210 258 312
#     4   9  18  32  48  67  93 127 167 207 248 299
#     4   9  18  33  54  79 104 131 166 211 263 315
#     4  10  21  36  55  80 108 138 174 217 265 316
#
# _framework density 19.271505000000001
#
# number of rings (size 3 to 8) (size 9 to 14) (size 15 to 20)
#    0.000    2.500    0.000    1.875    0.000    6.750 
#    0.000    2.500    0.000    0.375    0.000    0.000 
#    0.000    0.000    0.000    0.000    0.000    0.000 
#
# Total GULP energy -793192.779903 kJ/mol
# GULP energy per Si atom -12393.637186 kJ/mol
# Density = 1.922764 g / cm^3
# Si number density = 19.271505 Si / 1000 Ang^3
#
#
#
# Elastic Constant Matrix: (Units=GPa)
#
#
# Indices 1 2 3 4 5 6 
#
# 1 79.8408 27.2003 33.1136 0.0000 0.0000 0.0000
# 2 27.2003 85.7570 31.4111 0.0000 0.0000 0.0000
# 3 33.1136 31.4111 75.7558 0.0000 0.0000 0.0000
# 4 0.0000 0.0000 0.0000 7.7758 0.0000 0.0000
# 5 0.0000 0.0000 0.0000 0.0000 33.3389 0.0000
# 6 0.0000 0.0000 0.0000 0.0000 0.0000 14.7344
#
#
#
# Elastic Compliance Matrix: (Units=1/GPa)
#
#
# Indices 1 2 3 4 5 6 
#
# 1 0.015905 -0.002946 -0.005731 0.000000 0.000000 0.000000
# 2 -0.002946 0.014294 -0.004639 0.000000 0.000000 0.000000
# 3 -0.005731 -0.004639 0.017629 0.000000 0.000000 0.000000
# 4 0.000000 0.000000 0.000000 0.128604 0.000000 0.000000
# 5 0.000000 0.000000 0.000000 0.000000 0.029995 0.000000
# 6 0.000000 0.000000 0.000000 0.000000 0.000000 0.067868
#
#
# Mechanical properties :
#
#
# Convention : Reuss Voigt Hill
#
# Bulk Modulus (GPa) = 47.17715 47.20037 47.18876
# Shear Modulus (GPa) = 16.23406 21.14507 18.68957
#
# Velocity S-wave (km/s) = 2.90554 3.31602 3.11754
# Velocity P-wave (km/s) = 5.98244 6.26154 6.12358
#
# Compressibility (1/GPa) = 0.02119670
#
# Stress axis : x y z
#
# Youngs Moduli (GPa) = 62.87187 69.95704 56.72452
#
# Poissons Ratio (x) = 0.20607 0.32509
# Poissons Ratio (y) = 0.18520 0.26317
# Poissons Ratio (z) = 0.36032 0.32456
#
# Static dielectric constant tensor:
#      x y z
#    x 3.642070 0.000000 0.000000 
#    y 0.000000 3.791670 0.000000 
#    z 0.000000 0.000000 3.306620 
# 
# 
# High freq. dielectric constant tensor:
#      x y z
#    x 1.753070 0.000000 0.000000 
#    y 0.000000 1.758700 0.000000 
#    z 0.000000 0.000000 1.719490 
# 
# From -- ./inp_files/22313.got.cif
#   From: 2010.03.12/outbox.cif.g09.slc.cpg/sg51_12_cif.got.tgz:22313.got - 2010.04.16 13:43:02.
