data_PCOD8211016
_publ_section_title
;
Structure prediction by ZEFSAII (Michael W. Deem and Ramdas Pophale) SiO2 
 PCOD8211016
Probable space group: P M M A
;
_chemical_formula_sum "Si O2"
_cell_formula_units_Z 44
_cell_length_a 9.412804
_cell_length_b 8.031760
_cell_length_c 29.757068
_cell_angle_alpha 90.000000
_cell_angle_beta 90.000000
_cell_angle_gamma 90.000000
_cell_volume 2249.675485
_symmetry_space_group_name_H-M "P M M A"
_symmetry_group_IT_number 51
_symmetry_cell_setting 'orthorhombic'
loop_
_space_group_symop_operation_xyz
x,y,z
1/2-x,-y,z
1/2+x,-y,-z
-x,y,-z
-x,-y,-z
1/2+x,y,-z
1/2-x,y,z
x,-y,z
loop_
_atom_site_type_symbol
_atom_site_label
_atom_site_fract_x
_atom_site_fract_y
_atom_site_fract_z
Si Si1 0.414242 0.687127 0.893839
Si Si2 0.407142 0.807677 0.540014
Si Si3 0.418130 0.183776 0.286859
Si Si4 0.417689 0.000000 0.953780
Si Si5 0.588795 0.310631 0.619433
Si Si6 0.085726 0.196268 0.188454
O O1 0.250000 0.716048 0.882896
O O2 0.439923 0.500000 0.913832
O O3 0.465791 0.831837 0.927790
O O4 0.497258 0.699963 0.847287
O O5 0.500000 0.723513 0.500000
O O6 0.250000 0.723940 0.541774
O O7 0.485215 0.792183 0.587622
O O8 0.387773 0.000000 0.528840
O O9 0.250000 0.172621 0.283357
O O10 0.464593 0.297939 0.328851
O O11 0.469643 0.251642 0.238274
O O12 0.481155 0.000000 0.295666
O O13 0.250000 0.000000 0.963012
O O14 0.500000 0.000000 0.000000
O O15 0.750000 0.240565 0.615139
O O16 0.582711 0.500000 0.603919
O O17 0.250000 0.242090 0.181589
O O18 0.060638 0.000000 0.181962
#
# Coordination Sequence:
#
# PCOD8211016 Si02
#       6
#     8   8   8   4   8   8
#     4  10  21  37  57  82 113 150 188 226 277 337
#     4  10  21  37  57  78  98 125 166 214 263 316
#     4   8  15  29  50  76 106 141 179 219 261 307
#     4  10  22  40  60  82 112 148 186 234 283 330
#     4  10  20  33  51  76 106 139 172 209 258 313
#     4   9  17  31  54  83 112 143 184 230 273 320
#
# _framework density 19.558375000000002
#
# number of rings (size 3 to 8) (size 9 to 14) (size 15 to 20)
#    0.000    2.545    0.909    2.182    0.000    4.727 
#    0.000    2.727    0.000    1.091    0.000    0.000 
#    0.000    0.000    0.000    0.000    0.000    0.000 
#
# Total GULP energy -545357.675145 kJ/mol
# GULP energy per Si atom -12394.492617 kJ/mol
# Density = 1.951386 g / cm^3
# Si number density = 19.558375 Si / 1000 Ang^3
#
#
#
# Elastic Constant Matrix: (Units=GPa)
#
#
# Indices 1 2 3 4 5 6 
#
# 1 78.2120 28.7520 60.0448 0.0000 0.0000 0.0000
# 2 28.7520 75.8652 43.9464 0.0000 0.0000 0.0000
# 3 60.0448 43.9464 148.3195 0.0000 0.0000 0.0000
# 4 0.0000 0.0000 0.0000 12.9766 0.0000 0.0000
# 5 0.0000 0.0000 0.0000 0.0000 29.9398 0.0000
# 6 0.0000 0.0000 0.0000 0.0000 0.0000 17.7706
#
#
#
# Elastic Compliance Matrix: (Units=1/GPa)
#
#
# Indices 1 2 3 4 5 6 
#
# 1 0.019234 -0.003355 -0.006792 0.000000 0.000000 0.000000
# 2 -0.003355 0.016497 -0.003530 0.000000 0.000000 0.000000
# 3 -0.006792 -0.003530 0.010538 0.000000 0.000000 0.000000
# 4 0.000000 0.000000 0.000000 0.077062 0.000000 0.000000
# 5 0.000000 0.000000 0.000000 0.000000 0.033400 0.000000
# 6 0.000000 0.000000 0.000000 0.000000 0.000000 0.056273
#
#
# Mechanical properties :
#
#
# Convention : Reuss Voigt Hill
#
# Bulk Modulus (GPa) = 52.86872 63.09811 57.98342
# Shear Modulus (GPa) = 20.27055 23.44764 21.85909
#
# Velocity S-wave (km/s) = 3.22283 3.46620 3.34673
# Velocity P-wave (km/s) = 6.39834 6.95348 6.68168
#
# Compressibility (1/GPa) = 0.01891478
#
# Stress axis : x y z
#
# Youngs Moduli (GPa) = 51.99209 60.61525 94.89489
#
# Poissons Ratio (x) = 0.20334 0.64457
# Poissons Ratio (y) = 0.17442 0.33498
# Poissons Ratio (z) = 0.35316 0.21398
#
# Static dielectric constant tensor:
#      x y z
#    x 3.436650 0.000000 0.000000 
#    y 0.000000 3.511520 0.000000 
#    z 0.000000 0.000000 3.641210 
# 
# 
# High freq. dielectric constant tensor:
#      x y z
#    x 1.734030 0.000000 0.000000 
#    y 0.000000 1.752640 0.000000 
#    z 0.000000 0.000000 1.765550 
# 
# From -- ./inp_files/36772.got.cif
#   From: 2010.03.12/outbox.cif.g09.slc.cpg/sg51_19_cif.got.tgz:36772.got - 2010.04.16 13:43:02.
