data_PCOD8211802
_publ_section_title
;
Structure prediction by ZEFSAII (Michael W. Deem and Ramdas Pophale) SiO2 
 PCOD8211802
Probable space group: P M M A
;
_chemical_formula_sum "Si O2"
_cell_formula_units_Z 64
_cell_length_a 23.079385
_cell_length_b 9.264022
_cell_length_c 15.138625
_cell_angle_alpha 90.000000
_cell_angle_beta 90.000000
_cell_angle_gamma 90.000000
_cell_volume 3236.758080
_symmetry_space_group_name_H-M "P M M A"
_symmetry_group_IT_number 51
_symmetry_cell_setting 'orthorhombic'
loop_
_space_group_symop_operation_xyz
x,y,z
1/2-x,-y,z
1/2+x,-y,-z
-x,y,-z
-x,-y,-z
1/2+x,y,-z
1/2-x,y,z
x,-y,z
loop_
_atom_site_type_symbol
_atom_site_label
_atom_site_fract_x
_atom_site_fract_y
_atom_site_fract_z
Si Si1 0.365256 0.167984 0.348445
Si Si2 0.511873 0.663941 0.215003
Si Si3 0.181230 0.659990 0.685626
Si Si4 0.378660 0.168006 0.837210
Si Si5 0.816102 0.842865 0.472075
Si Si6 0.879286 0.669936 0.821742
Si Si7 0.817548 0.166709 0.977610
Si Si8 0.974307 0.663950 0.595884
O O1 0.319120 0.202635 0.425385
O O2 0.347437 0.258817 0.262431
O O3 0.425853 0.217182 0.389387
O O4 0.367516 0.000000 0.322518
O O5 0.524494 0.500000 0.186318
O O6 0.556968 0.765589 0.164299
O O7 0.447406 0.708880 0.183643
O O8 0.519110 0.680951 0.321766
O O9 0.250000 0.650637 0.684521
O O10 0.154286 0.500000 0.695957
O O11 0.162167 0.759301 0.765534
O O12 0.155761 0.725786 0.593951
O O13 0.383478 0.000000 0.815764
O O14 0.348513 0.197154 0.930144
O O15 0.750000 0.857222 0.444042
O O16 0.846681 0.000000 0.459801
O O17 0.868930 0.500000 0.818940
O O18 0.850576 0.733277 0.908691
O O19 0.750000 0.210280 0.983829
O O20 0.823987 0.000000 0.949642
O O21 0.949124 0.500000 0.599453
O O22 0.000000 0.696886 0.500000
#
# Coordination Sequence:
#
# PCOD8211802 Si02
#       8
#     8   8   8   8   8   8   8   8
#     4  10  20  34  55  83 113 149 191 238 288 341
#     4   9  20  38  57  84 120 158 198 239 292 350
#     4  10  21  36  55  80 112 152 195 241 293 349
#     4  11  23  38  60  88 119 154 194 242 294 353
#     4   9  19  35  53  77 111 150 191 233 283 343
#     4  10  22  41  63  87 118 154 194 243 297 351
#     4  10  23  43  65  89 117 152 193 239 296 357
#     4   9  19  35  54  78 112 156 197 239 289 339
#
# _framework density 19.772872
#
# number of rings (size 3 to 8) (size 9 to 14) (size 15 to 20)
#    0.000    2.250    0.000    2.625    1.750    7.250 
#    0.000    3.750    0.000    0.000    0.000    0.000 
#    0.000    0.000    0.000    0.000    0.000    0.000 
#
# Total GULP energy -793420.405507 kJ/mol
# GULP energy per Si atom -12397.193836 kJ/mol
# Density = 1.972787 g / cm^3
# Si number density = 19.772872 Si / 1000 Ang^3
#
#
#
# Elastic Constant Matrix: (Units=GPa)
#
#
# Indices 1 2 3 4 5 6 
#
# 1 63.2267 48.9493 52.1111 0.0000 0.0000 0.0000
# 2 48.9493 128.3978 90.2144 0.0000 0.0000 0.0000
# 3 52.1111 90.2144 135.8096 0.0000 0.0000 0.0000
# 4 0.0000 0.0000 0.0000 31.3464 0.0000 0.0000
# 5 0.0000 0.0000 0.0000 0.0000 33.0510 0.0000
# 6 0.0000 0.0000 0.0000 0.0000 0.0000 21.1821
#
#
#
# Elastic Compliance Matrix: (Units=1/GPa)
#
#
# Indices 1 2 3 4 5 6 
#
# 1 0.024857 -0.005203 -0.006081 0.000000 0.000000 0.000000
# 2 -0.005203 0.015694 -0.008428 0.000000 0.000000 0.000000
# 3 -0.006081 -0.008428 0.015295 0.000000 0.000000 0.000000
# 4 0.000000 0.000000 0.000000 0.031902 0.000000 0.000000
# 5 0.000000 0.000000 0.000000 0.000000 0.030256 0.000000
# 6 0.000000 0.000000 0.000000 0.000000 0.000000 0.047210
#
#
# Mechanical properties :
#
#
# Convention : Reuss Voigt Hill
#
# Bulk Modulus (GPa) = 60.90174 78.88708 69.89441
# Shear Modulus (GPa) = 23.79673 26.19319 24.99496
#
# Velocity S-wave (km/s) = 3.47292 3.64360 3.55928
# Velocity P-wave (km/s) = 6.85194 7.59502 7.23303
#
# Compressibility (1/GPa) = 0.01641989
#
# Stress axis : x y z
#
# Youngs Moduli (GPa) = 40.23083 63.71871 65.37892
#
# Poissons Ratio (x) = 0.33155 0.39758
# Poissons Ratio (y) = 0.20934 0.55105
# Poissons Ratio (z) = 0.24465 0.53705
#
# Static dielectric constant tensor:
#      x y z
#    x 3.438030 0.000000 0.000000 
#    y 0.000000 3.792140 0.000000 
#    z 0.000000 0.000000 3.713010 
# 
# 
# High freq. dielectric constant tensor:
#      x y z
#    x 1.756530 0.000000 0.000000 
#    y 0.000000 1.779540 0.000000 
#    z 0.000000 0.000000 1.777490 
# 
# From -- ./inp_files/26309.got.cif
#   From: 2010.03.12/outbox.cif.g09.slc.cpg/sg51_14_cif.got.tgz:26309.got - 2010.04.16 13:43:02.
