data_PCOD8211566
_publ_section_title
;
Structure prediction by ZEFSAII (Michael W. Deem and Ramdas Pophale) SiO2 
 PCOD8211566
Probable space group: P M M A
;
_chemical_formula_sum "Si O2"
_cell_formula_units_Z 48
_cell_length_a 9.753896
_cell_length_b 7.851662
_cell_length_c 33.835903
_cell_angle_alpha 90.000000
_cell_angle_beta 90.000000
_cell_angle_gamma 90.000000
_cell_volume 2591.298763
_symmetry_space_group_name_H-M "P M M A"
_symmetry_group_IT_number 51
_symmetry_cell_setting 'orthorhombic'
loop_
_space_group_symop_operation_xyz
x,y,z
1/2-x,-y,z
1/2+x,-y,-z
-x,y,-z
-x,-y,-z
1/2+x,y,-z
1/2-x,y,z
x,-y,z
loop_
_atom_site_type_symbol
_atom_site_label
_atom_site_fract_x
_atom_site_fract_y
_atom_site_fract_z
Si Si1 0.586541 0.000000 0.460453
Si Si2 0.097827 0.300550 0.681496
Si Si3 0.912719 0.689093 0.405894
Si Si4 0.101772 0.197107 0.250408
Si Si5 0.410609 0.000000 0.961050
Si Si6 0.406143 0.309839 0.905200
Si Si7 0.410484 0.196654 0.163759
O O1 0.500000 0.000000 0.500000
O O2 0.539112 0.831475 0.436827
O O3 0.750000 0.000000 0.468662
O O4 0.250000 0.220908 0.685233
O O5 0.105218 0.500000 0.687930
O O6 0.034843 0.260482 0.638017
O O7 0.005284 0.221226 0.714968
O O8 0.750000 0.682051 0.403762
O O9 0.967864 0.500000 0.418241
O O10 0.250000 0.277534 0.262424
O O11 0.053610 0.269303 0.207818
O O12 0.124062 0.000000 0.242802
O O13 0.452422 0.830648 0.936978
O O14 0.250000 0.000000 0.971952
O O15 0.500000 0.000000 0.000000
O O16 0.250000 0.272760 0.892046
O O17 0.419490 0.500000 0.923672
O O18 0.501375 0.304712 0.866789
O O19 0.250000 0.222796 0.154991
O O20 0.452874 0.000000 0.159176
#
# Coordination Sequence:
#
# PCOD8211566 Si02
#       7
#     4   8   8   8   4   8   8
#     4  10  20  34  54  77 100 129 163 202 255 310
#     4   9  18  32  50  73  99 130 174 220 256 300
#     4   8  16  32  52  74 101 132 167 208 252 302
#     4   9  19  33  48  72 106 142 177 215 259 306
#     4  10  22  40  60  83 112 143 173 214 267 318
#     4  10  21  37  58  84 112 142 178 220 266 314
#     4   9  18  34  54  75 105 145 186 222 260 311
#
# _framework density 18.523530999999998
#
# number of rings (size 3 to 8) (size 9 to 14) (size 15 to 20)
#    0.000    2.833    0.833    2.000    1.167    3.667 
#    0.000    5.833    0.000    1.000    0.000    0.000 
#    0.000    0.000    0.000    0.000    0.000    0.000 
#
# Total GULP energy -594894.535838 kJ/mol
# GULP energy per Si atom -12393.636163 kJ/mol
# Density = 1.848137 g / cm^3
# Si number density = 18.523531 Si / 1000 Ang^3
#
#
#
# Elastic Constant Matrix: (Units=GPa)
#
#
# Indices 1 2 3 4 5 6 
#
# 1 59.1576 33.4592 59.6010 0.0000 0.0000 0.0000
# 2 33.4592 99.2033 66.1618 0.0000 0.0000 0.0000
# 3 59.6010 66.1618 143.4456 0.0000 0.0000 0.0000
# 4 0.0000 0.0000 0.0000 12.9099 0.0000 0.0000
# 5 0.0000 0.0000 0.0000 0.0000 39.1732 0.0000
# 6 0.0000 0.0000 0.0000 0.0000 0.0000 15.1595
#
#
#
# Elastic Compliance Matrix: (Units=1/GPa)
#
#
# Indices 1 2 3 4 5 6 
#
# 1 0.029520 -0.002565 -0.011082 0.000000 0.000000 0.000000
# 2 -0.002565 0.014782 -0.005752 0.000000 0.000000 0.000000
# 3 -0.011082 -0.005752 0.014229 0.000000 0.000000 0.000000
# 4 0.000000 0.000000 0.000000 0.077460 0.000000 0.000000
# 5 0.000000 0.000000 0.000000 0.000000 0.025528 0.000000
# 6 0.000000 0.000000 0.000000 0.000000 0.000000 0.065965
#
#
# Mechanical properties :
#
#
# Convention : Reuss Voigt Hill
#
# Bulk Modulus (GPa) = 50.67994 68.91674 59.79834
# Shear Modulus (GPa) = 18.32437 22.95414 20.63926
#
# Velocity S-wave (km/s) = 3.14864 3.52403 3.34161
# Velocity P-wave (km/s) = 6.37478 7.33786 6.87320
#
# Compressibility (1/GPa) = 0.01973167
#
# Stress axis : x y z
#
# Youngs Moduli (GPa) = 33.87489 67.65129 70.27961
#
# Poissons Ratio (x) = 0.17356 0.77886
# Poissons Ratio (y) = 0.08691 0.40424
# Poissons Ratio (z) = 0.37541 0.38912
#
# Static dielectric constant tensor:
#      x y z
#    x 2.192280 0.000000 0.000000 
#    y 0.000000 3.611490 0.000000 
#    z 0.000000 0.000000 3.442180 
# 
# 
# High freq. dielectric constant tensor:
#      x y z
#    x 1.695070 0.000000 0.000000 
#    y 0.000000 1.722630 0.000000 
#    z 0.000000 0.000000 1.713820 
# 
# From -- ./inp_files/37093.got.cif
#   From: 2010.03.12/outbox.cif.g09.slc.cpg/sg51_19_cif.got.tgz:37093.got - 2010.04.16 13:43:02.
