data_PCOD8211843
_publ_section_title
;
Structure prediction by ZEFSAII (Michael W. Deem and Ramdas Pophale) SiO2 
 PCOD8211843
Probable space group: P M M A
;
_chemical_formula_sum "Si O2"
_cell_formula_units_Z 48
_cell_length_a 16.142125
_cell_length_b 8.965211
_cell_length_c 17.759245
_cell_angle_alpha 90.000000
_cell_angle_beta 90.000000
_cell_angle_gamma 90.000000
_cell_volume 2570.074544
_symmetry_space_group_name_H-M "P M M A"
_symmetry_group_IT_number 51
_symmetry_cell_setting 'orthorhombic'
loop_
_space_group_symop_operation_xyz
x,y,z
1/2-x,-y,z
1/2+x,-y,-z
-x,y,-z
-x,-y,-z
1/2+x,y,-z
1/2-x,y,z
x,-y,z
loop_
_atom_site_type_symbol
_atom_site_label
_atom_site_fract_x
_atom_site_fract_y
_atom_site_fract_z
Si Si1 0.157312 0.171528 0.333227
Si Si2 0.411464 0.672785 0.037015
Si Si3 0.750000 0.822682 0.221858
Si Si4 0.019362 0.324325 0.417680
Si Si5 0.750000 0.674236 0.060495
Si Si6 0.913962 0.676651 0.274730
Si Si7 0.553706 0.172160 0.812806
O O1 0.250000 0.232589 0.333501
O O2 0.108851 0.264803 0.395284
O O3 0.122506 0.197202 0.250217
O O4 0.152002 0.000000 0.356730
O O5 0.405864 0.500000 0.059625
O O6 0.404115 0.772923 0.110869
O O7 0.500000 0.709585 0.000000
O O8 0.333816 0.716578 0.984324
O O9 0.750000 0.768404 0.136268
O O10 0.827878 0.760592 0.267434
O O11 0.750000 0.000000 0.223387
O O12 0.024078 0.500000 0.421170
O O13 0.000000 0.257294 0.500000
O O14 0.951532 0.274795 0.355618
O O15 0.750000 0.500000 0.081436
O O16 0.901447 0.500000 0.267794
O O17 0.973096 0.729676 0.206719
O O18 0.526703 0.000000 0.819594
#
# Coordination Sequence:
#
# PCOD8211843 Si02
#       7
#     8   8   4   8   4   8   8
#     4   9  19  35  54  80 113 148 182 218 270 330
#     4  10  21  36  53  76 108 146 187 232 284 340
#     4  12  24  38  58  84 113 142 189 238 273 328
#     4   9  19  37  59  84 112 142 182 229 273 320
#     4  10  22  38  56  80 111 150 191 234 287 340
#     4  10  20  37  60  82 110 150 187 225 281 333
#     4  10  20  34  56  81 110 145 187 233 276 327
#
# _framework density 18.676500999999998
#
# number of rings (size 3 to 8) (size 9 to 14) (size 15 to 20)
#    0.000    2.167    0.000    2.750    1.167    4.333 
#    1.500    0.000    0.000    0.000    0.000    0.000 
#    0.000    0.000    0.000    0.000    0.000    0.000 
#
# Total GULP energy -595309.278534 kJ/mol
# GULP energy per Si atom -12402.276636 kJ/mol
# Density = 1.863399 g / cm^3
# Si number density = 18.676501 Si / 1000 Ang^3
#
#
#
# Elastic Constant Matrix: (Units=GPa)
#
#
# Indices 1 2 3 4 5 6 
#
# 1 159.0687 44.2405 61.8457 0.0000 0.0000 0.0000
# 2 44.2405 61.8158 48.2639 0.0000 0.0000 0.0000
# 3 61.8457 48.2639 116.1016 0.0000 0.0000 0.0000
# 4 0.0000 0.0000 0.0000 26.4133 0.0000 0.0000
# 5 0.0000 0.0000 0.0000 0.0000 18.5483 0.0000
# 6 0.0000 0.0000 0.0000 0.0000 0.0000 29.0811
#
#
#
# Elastic Compliance Matrix: (Units=1/GPa)
#
#
# Indices 1 2 3 4 5 6 
#
# 1 0.008482 -0.003764 -0.002953 0.000000 0.000000 0.000000
# 2 -0.003764 0.025622 -0.008646 0.000000 0.000000 0.000000
# 3 -0.002953 -0.008646 0.013780 0.000000 0.000000 0.000000
# 4 0.000000 0.000000 0.000000 0.037860 0.000000 0.000000
# 5 0.000000 0.000000 0.000000 0.000000 0.053913 0.000000
# 6 0.000000 0.000000 0.000000 0.000000 0.000000 0.034387
#
#
# Mechanical properties :
#
#
# Convention : Reuss Voigt Hill
#
# Bulk Modulus (GPa) = 58.28562 71.74292 65.01427
# Shear Modulus (GPa) = 23.75421 26.98428 25.36924
#
# Velocity S-wave (km/s) = 3.57021 3.80521 3.68958
# Velocity P-wave (km/s) = 6.94773 7.60283 7.28265
#
# Compressibility (1/GPa) = 0.01715689
#
# Stress axis : x y z
#
# Youngs Moduli (GPa) = 117.89974 39.02957 72.56714
#
# Poissons Ratio (x) = 0.14693 0.21431
# Poissons Ratio (y) = 0.44383 0.62740
# Poissons Ratio (z) = 0.34818 0.33744
#
# Static dielectric constant tensor:
#      x y z
#    x 3.628260 0.000000 0.000000 
#    y 0.000000 3.391060 0.000000 
#    z 0.000000 0.000000 3.516440 
# 
# 
# High freq. dielectric constant tensor:
#      x y z
#    x 1.732720 0.000000 0.000000 
#    y 0.000000 1.724550 0.000000 
#    z 0.000000 0.000000 1.724740 
# 
# From -- ./inp_files/29587.got.cif
#   From: 2010.03.12/outbox.cif.g09.slc.cpg/sg51_15_cif.got.tgz:29587.got - 2010.04.16 13:43:02.
