data_PCOD8211277
_publ_section_title
;
Structure prediction by ZEFSAII (Michael W. Deem and Ramdas Pophale) SiO2 
 PCOD8211277
Probable space group: P M M A
;
_chemical_formula_sum "Si O2"
_cell_formula_units_Z 56
_cell_length_a 8.796588
_cell_length_b 16.360184
_cell_length_c 23.308617
_cell_angle_alpha 90.000000
_cell_angle_beta 90.000000
_cell_angle_gamma 90.000000
_cell_volume 3354.431604
_symmetry_space_group_name_H-M "P M M A"
_symmetry_group_IT_number 51
_symmetry_cell_setting 'orthorhombic'
loop_
_space_group_symop_operation_xyz
x,y,z
1/2-x,-y,z
1/2+x,-y,-z
-x,y,-z
-x,-y,-z
1/2+x,y,-z
1/2-x,y,z
x,-y,z
loop_
_atom_site_type_symbol
_atom_site_label
_atom_site_fract_x
_atom_site_fract_y
_atom_site_fract_z
Si Si1 0.430441 0.000000 0.749703
Si Si2 0.928410 0.164611 0.439061
Si Si3 0.071565 0.833520 0.225555
Si Si4 0.430820 0.000000 0.619339
Si Si5 0.572236 0.405966 0.938880
Si Si6 0.574974 0.592718 0.732080
Si Si7 0.070816 0.316258 0.833780
Si Si8 0.575741 0.257915 0.658157
O O1 0.493134 0.921006 0.782740
O O2 0.492850 0.000000 0.684299
O O3 0.250000 0.000000 0.751606
O O4 0.750000 0.159864 0.446550
O O5 0.993815 0.079434 0.413871
O O6 0.000000 0.184010 0.500000
O O7 0.970001 0.237471 0.395690
O O8 0.250000 0.841152 0.215158
O O9 0.033598 0.801090 0.289111
O O10 0.003691 0.771434 0.179055
O O11 0.250000 0.000000 0.620452
O O12 0.750000 0.386226 0.940742
O O13 0.542751 0.500000 0.921384
O O14 0.490747 0.347242 0.894107
O O15 0.500000 0.386368 0.000000
O O16 0.750000 0.605193 0.751657
O O17 0.540114 0.500000 0.714231
O O18 0.470584 0.617759 0.785169
O O19 0.541592 0.648776 0.676682
O O20 0.250000 0.305826 0.836630
O O21 0.750000 0.246216 0.639716
#
# Coordination Sequence:
#
# PCOD8211277 Si02
#       8
#     4   8   8   4   8   8   8   8
#     4  11  19  32  52  76 104 131 164 205 253 302
#     4  11  21  34  49  68  94 126 160 198 242 294
#     4  10  20  34  51  73 100 134 171 206 250 302
#     4   9  19  32  48  70  97 126 156 192 239 292
#     4  10  20  34  52  75 106 143 179 215 255 300
#     4   9  18  33  52  73  99 130 163 203 251 301
#     4  11  21  32  49  75 106 138 173 212 251 295
#     4   9  18  32  49  70  94 123 160 199 244 297
#
# _framework density 16.694334000000001
#
# number of rings (size 3 to 8) (size 9 to 14) (size 15 to 20)
#    0.000    2.000    1.429    4.286    0.000    5.143 
#    0.000    1.071    0.000    0.429    0.000    0.500 
#    0.000    0.000    0.000    0.000    0.000    0.000 
#
# Total GULP energy -694582.824277 kJ/mol
# GULP energy per Si atom -12403.264719 kJ/mol
# Density = 1.665634 g / cm^3
# Si number density = 16.694334 Si / 1000 Ang^3
#
#
#
# Elastic Constant Matrix: (Units=GPa)
#
#
# Indices 1 2 3 4 5 6 
#
# 1 94.8171 50.0040 48.9742 0.0000 0.0000 0.0000
# 2 50.0040 132.1099 56.4717 0.0000 0.0000 0.0000
# 3 48.9742 56.4717 95.2429 0.0000 0.0000 0.0000
# 4 0.0000 0.0000 0.0000 27.3451 0.0000 0.0000
# 5 0.0000 0.0000 0.0000 0.0000 28.1061 0.0000
# 6 0.0000 0.0000 0.0000 0.0000 0.0000 25.3234
#
#
#
# Elastic Compliance Matrix: (Units=1/GPa)
#
#
# Indices 1 2 3 4 5 6 
#
# 1 0.015343 -0.003262 -0.005955 0.000000 0.000000 0.000000
# 2 -0.003262 0.010833 -0.004746 0.000000 0.000000 0.000000
# 3 -0.005955 -0.004746 0.016376 0.000000 0.000000 0.000000
# 4 0.000000 0.000000 0.000000 0.036570 0.000000 0.000000
# 5 0.000000 0.000000 0.000000 0.000000 0.035579 0.000000
# 6 0.000000 0.000000 0.000000 0.000000 0.000000 0.039489
#
#
# Mechanical properties :
#
#
# Convention : Reuss Voigt Hill
#
# Bulk Modulus (GPa) = 68.37406 70.34107 69.35757
# Shear Modulus (GPa) = 26.73940 27.26959 27.00449
#
# Velocity S-wave (km/s) = 4.00647 4.04600 4.02628
# Velocity P-wave (km/s) = 7.90239 8.00331 7.95301
#
# Compressibility (1/GPa) = 0.01462543
#
# Stress axis : x y z
#
# Youngs Moduli (GPa) = 65.17739 92.31395 61.06625
#
# Poissons Ratio (x) = 0.30109 0.36368
# Poissons Ratio (y) = 0.21258 0.28981
# Poissons Ratio (z) = 0.38816 0.43810
#
# Static dielectric constant tensor:
#      x y z
#    x 3.119410 0.000000 0.000000 
#    y 0.000000 3.206270 0.000000 
#    z 0.000000 0.000000 2.967080 
# 
# 
# High freq. dielectric constant tensor:
#      x y z
#    x 1.649710 0.000000 0.000000 
#    y 0.000000 1.639890 0.000000 
#    z 0.000000 0.000000 1.621390 
# 
# From -- ./inp_files/32093.got.cif
#   From: 2010.03.12/outbox.cif.g09.slc.cpg/sg51_17_cif.got.tgz:32093.got - 2010.04.16 13:43:02.
