data_PCOD8211627
_publ_section_title
;
Structure prediction by ZEFSAII (Michael W. Deem and Ramdas Pophale) SiO2 
 PCOD8211627
Probable space group: P M M A
;
_chemical_formula_sum "Si O2"
_cell_formula_units_Z 48
_cell_length_a 9.202245
_cell_length_b 14.185171
_cell_length_c 18.958373
_cell_angle_alpha 90.000000
_cell_angle_beta 90.000000
_cell_angle_gamma 90.000000
_cell_volume 2474.739161
_symmetry_space_group_name_H-M "P M M A"
_symmetry_group_IT_number 51
_symmetry_cell_setting 'orthorhombic'
loop_
_space_group_symop_operation_xyz
x,y,z
1/2-x,-y,z
1/2+x,-y,-z
-x,y,-z
-x,-y,-z
1/2+x,y,-z
1/2-x,y,z
x,-y,z
loop_
_atom_site_type_symbol
_atom_site_label
_atom_site_fract_x
_atom_site_fract_y
_atom_site_fract_z
Si Si1 0.087770 0.735854 0.179476
Si Si2 0.920563 0.109038 0.711905
Si Si3 0.590486 0.604515 0.690061
Si Si4 0.584166 0.888371 0.430613
Si Si5 0.910782 0.612468 0.435453
Si Si6 0.579248 0.393159 0.073891
O O1 0.250000 0.752378 0.147264
O O2 0.030599 0.831253 0.218453
O O3 0.096907 0.656487 0.237452
O O4 0.978902 0.693312 0.121674
O O5 0.750000 0.126959 0.697649
O O6 0.005037 0.143777 0.641916
O O7 0.953695 0.000000 0.728766
O O8 0.750000 0.602123 0.654312
O O9 0.534210 0.500000 0.706747
O O10 0.480445 0.653887 0.635732
O O11 0.500000 0.848906 0.500000
O O12 0.750000 0.850249 0.430697
O O13 0.583178 0.000000 0.433743
O O14 0.750000 0.652452 0.440836
O O15 0.917211 0.500000 0.435620
O O16 0.000000 0.654993 0.500000
O O17 0.750000 0.377458 0.063578
O O18 0.549553 0.500000 0.103860
O O19 0.500000 0.382763 0.000000
#
# Coordination Sequence:
#
# PCOD8211627 Si02
#       6
#     8   8   8   8   8   8
#     4  10  20  34  54  79 107 139 173 211 258 311
#     4   9  18  33  52  75 105 141 181 225 273 323
#     4   9  17  29  45  66  93 124 158 198 245 297
#     4   9  16  27  46  71  98 131 174 226 282 334
#     4   9  16  26  41  60  84 118 160 203 245 291
#     4  10  21  37  59  87 117 146 174 207 250 303
#
# _framework density 19.395983000000001
#
# number of rings (size 3 to 8) (size 9 to 14) (size 15 to 20)
#    0.000    2.667    0.000    2.000    0.000    7.000 
#    0.000    2.500    0.000    0.500    0.000    0.000 
#    0.000    0.000    0.000    0.000    0.000    0.000 
#
# Total GULP energy -594740.985780 kJ/mol
# GULP energy per Si atom -12390.437204 kJ/mol
# Density = 1.935184 g / cm^3
# Si number density = 19.395983 Si / 1000 Ang^3
#
#
#
# Elastic Constant Matrix: (Units=GPa)
#
#
# Indices 1 2 3 4 5 6 
#
# 1 125.5497 29.6359 61.5951 0.0000 0.0000 0.0000
# 2 29.6359 91.2299 43.0610 0.0000 0.0000 0.0000
# 3 61.5951 43.0610 95.9457 0.0000 0.0000 0.0000
# 4 0.0000 0.0000 0.0000 53.0662 0.0000 0.0000
# 5 0.0000 0.0000 0.0000 0.0000 38.1322 0.0000
# 6 0.0000 0.0000 0.0000 0.0000 0.0000 11.0101
#
#
#
# Elastic Compliance Matrix: (Units=1/GPa)
#
#
# Indices 1 2 3 4 5 6 
#
# 1 0.011634 -0.000322 -0.007324 0.000000 0.000000 0.000000
# 2 -0.000322 0.013916 -0.006039 0.000000 0.000000 0.000000
# 3 -0.007324 -0.006039 0.017835 0.000000 0.000000 0.000000
# 4 0.000000 0.000000 0.000000 0.018844 0.000000 0.000000
# 5 0.000000 0.000000 0.000000 0.000000 0.026225 0.000000
# 6 0.000000 0.000000 0.000000 0.000000 0.000000 0.090826
#
#
# Mechanical properties :
#
#
# Convention : Reuss Voigt Hill
#
# Bulk Modulus (GPa) = 62.44277 64.58994 63.51636
# Shear Modulus (GPa) = 23.58603 32.33726 27.96165
#
# Velocity S-wave (km/s) = 3.49094 4.08758 3.80099
# Velocity P-wave (km/s) = 6.96509 7.45994 7.21676
#
# Compressibility (1/GPa) = 0.01601466
#
# Stress axis : x y z
#
# Youngs Moduli (GPa) = 85.95171 71.85780 56.06962
#
# Poissons Ratio (x) = 0.02316 0.41068
# Poissons Ratio (y) = 0.02770 0.33860
# Poissons Ratio (z) = 0.62955 0.43394
#
# Static dielectric constant tensor:
#      x y z
#    x 3.866060 0.000000 0.000000 
#    y 0.000000 3.553360 0.000000 
#    z 0.000000 0.000000 3.411100 
# 
# 
# High freq. dielectric constant tensor:
#      x y z
#    x 1.757630 0.000000 0.000000 
#    y 0.000000 1.749450 0.000000 
#    z 0.000000 0.000000 1.731810 
# 
# From -- ./inp_files/27575.got.cif
#   From: 2010.03.12/outbox.cif.g09.slc.cpg/sg51_14_cif.got.tgz:27575.got - 2010.04.16 13:43:02.
