data_PCOD8211174
_publ_section_title
;
Structure prediction by ZEFSAII (Michael W. Deem and Ramdas Pophale) SiO2 
 PCOD8211174
Probable space group: P M M A
;
_chemical_formula_sum "Si O2"
_cell_formula_units_Z 56
_cell_length_a 8.902429
_cell_length_b 22.570937
_cell_length_c 14.774985
_cell_angle_alpha 90.000000
_cell_angle_beta 90.000000
_cell_angle_gamma 90.000000
_cell_volume 2968.828811
_symmetry_space_group_name_H-M "P M M A"
_symmetry_group_IT_number 51
_symmetry_cell_setting 'orthorhombic'
loop_
_space_group_symop_operation_xyz
x,y,z
1/2-x,-y,z
1/2+x,-y,-z
-x,y,-z
-x,-y,-z
1/2+x,y,-z
1/2-x,y,z
x,-y,z
loop_
_atom_site_type_symbol
_atom_site_label
_atom_site_fract_x
_atom_site_fract_y
_atom_site_fract_z
Si Si1 0.427376 0.214120 0.093499
Si Si2 0.928055 0.661021 0.094096
Si Si3 0.575596 0.156958 0.722442
Si Si4 0.074060 0.741342 0.409843
Si Si5 0.077009 0.433179 0.217439
Si Si6 0.574322 0.931756 0.407355
Si Si7 0.924511 0.391819 0.589479
O O1 0.250000 0.224268 0.080664
O O2 0.501241 0.276237 0.123016
O O3 0.459812 0.165235 0.170947
O O4 0.500000 0.190822 0.000000
O O5 0.750000 0.667555 0.084418
O O6 0.966206 0.611037 0.166858
O O7 0.000000 0.639937 0.000000
O O8 0.750000 0.143224 0.706421
O O9 0.527023 0.218041 0.674347
O O10 0.482702 0.102790 0.681120
O O11 0.250000 0.741883 0.424660
O O12 0.014766 0.674840 0.391547
O O13 0.000000 0.768136 0.500000
O O14 0.250000 0.413388 0.202067
O O15 0.050896 0.500000 0.182386
O O16 0.037241 0.431665 0.323850
O O17 0.500000 0.907550 0.500000
O O18 0.750000 0.922288 0.417386
O O19 0.530391 0.000000 0.392326
O O20 0.750000 0.390469 0.569350
O O21 0.000000 0.419392 0.500000
#
# Coordination Sequence:
#
# PCOD8211174 Si02
#       7
#     8   8   8   8   8   8   8
#     4  10  20  36  57  82 111 140 173 214 262 316
#     4  11  22  37  58  81 106 136 169 210 263 320
#     4  10  20  33  53  79 107 141 178 220 266 311
#     4   9  17  29  45  69 100 130 162 202 251 305
#     4  10  21  37  55  74  99 134 175 218 264 314
#     4  10  21  36  54  78 111 150 189 227 264 307
#     4   9  18  33  51  71  99 134 169 208 255 308
#
# _framework density 18.862658
#
# number of rings (size 3 to 8) (size 9 to 14) (size 15 to 20)
#    0.000    2.143    0.000    4.286    0.000    7.429 
#    0.000    2.857    0.000    0.429    0.000    0.000 
#    0.000    0.000    0.000    0.000    0.000    0.000 
#
# Total GULP energy -694442.254810 kJ/mol
# GULP energy per Si atom -12400.754550 kJ/mol
# Density = 1.881973 g / cm^3
# Si number density = 18.862658 Si / 1000 Ang^3
#
#
#
# Elastic Constant Matrix: (Units=GPa)
#
#
# Indices 1 2 3 4 5 6 
#
# 1 87.7898 40.1222 52.4205 0.0000 0.0000 0.0000
# 2 40.1222 68.4465 48.4205 0.0000 0.0000 0.0000
# 3 52.4205 48.4205 114.6190 0.0000 0.0000 0.0000
# 4 0.0000 0.0000 0.0000 25.7940 0.0000 0.0000
# 5 0.0000 0.0000 0.0000 0.0000 35.0954 0.0000
# 6 0.0000 0.0000 0.0000 0.0000 0.0000 19.8705
#
#
#
# Elastic Compliance Matrix: (Units=1/GPa)
#
#
# Indices 1 2 3 4 5 6 
#
# 1 0.017519 -0.006562 -0.005240 0.000000 0.000000 0.000000
# 2 -0.006562 0.023295 -0.006840 0.000000 0.000000 0.000000
# 3 -0.005240 -0.006840 0.014010 0.000000 0.000000 0.000000
# 4 0.000000 0.000000 0.000000 0.038769 0.000000 0.000000
# 5 0.000000 0.000000 0.000000 0.000000 0.028494 0.000000
# 6 0.000000 0.000000 0.000000 0.000000 0.000000 0.050326
#
#
# Mechanical properties :
#
#
# Convention : Reuss Voigt Hill
#
# Bulk Modulus (GPa) = 57.01105 61.42017 59.21561
# Shear Modulus (GPa) = 23.19711 24.81144 24.00428
#
# Velocity S-wave (km/s) = 3.51064 3.63074 3.57120
# Velocity P-wave (km/s) = 6.83540 7.08582 6.96174
#
# Compressibility (1/GPa) = 0.01754046
#
# Stress axis : x y z
#
# Youngs Moduli (GPa) = 57.08133 42.92706 71.37549
#
# Poissons Ratio (x) = 0.28171 0.37400
# Poissons Ratio (y) = 0.37459 0.48819
# Poissons Ratio (z) = 0.29910 0.29361
#
# Static dielectric constant tensor:
#      x y z
#    x 3.422360 0.000000 0.000000 
#    y 0.000000 3.341260 0.000000 
#    z 0.000000 0.000000 3.727000 
# 
# 
# High freq. dielectric constant tensor:
#      x y z
#    x 1.731280 0.000000 0.000000 
#    y 0.000000 1.715180 0.000000 
#    z 0.000000 0.000000 1.733980 
# 
# From -- ./inp_files/21825.got.cif
#   From: 2010.03.12/outbox.cif.g09.slc.cpg/sg51_11_cif.got.tgz:21825.got - 2010.04.16 13:43:02.
