data_PCOD8211860
_publ_section_title
;
Structure prediction by ZEFSAII (Michael W. Deem and Ramdas Pophale) SiO2 
 PCOD8211860
Probable space group: P M M A
;
_chemical_formula_sum "Si O2"
_cell_formula_units_Z 44
_cell_length_a 8.833087
_cell_length_b 17.846726
_cell_length_c 14.242445
_cell_angle_alpha 90.000000
_cell_angle_beta 90.000000
_cell_angle_gamma 90.000000
_cell_volume 2245.203006
_symmetry_space_group_name_H-M "P M M A"
_symmetry_group_IT_number 51
_symmetry_cell_setting 'orthorhombic'
loop_
_space_group_symop_operation_xyz
x,y,z
1/2-x,-y,z
1/2+x,-y,-z
-x,y,-z
-x,-y,-z
1/2+x,y,-z
1/2-x,y,z
x,-y,z
loop_
_atom_site_type_symbol
_atom_site_label
_atom_site_fract_x
_atom_site_fract_y
_atom_site_fract_z
Si Si1 0.074713 0.415548 0.723698
Si Si2 0.930074 0.000000 0.602620
Si Si3 0.928250 0.134809 0.284471
Si Si4 0.926870 0.354563 0.904106
Si Si5 0.429104 0.181675 0.097683
Si Si6 0.073966 0.281310 0.599154
O O1 0.250000 0.397956 0.744238
O O2 0.050296 0.500000 0.686656
O O3 0.012184 0.358646 0.644531
O O4 0.985318 0.405504 0.819927
O O5 0.000000 0.000000 0.500000
O O6 0.985012 0.926912 0.656384
O O7 0.750000 0.000000 0.595001
O O8 0.750000 0.117601 0.283363
O O9 0.966238 0.214699 0.330099
O O10 0.993099 0.133363 0.179280
O O11 0.750000 0.364799 0.913789
O O12 0.971973 0.268386 0.885963
O O13 0.000000 0.384230 0.000000
O O14 0.250000 0.168198 0.097357
O O15 0.500000 0.153390 0.000000
O O16 0.250000 0.287101 0.580030
O O17 0.000000 0.265276 0.500000
#
# Coordination Sequence:
#
# PCOD8211860 Si02
#       6
#     8   4   8   8   8   8
#     4  10  21  38  57  80 114 154 197 247 300 352
#     4  12  26  44  65  94 129 162 202 248 300 356
#     4  11  22  40  65  92 123 160 200 245 298 355
#     4  10  20  34  56  84 116 153 196 243 295 352
#     4  10  20  35  59  91 123 159 199 245 294 353
#     4  10  22  38  59  85 113 150 196 244 295 353
#
# _framework density 19.597338000000001
#
# number of rings (size 3 to 8) (size 9 to 14) (size 15 to 20)
#    0.000    1.636    1.818    3.000    0.000    6.182 
#    0.000    0.455    0.000    0.000    0.000    0.000 
#    0.000    0.000    0.000    0.000    0.000    0.000 
#
# Total GULP energy -545810.819828 kJ/mol
# GULP energy per Si atom -12404.791360 kJ/mol
# Density = 1.955273 g / cm^3
# Si number density = 19.597338 Si / 1000 Ang^3
#
#
#
# Elastic Constant Matrix: (Units=GPa)
#
#
# Indices 1 2 3 4 5 6 
#
# 1 94.9723 50.3721 60.1441 0.0000 0.0000 0.0000
# 2 50.3721 93.0752 49.0598 0.0000 0.0000 0.0000
# 3 60.1441 49.0598 146.7949 0.0000 0.0000 0.0000
# 4 0.0000 0.0000 0.0000 27.0044 0.0000 0.0000
# 5 0.0000 0.0000 0.0000 0.0000 39.2481 0.0000
# 6 0.0000 0.0000 0.0000 0.0000 0.0000 18.2746
#
#
#
# Elastic Compliance Matrix: (Units=1/GPa)
#
#
# Indices 1 2 3 4 5 6 
#
# 1 0.017129 -0.006762 -0.004758 0.000000 0.000000 0.000000
# 2 -0.006762 0.015711 -0.002480 0.000000 0.000000 0.000000
# 3 -0.004758 -0.002480 0.009591 0.000000 0.000000 0.000000
# 4 0.000000 0.000000 0.000000 0.037031 0.000000 0.000000
# 5 0.000000 0.000000 0.000000 0.000000 0.025479 0.000000
# 6 0.000000 0.000000 0.000000 0.000000 0.000000 0.054721
#
#
# Mechanical properties :
#
#
# Convention : Reuss Voigt Hill
#
# Bulk Modulus (GPa) = 69.30116 72.66606 70.98361
# Shear Modulus (GPa) = 25.97775 28.58986 27.28380
#
# Velocity S-wave (km/s) = 3.64479 3.82365 3.73529
# Velocity P-wave (km/s) = 7.29054 7.52687 7.40965
#
# Compressibility (1/GPa) = 0.01442977
#
# Stress axis : x y z
#
# Youngs Moduli (GPa) = 58.37969 63.64962 104.26924
#
# Poissons Ratio (x) = 0.43042 0.49612
# Poissons Ratio (y) = 0.39478 0.25860
# Poissons Ratio (z) = 0.27778 0.15786
#
# Static dielectric constant tensor:
#      x y z
#    x 3.560730 0.000000 0.000000 
#    y 0.000000 3.623150 0.000000 
#    z 0.000000 0.000000 3.564090 
# 
# 
# High freq. dielectric constant tensor:
#      x y z
#    x 1.768510 0.000000 0.000000 
#    y 0.000000 1.755210 0.000000 
#    z 0.000000 0.000000 1.773160 
# 
# From -- ./inp_files/20969.got.cif
#   From: 2010.03.12/outbox.cif.g09.slc.cpg/sg51_11_cif.got.tgz:20969.got - 2010.04.16 13:43:02.
