data_PCOD8211792
_publ_section_title
;
Structure prediction by ZEFSAII (Michael W. Deem and Ramdas Pophale) SiO2 
 PCOD8211792
Probable space group: P M M A
;
_chemical_formula_sum "Si O2"
_cell_formula_units_Z 64
_cell_length_a 9.047895
_cell_length_b 23.690347
_cell_length_c 15.637663
_cell_angle_alpha 90.000000
_cell_angle_beta 90.000000
_cell_angle_gamma 90.000000
_cell_volume 3351.898226
_symmetry_space_group_name_H-M "P M M A"
_symmetry_group_IT_number 51
_symmetry_cell_setting 'orthorhombic'
loop_
_space_group_symop_operation_xyz
x,y,z
1/2-x,-y,z
1/2+x,-y,-z
-x,y,-z
-x,-y,-z
1/2+x,y,-z
1/2-x,y,z
x,-y,z
loop_
_atom_site_type_symbol
_atom_site_label
_atom_site_fract_x
_atom_site_fract_y
_atom_site_fract_z
Si Si1 0.423617 0.435026 0.586530
Si Si2 0.573905 0.367334 0.249514
Si Si3 0.578884 0.175612 0.414726
Si Si4 0.921763 0.064222 0.845210
Si Si5 0.574354 0.760056 0.248247
Si Si6 0.917922 0.062713 0.329671
Si Si7 0.923483 0.565007 0.085992
Si Si8 0.574444 0.169168 0.085027
O O1 0.500000 0.413261 0.500000
O O2 0.250000 0.426874 0.575183
O O3 0.464532 0.500000 0.604961
O O4 0.485468 0.398218 0.665370
O O5 0.750000 0.369030 0.249668
O O6 0.512852 0.303607 0.247043
O O7 0.513972 0.399566 0.165868
O O8 0.500000 0.197107 0.500000
O O9 0.750000 0.189347 0.425858
O O10 0.513866 0.209020 0.333066
O O11 0.548838 0.108736 0.402522
O O12 0.750000 0.080043 0.853102
O O13 0.969992 0.072325 0.747405
O O14 0.017928 0.105044 0.904673
O O15 0.951851 0.000000 0.874799
O O16 0.750000 0.760505 0.248863
O O17 0.518344 0.793277 0.164649
O O18 0.750000 0.071416 0.294927
O O19 0.937577 0.000000 0.369156
O O20 0.750000 0.573634 0.074950
O O21 0.964448 0.500000 0.102828
O O22 0.000000 0.587641 0.000000
O O23 0.750000 0.169573 0.075695
O O24 0.500000 0.195065 0.000000
#
# Coordination Sequence:
#
# PCOD8211792 Si02
#       8
#     8   8   8   8   8   8   8   8
#     4   9  17  30  50  77 107 138 174 216 261 309
#     4   9  17  31  53  75  99 138 180 215 252 307
#     4  10  20  35  53  76 102 135 174 213 258 311
#     4  10  20  34  55  83 110 135 168 212 262 315
#     4   9  19  36  54  74 103 137 176 218 263 308
#     4   9  17  32  54  77 104 138 171 208 259 315
#     4   9  17  30  50  77 106 135 169 209 255 306
#     4  11  22  38  58  79 104 138 176 217 263 316
#
# _framework density 19.093658999999999
#
# number of rings (size 3 to 8) (size 9 to 14) (size 15 to 20)
#    0.000    2.500    1.250    1.125    0.000    4.250 
#    0.000    0.625    0.000    6.000    0.000    0.000 
#    0.000    0.000    0.000    0.000    0.000    0.000 
#
# Total GULP energy -793602.023291 kJ/mol
# GULP energy per Si atom -12400.031614 kJ/mol
# Density = 1.905020 g / cm^3
# Si number density = 19.093659 Si / 1000 Ang^3
#
#
#
# Elastic Constant Matrix: (Units=GPa)
#
#
# Indices 1 2 3 4 5 6 
#
# 1 43.0073 30.0963 41.1229 0.0000 0.0000 0.0000
# 2 30.0963 120.7278 84.7274 0.0000 0.0000 0.0000
# 3 41.1229 84.7274 178.9020 0.0000 0.0000 0.0000
# 4 0.0000 0.0000 0.0000 16.4188 0.0000 0.0000
# 5 0.0000 0.0000 0.0000 0.0000 33.3556 0.0000
# 6 0.0000 0.0000 0.0000 0.0000 0.0000 14.5765
#
#
#
# Elastic Compliance Matrix: (Units=1/GPa)
#
#
# Indices 1 2 3 4 5 6 
#
# 1 0.031099 -0.004098 -0.005208 0.000000 0.000000 0.000000
# 2 -0.004098 0.012947 -0.005190 0.000000 0.000000 0.000000
# 3 -0.005208 -0.005190 0.009245 0.000000 0.000000 0.000000
# 4 0.000000 0.000000 0.000000 0.060906 0.000000 0.000000
# 5 0.000000 0.000000 0.000000 0.000000 0.029980 0.000000
# 6 0.000000 0.000000 0.000000 0.000000 0.000000 0.068604
#
#
# Mechanical properties :
#
#
# Convention : Reuss Voigt Hill
#
# Bulk Modulus (GPa) = 41.15242 72.72557 56.93900
# Shear Modulus (GPa) = 20.01036 25.31620 22.66328
#
# Velocity S-wave (km/s) = 3.24081 3.64524 3.44896
# Velocity P-wave (km/s) = 5.96687 7.47586 6.76358
#
# Compressibility (1/GPa) = 0.02429991
#
# Stress axis : x y z
#
# Youngs Moduli (GPa) = 32.15520 77.23963 108.17238
#
# Poissons Ratio (x) = 0.31652 0.56334
# Poissons Ratio (y) = 0.13177 0.56137
# Poissons Ratio (z) = 0.16746 0.40084
#
# Static dielectric constant tensor:
#      x y z
#    x 3.188850 0.000000 0.000000 
#    y 0.000000 3.641820 0.000000 
#    z 0.000000 0.000000 3.548950 
# 
# 
# High freq. dielectric constant tensor:
#      x y z
#    x 1.710040 0.000000 0.000000 
#    y 0.000000 1.741950 0.000000 
#    z 0.000000 0.000000 1.744730 
# 
# From -- ./inp_files/22361.got.cif
#   From: 2010.03.12/outbox.cif.g09.slc.cpg/sg51_12_cif.got.tgz:22361.got - 2010.04.16 13:43:02.
