data_PCOD8211239
_publ_section_title
;
Structure prediction by ZEFSAII (Michael W. Deem and Ramdas Pophale) SiO2 
 PCOD8211239
Probable space group: P M M A
;
_chemical_formula_sum "Si O2"
_cell_formula_units_Z 40
_cell_length_a 25.901350
_cell_length_b 8.418442
_cell_length_c 9.998501
_cell_angle_alpha 90.000000
_cell_angle_beta 90.000000
_cell_angle_gamma 90.000000
_cell_volume 2180.163271
_symmetry_space_group_name_H-M "P M M A"
_symmetry_group_IT_number 51
_symmetry_cell_setting 'orthorhombic'
loop_
_space_group_symop_operation_xyz
x,y,z
1/2-x,-y,z
1/2+x,-y,-z
-x,y,-z
-x,-y,-z
1/2+x,y,-z
1/2-x,y,z
x,-y,z
loop_
_atom_site_type_symbol
_atom_site_label
_atom_site_fract_x
_atom_site_fract_y
_atom_site_fract_z
Si Si1 0.250000 0.680575 0.116437
Si Si2 0.448565 0.186581 0.652890
Si Si3 0.558912 0.686648 0.634304
Si Si4 0.862593 0.316998 0.854631
Si Si5 0.639109 0.811497 0.148787
Si Si6 0.250000 0.820045 0.840408
O O1 0.250000 0.500000 0.056857
O O2 0.303302 0.705811 0.198722
O O3 0.250000 0.811758 0.001110
O O4 0.429820 0.220947 0.502762
O O5 0.501252 0.278724 0.685919
O O6 0.405714 0.253448 0.755218
O O7 0.457957 0.000000 0.671219
O O8 0.565976 0.500000 0.609161
O O9 0.599270 0.754543 0.743099
O O10 0.876266 0.500000 0.875352
O O11 0.872532 0.234840 0.996566
O O12 0.694898 0.740804 0.202194
O O13 0.642126 0.000000 0.156642
O O14 0.250000 0.000000 0.790655
#
# Coordination Sequence:
#
# PCOD8211239 Si02
#       6
#     4   8   8   8   8   4
#     4   8  14  28  47  68  94 122 150 186 229 274
#     4  10  20  34  50  69  93 125 159 193 233 278
#     4  10  20  34  50  69  93 125 159 193 233 278
#     4   9  18  31  50  73  96 122 155 192 232 275
#     4   9  18  31  50  73  96 122 155 192 232 275
#     4   8  14  28  47  68  94 122 150 186 229 274
#
# _framework density 18.347251
#
# number of rings (size 3 to 8) (size 9 to 14) (size 15 to 20)
#    0.000    2.800    0.000    2.400    0.000    4.000 
#    0.000    5.000    0.000    0.000    0.000    0.000 
#    0.000    0.000    0.000    0.000    0.000    0.000 
#
# Total GULP energy -495566.702959 kJ/mol
# GULP energy per Si atom -12389.167574 kJ/mol
# Density = 1.830549 g / cm^3
# Si number density = 18.347251 Si / 1000 Ang^3
#
#
#
# Elastic Constant Matrix: (Units=GPa)
#
#
# Indices 1 2 3 4 5 6 
#
# 1 160.3581 6.6016 91.1923 0.0000 0.0000 0.0000
# 2 6.6016 20.6199 2.9943 0.0000 0.0000 0.0000
# 3 91.1923 2.9943 87.7776 0.0000 0.0000 0.0000
# 4 0.0000 0.0000 0.0000 21.3562 0.0000 0.0000
# 5 0.0000 0.0000 0.0000 0.0000 19.2464 0.0000
# 6 0.0000 0.0000 0.0000 0.0000 0.0000 21.8433
#
#
#
# Elastic Compliance Matrix: (Units=1/GPa)
#
#
# Indices 1 2 3 4 5 6 
#
# 1 0.015379 -0.002617 -0.015888 0.000000 0.000000 0.000000
# 2 -0.002617 0.049183 0.001041 0.000000 0.000000 0.000000
# 3 -0.015888 0.001041 0.027863 0.000000 0.000000 0.000000
# 4 0.000000 0.000000 0.000000 0.046825 0.000000 0.000000
# 5 0.000000 0.000000 0.000000 0.000000 0.051958 0.000000
# 6 0.000000 0.000000 0.000000 0.000000 0.000000 0.045781
#
#
# Mechanical properties :
#
#
# Convention : Reuss Voigt Hill
#
# Bulk Modulus (GPa) = 17.39210 52.25914 34.82562
# Shear Modulus (GPa) = 17.17730 23.68700 20.43215
#
# Velocity S-wave (km/s) = 3.06311 3.59700 3.34074
# Velocity P-wave (km/s) = 4.69150 6.76730 5.82265
#
# Compressibility (1/GPa) = 0.05749736
#
# Stress axis : x y z
#
# Youngs Moduli (GPa) = 65.02430 20.33208 35.89003
#
# Poissons Ratio (x) = 0.05320 0.57022
# Poissons Ratio (y) = 0.17014 -0.03734
# Poissons Ratio (z) = 1.03310 -0.02116
#
# Static dielectric constant tensor:
#      x y z
#    x 3.958670 0.000000 0.000000 
#    y 0.000000 3.242690 0.000000 
#    z 0.000000 0.000000 3.205660 
# 
# 
# High freq. dielectric constant tensor:
#      x y z
#    x 1.732600 0.000000 0.000000 
#    y 0.000000 1.702200 0.000000 
#    z 0.000000 0.000000 1.676050 
# 
# From -- ./inp_files/17995.got.cif
#   From: 2010.03.12/outbox.cif.g09.slc.cpg/sg51_9_cif.got.tgz:17995.got - 2010.04.16 13:43:02.
