data_PCOD8211830
_publ_section_title
;
Structure prediction by ZEFSAII (Michael W. Deem and Ramdas Pophale) SiO2 
 PCOD8211830
Probable space group: P M M A
;
_chemical_formula_sum "Si O2"
_cell_formula_units_Z 48
_cell_length_a 17.877880
_cell_length_b 8.944637
_cell_length_c 15.299411
_cell_angle_alpha 90.000000
_cell_angle_beta 90.000000
_cell_angle_gamma 90.000000
_cell_volume 2446.546360
_symmetry_space_group_name_H-M "P M M A"
_symmetry_group_IT_number 51
_symmetry_cell_setting 'orthorhombic'
loop_
_space_group_symop_operation_xyz
x,y,z
1/2-x,-y,z
1/2+x,-y,-z
-x,y,-z
-x,-y,-z
1/2+x,y,-z
1/2-x,y,z
x,-y,z
loop_
_atom_site_type_symbol
_atom_site_label
_atom_site_fract_x
_atom_site_fract_y
_atom_site_fract_z
Si Si1 0.161373 0.835081 0.474097
Si Si2 0.586095 0.676415 0.172869
Si Si3 0.161795 0.671296 0.303330
Si Si4 0.664121 0.171620 0.018037
Si Si5 0.835973 0.824060 0.331630
Si Si6 0.927718 0.176064 0.848230
O O1 0.250000 0.846225 0.476283
O O2 0.134641 0.719014 0.400305
O O3 0.135538 0.783104 0.570576
O O4 0.128570 0.000000 0.452699
O O5 0.580124 0.500000 0.174711
O O6 0.646258 0.726503 0.101089
O O7 0.611046 0.732930 0.267475
O O8 0.506567 0.743429 0.147937
O O9 0.250000 0.696623 0.292541
O O10 0.139099 0.500000 0.288498
O O11 0.120317 0.774260 0.234399
O O12 0.750000 0.194421 0.991821
O O13 0.647244 0.000000 0.043019
O O14 0.615411 0.223313 0.935768
O O15 0.750000 0.774914 0.317501
O O16 0.844458 0.000000 0.314005
O O17 0.940258 0.000000 0.842867
#
# Coordination Sequence:
#
# PCOD8211830 Si02
#       6
#     8   8   8   8   8   8
#     4   8  15  30  54  82 110 144 188 233 274 321
#     4  12  25  38  55  83 118 151 182 224 282 340
#     4  10  20  34  55  85 119 150 181 226 283 336
#     4  10  22  41  64  87 109 139 184 232 274 324
#     4   9  18  35  59  84 111 147 192 237 276 322
#     4  11  23  40  61  82 109 149 193 233 273 323
#
# _framework density 19.619492999999999
#
# number of rings (size 3 to 8) (size 9 to 14) (size 15 to 20)
#    0.000    2.000    0.000    5.000    0.000    8.333 
#    0.000    2.500    0.000    5.000    0.000    0.000 
#    0.000    0.000    0.000    0.000    0.000    0.000 
#
# Total GULP energy -595312.636227 kJ/mol
# GULP energy per Si atom -12402.346588 kJ/mol
# Density = 1.957484 g / cm^3
# Si number density = 19.619493 Si / 1000 Ang^3
#
#
#
# Elastic Constant Matrix: (Units=GPa)
#
#
# Indices 1 2 3 4 5 6 
#
# 1 57.1480 28.1115 24.1822 0.0000 0.0000 0.0000
# 2 28.1115 84.4504 40.8270 0.0000 0.0000 0.0000
# 3 24.1822 40.8270 114.7026 0.0000 0.0000 0.0000
# 4 0.0000 0.0000 0.0000 8.3570 0.0000 0.0000
# 5 0.0000 0.0000 0.0000 0.0000 34.9050 0.0000
# 6 0.0000 0.0000 0.0000 0.0000 0.0000 26.1059
#
#
#
# Elastic Compliance Matrix: (Units=1/GPa)
#
#
# Indices 1 2 3 4 5 6 
#
# 1 0.021455 -0.005985 -0.002393 0.000000 0.000000 0.000000
# 2 -0.005985 0.015972 -0.004423 0.000000 0.000000 0.000000
# 3 -0.002393 -0.004423 0.010797 0.000000 0.000000 0.000000
# 4 0.000000 0.000000 0.000000 0.119660 0.000000 0.000000
# 5 0.000000 0.000000 0.000000 0.000000 0.028649 0.000000
# 6 0.000000 0.000000 0.000000 0.000000 0.000000 0.038305
#
#
# Mechanical properties :
#
#
# Convention : Reuss Voigt Hill
#
# Bulk Modulus (GPa) = 44.20539 49.17137 46.68838
# Shear Modulus (GPa) = 18.65799 24.75228 21.70513
#
# Velocity S-wave (km/s) = 3.08716 3.55578 3.32972
# Velocity P-wave (km/s) = 5.94035 6.47881 6.21541
#
# Compressibility (1/GPa) = 0.02262168
#
# Stress axis : x y z
#
# Youngs Moduli (GPa) = 46.60897 62.60993 92.61748
#
# Poissons Ratio (x) = 0.37472 0.22163
# Poissons Ratio (y) = 0.27895 0.40967
# Poissons Ratio (z) = 0.11154 0.27694
#
# Static dielectric constant tensor:
#      x y z
#    x 3.428380 0.000000 0.000000 
#    y 0.000000 3.558090 0.000000 
#    z 0.000000 0.000000 3.851530 
# 
# 
# High freq. dielectric constant tensor:
#      x y z
#    x 1.749240 0.000000 0.000000 
#    y 0.000000 1.760150 0.000000 
#    z 0.000000 0.000000 1.780910 
# 
# From -- ./inp_files/24765.got.cif
#   From: 2010.03.12/outbox.cif.g09.slc.cpg/sg51_13_cif.got.tgz:24765.got - 2010.04.16 13:43:02.
