data_PCOD8211404
_publ_section_title
;
Structure prediction by ZEFSAII (Michael W. Deem and Ramdas Pophale) SiO2 
 PCOD8211404
Probable space group: P M M A
;
_chemical_formula_sum "Si O2"
_cell_formula_units_Z 64
_cell_length_a 8.966546
_cell_length_b 19.956349
_cell_length_c 19.949005
_cell_angle_alpha 90.000000
_cell_angle_beta 90.000000
_cell_angle_gamma 90.000000
_cell_volume 3569.665405
_symmetry_space_group_name_H-M "P M M A"
_symmetry_group_IT_number 51
_symmetry_cell_setting 'orthorhombic'
loop_
_space_group_symop_operation_xyz
x,y,z
1/2-x,-y,z
1/2+x,-y,-z
-x,y,-z
-x,-y,-z
1/2+x,y,-z
1/2-x,y,z
x,-y,z
loop_
_atom_site_type_symbol
_atom_site_label
_atom_site_fract_x
_atom_site_fract_y
_atom_site_fract_z
Si Si1 0.075085 0.076396 0.431048
Si Si2 0.075655 0.299727 0.434460
Si Si3 0.423514 0.186608 0.327616
Si Si4 0.573457 0.747995 0.212861
Si Si5 0.920614 0.427118 0.114834
Si Si6 0.573265 0.389757 0.755034
Si Si7 0.421662 0.574470 0.622453
Si Si8 0.077826 0.715138 0.934584
O O1 0.250000 0.086072 0.441499
O O2 0.019569 0.122217 0.369454
O O3 0.000000 0.100027 0.500000
O O4 0.031757 0.000000 0.413891
O O5 0.250000 0.307674 0.447362
O O6 0.043377 0.252948 0.370886
O O7 0.000000 0.266753 0.500000
O O8 0.004685 0.372813 0.424786
O O9 0.250000 0.179752 0.310122
O O10 0.514569 0.189392 0.257174
O O11 0.750000 0.740354 0.219699
O O12 0.492232 0.684579 0.244483
O O13 0.528358 0.753153 0.133939
O O14 0.750000 0.416047 0.139568
O O15 0.936473 0.500000 0.078110
O O16 0.964443 0.364240 0.068308
O O17 0.029908 0.429153 0.177992
O O18 0.750000 0.386062 0.746621
O O19 0.502556 0.429367 0.693818
O O20 0.250000 0.596335 0.631499
O O21 0.432654 0.500000 0.590533
O O22 0.250000 0.725955 0.946684
O O23 0.000000 0.746766 0.000000
#
# Coordination Sequence:
#
# PCOD8211404 Si02
#       8
#     8   8   8   8   8   8   8   8
#     4   9  18  33  53  80 117 155 186 214 247 293
#     4  11  23  37  53  73  97 126 165 212 257 306
#     4  10  20  34  54  81 107 136 176 216 252 291
#     4  10  20  34  53  74  99 131 168 208 254 304
#     4   9  18  32  47  64  90 123 159 199 247 309
#     4  11  20  31  48  71  95 119 155 205 258 311
#     4  11  23  37  52  68  89 121 161 208 264 319
#     4   9  19  33  48  69  95 127 163 203 255 312
#
# _framework density 17.928851000000002
#
# number of rings (size 3 to 8) (size 9 to 14) (size 15 to 20)
#    0.000    2.000    1.250    3.750    0.000    6.750 
#    0.000    0.000    0.000    0.000    0.000    0.000 
#    0.000    0.500    0.000    1.125    0.000    1.750 
#
# Total GULP energy -793371.878946 kJ/mol
# GULP energy per Si atom -12396.435609 kJ/mol
# Density = 1.788804 g / cm^3
# Si number density = 17.928851 Si / 1000 Ang^3
#
#
#
# Elastic Constant Matrix: (Units=GPa)
#
#
# Indices 1 2 3 4 5 6 
#
# 1 85.3290 29.3677 49.0456 0.0000 0.0000 0.0000
# 2 29.3677 69.3085 42.7487 0.0000 0.0000 0.0000
# 3 49.0456 42.7487 121.3182 0.0000 0.0000 0.0000
# 4 0.0000 0.0000 0.0000 20.1313 0.0000 0.0000
# 5 0.0000 0.0000 0.0000 0.0000 32.0094 0.0000
# 6 0.0000 0.0000 0.0000 0.0000 0.0000 17.4796
#
#
#
# Elastic Compliance Matrix: (Units=1/GPa)
#
#
# Indices 1 2 3 4 5 6 
#
# 1 0.015921 -0.003547 -0.005187 0.000000 0.000000 0.000000
# 2 -0.003547 0.019225 -0.005340 0.000000 0.000000 0.000000
# 3 -0.005187 -0.005340 0.012221 0.000000 0.000000 0.000000
# 4 0.000000 0.000000 0.000000 0.049674 0.000000 0.000000
# 5 0.000000 0.000000 0.000000 0.000000 0.031241 0.000000
# 6 0.000000 0.000000 0.000000 0.000000 0.000000 0.057210
#
#
# Mechanical properties :
#
#
# Convention : Reuss Voigt Hill
#
# Bulk Modulus (GPa) = 52.03033 57.58662 54.80847
# Shear Modulus (GPa) = 22.72243 24.24364 23.48303
#
# Velocity S-wave (km/s) = 3.56387 3.68124 3.62303
# Velocity P-wave (km/s) = 6.78368 7.08928 6.93816
#
# Compressibility (1/GPa) = 0.01921956
#
# Stress axis : x y z
#
# Youngs Moduli (GPa) = 62.80865 52.01530 81.82400
#
# Poissons Ratio (x) = 0.18451 0.42439
# Poissons Ratio (y) = 0.22280 0.43696
# Poissons Ratio (z) = 0.32577 0.27778
#
# Static dielectric constant tensor:
#      x y z
#    x 3.310850 0.000000 0.000000 
#    y 0.000000 3.165660 0.000000 
#    z 0.000000 0.000000 3.417640 
# 
# 
# High freq. dielectric constant tensor:
#      x y z
#    x 1.698950 0.000000 0.000000 
#    y 0.000000 1.656130 0.000000 
#    z 0.000000 0.000000 1.687220 
# 
# From -- ./inp_files/32646.got.cif
#   From: 2010.03.12/outbox.cif.g09.slc.cpg/sg51_17_cif.got.tgz:32646.got - 2010.04.16 13:43:02.
