data_PCOD8211932
_publ_section_title
;
Structure prediction by ZEFSAII (Michael W. Deem and Ramdas Pophale) SiO2 
 PCOD8211932
Probable space group: P M M A
;
_chemical_formula_sum "Si O2"
_cell_formula_units_Z 44
_cell_length_a 8.725273
_cell_length_b 15.398305
_cell_length_c 17.764670
_cell_angle_alpha 90.000000
_cell_angle_beta 90.000000
_cell_angle_gamma 90.000000
_cell_volume 2386.761843
_symmetry_space_group_name_H-M "P M M A"
_symmetry_group_IT_number 51
_symmetry_cell_setting 'orthorhombic'
loop_
_space_group_symop_operation_xyz
x,y,z
1/2-x,-y,z
1/2+x,-y,-z
-x,y,-z
-x,-y,-z
1/2+x,y,-z
1/2-x,y,z
x,-y,z
loop_
_atom_site_type_symbol
_atom_site_label
_atom_site_fract_x
_atom_site_fract_y
_atom_site_fract_z
Si Si1 0.429658 0.403402 0.228450
Si Si2 0.077094 0.829941 0.133719
Si Si3 0.567240 0.901786 0.580443
Si Si4 0.579114 0.234494 0.698792
Si Si5 0.570593 0.000000 0.081362
Si Si6 0.931654 0.341225 0.077622
O O1 0.250000 0.383204 0.214079
O O2 0.454947 0.500000 0.261933
O O3 0.495277 0.331205 0.288071
O O4 0.513168 0.398482 0.148157
O O5 0.250000 0.839162 0.102233
O O6 0.078946 0.811463 0.221456
O O7 0.983917 0.917433 0.127127
O O8 0.991471 0.756660 0.086129
O O9 0.500000 0.876128 0.500000
O O10 0.750000 0.898013 0.578393
O O11 0.497182 0.830217 0.639045
O O12 0.514983 0.000000 0.603016
O O13 0.750000 0.248694 0.668012
O O14 0.750000 0.000000 0.074067
O O15 0.500000 0.000000 0.000000
O O16 0.750000 0.343195 0.073769
O O17 0.000000 0.380262 0.000000
#
# Coordination Sequence:
#
# PCOD8211932 Si02
#       6
#     8   8   8   8   4   8
#     4   9  18  34  54  75  98 127 169 217 261 309
#     4  10  20  35  53  72  95 129 173 216 259 307
#     4   9  17  30  50  76 106 136 167 201 242 297
#     4   8  16  31  53  76  98 129 168 205 250 304
#     4  12  24  36  48  68  97 132 173 216 261 306
#     4  11  21  34  51  71  99 131 167 212 263 314
#
# _framework density 18.435017999999999
#
# number of rings (size 3 to 8) (size 9 to 14) (size 15 to 20)
#    0.000    2.364    0.000    4.636    1.273    0.727 
#    0.000    4.545    0.000    0.545    0.000    0.000 
#    0.000    0.000    0.000    0.000    0.000    0.000 
#
# Total GULP energy -545310.782151 kJ/mol
# GULP energy per Si atom -12393.426867 kJ/mol
# Density = 1.839306 g / cm^3
# Si number density = 18.435018 Si / 1000 Ang^3
#
#
#
# Elastic Constant Matrix: (Units=GPa)
#
#
# Indices 1 2 3 4 5 6 
#
# 1 87.9387 31.9946 20.4884 0.0000 0.0000 0.0000
# 2 31.9946 147.3666 59.5029 0.0000 0.0000 0.0000
# 3 20.4884 59.5029 92.3880 0.0000 0.0000 0.0000
# 4 0.0000 0.0000 0.0000 18.4118 0.0000 0.0000
# 5 0.0000 0.0000 0.0000 0.0000 23.1352 0.0000
# 6 0.0000 0.0000 0.0000 0.0000 0.0000 20.5616
#
#
#
# Elastic Compliance Matrix: (Units=1/GPa)
#
#
# Indices 1 2 3 4 5 6 
#
# 1 0.012476 -0.002151 -0.001381 0.000000 0.000000 0.000000
# 2 -0.002151 0.009541 -0.005668 0.000000 0.000000 0.000000
# 3 -0.001381 -0.005668 0.014781 0.000000 0.000000 0.000000
# 4 0.000000 0.000000 0.000000 0.054313 0.000000 0.000000
# 5 0.000000 0.000000 0.000000 0.000000 0.043224 0.000000
# 6 0.000000 0.000000 0.000000 0.000000 0.000000 0.048634
#
#
# Mechanical properties :
#
#
# Convention : Reuss Voigt Hill
#
# Bulk Modulus (GPa) = 54.35594 61.29613 57.82603
# Shear Modulus (GPa) = 24.09598 26.80220 25.44909
#
# Velocity S-wave (km/s) = 3.61927 3.81711 3.71951
# Velocity P-wave (km/s) = 6.85673 7.26286 7.06271
#
# Compressibility (1/GPa) = 0.01839725
#
# Stress axis : x y z
#
# Youngs Moduli (GPa) = 80.15415 104.80584 67.65470
#
# Poissons Ratio (x) = 0.22542 0.09346
# Poissons Ratio (y) = 0.17240 0.38348
# Poissons Ratio (z) = 0.11073 0.59406
#
# Static dielectric constant tensor:
#      x y z
#    x 5.617150 0.000000 0.000000 
#    y 0.000000 3.632770 0.000000 
#    z 0.000000 0.000000 3.291580 
# 
# 
# High freq. dielectric constant tensor:
#      x y z
#    x 1.697970 0.000000 0.000000 
#    y 0.000000 1.725260 0.000000 
#    z 0.000000 0.000000 1.692350 
# 
# From -- ./inp_files/27427.got.cif
#   From: 2010.03.12/outbox.cif.g09.slc.cpg/sg51_14_cif.got.tgz:27427.got - 2010.04.16 13:43:02.
