data_PCOD8211819
_publ_section_title
;
Structure prediction by ZEFSAII (Michael W. Deem and Ramdas Pophale) SiO2 
 PCOD8211819
Probable space group: P M M A
;
_chemical_formula_sum "Si O2"
_cell_formula_units_Z 64
_cell_length_a 9.019344
_cell_length_b 14.397072
_cell_length_c 25.134697
_cell_angle_alpha 90.000000
_cell_angle_beta 90.000000
_cell_angle_gamma 90.000000
_cell_volume 3263.794318
_symmetry_space_group_name_H-M "P M M A"
_symmetry_group_IT_number 51
_symmetry_cell_setting 'orthorhombic'
loop_
_space_group_symop_operation_xyz
x,y,z
1/2-x,-y,z
1/2+x,-y,-z
-x,y,-z
-x,-y,-z
1/2+x,y,-z
1/2-x,y,z
x,-y,z
loop_
_atom_site_type_symbol
_atom_site_label
_atom_site_fract_x
_atom_site_fract_y
_atom_site_fract_z
Si Si1 0.583570 0.890030 0.448451
Si Si2 0.924656 0.230634 0.631983
Si Si3 0.926094 0.895011 0.156573
Si Si4 0.077703 0.394641 0.083000
Si Si5 0.425564 0.214127 0.948063
Si Si6 0.420485 0.776014 0.743008
Si Si7 0.914381 0.602711 0.188915
Si Si8 0.075774 0.394542 0.444937
O O1 0.500000 0.850364 0.500000
O O2 0.750000 0.850209 0.448807
O O3 0.497022 0.856762 0.396892
O O4 0.584120 0.000000 0.448002
O O5 0.750000 0.220474 0.630244
O O6 0.975466 0.326558 0.603095
O O7 0.976536 0.220305 0.692145
O O8 0.750000 0.894960 0.155158
O O9 0.983662 0.838242 0.105009
O O10 0.979395 0.846021 0.211072
O O11 0.988885 0.000000 0.154787
O O12 0.250000 0.371771 0.074352
O O13 0.039655 0.500000 0.064292
O O14 0.977712 0.321550 0.051231
O O15 0.039958 0.383188 0.145049
O O16 0.250000 0.208650 0.953328
O O17 0.500000 0.166077 0.000000
O O18 0.250000 0.799071 0.728223
O O19 0.439541 0.671423 0.762791
O O20 0.750000 0.620902 0.163306
O O21 0.923651 0.500000 0.213457
O O22 0.250000 0.387115 0.454067
O O23 0.028914 0.500000 0.429750
O O24 0.000000 0.363262 0.500000
#
# Coordination Sequence:
#
# PCOD8211819 Si02
#       8
#     8   8   8   8   8   8   8   8
#     4  10  21  38  60  84 111 145 183 228 284 344
#     4  11  23  36  54  83 117 152 190 237 285 334
#     4   9  19  38  62  84 109 145 188 232 284 345
#     4  10  20  34  55  84 116 150 186 225 273 329
#     4  11  22  38  60  87 116 149 186 232 285 339
#     4  10  20  36  56  81 111 149 192 232 281 337
#     4   9  17  32  55  81 109 144 187 231 275 328
#     4   9  19  36  56  79 111 152 195 236 282 334
#
# _framework density 19.609079999999999
#
# number of rings (size 3 to 8) (size 9 to 14) (size 15 to 20)
#    0.000    2.125    1.250    1.875    0.000    5.500 
#    0.000    1.250    0.000    2.625    0.000    0.000 
#    0.000    0.000    0.000    0.000    0.000    0.000 
#
# Total GULP energy -793501.858416 kJ/mol
# GULP energy per Si atom -12398.466538 kJ/mol
# Density = 1.956445 g / cm^3
# Si number density = 19.609080 Si / 1000 Ang^3
#
#
#
# Elastic Constant Matrix: (Units=GPa)
#
#
# Indices 1 2 3 4 5 6 
#
# 1 76.7610 35.4653 50.9044 0.0000 0.0000 0.0000
# 2 35.4653 91.7585 54.8024 0.0000 0.0000 0.0000
# 3 50.9044 54.8024 141.7664 0.0000 0.0000 0.0000
# 4 0.0000 0.0000 0.0000 18.1871 0.0000 0.0000
# 5 0.0000 0.0000 0.0000 0.0000 37.2835 0.0000
# 6 0.0000 0.0000 0.0000 0.0000 0.0000 18.3820
#
#
#
# Elastic Compliance Matrix: (Units=1/GPa)
#
#
# Indices 1 2 3 4 5 6 
#
# 1 0.018198 -0.004071 -0.004961 0.000000 0.000000 0.000000
# 2 -0.004071 0.015080 -0.004368 0.000000 0.000000 0.000000
# 3 -0.004961 -0.004368 0.010524 0.000000 0.000000 0.000000
# 4 0.000000 0.000000 0.000000 0.054984 0.000000 0.000000
# 5 0.000000 0.000000 0.000000 0.000000 0.026821 0.000000
# 6 0.000000 0.000000 0.000000 0.000000 0.000000 0.054401
#
#
# Mechanical properties :
#
#
# Convention : Reuss Voigt Hill
#
# Bulk Modulus (GPa) = 58.81313 65.84778 62.33045
# Shear Modulus (GPa) = 23.53217 26.04477 24.78847
#
# Velocity S-wave (km/s) = 3.46795 3.64840 3.55932
# Velocity P-wave (km/s) = 6.78922 7.16944 6.98192
#
# Compressibility (1/GPa) = 0.01700301
#
# Stress axis : x y z
#
# Youngs Moduli (GPa) = 54.95105 66.31195 95.02476
#
# Poissons Ratio (x) = 0.26995 0.47139
# Poissons Ratio (y) = 0.22370 0.41505
# Poissons Ratio (z) = 0.27260 0.28964
#
# Static dielectric constant tensor:
#      x y z
#    x 3.509220 0.000000 0.000000 
#    y 0.000000 3.810120 0.000000 
#    z 0.000000 0.000000 3.609890 
# 
# 
# High freq. dielectric constant tensor:
#      x y z
#    x 1.750820 0.000000 0.000000 
#    y 0.000000 1.768840 0.000000 
#    z 0.000000 0.000000 1.759370 
# 
# From -- ./inp_files/34850.got.cif
#   From: 2010.03.12/outbox.cif.g09.slc.cpg/sg51_18_cif.got.tgz:34850.got - 2010.04.16 13:43:02.
