data_PCOD8211388
_publ_section_title
;
Structure prediction by ZEFSAII (Michael W. Deem and Ramdas Pophale) SiO2 
 PCOD8211388
Probable space group: P M M A
;
_chemical_formula_sum "Si O2"
_cell_formula_units_Z 64
_cell_length_a 8.736071
_cell_length_b 20.140161
_cell_length_c 18.952987
_cell_angle_alpha 90.000000
_cell_angle_beta 90.000000
_cell_angle_gamma 90.000000
_cell_volume 3334.699909
_symmetry_space_group_name_H-M "P M M A"
_symmetry_group_IT_number 51
_symmetry_cell_setting 'orthorhombic'
loop_
_space_group_symop_operation_xyz
x,y,z
1/2-x,-y,z
1/2+x,-y,-z
-x,y,-z
-x,-y,-z
1/2+x,y,-z
1/2-x,y,z
x,-y,z
loop_
_atom_site_type_symbol
_atom_site_label
_atom_site_fract_x
_atom_site_fract_y
_atom_site_fract_z
Si Si1 0.569961 0.293032 0.223373
Si Si2 0.417431 0.424316 0.933680
Si Si3 0.424215 0.254068 0.074204
Si Si4 0.427153 0.827429 0.302681
Si Si5 0.070775 0.574180 0.212749
Si Si6 0.578137 0.927651 0.208793
Si Si7 0.431637 0.075431 0.424773
Si Si8 0.575599 0.902276 0.928265
O O1 0.750000 0.287637 0.220971
O O2 0.507757 0.283906 0.143442
O O3 0.512025 0.240574 0.282227
O O4 0.518556 0.366094 0.252263
O O5 0.250000 0.391667 0.917347
O O6 0.387730 0.500000 0.953773
O O7 0.533093 0.417689 0.869344
O O8 0.500000 0.388270 0.000000
O O9 0.250000 0.279299 0.075007
O O10 0.434075 0.175976 0.081939
O O11 0.500000 0.276557 0.000000
O O12 0.250000 0.810246 0.311445
O O13 0.450897 0.878870 0.239547
O O14 0.492485 0.867254 0.371217
O O15 0.250000 0.583282 0.225030
O O16 0.018740 0.500000 0.238694
O O17 0.750000 0.897610 0.215745
O O18 0.531573 0.937599 0.128365
O O19 0.572333 0.000000 0.245814
O O20 0.500000 0.094538 0.500000
O O21 0.250000 0.078365 0.428149
O O22 0.483210 0.000000 0.403101
O O23 0.750000 0.927444 0.923510
O O24 0.500000 0.925748 0.000000
#
# Coordination Sequence:
#
# PCOD8211388 Si02
#       8
#     8   8   8   8   8   8   8   8
#     4  12  24  37  56  80 108 142 181 229 281 334
#     4   9  16  27  44  66  92 122 160 209 266 327
#     4  10  20  35  54  75  99 132 176 228 283 342
#     4  11  22  38  58  82 113 149 187 225 265 316
#     4  10  21  37  55  74  99 132 172 220 273 331
#     4  11  23  36  52  76 105 138 178 225 275 325
#     4   9  19  36  60  90 123 158 192 225 263 309
#     4  10  20  34  53  71  94 129 171 225 280 332
#
# _framework density 19.192132999999998
#
# number of rings (size 3 to 8) (size 9 to 14) (size 15 to 20)
#    0.000    1.750    1.250    3.750    0.000    6.500 
#    0.000    3.750    0.000    0.000    0.000    0.000 
#    0.000    0.500    0.000    1.625    0.000    2.000 
#
# Total GULP energy -793074.968899 kJ/mol
# GULP energy per Si atom -12391.796389 kJ/mol
# Density = 1.914845 g / cm^3
# Si number density = 19.192133 Si / 1000 Ang^3
#
#
#
# Elastic Constant Matrix: (Units=GPa)
#
#
# Indices 1 2 3 4 5 6 
#
# 1 98.9247 45.7841 27.1407 0.0000 0.0000 0.0000
# 2 45.7841 132.8448 46.1618 0.0000 0.0000 0.0000
# 3 27.1407 46.1618 83.8514 0.0000 0.0000 0.0000
# 4 0.0000 0.0000 0.0000 -7.3327 0.0000 0.0000
# 5 0.0000 0.0000 0.0000 0.0000 24.9191 0.0000
# 6 0.0000 0.0000 0.0000 0.0000 0.0000 4.2656
#
#
#
# Elastic Compliance Matrix: (Units=1/GPa)
#
#
# Indices 1 2 3 4 5 6 
#
# 1 0.012302 -0.003532 -0.002038 0.000000 0.000000 0.000000
# 2 -0.003532 0.010322 -0.004539 0.000000 0.000000 0.000000
# 3 -0.002038 -0.004539 0.015084 0.000000 0.000000 0.000000
# 4 0.000000 0.000000 0.000000 -0.136375 0.000000 0.000000
# 5 0.000000 0.000000 0.000000 0.000000 0.040130 0.000000
# 6 0.000000 0.000000 0.000000 0.000000 0.000000 0.234434
#
#
# Mechanical properties :
#
#
# Convention : Reuss Voigt Hill
#
# Bulk Modulus (GPa) = 57.17160 61.53268 59.35214
# Shear Modulus (GPa) = 24.75911 17.47269 21.11590
#
# Velocity S-wave (km/s) = 3.59565 3.02057 3.32058
# Velocity P-wave (km/s) = 6.86236 6.65554 6.75974
#
# Compressibility (1/GPa) = 0.01749120
#
# Stress axis : x y z
#
# Youngs Moduli (GPa) = 81.28531 96.87870 66.29372
#
# Poissons Ratio (x) = 0.34216 0.13508
# Poissons Ratio (y) = 0.28709 0.30093
# Poissons Ratio (z) = 0.16563 0.43977
#
# Static dielectric constant tensor:
#      x y z
#    x 3.657310 0.000000 0.000000 
#    y 0.000000 3.896790 0.000000 
#    z 0.000000 0.000000 3.386890 
# 
# 
# High freq. dielectric constant tensor:
#      x y z
#    x 1.758050 0.000000 0.000000 
#    y 0.000000 1.761510 0.000000 
#    z 0.000000 0.000000 1.688610 
# 
# From -- ./inp_files/28424.got.cif
#   From: 2010.03.12/outbox.cif.g09.slc.cpg/sg51_15_cif.got.tgz:28424.got - 2010.04.16 13:43:02.
