data_PCOD8211140
_publ_section_title
;
Structure prediction by ZEFSAII (Michael W. Deem and Ramdas Pophale) SiO2 
 PCOD8211140
Probable space group: P M M A
;
_chemical_formula_sum "Si O2"
_cell_formula_units_Z 40
_cell_length_a 9.031614
_cell_length_b 9.407319
_cell_length_c 25.589300
_cell_angle_alpha 90.000000
_cell_angle_beta 90.000000
_cell_angle_gamma 90.000000
_cell_volume 2174.150707
_symmetry_space_group_name_H-M "P M M A"
_symmetry_group_IT_number 51
_symmetry_cell_setting 'orthorhombic'
loop_
_space_group_symop_operation_xyz
x,y,z
1/2-x,-y,z
1/2+x,-y,-z
-x,y,-z
-x,-y,-z
1/2+x,y,-z
1/2-x,y,z
x,-y,z
loop_
_atom_site_type_symbol
_atom_site_label
_atom_site_fract_x
_atom_site_fract_y
_atom_site_fract_z
Si Si1 0.925594 0.657099 0.757371
Si Si2 0.418762 0.667438 0.358839
Si Si3 0.576539 0.165711 0.855287
Si Si4 0.923136 0.163215 0.447526
Si Si5 0.076309 0.663186 0.946109
O O1 0.750000 0.648175 0.757010
O O2 0.989826 0.500000 0.770453
O O3 0.976047 0.706068 0.699584
O O4 0.981306 0.768160 0.800726
O O5 0.250000 0.719122 0.367104
O O6 0.430241 0.500000 0.368173
O O7 0.525232 0.746500 0.398428
O O8 0.750000 0.196103 0.863674
O O9 0.486210 0.236032 0.901647
O O10 0.540790 0.000000 0.853963
O O11 0.750000 0.183279 0.454974
O O12 0.000000 0.221182 0.500000
O O13 0.967545 0.000000 0.437631
O O14 0.250000 0.688121 0.952085
O O15 0.038803 0.500000 0.932046
O O16 0.000000 0.708019 0.000000
#
# Coordination Sequence:
#
# PCOD8211140 Si02
#       5
#     8   8   8   8   8
#     4   8  15  30  52  76 103 136 173 211 250 297
#     4   9  18  33  54  80 106 133 169 212 257 304
#     4  10  20  33  52  80 110 139 172 210 254 303
#     4  10  21  36  53  74 101 135 174 213 256 307
#     4  10  21  37  57  79 102 133 174 216 259 307
#
# _framework density 18.397988999999999
#
# number of rings (size 3 to 8) (size 9 to 14) (size 15 to 20)
#    0.000    2.600    0.000    3.000    0.000    5.600 
#    0.000    3.000    0.000    1.200    0.000    0.000 
#    0.000    0.000    0.000    0.000    0.000    0.000 
#
# Total GULP energy -496016.429900 kJ/mol
# GULP energy per Si atom -12400.410747 kJ/mol
# Density = 1.835611 g / cm^3
# Si number density = 18.397989 Si / 1000 Ang^3
#
#
#
# Elastic Constant Matrix: (Units=GPa)
#
#
# Indices 1 2 3 4 5 6 
#
# 1 63.2785 42.4155 56.4526 0.0000 0.0000 0.0000
# 2 42.4155 87.6277 83.4266 0.0000 0.0000 0.0000
# 3 56.4526 83.4266 169.4093 0.0000 0.0000 0.0000
# 4 0.0000 0.0000 0.0000 106.2059 0.0000 0.0000
# 5 0.0000 0.0000 0.0000 0.0000 31.9690 0.0000
# 6 0.0000 0.0000 0.0000 0.0000 0.0000 27.6665
#
#
#
# Elastic Compliance Matrix: (Units=1/GPa)
#
#
# Indices 1 2 3 4 5 6 
#
# 1 0.025077 -0.007874 -0.004479 0.000000 0.000000 0.000000
# 2 -0.007874 0.023958 -0.009174 0.000000 0.000000 0.000000
# 3 -0.004479 -0.009174 0.011913 0.000000 0.000000 0.000000
# 4 0.000000 0.000000 0.000000 0.009416 0.000000 0.000000
# 5 0.000000 0.000000 0.000000 0.000000 0.031280 0.000000
# 6 0.000000 0.000000 0.000000 0.000000 0.000000 0.036145
#
#
# Mechanical properties :
#
#
# Convention : Reuss Voigt Hill
#
# Bulk Modulus (GPa) = 55.88623 76.10054 65.99338
# Shear Modulus (GPa) = 26.76555 42.36966 34.56761
#
# Velocity S-wave (km/s) = 3.81833 4.80411 4.33931
# Velocity P-wave (km/s) = 7.06270 8.49859 7.81370
#
# Compressibility (1/GPa) = 0.01789350
#
# Stress axis : x y z
#
# Youngs Moduli (GPa) = 39.87739 41.74018 83.94089
#
# Poissons Ratio (x) = 0.32868 0.37594
# Poissons Ratio (y) = 0.31401 0.77009
# Poissons Ratio (z) = 0.17860 0.38293
#
# Static dielectric constant tensor:
#      x y z
#    x 3.167590 0.000000 0.000000 
#    y 0.000000 3.389740 0.000000 
#    z 0.000000 0.000000 3.647200 
# 
# 
# High freq. dielectric constant tensor:
#      x y z
#    x 1.693080 0.000000 0.000000 
#    y 0.000000 1.708920 0.000000 
#    z 0.000000 0.000000 1.727680 
# 
# From -- ./inp_files/31351.got.cif
#   From: 2010.03.12/outbox.cif.g09.slc.cpg/sg51_16_cif.got.tgz:31351.got - 2010.04.16 13:43:02.
