data_PCOD8211051
_publ_section_title
;
Structure prediction by ZEFSAII (Michael W. Deem and Ramdas Pophale) SiO2 
 PCOD8211051
Probable space group: P M M A
;
_chemical_formula_sum "Si O2"
_cell_formula_units_Z 64
_cell_length_a 19.166106
_cell_length_b 8.919876
_cell_length_c 20.422740
_cell_angle_alpha 90.000000
_cell_angle_beta 90.000000
_cell_angle_gamma 90.000000
_cell_volume 3491.457108
_symmetry_space_group_name_H-M "P M M A"
_symmetry_group_IT_number 51
_symmetry_cell_setting 'orthorhombic'
loop_
_space_group_symop_operation_xyz
x,y,z
1/2-x,-y,z
1/2+x,-y,-z
-x,y,-z
-x,-y,-z
1/2+x,y,-z
1/2-x,y,z
x,-y,z
loop_
_atom_site_type_symbol
_atom_site_label
_atom_site_fract_x
_atom_site_fract_y
_atom_site_fract_z
Si Si1 0.073774 0.676924 0.260301
Si Si2 0.171477 0.678768 0.999440
Si Si3 0.072601 0.823303 0.741305
Si Si4 0.075450 0.676235 0.113647
Si Si5 0.832522 0.829651 0.635867
Si Si6 0.332794 0.665759 0.491621
Si Si7 0.581382 0.322646 0.122608
Si Si8 0.331541 0.325845 0.637466
O O1 0.062166 0.500000 0.264115
O O2 0.096555 0.726161 0.186979
O O3 0.134476 0.725771 0.308859
O O4 0.001512 0.754767 0.279524
O O5 0.250000 0.742493 0.002290
O O6 0.171696 0.500000 0.002438
O O7 0.128101 0.748325 0.060566
O O8 0.135961 0.731650 0.931973
O O9 0.100363 0.758285 0.809895
O O10 0.128205 0.781981 0.686308
O O11 0.065146 0.000000 0.747018
O O12 0.081549 0.500000 0.106300
O O13 0.995983 0.725455 0.098920
O O14 0.750000 0.809921 0.641157
O O15 0.859754 0.779230 0.564144
O O16 0.855981 0.000000 0.646894
O O17 0.250000 0.658865 0.491803
O O18 0.362438 0.500000 0.475697
O O19 0.357118 0.716591 0.563905
O O20 0.584808 0.500000 0.134996
O O21 0.250000 0.293350 0.645981
O O22 0.347932 0.500000 0.652061
#
# Coordination Sequence:
#
# PCOD8211051 Si02
#       8
#     8   8   8   8   8   8   8   8
#     4  10  20  35  55  76 101 136 177 219 259 303
#     4   9  16  26  45  75 103 123 154 207 259 295
#     4  11  22  35  52  75 105 137 170 213 261 309
#     4   8  15  28  47  70  95 125 163 208 253 295
#     4  10  20  33  51  77 109 141 171 208 255 306
#     4   8  15  30  52  76 101 132 171 211 251 300
#     4   9  17  31  50  70  95 131 169 201 243 303
#     4   9  18  34  56  79 103 133 171 214 257 305
#
# _framework density 18.330455000000001
#
# number of rings (size 3 to 8) (size 9 to 14) (size 15 to 20)
#    0.000    2.750    0.000    3.750    0.000    4.000 
#    0.000    4.375    0.000   10.500    0.000    0.000 
#    0.000    0.000    0.000    0.000    0.000    0.000 
#
# Total GULP energy -793447.798988 kJ/mol
# GULP energy per Si atom -12397.621859 kJ/mol
# Density = 1.828873 g / cm^3
# Si number density = 18.330455 Si / 1000 Ang^3
#
#
#
# Elastic Constant Matrix: (Units=GPa)
#
#
# Indices 1 2 3 4 5 6 
#
# 1 81.2742 32.5495 68.0229 0.0000 0.0000 0.0000
# 2 32.5495 72.4185 47.3571 0.0000 0.0000 0.0000
# 3 68.0229 47.3571 133.1240 0.0000 0.0000 0.0000
# 4 0.0000 0.0000 0.0000 7.9652 0.0000 0.0000
# 5 0.0000 0.0000 0.0000 0.0000 25.7937 0.0000
# 6 0.0000 0.0000 0.0000 0.0000 0.0000 19.4505
#
#
#
# Elastic Compliance Matrix: (Units=1/GPa)
#
#
# Indices 1 2 3 4 5 6 
#
# 1 0.022094 -0.003320 -0.010108 0.000000 0.000000 0.000000
# 2 -0.003320 0.018494 -0.004882 0.000000 0.000000 0.000000
# 3 -0.010108 -0.004882 0.014414 0.000000 0.000000 0.000000
# 4 0.000000 0.000000 0.000000 0.125547 0.000000 0.000000
# 5 0.000000 0.000000 0.000000 0.000000 0.038769 0.000000
# 6 0.000000 0.000000 0.000000 0.000000 0.000000 0.051413
#
#
# Mechanical properties :
#
#
# Convention : Reuss Voigt Hill
#
# Bulk Modulus (GPa) = 54.40819 64.74175 59.57497
# Shear Modulus (GPa) = 15.95008 19.90103 17.92555
#
# Velocity S-wave (km/s) = 2.95302 3.29854 3.13055
# Velocity P-wave (km/s) = 6.43221 7.06421 6.75561
#
# Compressibility (1/GPa) = 0.01837959
#
# Stress axis : x y z
#
# Youngs Moduli (GPa) = 45.26125 54.07251 69.37848
#
# Poissons Ratio (x) = 0.17953 0.70130
# Poissons Ratio (y) = 0.15028 0.33873
# Poissons Ratio (z) = 0.45751 0.26400
#
# Static dielectric constant tensor:
#      x y z
#    x 3.376590 0.000000 0.000000 
#    y 0.000000 3.130900 0.000000 
#    z 0.000000 0.000000 3.667720 
# 
# 
# High freq. dielectric constant tensor:
#      x y z
#    x 1.694260 0.000000 0.000000 
#    y 0.000000 1.681620 0.000000 
#    z 0.000000 0.000000 1.724460 
# 
# From -- ./inp_files/30552.got.cif
#   From: 2010.03.12/outbox.cif.g09.slc.cpg/sg51_16_cif.got.tgz:30552.got - 2010.04.16 13:43:02.
