data_PCOD8211047
_publ_section_title
;
Structure prediction by ZEFSAII (Michael W. Deem and Ramdas Pophale) SiO2 
 PCOD8211047
Probable space group: P M M A
;
_chemical_formula_sum "Si O2"
_cell_formula_units_Z 64
_cell_length_a 13.790615
_cell_length_b 8.823069
_cell_length_c 27.443531
_cell_angle_alpha 90.000000
_cell_angle_beta 90.000000
_cell_angle_gamma 90.000000
_cell_volume 3339.206665
_symmetry_space_group_name_H-M "P M M A"
_symmetry_group_IT_number 51
_symmetry_cell_setting 'orthorhombic'
loop_
_space_group_symop_operation_xyz
x,y,z
1/2-x,-y,z
1/2+x,-y,-z
-x,y,-z
-x,-y,-z
1/2+x,y,-z
1/2-x,y,z
x,-y,z
loop_
_atom_site_type_symbol
_atom_site_label
_atom_site_fract_x
_atom_site_fract_y
_atom_site_fract_z
Si Si1 0.487505 0.327736 0.708156
Si Si2 0.640703 0.670386 0.384467
Si Si3 0.358734 0.325715 0.073204
Si Si4 0.636319 0.171212 0.026706
Si Si5 0.860887 0.821795 0.210043
Si Si6 0.138854 0.180039 0.359371
Si Si7 0.006844 0.176514 0.446248
Si Si8 0.447619 0.673876 0.882147
O O1 0.515608 0.500000 0.720630
O O2 0.404465 0.316482 0.668333
O O3 0.442134 0.252038 0.755661
O O4 0.584215 0.245695 0.688024
O O5 0.750000 0.720350 0.378328
O O6 0.628664 0.500000 0.405217
O O7 0.595673 0.790157 0.421594
O O8 0.250000 0.283675 0.091584
O O9 0.362510 0.500000 0.055852
O O10 0.435291 0.299609 0.117385
O O11 0.390293 0.221445 0.027940
O O12 0.750000 0.180179 0.035098
O O13 0.588104 0.287430 0.063941
O O14 0.598122 0.000000 0.034747
O O15 0.750000 0.763730 0.219558
O O16 0.892782 0.782369 0.155434
O O17 0.864438 0.000000 0.217745
O O18 0.250000 0.234455 0.358297
O O19 0.090895 0.242268 0.410166
O O20 0.129759 0.000000 0.357321
O O21 0.000000 0.252514 0.500000
O O22 0.025084 0.000000 0.452415
O O23 0.422581 0.500000 0.869365
#
# Coordination Sequence:
#
# PCOD8211047 Si02
#       8
#     8   8   8   8   8   8   8   8
#     4  10  20  36  58  81 105 134 172 218 266 317
#     4   9  18  32  50  73 101 133 169 210 257 309
#     4   9  19  36  55  75 102 137 177 218 258 304
#     4  10  20  33  51  77 108 141 176 215 261 313
#     4  11  24  40  58  81 109 139 170 209 263 326
#     4   9  18  34  55  78 108 146 186 228 271 314
#     4   9  18  31  48  74 107 142 180 220 262 309
#     4  11  22  35  54  79 106 139 177 217 264 315
#
# _framework density 19.166229000000001
#
# number of rings (size 3 to 8) (size 9 to 14) (size 15 to 20)
#    0.000    2.250    0.000    2.625    0.000    8.000 
#    0.000    1.875    0.000    2.250    0.000    0.000 
#    0.000    0.000    0.000    0.000    0.000    0.000 
#
# Total GULP energy -793404.038278 kJ/mol
# GULP energy per Si atom -12396.938098 kJ/mol
# Density = 1.912261 g / cm^3
# Si number density = 19.166229 Si / 1000 Ang^3
#
#
#
# Elastic Constant Matrix: (Units=GPa)
#
#
# Indices 1 2 3 4 5 6 
#
# 1 119.7538 28.3365 51.5161 0.0000 0.0000 0.0000
# 2 28.3365 47.9918 24.3555 0.0000 0.0000 0.0000
# 3 51.5161 24.3555 61.3744 0.0000 0.0000 0.0000
# 4 0.0000 0.0000 0.0000 26.7897 0.0000 0.0000
# 5 0.0000 0.0000 0.0000 0.0000 19.2578 0.0000
# 6 0.0000 0.0000 0.0000 0.0000 0.0000 24.5880
#
#
#
# Elastic Compliance Matrix: (Units=1/GPa)
#
#
# Indices 1 2 3 4 5 6 
#
# 1 0.013353 -0.002750 -0.010117 0.000000 0.000000 0.000000
# 2 -0.002750 0.026658 -0.008270 0.000000 0.000000 0.000000
# 3 -0.010117 -0.008270 0.028068 0.000000 0.000000 0.000000
# 4 0.000000 0.000000 0.000000 0.037328 0.000000 0.000000
# 5 0.000000 0.000000 0.000000 0.000000 0.051927 0.000000
# 6 0.000000 0.000000 0.000000 0.000000 0.000000 0.040670
#
#
# Mechanical properties :
#
#
# Convention : Reuss Voigt Hill
#
# Bulk Modulus (GPa) = 38.75454 48.61513 43.68483
# Shear Modulus (GPa) = 20.08995 22.45455 21.27225
#
# Velocity S-wave (km/s) = 3.24110 3.42653 3.33510
# Velocity P-wave (km/s) = 5.85409 6.40897 6.13780
#
# Compressibility (1/GPa) = 0.02580343
#
# Stress axis : x y z
#
# Youngs Moduli (GPa) = 74.88692 37.51247 35.62827
#
# Poissons Ratio (x) = 0.10316 0.36046
# Poissons Ratio (y) = 0.20594 0.29466
# Poissons Ratio (z) = 0.75765 0.31024
#
# Static dielectric constant tensor:
#      x y z
#    x 3.740230 0.000000 0.000000 
#    y 0.000000 3.482350 0.000000 
#    z 0.000000 0.000000 3.400490 
# 
# 
# High freq. dielectric constant tensor:
#      x y z
#    x 1.754060 0.000000 0.000000 
#    y 0.000000 1.741740 0.000000 
#    z 0.000000 0.000000 1.729580 
# 
# From -- ./inp_files/35797.got.cif
#   From: 2010.03.12/outbox.cif.g09.slc.cpg/sg51_18_cif.got.tgz:35797.got - 2010.04.16 13:43:02.
