data_PCOD8211283
_publ_section_title
;
Structure prediction by ZEFSAII (Michael W. Deem and Ramdas Pophale) SiO2 
 PCOD8211283
Probable space group: P M M A
;
_chemical_formula_sum "Si O2"
_cell_formula_units_Z 48
_cell_length_a 12.527355
_cell_length_b 16.614170
_cell_length_c 10.486520
_cell_angle_alpha 90.000000
_cell_angle_beta 90.000000
_cell_angle_gamma 90.000000
_cell_volume 2182.576245
_symmetry_space_group_name_H-M "P M M A"
_symmetry_group_IT_number 51
_symmetry_cell_setting 'orthorhombic'
loop_
_space_group_symop_operation_xyz
x,y,z
1/2-x,-y,z
1/2+x,-y,-z
-x,y,-z
-x,-y,-z
1/2+x,y,-z
1/2-x,y,z
x,-y,z
loop_
_atom_site_type_symbol
_atom_site_label
_atom_site_fract_x
_atom_site_fract_y
_atom_site_fract_z
Si Si1 0.872980 0.586621 0.357326
Si Si2 0.373220 0.817003 0.829333
Si Si3 0.377191 0.778876 0.276140
Si Si4 0.375802 0.239051 0.559697
Si Si5 0.980248 0.340912 0.137510
Si Si6 0.877493 0.908787 0.927343
O O1 0.750000 0.591566 0.321970
O O2 0.898586 0.500000 0.425726
O O3 0.903973 0.665490 0.438139
O O4 0.936253 0.587650 0.224296
O O5 0.250000 0.838119 0.815841
O O6 0.424241 0.809490 0.684581
O O7 0.390940 0.728589 0.887946
O O8 0.422769 0.882269 0.930945
O O9 0.250000 0.776485 0.284567
O O10 0.422936 0.789168 0.422686
O O11 0.416025 0.697376 0.207909
O O12 0.420652 0.852789 0.188631
O O13 0.250000 0.224538 0.564479
O O14 0.000000 0.379882 0.000000
O O15 0.750000 0.898835 0.930823
O O16 0.912055 0.000000 0.900128
#
# Coordination Sequence:
#
# PCOD8211283 Si02
#       6
#     8   8   8   8   8   8
#     4   9  19  36  57  80 107 136 171 219 266 310
#     4   9  17  32  51  74 102 132 176 223 257 309
#     4  10  20  34  51  76 109 140 175 222 264 308
#     4   8  16  32  54  76 100 138 178 212 261 317
#     4  11  20  31  53  80 103 140 183 211 258 315
#     4   9  17  31  52  76 105 141 177 217 267 314
#
# _framework density 21.992359
#
# number of rings (size 3 to 8) (size 9 to 14) (size 15 to 20)
#    0.000    2.667    1.667    1.500    0.000    3.667 
#    0.000    4.167    0.000    6.500    0.000    5.833 
#    0.000    0.000    0.000    0.000    0.000    0.000 
#
# Total GULP energy -594671.676563 kJ/mol
# GULP energy per Si atom -12388.993262 kJ/mol
# Density = 2.194230 g / cm^3
# Si number density = 21.992359 Si / 1000 Ang^3
#
#
#
# Elastic Constant Matrix: (Units=GPa)
#
#
# Indices 1 2 3 4 5 6 
#
# 1 36.0298 25.6248 64.1503 0.0000 0.0000 0.0000
# 2 25.6248 114.4026 58.8870 0.0000 0.0000 0.0000
# 3 64.1503 58.8870 189.4755 0.0000 0.0000 0.0000
# 4 0.0000 0.0000 0.0000 16.6349 0.0000 0.0000
# 5 0.0000 0.0000 0.0000 0.0000 39.3335 0.0000
# 6 0.0000 0.0000 0.0000 0.0000 0.0000 17.0564
#
#
#
# Elastic Compliance Matrix: (Units=1/GPa)
#
#
# Indices 1 2 3 4 5 6 
#
# 1 0.071562 -0.004235 -0.022912 0.000000 0.000000 0.000000
# 2 -0.004235 0.010656 -0.001878 0.000000 0.000000 0.000000
# 3 -0.022912 -0.001878 0.013619 0.000000 0.000000 0.000000
# 4 0.000000 0.000000 0.000000 0.060114 0.000000 0.000000
# 5 0.000000 0.000000 0.000000 0.000000 0.025424 0.000000
# 6 0.000000 0.000000 0.000000 0.000000 0.000000 0.058629
#
#
# Mechanical properties :
#
#
# Convention : Reuss Voigt Hill
#
# Bulk Modulus (GPa) = 26.46487 70.80354 48.63421
# Shear Modulus (GPa) = 16.09529 27.35470 21.72500
#
# Velocity S-wave (km/s) = 2.70822 3.53062 3.14641
# Velocity P-wave (km/s) = 4.67323 6.99177 5.94659
#
# Compressibility (1/GPa) = 0.03778594
#
# Stress axis : x y z
#
# Youngs Moduli (GPa) = 13.97396 93.84076 73.42843
#
# Poissons Ratio (x) = 0.39744 1.68241
# Poissons Ratio (y) = 0.05918 0.13790
# Poissons Ratio (z) = 0.32017 0.17623
#
# Static dielectric constant tensor:
#      x y z
#    x 4.318710 0.000000 0.000000 
#    y 0.000000 3.779700 0.000000 
#    z 0.000000 0.000000 4.444010 
# 
# 
# High freq. dielectric constant tensor:
#      x y z
#    x 1.912420 0.000000 0.000000 
#    y 0.000000 1.815270 0.000000 
#    z 0.000000 0.000000 1.875970 
# 
# From -- ./inp_files/16471.got.cif
#   From: 2010.03.12/outbox.cif.g09.slc.cpg/sg51_9_cif.got.tgz:16471.got - 2010.04.16 13:43:02.
