data_PCOD8211192
_publ_section_title
;
Structure prediction by ZEFSAII (Michael W. Deem and Ramdas Pophale) SiO2 
 PCOD8211192
Probable space group: P M M A
;
_chemical_formula_sum "Si O2"
_cell_formula_units_Z 64
_cell_length_a 9.261502
_cell_length_b 14.189361
_cell_length_c 25.975481
_cell_angle_alpha 90.000000
_cell_angle_beta 90.000000
_cell_angle_gamma 90.000000
_cell_volume 3413.562518
_symmetry_space_group_name_H-M "P M M A"
_symmetry_group_IT_number 51
_symmetry_cell_setting 'orthorhombic'
loop_
_space_group_symop_operation_xyz
x,y,z
1/2-x,-y,z
1/2+x,-y,-z
-x,y,-z
-x,-y,-z
1/2+x,y,-z
1/2-x,y,z
x,-y,z
loop_
_atom_site_type_symbol
_atom_site_label
_atom_site_fract_x
_atom_site_fract_y
_atom_site_fract_z
Si Si1 0.082905 0.610360 0.847481
Si Si2 0.080316 0.109368 0.693632
Si Si3 0.411846 0.111627 0.205078
Si Si4 0.080157 0.728862 0.351323
Si Si5 0.915348 0.105818 0.106629
Si Si6 0.580973 0.607642 0.747315
Si Si7 0.081290 0.607730 0.449282
Si Si8 0.084355 0.712294 0.949700
O O1 0.250000 0.635617 0.839257
O O2 0.055764 0.500000 0.853753
O O3 0.023860 0.659213 0.899317
O O4 0.997162 0.649724 0.797894
O O5 0.250000 0.127891 0.697857
O O6 0.004793 0.144068 0.746181
O O7 0.009148 0.173127 0.648909
O O8 0.047581 0.000000 0.681554
O O9 0.250000 0.154500 0.209211
O O10 0.488324 0.146530 0.153085
O O11 0.405085 0.000000 0.203552
O O12 0.250000 0.751148 0.351269
O O13 0.034222 0.666477 0.302401
O O14 0.032728 0.672421 0.401937
O O15 0.750000 0.107165 0.125909
O O16 0.936074 0.175093 0.058202
O O17 0.961350 0.000000 0.090060
O O18 0.750000 0.614329 0.757295
O O19 0.532404 0.500000 0.737657
O O20 0.250000 0.616890 0.459802
O O21 0.038885 0.500000 0.436270
O O22 0.000000 0.643856 0.500000
O O23 0.250000 0.684971 0.958588
O O24 0.000000 0.678639 0.000000
#
# Coordination Sequence:
#
# PCOD8211192 Si02
#       8
#     8   8   8   8   8   8   8   8
#     4   9  19  36  54  72  98 130 163 205 256 306
#     4  10  21  35  50  72 106 146 184 223 267 314
#     4   9  17  30  49  73  99 129 168 211 254 305
#     4  10  20  33  53  82 112 145 182 224 269 312
#     4   9  18  33  51  71  98 130 161 199 252 310
#     4   9  18  33  53  79 109 138 169 206 255 317
#     4   9  18  34  56  82 115 152 187 226 271 319
#     4  10  22  37  52  72  95 124 163 209 256 308
#
# _framework density 18.748740999999999
#
# number of rings (size 3 to 8) (size 9 to 14) (size 15 to 20)
#    0.000    2.625    0.000    1.125    1.750    6.250 
#    0.000    0.000    0.000    4.125    0.000    0.000 
#    0.000    0.000    0.000    0.000    0.000    0.000 
#
# Total GULP energy -793628.994433 kJ/mol
# GULP energy per Si atom -12400.453038 kJ/mol
# Density = 1.870607 g / cm^3
# Si number density = 18.748741 Si / 1000 Ang^3
#
#
#
# Elastic Constant Matrix: (Units=GPa)
#
#
# Indices 1 2 3 4 5 6 
#
# 1 72.8516 33.5017 59.2624 0.0000 0.0000 0.0000
# 2 33.5017 59.4392 54.0437 0.0000 0.0000 0.0000
# 3 59.2624 54.0437 143.6549 0.0000 0.0000 0.0000
# 4 0.0000 0.0000 0.0000 28.3660 0.0000 0.0000
# 5 0.0000 0.0000 0.0000 0.0000 34.1406 0.0000
# 6 0.0000 0.0000 0.0000 0.0000 0.0000 23.3654
#
#
#
# Elastic Compliance Matrix: (Units=1/GPa)
#
#
# Indices 1 2 3 4 5 6 
#
# 1 0.022128 -0.006341 -0.006743 0.000000 0.000000 0.000000
# 2 -0.006341 0.027387 -0.007687 0.000000 0.000000 0.000000
# 3 -0.006743 -0.007687 0.012635 0.000000 0.000000 0.000000
# 4 0.000000 0.000000 0.000000 0.035253 0.000000 0.000000
# 5 0.000000 0.000000 0.000000 0.000000 0.029291 0.000000
# 6 0.000000 0.000000 0.000000 0.000000 0.000000 0.042798
#
#
# Mechanical properties :
#
#
# Convention : Reuss Voigt Hill
#
# Bulk Modulus (GPa) = 48.52636 63.28460 55.90548
# Shear Modulus (GPa) = 22.94589 25.78361 24.36475
#
# Velocity S-wave (km/s) = 3.50217 3.71242 3.60882
# Velocity P-wave (km/s) = 6.50325 7.22519 6.87370
#
# Compressibility (1/GPa) = 0.02060736
#
# Stress axis : x y z
#
# Youngs Moduli (GPa) = 45.19239 36.51304 79.14626
#
# Poissons Ratio (x) = 0.23153 0.53367
# Poissons Ratio (y) = 0.28656 0.60843
# Poissons Ratio (z) = 0.30473 0.28069
#
# Static dielectric constant tensor:
#      x y z
#    x 3.431220 0.000000 0.000000 
#    y 0.000000 3.505850 0.000000 
#    z 0.000000 0.000000 3.328090 
# 
# 
# High freq. dielectric constant tensor:
#      x y z
#    x 1.722080 0.000000 0.000000 
#    y 0.000000 1.731380 0.000000 
#    z 0.000000 0.000000 1.709280 
# 
# From -- ./inp_files/34837.got.cif
#   From: 2010.03.12/outbox.cif.g09.slc.cpg/sg51_18_cif.got.tgz:34837.got - 2010.04.16 13:43:02.
