data_PCOD8211669
_publ_section_title
;
Structure prediction by ZEFSAII (Michael W. Deem and Ramdas Pophale) SiO2 
 PCOD8211669
Probable space group: P M M A
;
_chemical_formula_sum "Si O2"
_cell_formula_units_Z 48
_cell_length_a 23.496482
_cell_length_b 9.168066
_cell_length_c 11.385033
_cell_angle_alpha 90.000000
_cell_angle_beta 90.000000
_cell_angle_gamma 90.000000
_cell_volume 2452.533044
_symmetry_space_group_name_H-M "P M M A"
_symmetry_group_IT_number 51
_symmetry_cell_setting 'orthorhombic'
loop_
_space_group_symop_operation_xyz
x,y,z
1/2-x,-y,z
1/2+x,-y,-z
-x,y,-z
-x,-y,-z
1/2+x,y,-z
1/2-x,y,z
x,-y,z
loop_
_atom_site_type_symbol
_atom_site_label
_atom_site_fract_x
_atom_site_fract_y
_atom_site_fract_z
Si Si1 0.084858 0.830284 0.722253
Si Si2 0.912483 0.170448 0.549220
Si Si3 0.814641 0.663444 0.655310
Si Si4 0.975485 0.328066 0.751475
Si Si5 0.866488 0.665623 0.898899
Si Si6 0.185761 0.171485 0.884582
O O1 0.080549 0.788678 0.586234
O O2 0.147363 0.787264 0.771304
O O3 0.036155 0.738576 0.790336
O O4 0.072956 0.000000 0.744232
O O5 0.848878 0.215366 0.584403
O O6 0.957881 0.258067 0.626692
O O7 0.921954 0.000000 0.571880
O O8 0.750000 0.684020 0.618280
O O9 0.836732 0.500000 0.623601
O O10 0.821267 0.685909 0.794419
O O11 0.980534 0.500000 0.734300
O O12 0.929104 0.289563 0.851372
O O13 0.867116 0.500000 0.945300
O O14 0.846853 0.769083 0.002464
O O15 0.250000 0.236575 0.870343
O O16 0.190138 0.000000 0.900275
#
# Coordination Sequence:
#
# PCOD8211669 Si02
#       6
#     8   8   8   8   8   8
#     4  10  22  38  55  78 110 145 179 219 265 315
#     4  10  20  34  54  80 110 144 181 221 269 323
#     4   9  18  33  53  78 109 143 180 226 276 321
#     4  10  21  37  58  83 110 139 174 221 274 323
#     4   9  19  36  56  79 107 138 174 220 272 319
#     4  10  22  39  57  78 107 144 182 219 262 313
#
# _framework density 19.571601999999999
#
# number of rings (size 3 to 8) (size 9 to 14) (size 15 to 20)
#    0.000    2.333    0.000    3.000    0.000   10.000 
#    0.000    5.000    0.000    0.000    0.000    0.000 
#    0.000    0.000    0.000    0.000    0.000    0.000 
#
# Total GULP energy -595160.145925 kJ/mol
# GULP energy per Si atom -12399.169707 kJ/mol
# Density = 1.952706 g / cm^3
# Si number density = 19.571602 Si / 1000 Ang^3
#
#
#
# Elastic Constant Matrix: (Units=GPa)
#
#
# Indices 1 2 3 4 5 6 
#
# 1 143.7776 51.1688 60.5900 0.0000 0.0000 0.0000
# 2 51.1688 54.0149 39.5692 0.0000 0.0000 0.0000
# 3 60.5900 39.5692 61.2839 0.0000 0.0000 0.0000
# 4 0.0000 0.0000 0.0000 4.0621 0.0000 0.0000
# 5 0.0000 0.0000 0.0000 0.0000 14.2050 0.0000
# 6 0.0000 0.0000 0.0000 0.0000 0.0000 28.9407
#
#
#
# Elastic Compliance Matrix: (Units=1/GPa)
#
#
# Indices 1 2 3 4 5 6 
#
# 1 0.012694 -0.005373 -0.009082 0.000000 0.000000 0.000000
# 2 -0.005373 0.037403 -0.018838 0.000000 0.000000 0.000000
# 3 -0.009082 -0.018838 0.037460 0.000000 0.000000 0.000000
# 4 0.000000 0.000000 0.000000 0.246178 0.000000 0.000000
# 5 0.000000 0.000000 0.000000 0.000000 0.070398 0.000000
# 6 0.000000 0.000000 0.000000 0.000000 0.000000 0.034553
#
#
# Mechanical properties :
#
#
# Convention : Reuss Voigt Hill
#
# Bulk Modulus (GPa) = 47.68271 62.41471 55.04871
# Shear Modulus (GPa) = 9.76064 16.62480 13.19272
#
# Velocity S-wave (km/s) = 2.23561 2.91767 2.59911
# Velocity P-wave (km/s) = 5.57495 6.58104 6.09878
#
# Compressibility (1/GPa) = 0.02097196
#
# Stress axis : x y z
#
# Youngs Moduli (GPa) = 78.77485 26.73581 26.69540
#
# Poissons Ratio (x) = 0.14364 0.24244
# Poissons Ratio (y) = 0.42323 0.50289
# Poissons Ratio (z) = 0.71541 0.50365
#
# Static dielectric constant tensor:
#      x y z
#    x 3.901570 0.000000 0.000000 
#    y 0.000000 3.513110 0.000000 
#    z 0.000000 0.000000 3.399010 
# 
# 
# High freq. dielectric constant tensor:
#      x y z
#    x 1.776420 0.000000 0.000000 
#    y 0.000000 1.757920 0.000000 
#    z 0.000000 0.000000 1.747140 
# 
# From -- ./inp_files/18607.got.cif
#   From: 2010.03.12/outbox.cif.g09.slc.cpg/sg51_10_cif.got.tgz:18607.got - 2010.04.16 13:43:02.
