data_PCOD8211209
_publ_section_title
;
Structure prediction by ZEFSAII (Michael W. Deem and Ramdas Pophale) SiO2 
 PCOD8211209
Probable space group: P M M A
;
_chemical_formula_sum "Si O2"
_cell_formula_units_Z 64
_cell_length_a 18.968300
_cell_length_b 14.140205
_cell_length_c 12.224500
_cell_angle_alpha 90.000000
_cell_angle_beta 90.000000
_cell_angle_gamma 90.000000
_cell_volume 3278.802220
_symmetry_space_group_name_H-M "P M M A"
_symmetry_group_IT_number 51
_symmetry_cell_setting 'orthorhombic'
loop_
_space_group_symop_operation_xyz
x,y,z
1/2-x,-y,z
1/2+x,-y,-z
-x,y,-z
-x,-y,-z
1/2+x,y,-z
1/2-x,y,z
x,-y,z
loop_
_atom_site_type_symbol
_atom_site_label
_atom_site_fract_x
_atom_site_fract_y
_atom_site_fract_z
Si Si1 0.886823 0.889262 0.462996
Si Si2 0.329998 0.389998 0.028023
Si Si3 0.030336 0.108245 0.880994
Si Si4 0.598120 0.707379 0.167378
Si Si5 0.171153 0.291043 0.605350
Si Si6 0.049217 0.611825 0.195831
Si Si7 0.571184 0.611796 0.558176
Si Si8 0.526818 0.108659 0.658397
O O1 0.824354 0.821774 0.421200
O O2 0.907283 0.853436 0.586946
O O3 0.951509 0.856404 0.385526
O O4 0.865463 0.000000 0.453642
O O5 0.250000 0.366585 0.065544
O O6 0.338991 0.500000 0.002629
O O7 0.346452 0.334989 0.917141
O O8 0.384205 0.358523 0.122230
O O9 0.094264 0.179782 0.856987
O O10 0.968862 0.127606 0.789082
O O11 0.057804 0.000000 0.869933
O O12 0.000000 0.128152 0.000000
O O13 0.625923 0.684576 0.287629
O O14 0.520574 0.662760 0.150329
O O15 0.250000 0.328270 0.623662
O O16 0.138280 0.344796 0.502110
O O17 0.034959 0.500000 0.193864
O O18 0.067024 0.648706 0.317242
O O19 0.500000 0.646036 0.500000
O O20 0.579570 0.500000 0.555005
O O21 0.528027 0.000000 0.627236
#
# Coordination Sequence:
#
# PCOD8211209 Si02
#       8
#     8   8   8   8   8   8   8   8
#     4   9  18  34  56  80 113 150 191 241 286 340
#     4  10  22  40  61  87 120 154 191 244 306 356
#     4  10  20  33  53  86 121 149 191 246 293 337
#     4  12  22  37  59  86 123 156 199 246 289 347
#     4  12  26  37  56  88 121 158 194 235 299 363
#     4  10  21  38  65  91 111 149 203 246 290 352
#     4  10  22  41  62  86 117 154 196 243 289 347
#     4   8  15  29  53  82 105 142 192 237 288 331
#
# _framework density 19.519324000000001
#
# number of rings (size 3 to 8) (size 9 to 14) (size 15 to 20)
#    0.000    1.875    2.500    2.625    3.500    2.500 
#    0.000    1.250    0.000    1.125    0.000    0.000 
#    0.000    0.000    0.000    0.000    0.000    0.000 
#
# Total GULP energy -793301.985587 kJ/mol
# GULP energy per Si atom -12395.343525 kJ/mol
# Density = 1.947490 g / cm^3
# Si number density = 19.519324 Si / 1000 Ang^3
#
#
#
# Elastic Constant Matrix: (Units=GPa)
#
#
# Indices 1 2 3 4 5 6 
#
# 1 102.5704 29.0078 32.3772 0.0000 0.0000 0.0000
# 2 29.0078 37.6983 22.8717 0.0000 0.0000 0.0000
# 3 32.3772 22.8717 125.3465 0.0000 0.0000 0.0000
# 4 0.0000 0.0000 0.0000 27.4816 0.0000 0.0000
# 5 0.0000 0.0000 0.0000 0.0000 26.2230 0.0000
# 6 0.0000 0.0000 0.0000 0.0000 0.0000 19.7631
#
#
#
# Elastic Compliance Matrix: (Units=1/GPa)
#
#
# Indices 1 2 3 4 5 6 
#
# 1 0.012773 -0.008801 -0.001693 0.000000 0.000000 0.000000
# 2 -0.008801 0.035893 -0.004276 0.000000 0.000000 0.000000
# 3 -0.001693 -0.004276 0.009196 0.000000 0.000000 0.000000
# 4 0.000000 0.000000 0.000000 0.036388 0.000000 0.000000
# 5 0.000000 0.000000 0.000000 0.000000 0.038134 0.000000
# 6 0.000000 0.000000 0.000000 0.000000 0.000000 0.050599
#
#
# Mechanical properties :
#
#
# Convention : Reuss Voigt Hill
#
# Bulk Modulus (GPa) = 35.31011 48.23651 41.77331
# Shear Modulus (GPa) = 22.52618 26.78411 24.65515
#
# Velocity S-wave (km/s) = 3.40081 3.70832 3.55789
# Velocity P-wave (km/s) = 5.79222 6.56516 6.19076
#
# Compressibility (1/GPa) = 0.02832050
#
# Stress axis : x y z
#
# Youngs Moduli (GPa) = 78.29049 27.86073 108.74877
#
# Poissons Ratio (x) = 0.24520 0.18415
# Poissons Ratio (y) = 0.68904 0.46500
# Poissons Ratio (z) = 0.13257 0.11913
#
# Static dielectric constant tensor:
#      x y z
#    x 3.261150 0.000000 0.000000 
#    y 0.000000 3.645160 0.000000 
#    z 0.000000 0.000000 3.746400 
# 
# 
# High freq. dielectric constant tensor:
#      x y z
#    x 1.718610 0.000000 0.000000 
#    y 0.000000 1.768970 0.000000 
#    z 0.000000 0.000000 1.775200 
# 
# From -- ./inp_files/17539.got.cif
#   From: 2010.03.12/outbox.cif.g09.slc.cpg/sg51_9_cif.got.tgz:17539.got - 2010.04.16 13:43:02.
