data_PCOD8211044
_publ_section_title
;
Structure prediction by ZEFSAII (Michael W. Deem and Ramdas Pophale) SiO2 
 PCOD8211044
Probable space group: P M M A
;
_chemical_formula_sum "Si O2"
_cell_formula_units_Z 64
_cell_length_a 19.173847
_cell_length_b 9.179749
_cell_length_c 19.819896
_cell_angle_alpha 90.000000
_cell_angle_beta 90.000000
_cell_angle_gamma 90.000000
_cell_volume 3488.521753
_symmetry_space_group_name_H-M "P M M A"
_symmetry_group_IT_number 51
_symmetry_cell_setting 'orthorhombic'
loop_
_space_group_symop_operation_xyz
x,y,z
1/2-x,-y,z
1/2+x,-y,-z
-x,y,-z
-x,-y,-z
1/2+x,y,-z
1/2-x,y,z
x,-y,z
loop_
_atom_site_type_symbol
_atom_site_label
_atom_site_fract_x
_atom_site_fract_y
_atom_site_fract_z
Si Si1 0.573173 0.829281 0.240052
Si Si2 0.066825 0.330451 0.234246
Si Si3 0.576180 0.330713 0.609352
Si Si4 0.668512 0.168570 0.861779
Si Si5 0.170102 0.830319 0.490976
Si Si6 0.937364 0.831585 0.394831
Si Si7 0.667284 0.665378 0.140085
Si Si8 0.332859 0.161418 0.987711
O O1 0.502393 0.756371 0.213335
O O2 0.584950 0.794267 0.318708
O O3 0.638155 0.760944 0.201089
O O4 0.569496 0.000000 0.225524
O O5 0.054010 0.500000 0.220503
O O6 0.086029 0.300098 0.311692
O O7 0.130375 0.273896 0.189931
O O8 0.573446 0.500000 0.592189
O O9 0.642004 0.259443 0.572536
O O10 0.504600 0.259942 0.582486
O O11 0.750000 0.200183 0.854112
O O12 0.642340 0.207961 0.937487
O O13 0.651997 0.000000 0.845605
O O14 0.250000 0.786595 0.504078
O O15 0.127337 0.788532 0.558065
O O16 0.162512 0.000000 0.473867
O O17 0.957987 0.000000 0.402372
O O18 0.750000 0.676780 0.143751
O O19 0.641309 0.500000 0.146958
O O20 0.639110 0.726518 0.068414
O O21 0.250000 0.157034 0.987756
O O22 0.361538 0.000000 0.970305
#
# Coordination Sequence:
#
# PCOD8211044 Si02
#       8
#     8   8   8   8   8   8   8   8
#     4  10  20  35  56  78 102 135 174 216 259 305
#     4  10  21  36  53  75 106 139 171 212 259 308
#     4  10  21  36  54  76 103 137 174 209 250 305
#     4   9  18  33  54  79 105 134 172 217 260 305
#     4  10  21  36  54  78 107 135 166 210 258 300
#     4   9  19  36  57  78 100 132 174 214 254 304
#     4  10  20  33  51  77 108 139 171 210 256 307
#     4   8  15  30  51  74 101 134 172 212 254 303
#
# _framework density 18.345880000000001
#
# number of rings (size 3 to 8) (size 9 to 14) (size 15 to 20)
#    0.000    2.500    0.000    2.625    0.000    6.750 
#    0.000    5.625    0.000    3.750    0.000    0.000 
#    0.000    0.000    0.000    0.000    0.000    0.000 
#
# Total GULP energy -793733.877543 kJ/mol
# GULP energy per Si atom -12402.091837 kJ/mol
# Density = 1.830412 g / cm^3
# Si number density = 18.345880 Si / 1000 Ang^3
#
#
#
# Elastic Constant Matrix: (Units=GPa)
#
#
# Indices 1 2 3 4 5 6 
#
# 1 80.7213 49.9109 50.4817 0.0000 0.0000 0.0000
# 2 49.9109 102.4015 57.1618 0.0000 0.0000 0.0000
# 3 50.4817 57.1618 90.8334 0.0000 0.0000 0.0000
# 4 0.0000 0.0000 0.0000 31.0566 0.0000 0.0000
# 5 0.0000 0.0000 0.0000 0.0000 25.6975 0.0000
# 6 0.0000 0.0000 0.0000 0.0000 0.0000 27.5985
#
#
#
# Elastic Compliance Matrix: (Units=1/GPa)
#
#
# Indices 1 2 3 4 5 6 
#
# 1 0.020960 -0.005724 -0.008046 0.000000 0.000000 0.000000
# 2 -0.005724 0.016617 -0.007276 0.000000 0.000000 0.000000
# 3 -0.008046 -0.007276 0.020060 0.000000 0.000000 0.000000
# 4 0.000000 0.000000 0.000000 0.032199 0.000000 0.000000
# 5 0.000000 0.000000 0.000000 0.000000 0.038914 0.000000
# 6 0.000000 0.000000 0.000000 0.000000 0.000000 0.036234
#
#
# Mechanical properties :
#
#
# Convention : Reuss Voigt Hill
#
# Bulk Modulus (GPa) = 64.33508 65.45166 64.89337
# Shear Modulus (GPa) = 23.55628 24.63064 24.09346
#
# Velocity S-wave (km/s) = 3.58720 3.66809 3.62787
# Velocity P-wave (km/s) = 7.23196 7.32760 7.27994
#
# Compressibility (1/GPa) = 0.01554362
#
# Stress axis : x y z
#
# Youngs Moduli (GPa) = 47.71056 60.17951 49.85137
#
# Poissons Ratio (x) = 0.34449 0.40112
# Poissons Ratio (y) = 0.27311 0.36271
# Poissons Ratio (z) = 0.38389 0.43785
#
# Static dielectric constant tensor:
#      x y z
#    x 3.195250 0.000000 0.000000 
#    y 0.000000 3.474740 0.000000 
#    z 0.000000 0.000000 3.497250 
# 
# 
# High freq. dielectric constant tensor:
#      x y z
#    x 1.693690 0.000000 0.000000 
#    y 0.000000 1.715550 0.000000 
#    z 0.000000 0.000000 1.718190 
# 
# From -- ./inp_files/33900.got.cif
#   From: 2010.03.12/outbox.cif.g09.slc.cpg/sg51_17_cif.got.tgz:33900.got - 2010.04.16 13:43:02.
