data_PCOD8211531
_publ_section_title
;
Structure prediction by ZEFSAII (Michael W. Deem and Ramdas Pophale) SiO2 
 PCOD8211531
Probable space group: P M M A
;
_chemical_formula_sum "Si O2"
_cell_formula_units_Z 48
_cell_length_a 9.476986
_cell_length_b 9.232607
_cell_length_c 29.277320
_cell_angle_alpha 90.000000
_cell_angle_beta 90.000000
_cell_angle_gamma 90.000000
_cell_volume 2561.686079
_symmetry_space_group_name_H-M "P M M A"
_symmetry_group_IT_number 51
_symmetry_cell_setting 'orthorhombic'
loop_
_space_group_symop_operation_xyz
x,y,z
1/2-x,-y,z
1/2+x,-y,-z
-x,y,-z
-x,-y,-z
1/2+x,y,-z
1/2-x,y,z
x,-y,z
loop_
_atom_site_type_symbol
_atom_site_label
_atom_site_fract_x
_atom_site_fract_y
_atom_site_fract_z
Si Si1 0.478243 0.163906 0.102117
Si Si2 0.913683 0.836794 0.798310
Si Si3 0.750000 0.330147 0.951244
Si Si4 0.087190 0.670849 0.291481
Si Si5 0.915069 0.170270 0.368433
Si Si6 0.250000 0.159639 0.956919
Si Si7 0.411145 0.171895 0.457154
O O1 0.497467 0.204062 0.155542
O O2 0.383630 0.278706 0.076555
O O3 0.623541 0.180104 0.077161
O O4 0.416908 0.000000 0.098404
O O5 0.750000 0.822212 0.810772
O O6 0.956636 0.725856 0.758638
O O7 0.949726 0.000000 0.781857
O O8 0.750000 0.500000 0.954415
O O9 0.750000 0.274097 0.002849
O O10 0.250000 0.714628 0.302382
O O11 0.066730 0.500000 0.293598
O O12 0.979818 0.744512 0.326177
O O13 0.750000 0.209589 0.374951
O O14 0.003636 0.221452 0.412449
O O15 0.933926 0.000000 0.359889
O O16 0.250000 0.000000 0.979788
O O17 0.500000 0.233912 0.500000
O O18 0.250000 0.233738 0.456697
O O19 0.404033 0.000000 0.460254
#
# Coordination Sequence:
#
# PCOD8211531 Si02
#       7
#     8   8   4   8   8   4   8
#     4  10  20  38  60  83 109 141 182 226 273 326
#     4   9  17  33  58  83 106 136 179 227 272 323
#     4  12  24  36  56  82 112 148 186 224 267 322
#     4  10  21  36  55  79 108 141 179 223 275 333
#     4  10  20  34  53  79 110 146 189 232 274 325
#     4  10  22  38  58  82 110 144 180 224 275 328
#     4   9  16  27  47  77 112 147 184 232 285 331
#
# _framework density 18.737659000000001
#
# number of rings (size 3 to 8) (size 9 to 14) (size 15 to 20)
#    0.000    2.167    0.833    2.750    0.000    7.333 
#    1.500    0.000    0.000    0.500    0.000    0.000 
#    0.000    0.000    0.000    0.000    0.000    0.000 
#
# Total GULP energy -595111.248020 kJ/mol
# GULP energy per Si atom -12398.151000 kJ/mol
# Density = 1.869501 g / cm^3
# Si number density = 18.737659 Si / 1000 Ang^3
#
#
#
# Elastic Constant Matrix: (Units=GPa)
#
#
# Indices 1 2 3 4 5 6 
#
# 1 124.2520 53.7630 72.7259 0.0000 0.0000 0.0000
# 2 53.7630 81.6112 62.0708 0.0000 0.0000 0.0000
# 3 72.7259 62.0708 153.6157 0.0000 0.0000 0.0000
# 4 0.0000 0.0000 0.0000 -1.2478 0.0000 0.0000
# 5 0.0000 0.0000 0.0000 0.0000 78.4877 0.0000
# 6 0.0000 0.0000 0.0000 0.0000 0.0000 5.4737
#
#
#
# Elastic Compliance Matrix: (Units=1/GPa)
#
#
# Indices 1 2 3 4 5 6 
#
# 1 0.012609 -0.005437 -0.003772 0.000000 0.000000 0.000000
# 2 -0.005437 0.020034 -0.005521 0.000000 0.000000 0.000000
# 3 -0.003772 -0.005521 0.010527 0.000000 0.000000 0.000000
# 4 0.000000 0.000000 0.000000 -0.801405 0.000000 0.000000
# 5 0.000000 0.000000 0.000000 0.000000 0.012741 0.000000
# 6 0.000000 0.000000 0.000000 0.000000 0.000000 0.182692
#
#
# Mechanical properties :
#
#
# Convention : Reuss Voigt Hill
#
# Bulk Modulus (GPa) = 72.94793 81.84425 77.39609
# Shear Modulus (GPa) = -9.45586 27.93733 9.24074
#
# Velocity S-wave (km/s) = -2.24887 3.86550 2.22314
# Velocity P-wave (km/s) = 5.68089 7.98102 6.92709
#
# Compressibility (1/GPa) = 0.01370841
#
# Stress axis : x y z
#
# Youngs Moduli (GPa) = 79.30978 49.91475 94.99790
#
# Poissons Ratio (x) = 0.27139 0.35837
# Poissons Ratio (y) = 0.43122 0.52448
# Poissons Ratio (z) = 0.29919 0.27558
#
# Static dielectric constant tensor:
#      x y z
#    x 3.474190 0.000000 0.000000 
#    y 0.000000 3.226450 0.000000 
#    z 0.000000 0.000000 3.586170 
# 
# 
# High freq. dielectric constant tensor:
#      x y z
#    x 1.726330 0.000000 0.000000 
#    y 0.000000 1.699010 0.000000 
#    z 0.000000 0.000000 1.742560 
# 
# From -- ./inp_files/37108.got.cif
#   From: 2010.03.12/outbox.cif.g09.slc.cpg/sg51_19_cif.got.tgz:37108.got - 2010.04.16 13:43:02.
