data_PCOD8211063
_publ_section_title
;
Structure prediction by ZEFSAII (Michael W. Deem and Ramdas Pophale) SiO2 
 PCOD8211063
Probable space group: P M M A
;
_chemical_formula_sum "Si O2"
_cell_formula_units_Z 64
_cell_length_a 28.107163
_cell_length_b 9.246896
_cell_length_c 12.857355
_cell_angle_alpha 90.000000
_cell_angle_beta 90.000000
_cell_angle_gamma 90.000000
_cell_volume 3341.678163
_symmetry_space_group_name_H-M "P M M A"
_symmetry_group_IT_number 51
_symmetry_cell_setting 'orthorhombic'
loop_
_space_group_symop_operation_xyz
x,y,z
1/2-x,-y,z
1/2+x,-y,-z
-x,y,-z
-x,-y,-z
1/2+x,y,-z
1/2-x,y,z
x,-y,z
loop_
_atom_site_type_symbol
_atom_site_label
_atom_site_fract_x
_atom_site_fract_y
_atom_site_fract_z
Si Si1 0.143165 0.327986 0.518053
Si Si2 0.642024 0.168714 0.874219
Si Si3 0.803418 0.671701 0.275434
Si Si4 0.863957 0.328595 0.079925
Si Si5 0.052116 0.167133 0.467574
Si Si6 0.194098 0.166085 0.333877
Si Si7 0.955772 0.834282 0.771997
Si Si8 0.027760 0.670236 0.897634
O O1 0.140269 0.500000 0.511295
O O2 0.172029 0.274310 0.618858
O O3 0.090264 0.263825 0.528608
O O4 0.169074 0.268909 0.416297
O O5 0.677785 0.210933 0.781525
O O6 0.588436 0.213122 0.843312
O O7 0.645550 0.000000 0.900069
O O8 0.657156 0.258085 0.975654
O O9 0.750000 0.735015 0.270541
O O10 0.802316 0.500000 0.273967
O O11 0.832814 0.728649 0.176334
O O12 0.861163 0.500000 0.067460
O O13 0.918006 0.276542 0.098125
O O14 0.059995 0.192272 0.345733
O O15 0.000000 0.221016 0.500000
O O16 0.059310 0.000000 0.498817
O O17 0.250000 0.188175 0.342541
O O18 0.178910 0.000000 0.356105
O O19 0.002190 0.740651 0.798281
O O20 0.969563 0.000000 0.790370
O O21 0.024719 0.500000 0.883896
O O22 0.000000 0.723325 0.000000
#
# Coordination Sequence:
#
# PCOD8211063 Si02
#       8
#     8   8   8   8   8   8   8   8
#     4  11  22  37  61  89 117 149 192 242 288 345
#     4  10  20  36  56  82 115 147 185 234 287 343
#     4   9  20  39  59  80 112 152 191 239 294 341
#     4  10  21  37  57  81 111 151 195 234 285 345
#     4  10  22  40  59  83 118 156 190 229 284 350
#     4  10  21  39  62  85 114 152 190 235 296 355
#     4  10  20  35  55  78 109 148 185 224 278 339
#     4  10  20  33  51  78 110 142 181 229 274 328
#
# _framework density 19.152052999999999
#
# number of rings (size 3 to 8) (size 9 to 14) (size 15 to 20)
#    0.000    2.000    2.500    0.750    1.750    3.250 
#    0.000    1.250    0.000    1.500    0.000    0.000 
#    0.000    0.000    0.000    0.000    0.000    0.000 
#
# Total GULP energy -793834.891670 kJ/mol
# GULP energy per Si atom -12403.670182 kJ/mol
# Density = 1.910846 g / cm^3
# Si number density = 19.152053 Si / 1000 Ang^3
#
#
#
# Elastic Constant Matrix: (Units=GPa)
#
#
# Indices 1 2 3 4 5 6 
#
# 1 141.5568 43.8744 67.2776 0.0000 0.0000 0.0000
# 2 43.8744 47.5015 41.4735 0.0000 0.0000 0.0000
# 3 67.2776 41.4735 105.5100 0.0000 0.0000 0.0000
# 4 0.0000 0.0000 0.0000 27.0215 0.0000 0.0000
# 5 0.0000 0.0000 0.0000 0.0000 35.0432 0.0000
# 6 0.0000 0.0000 0.0000 0.0000 0.0000 25.0720
#
#
#
# Elastic Compliance Matrix: (Units=1/GPa)
#
#
# Indices 1 2 3 4 5 6 
#
# 1 0.011246 -0.006282 -0.004701 0.000000 0.000000 0.000000
# 2 -0.006282 0.035562 -0.009973 0.000000 0.000000 0.000000
# 3 -0.004701 -0.009973 0.016396 0.000000 0.000000 0.000000
# 4 0.000000 0.000000 0.000000 0.037008 0.000000 0.000000
# 5 0.000000 0.000000 0.000000 0.000000 0.028536 0.000000
# 6 0.000000 0.000000 0.000000 0.000000 0.000000 0.039885
#
#
# Mechanical properties :
#
#
# Convention : Reuss Voigt Hill
#
# Bulk Modulus (GPa) = 46.96943 66.64659 56.80801
# Shear Modulus (GPa) = 22.97355 26.89017 24.93186
#
# Velocity S-wave (km/s) = 3.46719 3.75111 3.61194
# Velocity P-wave (km/s) = 6.37230 7.32361 6.86446
#
# Compressibility (1/GPa) = 0.02129045
#
# Stress axis : x y z
#
# Youngs Moduli (GPa) = 88.92110 28.12018 60.99214
#
# Poissons Ratio (x) = 0.17666 0.28675
# Poissons Ratio (y) = 0.55864 0.60825
# Poissons Ratio (z) = 0.41805 0.28043
#
# Static dielectric constant tensor:
#      x y z
#    x 3.667360 0.000000 0.000000 
#    y 0.000000 3.246750 0.000000 
#    z 0.000000 0.000000 3.522280 
# 
# 
# High freq. dielectric constant tensor:
#      x y z
#    x 1.754290 0.000000 0.000000 
#    y 0.000000 1.722620 0.000000 
#    z 0.000000 0.000000 1.750300 
# 
# From -- ./inp_files/19438.got.cif
#   From: 2010.03.12/outbox.cif.g09.slc.cpg/sg51_10_cif.got.tgz:19438.got - 2010.04.16 13:43:02.
