data_PCOD8211893
_publ_section_title
;
Structure prediction by ZEFSAII (Michael W. Deem and Ramdas Pophale) SiO2 
 PCOD8211893
Probable space group: P M M A
;
_chemical_formula_sum "Si O2"
_cell_formula_units_Z 56
_cell_length_a 16.770653
_cell_length_b 31.390132
_cell_length_c 5.056025
_cell_angle_alpha 90.000000
_cell_angle_beta 90.000000
_cell_angle_gamma 90.000000
_cell_volume 2661.658466
_symmetry_space_group_name_H-M "P M M A"
_symmetry_group_IT_number 51
_symmetry_cell_setting 'orthorhombic'
loop_
_space_group_symop_operation_xyz
x,y,z
1/2-x,-y,z
1/2+x,-y,-z
-x,y,-z
-x,-y,-z
1/2+x,y,-z
1/2-x,y,z
x,-y,z
loop_
_atom_site_type_symbol
_atom_site_label
_atom_site_fract_x
_atom_site_fract_y
_atom_site_fract_z
Si Si1 0.655506 0.600090 0.208257
Si Si2 0.655265 0.452368 0.707223
Si Si3 0.410846 0.226393 0.587435
Si Si4 0.341771 0.048646 0.555361
Si Si5 0.447101 0.318452 0.744133
Si Si6 0.658058 0.816179 0.905355
Si Si7 0.592270 0.092696 0.935622
O O1 0.750000 0.606361 0.206847
O O2 0.623970 0.576237 0.467470
O O3 0.617346 0.646322 0.179369
O O4 0.625470 0.570415 0.971179
O O5 0.750000 0.455352 0.699653
O O6 0.619115 0.500000 0.691611
O O7 0.500000 0.215376 0.500000
O O8 0.400235 0.276242 0.653091
O O9 0.352521 0.214556 0.347041
O O10 0.392738 0.199308 0.846116
O O11 0.250000 0.055740 0.474598
O O12 0.396190 0.059375 0.302374
O O13 0.358664 0.000000 0.636932
O O14 0.361387 0.078253 0.803386
O O15 0.500000 0.335288 0.500000
O O16 0.500000 0.307386 0.000000
O O17 0.750000 0.816355 0.986828
O O18 0.628337 0.863096 0.830443
O O19 0.500000 0.097375 0.000000
#
# Coordination Sequence:
#
# PCOD8211893 Si02
#       7
#     8   8   8   8   8   8   8
#     4  10  20  34  57  86 113 147 196 248 290 344
#     4   9  17  31  53  82 114 149 192 243 296 346
#     4  11  23  43  65  89 120 161 206 245 298 369
#     4  11  24  43  66  93 128 168 210 259 312 362
#     4  11  23  41  62  85 118 159 194 236 299 364
#     4  12  25  42  65  94 126 159 200 255 312 360
#     4  12  25  42  65  94 128 167 209 254 304 367
#
# _framework density 21.039512999999999
#
# number of rings (size 3 to 8) (size 9 to 14) (size 15 to 20)
#    0.000    1.143    0.000    7.714    0.000    5.714 
#    0.000    1.429    0.000    8.571    0.000    0.000 
#    0.000    0.000    0.000    0.000    0.000    0.000 
#
# Total GULP energy -694760.793844 kJ/mol
# GULP energy per Si atom -12406.442747 kJ/mol
# Density = 2.099163 g / cm^3
# Si number density = 21.039513 Si / 1000 Ang^3
#
#
#
# Elastic Constant Matrix: (Units=GPa)
#
#
# Indices 1 2 3 4 5 6 
#
# 1 62.3492 57.0446 23.6322 0.0000 0.0000 0.0000
# 2 57.0446 130.5403 37.9661 0.0000 0.0000 0.0000
# 3 23.6322 37.9661 122.3038 0.0000 0.0000 0.0000
# 4 0.0000 0.0000 0.0000 41.3567 0.0000 0.0000
# 5 0.0000 0.0000 0.0000 0.0000 26.1198 0.0000
# 6 0.0000 0.0000 0.0000 0.0000 0.0000 93.3637
#
#
#
# Elastic Compliance Matrix: (Units=1/GPa)
#
#
# Indices 1 2 3 4 5 6 
#
# 1 0.027045 -0.011320 -0.001712 0.000000 0.000000 0.000000
# 2 -0.011320 0.013159 -0.001898 0.000000 0.000000 0.000000
# 3 -0.001712 -0.001898 0.009096 0.000000 0.000000 0.000000
# 4 0.000000 0.000000 0.000000 0.024180 0.000000 0.000000
# 5 0.000000 0.000000 0.000000 0.000000 0.038285 0.000000
# 6 0.000000 0.000000 0.000000 0.000000 0.000000 0.010711
#
#
# Mechanical properties :
#
#
# Convention : Reuss Voigt Hill
#
# Bulk Modulus (GPa) = 51.43779 61.38658 56.41218
# Shear Modulus (GPa) = 31.48306 45.27139 38.37722
#
# Velocity S-wave (km/s) = 3.87250 4.64371 4.27553
# Velocity P-wave (km/s) = 6.67055 7.61526 7.15851
#
# Compressibility (1/GPa) = 0.01944096
#
# Stress axis : x y z
#
# Youngs Moduli (GPa) = 36.97569 75.99201 109.93688
#
# Poissons Ratio (x) = 0.86027 0.18817
# Poissons Ratio (y) = 0.41858 0.20861
# Poissons Ratio (z) = 0.06329 0.14420
#
# Static dielectric constant tensor:
#      x y z
#    x 3.576770 0.000000 0.000000 
#    y 0.000000 3.840490 0.000000 
#    z 0.000000 0.000000 3.980650 
# 
# 
# High freq. dielectric constant tensor:
#      x y z
#    x 1.808930 0.000000 0.000000 
#    y 0.000000 1.836420 0.000000 
#    z 0.000000 0.000000 1.843080 
# 
# From -- ./inp_files/1480.got.cif
#   From: 2010.03.12/outbox.cif.g09.slc.cpg/sg51_1_cif.got.tgz:1480.got - 2010.04.16 13:43:02.
