data_PCOD8211080
_publ_section_title
;
Structure prediction by ZEFSAII (Michael W. Deem and Ramdas Pophale) SiO2 
 PCOD8211080
Probable space group: P M M A
;
_chemical_formula_sum "Si O2"
_cell_formula_units_Z 56
_cell_length_a 14.132697
_cell_length_b 9.434726
_cell_length_c 23.619358
_cell_angle_alpha 90.000000
_cell_angle_beta 90.000000
_cell_angle_gamma 90.000000
_cell_volume 3149.360882
_symmetry_space_group_name_H-M "P M M A"
_symmetry_group_IT_number 51
_symmetry_cell_setting 'orthorhombic'
loop_
_space_group_symop_operation_xyz
x,y,z
1/2-x,-y,z
1/2+x,-y,-z
-x,y,-z
-x,-y,-z
1/2+x,y,-z
1/2-x,y,z
x,-y,z
loop_
_atom_site_type_symbol
_atom_site_label
_atom_site_fract_x
_atom_site_fract_y
_atom_site_fract_z
Si Si1 0.986023 0.334647 0.063907
Si Si2 0.638200 0.661558 0.441517
Si Si3 0.357966 0.335530 0.153942
Si Si4 0.858086 0.164465 0.143161
Si Si5 0.641941 0.161816 0.548811
Si Si6 0.485572 0.835855 0.638790
Si Si7 0.514275 0.835069 0.766998
O O1 0.961309 0.500000 0.066089
O O2 0.082009 0.299019 0.097877
O O3 0.897159 0.252273 0.090080
O O4 0.000000 0.281755 0.000000
O O5 0.750000 0.671001 0.436480
O O6 0.602492 0.500000 0.443364
O O7 0.603127 0.739402 0.498525
O O8 0.597066 0.740461 0.387008
O O9 0.250000 0.291031 0.142000
O O10 0.366431 0.500000 0.169479
O O11 0.397225 0.248747 0.207208
O O12 0.750000 0.208358 0.155109
O O13 0.917958 0.200908 0.199331
O O14 0.866889 0.000000 0.127476
O O15 0.750000 0.198114 0.563988
O O16 0.582716 0.191099 0.605197
O O17 0.630831 0.000000 0.528043
O O18 0.500750 0.785064 0.702785
O O19 0.454464 0.000000 0.636221
O O20 0.539495 0.000000 0.770355
#
# Coordination Sequence:
#
# PCOD8211080 Si02
#       7
#     8   8   8   8   8   8   8
#     4   9  18  32  51  76 103 130 164 205 244 286
#     4  10  21  35  50  71  99 129 161 198 242 293
#     4   9  18  33  51  71  99 134 167 201 244 290
#     4   9  18  33  51  71  99 134 167 201 244 291
#     4   9  18  33  51  71  97 127 159 198 244 293
#     4  10  20  33  52  76  98 125 162 202 245 290
#     4   9  19  34  51  73  99 127 164 207 245 287
#
# _framework density 17.781386999999999
#
# number of rings (size 3 to 8) (size 9 to 14) (size 15 to 20)
#    0.000    2.714    0.000    0.857    0.000    6.286 
#    0.000    4.286    0.000    1.714    0.000    0.000 
#    0.000    0.000    0.000    0.000    0.000    0.000 
#
# Total GULP energy -694567.168989 kJ/mol
# GULP energy per Si atom -12402.985161 kJ/mol
# Density = 1.774092 g / cm^3
# Si number density = 17.781387 Si / 1000 Ang^3
#
#
#
# Elastic Constant Matrix: (Units=GPa)
#
#
# Indices 1 2 3 4 5 6 
#
# 1 99.1846 44.0239 54.0136 0.0000 0.0000 0.0000
# 2 44.0239 67.8288 58.9065 0.0000 0.0000 0.0000
# 3 54.0136 58.9065 153.5586 0.0000 0.0000 0.0000
# 4 0.0000 0.0000 0.0000 24.5092 0.0000 0.0000
# 5 0.0000 0.0000 0.0000 0.0000 18.3984 0.0000
# 6 0.0000 0.0000 0.0000 0.0000 0.0000 28.7677
#
#
#
# Elastic Compliance Matrix: (Units=1/GPa)
#
#
# Indices 1 2 3 4 5 6 
#
# 1 0.014667 -0.007557 -0.002260 0.000000 0.000000 0.000000
# 2 -0.007557 0.026002 -0.007316 0.000000 0.000000 0.000000
# 3 -0.002260 -0.007316 0.010114 0.000000 0.000000 0.000000
# 4 0.000000 0.000000 0.000000 0.040801 0.000000 0.000000
# 5 0.000000 0.000000 0.000000 0.000000 0.054353 0.000000
# 6 0.000000 0.000000 0.000000 0.000000 0.000000 0.034761
#
#
# Mechanical properties :
#
#
# Convention : Reuss Voigt Hill
#
# Bulk Modulus (GPa) = 60.54786 70.49557 65.52172
# Shear Modulus (GPa) = 22.67885 25.24360 23.96122
#
# Velocity S-wave (km/s) = 3.57519 3.77193 3.67488
# Velocity P-wave (km/s) = 7.15317 7.66171 7.41180
#
# Compressibility (1/GPa) = 0.01651586
#
# Stress axis : x y z
#
# Youngs Moduli (GPa) = 68.17920 38.45912 98.87398
#
# Poissons Ratio (x) = 0.29062 0.22349
# Poissons Ratio (y) = 0.51521 0.72341
# Poissons Ratio (z) = 0.15411 0.28138
#
# Static dielectric constant tensor:
#      x y z
#    x 3.336260 0.000000 0.000000 
#    y 0.000000 3.324220 0.000000 
#    z 0.000000 0.000000 3.294400 
# 
# 
# High freq. dielectric constant tensor:
#      x y z
#    x 1.690980 0.000000 0.000000 
#    y 0.000000 1.684740 0.000000 
#    z 0.000000 0.000000 1.683780 
# 
# From -- ./inp_files/33438.got.cif
#   From: 2010.03.12/outbox.cif.g09.slc.cpg/sg51_17_cif.got.tgz:33438.got - 2010.04.16 13:43:02.
