data_PCOD8211166
_publ_section_title
;
Structure prediction by ZEFSAII (Michael W. Deem and Ramdas Pophale) SiO2 
 PCOD8211166
Probable space group: P M M A
;
_chemical_formula_sum "Si O2"
_cell_formula_units_Z 64
_cell_length_a 17.891994
_cell_length_b 9.148506
_cell_length_c 21.352622
_cell_angle_alpha 90.000000
_cell_angle_beta 90.000000
_cell_angle_gamma 90.000000
_cell_volume 3495.104241
_symmetry_space_group_name_H-M "P M M A"
_symmetry_group_IT_number 51
_symmetry_cell_setting 'orthorhombic'
loop_
_space_group_symop_operation_xyz
x,y,z
1/2-x,-y,z
1/2+x,-y,-z
-x,y,-z
-x,-y,-z
1/2+x,y,-z
1/2-x,y,z
x,-y,z
loop_
_atom_site_type_symbol
_atom_site_label
_atom_site_fract_x
_atom_site_fract_y
_atom_site_fract_z
Si Si1 0.545958 0.166755 0.809353
Si Si2 0.337667 0.167451 0.390539
Si Si3 0.588167 0.332587 0.495718
Si Si4 0.336090 0.670179 0.264716
Si Si5 0.837304 0.829863 0.383013
Si Si6 0.165040 0.332318 0.872873
Si Si7 0.963885 0.829278 0.064338
Si Si8 0.111420 0.831038 0.754482
O O1 0.614481 0.272247 0.792710
O O2 0.521535 0.204701 0.879866
O O3 0.477085 0.195781 0.762235
O O4 0.573474 0.000000 0.804234
O O5 0.250000 0.181274 0.402033
O O6 0.377722 0.241305 0.448217
O O7 0.362142 0.247135 0.327141
O O8 0.363439 0.000000 0.385636
O O9 0.500000 0.319624 0.500000
O O10 0.614884 0.500000 0.500614
O O11 0.615566 0.267076 0.430432
O O12 0.250000 0.703745 0.248835
O O13 0.350266 0.500000 0.275234
O O14 0.750000 0.797237 0.391815
O O15 0.863133 0.781647 0.314071
O O16 0.854933 0.000000 0.394971
O O17 0.250000 0.316285 0.895908
O O18 0.140417 0.500000 0.867736
O O19 0.113599 0.254115 0.924426
O O20 0.157349 0.261924 0.804468
O O21 0.944708 0.000000 0.061429
O O22 0.000000 0.772870 0.000000
O O23 0.131103 0.000000 0.766892
#
# Coordination Sequence:
#
# PCOD8211166 Si02
#       8
#     8   8   8   8   8   8   8   8
#     4   9  18  33  55  83 110 139 178 223 269 314
#     4  10  21  38  60  81 101 133 178 226 274 322
#     4  11  25  40  53  76 107 140 179 222 270 324
#     4  10  21  36  55  80 110 143 178 220 272 326
#     4  10  21  37  57  81 108 140 178 220 270 324
#     4  10  20  33  52  82 116 148 184 223 267 322
#     4   9  19  37  59  82 109 145 189 230 269 317
#     4   9  19  35  56  82 110 142 180 223 270 320
#
# _framework density 18.311328
#
# number of rings (size 3 to 8) (size 9 to 14) (size 15 to 20)
#    0.000    2.250    0.000    3.000    1.750    8.500 
#    0.000    0.625    0.000    3.750    0.000    0.000 
#    0.000    0.000    0.000    0.000    0.000    0.000 
#
# Total GULP energy -793853.413874 kJ/mol
# GULP energy per Si atom -12403.959592 kJ/mol
# Density = 1.826965 g / cm^3
# Si number density = 18.311328 Si / 1000 Ang^3
#
#
#
# Elastic Constant Matrix: (Units=GPa)
#
#
# Indices 1 2 3 4 5 6 
#
# 1 81.5014 57.9756 63.8024 0.0000 0.0000 0.0000
# 2 57.9756 107.6438 61.0565 0.0000 0.0000 0.0000
# 3 63.8024 61.0565 112.1710 0.0000 0.0000 0.0000
# 4 0.0000 0.0000 0.0000 3.8695 0.0000 0.0000
# 5 0.0000 0.0000 0.0000 0.0000 27.5186 0.0000
# 6 0.0000 0.0000 0.0000 0.0000 0.0000 30.9043
#
#
#
# Elastic Compliance Matrix: (Units=1/GPa)
#
#
# Indices 1 2 3 4 5 6 
#
# 1 0.026352 -0.008233 -0.010508 0.000000 0.000000 0.000000
# 2 -0.008233 0.016011 -0.004032 0.000000 0.000000 0.000000
# 3 -0.010508 -0.004032 0.017087 0.000000 0.000000 0.000000
# 4 0.000000 0.000000 0.000000 0.258430 0.000000 0.000000
# 5 0.000000 0.000000 0.000000 0.000000 0.036339 0.000000
# 6 0.000000 0.000000 0.000000 0.000000 0.000000 0.032358
#
#
# Mechanical properties :
#
#
# Convention : Reuss Voigt Hill
#
# Bulk Modulus (GPa) = 71.92147 74.10947 73.01547
# Shear Modulus (GPa) = 11.44804 20.35727 15.90265
#
# Velocity S-wave (km/s) = 2.50309 3.33788 2.95016
# Velocity P-wave (km/s) = 6.90770 7.44413 7.18092
#
# Compressibility (1/GPa) = 0.01390405
#
# Stress axis : x y z
#
# Youngs Moduli (GPa) = 37.94814 62.45656 58.52571
#
# Poissons Ratio (x) = 0.51419 0.61496
# Poissons Ratio (y) = 0.31242 0.23600
# Poissons Ratio (z) = 0.39874 0.25185
#
# Static dielectric constant tensor:
#      x y z
#    x 3.327480 0.000000 0.000000 
#    y 0.000000 3.452440 0.000000 
#    z 0.000000 0.000000 3.320650 
# 
# 
# High freq. dielectric constant tensor:
#      x y z
#    x 1.711070 0.000000 0.000000 
#    y 0.000000 1.715130 0.000000 
#    z 0.000000 0.000000 1.705760 
# 
# From -- ./inp_files/33850.got.cif
#   From: 2010.03.12/outbox.cif.g09.slc.cpg/sg51_17_cif.got.tgz:33850.got - 2010.04.16 13:43:02.
