data_PCOD8211144
_publ_section_title
;
Structure prediction by ZEFSAII (Michael W. Deem and Ramdas Pophale) SiO2 
 PCOD8211144
Probable space group: P M M A
;
_chemical_formula_sum "Si O2"
_cell_formula_units_Z 48
_cell_length_a 8.922170
_cell_length_b 9.295231
_cell_length_c 30.726843
_cell_angle_alpha 90.000000
_cell_angle_beta 90.000000
_cell_angle_gamma 90.000000
_cell_volume 2548.288664
_symmetry_space_group_name_H-M "P M M A"
_symmetry_group_IT_number 51
_symmetry_cell_setting 'orthorhombic'
loop_
_space_group_symop_operation_xyz
x,y,z
1/2-x,-y,z
1/2+x,-y,-z
-x,y,-z
-x,-y,-z
1/2+x,y,-z
1/2-x,y,z
x,-y,z
loop_
_atom_site_type_symbol
_atom_site_label
_atom_site_fract_x
_atom_site_fract_y
_atom_site_fract_z
Si Si1 0.926054 0.835295 0.455345
Si Si2 0.426162 0.835384 0.044851
Si Si3 0.075884 0.332138 0.877808
Si Si4 0.925157 0.332616 0.622153
Si Si5 0.922997 0.168978 0.801503
Si Si6 0.072289 0.841313 0.295638
O O1 0.750000 0.816513 0.460021
O O2 0.000000 0.781198 0.500000
O O3 0.984296 0.737432 0.416728
O O4 0.971871 0.000000 0.445789
O O5 0.250000 0.817868 0.040102
O O6 0.482345 0.734281 0.083031
O O7 0.471206 0.000000 0.055396
O O8 0.500000 0.783663 0.000000
O O9 0.250000 0.302405 0.886150
O O10 0.039375 0.500000 0.874923
O O11 0.028371 0.259238 0.832872
O O12 0.750000 0.299403 0.615723
O O13 0.959983 0.500000 0.622728
O O14 0.985615 0.268809 0.667818
O O15 0.750000 0.212754 0.809022
O O16 0.977266 0.208099 0.752567
O O17 0.943507 0.000000 0.810549
O O18 0.250000 0.849606 0.295845
O O19 0.006781 0.000000 0.306123
#
# Coordination Sequence:
#
# PCOD8211144 Si02
#       6
#     8   8   8   8   8   8
#     4  10  21  37  57  79 102 133 175 220 265 313
#     4  10  21  38  61  86 109 137 176 220 266 317
#     4  11  24  38  52  76 111 148 183 219 263 315
#     4  10  20  33  52  80 111 142 175 212 259 315
#     4   9  18  34  57  83 107 135 177 225 269 314
#     4   8  15  30  53  79 106 137 175 219 263 309
#
# _framework density 18.836172000000001
#
# number of rings (size 3 to 8) (size 9 to 14) (size 15 to 20)
#    0.000    2.333    0.000    3.500    0.000    8.000 
#    0.000    2.500    0.000    1.000    0.000    0.000 
#    0.000    0.000    0.000    0.000    0.000    0.000 
#
# Total GULP energy -595279.642450 kJ/mol
# GULP energy per Si atom -12401.659218 kJ/mol
# Density = 1.879330 g / cm^3
# Si number density = 18.836172 Si / 1000 Ang^3
#
#
#
# Elastic Constant Matrix: (Units=GPa)
#
#
# Indices 1 2 3 4 5 6 
#
# 1 56.9092 39.9372 45.5241 0.0000 0.0000 0.0000
# 2 39.9372 87.8083 71.9824 0.0000 0.0000 0.0000
# 3 45.5241 71.9824 157.2165 0.0000 0.0000 0.0000
# 4 0.0000 0.0000 0.0000 -33.5639 0.0000 0.0000
# 5 0.0000 0.0000 0.0000 0.0000 33.2819 0.0000
# 6 0.0000 0.0000 0.0000 0.0000 0.0000 28.1697
#
#
#
# Elastic Compliance Matrix: (Units=1/GPa)
#
#
# Indices 1 2 3 4 5 6 
#
# 1 0.026968 -0.009388 -0.003511 0.000000 0.000000 0.000000
# 2 -0.009388 0.021499 -0.007125 0.000000 0.000000 0.000000
# 3 -0.003511 -0.007125 0.010640 0.000000 0.000000 0.000000
# 4 0.000000 0.000000 0.000000 -0.029794 0.000000 0.000000
# 5 0.000000 0.000000 0.000000 0.000000 0.030046 0.000000
# 6 0.000000 0.000000 0.000000 0.000000 0.000000 0.035499
#
#
# Mechanical properties :
#
#
# Convention : Reuss Voigt Hill
#
# Bulk Modulus (GPa) = 52.46694 68.53572 60.50133
# Shear Modulus (GPa) = 35.39587 15.21022 25.30304
#
# Velocity S-wave (km/s) = 4.33961 2.84474 3.66911
# Velocity P-wave (km/s) = 7.28179 6.87417 7.08091
#
# Compressibility (1/GPa) = 0.01905962
#
# Stress axis : x y z
#
# Youngs Moduli (GPa) = 37.08048 46.51337 93.98897
#
# Poissons Ratio (x) = 0.43666 0.32998
# Poissons Ratio (y) = 0.34810 0.66969
# Poissons Ratio (z) = 0.13018 0.33142
#
# Static dielectric constant tensor:
#      x y z
#    x 3.223790 0.000000 0.000000 
#    y 0.000000 3.483340 0.000000 
#    z 0.000000 0.000000 3.760370 
# 
# 
# High freq. dielectric constant tensor:
#      x y z
#    x 1.716370 0.000000 0.000000 
#    y 0.000000 1.727760 0.000000 
#    z 0.000000 0.000000 1.748200 
# 
# From -- ./inp_files/36877.got.cif
#   From: 2010.03.12/outbox.cif.g09.slc.cpg/sg51_19_cif.got.tgz:36877.got - 2010.04.16 13:43:02.
