data_PCOD8211962
_publ_section_title
;
Structure prediction by ZEFSAII (Michael W. Deem and Ramdas Pophale) SiO2 
 PCOD8211962
Probable space group: P M M A
;
_chemical_formula_sum "Si O2"
_cell_formula_units_Z 64
_cell_length_a 9.072979
_cell_length_b 15.462805
_cell_length_c 24.906890
_cell_angle_alpha 90.000000
_cell_angle_beta 90.000000
_cell_angle_gamma 90.000000
_cell_volume 3494.279879
_symmetry_space_group_name_H-M "P M M A"
_symmetry_group_IT_number 51
_symmetry_cell_setting 'orthorhombic'
loop_
_space_group_symop_operation_xyz
x,y,z
1/2-x,-y,z
1/2+x,-y,-z
-x,y,-z
-x,-y,-z
1/2+x,y,-z
1/2-x,y,z
x,-y,z
loop_
_atom_site_type_symbol
_atom_site_label
_atom_site_fract_x
_atom_site_fract_y
_atom_site_fract_z
Si Si1 0.423336 0.367007 0.220322
Si Si2 0.417941 0.594393 0.885644
Si Si3 0.919043 0.219221 0.361209
Si Si4 0.580047 0.405979 0.327159
Si Si5 0.424578 0.764551 0.944316
Si Si6 0.922977 0.901450 0.555522
Si Si7 0.082207 0.196590 0.760513
Si Si8 0.077865 0.906190 0.861018
O O1 0.250000 0.377908 0.221926
O O2 0.484064 0.412124 0.167373
O O3 0.488501 0.412516 0.272800
O O4 0.468126 0.267318 0.219084
O O5 0.250000 0.615956 0.868750
O O6 0.428189 0.500000 0.914110
O O7 0.474811 0.668582 0.925972
O O8 0.750000 0.209431 0.380045
O O9 0.967353 0.321462 0.361999
O O10 0.942023 0.177335 0.302317
O O11 0.023417 0.165893 0.400141
O O12 0.750000 0.391400 0.311310
O O13 0.559117 0.500000 0.357096
O O14 0.250000 0.770205 0.951445
O O15 0.486512 0.832635 0.900277
O O16 0.500000 0.788080 0.000000
O O17 0.750000 0.890153 0.547766
O O18 0.000000 0.877018 0.500000
O O19 0.962980 0.000000 0.572495
O O20 0.250000 0.229597 0.769696
O O21 0.049678 0.113988 0.797895
O O22 0.250000 0.911451 0.872314
O O23 0.005156 0.000000 0.873075
#
# Coordination Sequence:
#
# PCOD8211962 Si02
#       8
#     8   8   8   8   8   8   8   8
#     4  11  20  29  47  76 108 137 170 213 259 302
#     4  10  20  35  54  72  94 131 171 205 251 314
#     4   9  18  31  53  83 111 141 180 224 267 314
#     4   9  18  33  52  75 108 150 188 218 254 309
#     4  10  21  37  55  74  98 128 166 212 259 311
#     4  10  21  37  57  80 109 146 186 229 275 321
#     4   9  17  33  54  76 106 142 177 207 251 313
#     4   9  17  32  56  80 100 128 169 212 252 304
#
# _framework density 18.315647999999999
#
# number of rings (size 3 to 8) (size 9 to 14) (size 15 to 20)
#    0.000    2.375    1.250    2.625    0.000    6.250 
#    0.000    1.250    0.000    1.500    0.000    0.000 
#    0.000    0.000    0.000    0.000    0.000    0.000 
#
# Total GULP energy -793203.814795 kJ/mol
# GULP energy per Si atom -12393.809606 kJ/mol
# Density = 1.827396 g / cm^3
# Si number density = 18.315648 Si / 1000 Ang^3
#
#
#
# Elastic Constant Matrix: (Units=GPa)
#
#
# Indices 1 2 3 4 5 6 
#
# 1 61.8793 33.2528 34.4082 0.0000 0.0000 0.0000
# 2 33.2528 146.8021 68.9424 0.0000 0.0000 0.0000
# 3 34.4082 68.9424 99.0539 0.0000 0.0000 0.0000
# 4 0.0000 0.0000 0.0000 16.6199 0.0000 0.0000
# 5 0.0000 0.0000 0.0000 0.0000 26.5745 0.0000
# 6 0.0000 0.0000 0.0000 0.0000 0.0000 16.3946
#
#
#
# Elastic Compliance Matrix: (Units=1/GPa)
#
#
# Indices 1 2 3 4 5 6 
#
# 1 0.020387 -0.001920 -0.005746 0.000000 0.000000 0.000000
# 2 -0.001920 0.010300 -0.006502 0.000000 0.000000 0.000000
# 3 -0.005746 -0.006502 0.016617 0.000000 0.000000 0.000000
# 4 0.000000 0.000000 0.000000 0.060169 0.000000 0.000000
# 5 0.000000 0.000000 0.000000 0.000000 0.037630 0.000000
# 6 0.000000 0.000000 0.000000 0.000000 0.000000 0.060996
#
#
# Mechanical properties :
#
#
# Convention : Reuss Voigt Hill
#
# Bulk Modulus (GPa) = 52.71728 64.54911 58.63320
# Shear Modulus (GPa) = 20.76777 23.32659 22.04718
#
# Velocity S-wave (km/s) = 3.37097 3.57261 3.47325
# Velocity P-wave (km/s) = 6.63298 7.23444 6.94023
#
# Compressibility (1/GPa) = 0.01896911
#
# Stress axis : x y z
#
# Youngs Moduli (GPa) = 49.05088 97.08362 60.17892
#
# Poissons Ratio (x) = 0.18636 0.34577
# Poissons Ratio (y) = 0.09416 0.39131
# Poissons Ratio (z) = 0.28183 0.63127
#
# Static dielectric constant tensor:
#      x y z
#    x 3.142650 0.000000 0.000000 
#    y 0.000000 3.683560 0.000000 
#    z 0.000000 0.000000 3.154230 
# 
# 
# High freq. dielectric constant tensor:
#      x y z
#    x 1.688570 0.000000 0.000000 
#    y 0.000000 1.721460 0.000000 
#    z 0.000000 0.000000 1.684700 
# 
# From -- ./inp_files/34904.got.cif
#   From: 2010.03.12/outbox.cif.g09.slc.cpg/sg51_18_cif.got.tgz:34904.got - 2010.04.16 13:43:02.
