data_PCOD8211289
_publ_section_title
;
Structure prediction by ZEFSAII (Michael W. Deem and Ramdas Pophale) SiO2 
 PCOD8211289
Probable space group: P M M A
;
_chemical_formula_sum "Si O2"
_cell_formula_units_Z 48
_cell_length_a 13.831261
_cell_length_b 8.790584
_cell_length_c 23.705080
_cell_angle_alpha 90.000000
_cell_angle_beta 90.000000
_cell_angle_gamma 90.000000
_cell_volume 2882.178872
_symmetry_space_group_name_H-M "P M M A"
_symmetry_group_IT_number 51
_symmetry_cell_setting 'orthorhombic'
loop_
_space_group_symop_operation_xyz
x,y,z
1/2-x,-y,z
1/2+x,-y,-z
-x,y,-z
-x,-y,-z
1/2+x,y,-z
1/2-x,y,z
x,-y,z
loop_
_atom_site_type_symbol
_atom_site_label
_atom_site_fract_x
_atom_site_fract_y
_atom_site_fract_z
Si Si1 0.962281 0.820300 0.088412
Si Si2 0.643858 0.819109 0.977870
Si Si3 0.857658 0.678853 0.189810
Si Si4 0.862040 0.676348 0.317874
Si Si5 0.138983 0.679592 0.476433
Si Si6 0.036197 0.820545 0.580889
O O1 0.935981 0.749939 0.148281
O O2 0.070084 0.765352 0.070898
O O3 0.957418 0.000000 0.094157
O O4 0.889711 0.761889 0.039572
O O5 0.750000 0.751932 0.964735
O O6 0.644984 0.000000 0.979277
O O7 0.750000 0.742764 0.176598
O O8 0.857315 0.500000 0.181900
O O9 0.886850 0.720701 0.253598
O O10 0.750000 0.710419 0.330824
O O11 0.884917 0.500000 0.329593
O O12 0.929905 0.780654 0.356313
O O13 0.250000 0.720063 0.462978
O O14 0.121447 0.500000 0.476996
O O15 0.111065 0.744854 0.537467
O O16 0.071775 0.755860 0.428760
O O17 0.035333 0.000000 0.571548
#
# Coordination Sequence:
#
# PCOD8211289 Si02
#       6
#     8   8   8   8   8   8
#     4   9  16  26  44  67  87 113 150 186 220 264
#     4   8  14  25  41  63  91 119 145 177 221 271
#     4   9  18  31  46  65  90 119 148 183 229 271
#     4   9  18  33  50  66  89 123 157 186 223 278
#     4  10  20  34  52  71  94 128 163 189 220 271
#     4  11  21  31  48  74 101 124 149 191 238 272
#
# _framework density 16.654067000000001
#
# number of rings (size 3 to 8) (size 9 to 14) (size 15 to 20)
#    0.000    2.667    0.000    6.000    0.000    5.333 
#    0.000    3.333    0.000    2.500    0.000    4.667 
#    0.000    0.000    0.000    0.000    0.000    0.000 
#
# Total GULP energy -595072.660110 kJ/mol
# GULP energy per Si atom -12397.347086 kJ/mol
# Density = 1.661616 g / cm^3
# Si number density = 16.654067 Si / 1000 Ang^3
#
#
#
# Elastic Constant Matrix: (Units=GPa)
#
#
# Indices 1 2 3 4 5 6 
#
# 1 133.7073 35.8462 69.0773 0.0000 0.0000 0.0000
# 2 35.8462 50.3617 34.6369 0.0000 0.0000 0.0000
# 3 69.0773 34.6369 113.8188 0.0000 0.0000 0.0000
# 4 0.0000 0.0000 0.0000 27.5761 0.0000 0.0000
# 5 0.0000 0.0000 0.0000 0.0000 27.1992 0.0000
# 6 0.0000 0.0000 0.0000 0.0000 0.0000 18.0902
#
#
#
# Elastic Compliance Matrix: (Units=1/GPa)
#
#
# Indices 1 2 3 4 5 6 
#
# 1 0.011592 -0.004316 -0.005722 0.000000 0.000000 0.000000
# 2 -0.004316 0.026719 -0.005512 0.000000 0.000000 0.000000
# 3 -0.005722 -0.005512 0.013936 0.000000 0.000000 0.000000
# 4 0.000000 0.000000 0.000000 0.036263 0.000000 0.000000
# 5 0.000000 0.000000 0.000000 0.000000 0.036766 0.000000
# 6 0.000000 0.000000 0.000000 0.000000 0.000000 0.055279
#
#
# Mechanical properties :
#
#
# Convention : Reuss Voigt Hill
#
# Bulk Modulus (GPa) = 47.28553 64.11204 55.69878
# Shear Modulus (GPa) = 22.86201 25.12824 23.99513
#
# Velocity S-wave (km/s) = 3.70910 3.88859 3.79990
# Velocity P-wave (km/s) = 6.84088 7.66429 7.26426
#
# Compressibility (1/GPa) = 0.02114812
#
# Stress axis : x y z
#
# Youngs Moduli (GPa) = 86.26480 37.42661 71.75663
#
# Poissons Ratio (x) = 0.16152 0.41060
# Poissons Ratio (y) = 0.37229 0.39551
# Poissons Ratio (z) = 0.49361 0.20629
#
# Static dielectric constant tensor:
#      x y z
#    x 3.385760 0.000000 0.000000 
#    y 0.000000 2.923320 0.000000 
#    z 0.000000 0.000000 3.127740 
# 
# 
# High freq. dielectric constant tensor:
#      x y z
#    x 1.636750 0.000000 0.000000 
#    y 0.000000 1.628180 0.000000 
#    z 0.000000 0.000000 1.631650 
# 
# From -- ./inp_files/35487.got.cif
#   From: 2010.03.12/outbox.cif.g09.slc.cpg/sg51_18_cif.got.tgz:35487.got - 2010.04.16 13:43:02.
