data_PCOD8211197
_publ_section_title
;
Structure prediction by ZEFSAII (Michael W. Deem and Ramdas Pophale) SiO2 
 PCOD8211197
Probable space group: P M M A
;
_chemical_formula_sum "Si O2"
_cell_formula_units_Z 56
_cell_length_a 22.203585
_cell_length_b 8.820905
_cell_length_c 14.261362
_cell_angle_alpha 90.000000
_cell_angle_beta 90.000000
_cell_angle_gamma 90.000000
_cell_volume 2793.169236
_symmetry_space_group_name_H-M "P M M A"
_symmetry_group_IT_number 51
_symmetry_cell_setting 'orthorhombic'
loop_
_space_group_symop_operation_xyz
x,y,z
1/2-x,-y,z
1/2+x,-y,-z
-x,y,-z
-x,-y,-z
1/2+x,y,-z
1/2-x,y,z
x,-y,z
loop_
_atom_site_type_symbol
_atom_site_label
_atom_site_fract_x
_atom_site_fract_y
_atom_site_fract_z
Si Si1 0.631621 0.673973 0.961607
Si Si2 0.750000 0.322533 0.850058
Si Si3 0.359219 0.677246 0.463261
Si Si4 0.250000 0.179156 0.352342
Si Si5 0.472023 0.173636 0.147140
Si Si6 0.536303 0.172142 0.640874
Si Si7 0.896186 0.823679 0.354384
Si Si8 0.096552 0.326644 0.836158
O O1 0.615560 0.500000 0.937412
O O2 0.692626 0.724609 0.911452
O O3 0.578085 0.780737 0.927157
O O4 0.639649 0.694698 0.073613
O O5 0.750000 0.500000 0.825666
O O6 0.750000 0.229035 0.755006
O O7 0.346725 0.500000 0.459077
O O8 0.309310 0.760803 0.402658
O O9 0.424917 0.714522 0.421840
O O10 0.356136 0.732902 0.570681
O O11 0.250000 0.000000 0.357294
O O12 0.444893 0.194043 0.251166
O O13 0.529910 0.277824 0.132809
O O14 0.491645 0.000000 0.130971
O O15 0.466338 0.212280 0.627622
O O16 0.548974 0.000000 0.607537
O O17 0.877973 0.772255 0.249802
O O18 0.881984 0.000000 0.364400
O O19 0.094428 0.500000 0.802803
#
# Coordination Sequence:
#
# PCOD8211197 Si02
#       8
#     8   4   8   4   8   8   8   8
#     4  10  21  36  56  81 111 148 187 232 284 335
#     4  10  22  42  63  84 111 144 185 228 274 330
#     4  12  24  38  59  86 114 148 190 234 282 336
#     4  12  26  44  63  84 113 148 187 232 280 330
#     4  10  20  33  53  82 115 150 187 230 281 337
#     4   9  19  35  55  83 118 153 188 230 282 337
#     4  10  21  38  59  84 116 152 189 232 282 336
#     4  10  20  35  55  82 115 149 188 233 281 334
#
# _framework density 20.048912000000001
#
# number of rings (size 3 to 8) (size 9 to 14) (size 15 to 20)
#    0.000    1.714    0.000    5.786    0.000   10.857 
#    0.000    0.714    0.000    1.714    0.000    0.000 
#    0.000    0.000    0.000    0.000    0.000    0.000 
#
# Total GULP energy -694645.805448 kJ/mol
# GULP energy per Si atom -12404.389383 kJ/mol
# Density = 2.000328 g / cm^3
# Si number density = 20.048912 Si / 1000 Ang^3
#
#
#
# Elastic Constant Matrix: (Units=GPa)
#
#
# Indices 1 2 3 4 5 6 
#
# 1 56.5120 35.0911 53.7331 0.0000 0.0000 0.0000
# 2 35.0911 110.0125 58.9612 0.0000 0.0000 0.0000
# 3 53.7331 58.9612 138.7276 0.0000 0.0000 0.0000
# 4 0.0000 0.0000 0.0000 33.8227 0.0000 0.0000
# 5 0.0000 0.0000 0.0000 0.0000 33.4422 0.0000
# 6 0.0000 0.0000 0.0000 0.0000 0.0000 23.4263
#
#
#
# Elastic Compliance Matrix: (Units=1/GPa)
#
#
# Indices 1 2 3 4 5 6 
#
# 1 0.029471 -0.004251 -0.009608 0.000000 0.000000 0.000000
# 2 -0.004251 0.012384 -0.003617 0.000000 0.000000 0.000000
# 3 -0.009608 -0.003617 0.012467 0.000000 0.000000 0.000000
# 4 0.000000 0.000000 0.000000 0.029566 0.000000 0.000000
# 5 0.000000 0.000000 0.000000 0.000000 0.029902 0.000000
# 6 0.000000 0.000000 0.000000 0.000000 0.000000 0.042687
#
#
# Mechanical properties :
#
#
# Convention : Reuss Voigt Hill
#
# Bulk Modulus (GPa) = 51.62613 66.75809 59.19211
# Shear Modulus (GPa) = 25.26705 28.63601 26.95153
#
# Velocity S-wave (km/s) = 3.55388 3.78340 3.67043
# Velocity P-wave (km/s) = 6.53040 7.24261 6.89570
#
# Compressibility (1/GPa) = 0.01937004
#
# Stress axis : x y z
#
# Youngs Moduli (GPa) = 33.93219 80.74717 80.21079
#
# Poissons Ratio (x) = 0.34325 0.77067
# Poissons Ratio (y) = 0.14424 0.29013
# Poissons Ratio (z) = 0.32602 0.29207
#
# Static dielectric constant tensor:
#      x y z
#    x 3.445750 0.000000 0.000000 
#    y 0.000000 3.648080 0.000000 
#    z 0.000000 0.000000 3.858130 
# 
# 
# High freq. dielectric constant tensor:
#      x y z
#    x 1.756270 0.000000 0.000000 
#    y 0.000000 1.786600 0.000000 
#    z 0.000000 0.000000 1.800700 
# 
# From -- ./inp_files/25852.got.cif
#   From: 2010.03.12/outbox.cif.g09.slc.cpg/sg51_13_cif.got.tgz:25852.got - 2010.04.16 13:43:02.
