data_PCOD8211581
_publ_section_title
;
Structure prediction by ZEFSAII (Michael W. Deem and Ramdas Pophale) SiO2 
 PCOD8211581
Probable space group: P M M A
;
_chemical_formula_sum "Si O2"
_cell_formula_units_Z 64
_cell_length_a 9.125691
_cell_length_b 15.355427
_cell_length_c 25.077296
_cell_angle_alpha 90.000000
_cell_angle_beta 90.000000
_cell_angle_gamma 90.000000
_cell_volume 3514.053451
_symmetry_space_group_name_H-M "P M M A"
_symmetry_group_IT_number 51
_symmetry_cell_setting 'orthorhombic'
loop_
_space_group_symop_operation_xyz
x,y,z
1/2-x,-y,z
1/2+x,-y,-z
-x,y,-z
-x,-y,-z
1/2+x,y,-z
1/2-x,y,z
x,-y,z
loop_
_atom_site_type_symbol
_atom_site_label
_atom_site_fract_x
_atom_site_fract_y
_atom_site_fract_z
Si Si1 0.924305 0.770382 0.646102
Si Si2 0.414680 0.353908 0.784881
Si Si3 0.077874 0.900844 0.445464
Si Si4 0.424247 0.095197 0.137395
Si Si5 0.075656 0.240030 0.055088
Si Si6 0.422130 0.811182 0.238297
Si Si7 0.083636 0.403868 0.901112
Si Si8 0.080544 0.403873 0.667555
O O1 0.750000 0.762260 0.645960
O O2 0.979369 0.834238 0.599498
O O3 0.984705 0.813974 0.701256
O O4 0.988565 0.672935 0.639133
O O5 0.250000 0.315345 0.782011
O O6 0.529906 0.276632 0.790740
O O7 0.435118 0.412271 0.837204
O O8 0.447744 0.407482 0.731137
O O9 0.250000 0.891170 0.454111
O O10 0.000000 0.874259 0.500000
O O11 0.037659 0.000000 0.428743
O O12 0.250000 0.097228 0.135182
O O13 0.483936 0.168978 0.097534
O O14 0.475868 0.111873 0.198875
O O15 0.484041 0.000000 0.120433
O O16 0.250000 0.238112 0.048895
O O17 0.028034 0.336276 0.072901
O O18 0.000000 0.214379 0.000000
O O19 0.250000 0.812029 0.242746
O O20 0.250000 0.375472 0.915354
O O21 0.049896 0.500000 0.924357
O O22 0.250000 0.386082 0.654648
O O23 0.034111 0.500000 0.645685
#
# Coordination Sequence:
#
# PCOD8211581 Si02
#       8
#     8   8   8   8   8   8   8   8
#     4   9  18  30  48  76 107 136 170 211 254 299
#     4   9  16  28  48  72 101 133 165 200 240 290
#     4   9  18  33  52  75 103 136 175 217 259 304
#     4   9  18  33  54  78 102 129 162 200 246 301
#     4  11  23  39  57  75  98 128 165 209 253 299
#     4   9  16  29  49  74 104 134 163 197 244 297
#     4  10  20  34  54  78 102 130 164 202 248 300
#     4   9  17  29  46  71 104 141 176 206 243 296
#
# _framework density 18.212585000000001
#
# number of rings (size 3 to 8) (size 9 to 14) (size 15 to 20)
#    0.000    2.625    1.250    0.750    0.000    3.500 
#    0.000    2.500    0.000    5.625    0.000    3.500 
#    0.000    0.000    0.000    0.000    0.000    0.000 
#
# Total GULP energy -793132.185393 kJ/mol
# GULP energy per Si atom -12392.690397 kJ/mol
# Density = 1.817113 g / cm^3
# Si number density = 18.212585 Si / 1000 Ang^3
#
#
#
# Elastic Constant Matrix: (Units=GPa)
#
#
# Indices 1 2 3 4 5 6 
#
# 1 25.1526 29.2212 34.8710 0.0000 0.0000 0.0000
# 2 29.2212 133.0609 71.1183 0.0000 0.0000 0.0000
# 3 34.8710 71.1183 101.5139 0.0000 0.0000 0.0000
# 4 0.0000 0.0000 0.0000 22.6497 0.0000 0.0000
# 5 0.0000 0.0000 0.0000 0.0000 23.3551 0.0000
# 6 0.0000 0.0000 0.0000 0.0000 0.0000 20.3985
#
#
#
# Elastic Compliance Matrix: (Units=1/GPa)
#
#
# Indices 1 2 3 4 5 6 
#
# 1 0.077530 -0.004463 -0.023506 0.000000 0.000000 0.000000
# 2 -0.004463 0.012271 -0.007064 0.000000 0.000000 0.000000
# 3 -0.023506 -0.007064 0.022874 0.000000 0.000000 0.000000
# 4 0.000000 0.000000 0.000000 0.044151 0.000000 0.000000
# 5 0.000000 0.000000 0.000000 0.000000 0.042817 0.000000
# 6 0.000000 0.000000 0.000000 0.000000 0.000000 0.049023
#
#
# Mechanical properties :
#
#
# Convention : Reuss Voigt Hill
#
# Bulk Modulus (GPa) = 23.46851 58.90538 41.18694
# Shear Modulus (GPa) = 15.01803 21.58179 18.29991
#
# Velocity S-wave (km/s) = 2.87469 3.44611 3.17329
# Velocity P-wave (km/s) = 4.89207 6.94605 6.00749
#
# Compressibility (1/GPa) = 0.04261029
#
# Stress axis : x y z
#
# Youngs Moduli (GPa) = 12.89826 81.49439 43.71810
#
# Poissons Ratio (x) = 0.36370 1.02762
# Poissons Ratio (y) = 0.05756 0.30881
# Poissons Ratio (z) = 0.30318 0.57564
#
# Static dielectric constant tensor:
#      x y z
#    x 3.175630 0.000000 0.000000 
#    y 0.000000 3.477370 0.000000 
#    z 0.000000 0.000000 3.403950 
# 
# 
# High freq. dielectric constant tensor:
#      x y z
#    x 1.684570 0.000000 0.000000 
#    y 0.000000 1.704270 0.000000 
#    z 0.000000 0.000000 1.693890 
# 
# From -- ./inp_files/34932.got.cif
#   From: 2010.03.12/outbox.cif.g09.slc.cpg/sg51_18_cif.got.tgz:34932.got - 2010.04.16 13:43:02.
