data_PCOD8211872
_publ_section_title
;
Structure prediction by ZEFSAII (Michael W. Deem and Ramdas Pophale) SiO2 
 PCOD8211872
Probable space group: P M M A
;
_chemical_formula_sum "Si O2"
_cell_formula_units_Z 40
_cell_length_a 9.022442
_cell_length_b 9.598299
_cell_length_c 24.204136
_cell_angle_alpha 90.000000
_cell_angle_beta 90.000000
_cell_angle_gamma 90.000000
_cell_volume 2096.080502
_symmetry_space_group_name_H-M "P M M A"
_symmetry_group_IT_number 51
_symmetry_cell_setting 'orthorhombic'
loop_
_space_group_symop_operation_xyz
x,y,z
1/2-x,-y,z
1/2+x,-y,-z
-x,y,-z
-x,-y,-z
1/2+x,y,-z
1/2-x,y,z
x,-y,z
loop_
_atom_site_type_symbol
_atom_site_label
_atom_site_fract_x
_atom_site_fract_y
_atom_site_fract_z
Si Si1 0.578249 0.233900 0.127133
Si Si2 0.075280 0.837167 0.651031
Si Si3 0.074388 0.657691 0.755544
Si Si4 0.075947 0.658414 0.441724
Si Si5 0.575763 0.000000 0.940120
Si Si6 0.914179 0.500000 0.055652
O O1 0.750000 0.183609 0.126111
O O2 0.522182 0.262216 0.189341
O O3 0.551438 0.371861 0.093749
O O4 0.470719 0.128620 0.097064
O O5 0.250000 0.818288 0.641905
O O6 0.020413 0.752681 0.704796
O O7 0.990075 0.771286 0.599750
O O8 0.033632 0.000000 0.657353
O O9 0.250000 0.645168 0.756958
O O10 0.007967 0.500000 0.751404
O O11 0.250000 0.683808 0.448008
O O12 0.042618 0.500000 0.421475
O O13 0.000000 0.685953 0.500000
O O14 0.750000 0.000000 0.950749
O O15 0.500000 0.000000 0.000000
O O16 0.750000 0.500000 0.033577
O O17 0.000000 0.500000 0.000000
#
# Coordination Sequence:
#
# PCOD8211872 Si02
#       6
#     8   8   8   8   4   4
#     4  10  20  37  61  87 114 148 188 235 287 342
#     4  10  21  35  56  89 122 155 195 238 284 338
#     4   9  17  33  59  88 116 148 191 238 284 338
#     4  10  21  38  61  87 116 154 198 243 291 342
#     4  12  26  42  58  82 114 152 193 234 285 346
#     4  10  20  34  56  86 114 142 183 232 285 342
#
# _framework density 19.083237
#
# number of rings (size 3 to 8) (size 9 to 14) (size 15 to 20)
#    0.000    2.000    1.000    2.700    1.400    5.200 
#    0.000    1.000    0.000    1.200    0.000    0.000 
#    0.000    0.000    0.000    0.000    0.000    0.000 
#
# Total GULP energy -495894.092536 kJ/mol
# GULP energy per Si atom -12397.352313 kJ/mol
# Density = 1.903980 g / cm^3
# Si number density = 19.083237 Si / 1000 Ang^3
#
#
#
# Elastic Constant Matrix: (Units=GPa)
#
#
# Indices 1 2 3 4 5 6 
#
# 1 78.2971 62.2043 59.9759 0.0000 0.0000 0.0000
# 2 62.2043 144.0787 83.9018 0.0000 0.0000 0.0000
# 3 59.9759 83.9018 160.6936 0.0000 0.0000 0.0000
# 4 0.0000 0.0000 0.0000 38.1867 0.0000 0.0000
# 5 0.0000 0.0000 0.0000 0.0000 28.9986 0.0000
# 6 0.0000 0.0000 0.0000 0.0000 0.0000 29.1751
#
#
#
# Elastic Compliance Matrix: (Units=1/GPa)
#
#
# Indices 1 2 3 4 5 6 
#
# 1 0.021553 -0.006640 -0.004578 0.000000 0.000000 0.000000
# 2 -0.006640 0.012018 -0.003797 0.000000 0.000000 0.000000
# 3 -0.004578 -0.003797 0.009914 0.000000 0.000000 0.000000
# 4 0.000000 0.000000 0.000000 0.026187 0.000000 0.000000
# 5 0.000000 0.000000 0.000000 0.000000 0.034484 0.000000
# 6 0.000000 0.000000 0.000000 0.000000 0.000000 0.034276
#
#
# Mechanical properties :
#
#
# Convention : Reuss Voigt Hill
#
# Bulk Modulus (GPa) = 74.30971 88.35928 81.33449
# Shear Modulus (GPa) = 28.91054 31.07125 29.99089
#
# Velocity S-wave (km/s) = 3.89648 4.03947 3.96862
# Velocity P-wave (km/s) = 7.69856 8.25584 7.98207
#
# Compressibility (1/GPa) = 0.01345719
#
# Stress axis : x y z
#
# Youngs Moduli (GPa) = 46.39639 83.20635 100.86749
#
# Poissons Ratio (x) = 0.55246 0.46174
# Poissons Ratio (y) = 0.30806 0.38298
# Poissons Ratio (z) = 0.21239 0.31593
#
# Static dielectric constant tensor:
#      x y z
#    x 3.274910 0.000000 0.000000 
#    y 0.000000 3.596850 0.000000 
#    z 0.000000 0.000000 3.723240 
# 
# 
# High freq. dielectric constant tensor:
#      x y z
#    x 1.714170 0.000000 0.000000 
#    y 0.000000 1.755360 0.000000 
#    z 0.000000 0.000000 1.758180 
# 
# From -- ./inp_files/36014.got.cif
#   From: 2010.03.12/outbox.cif.g09.slc.cpg/sg51_19_cif.got.tgz:36014.got - 2010.04.16 13:43:02.
