data_PCOD8211894
_publ_section_title
;
Structure prediction by ZEFSAII (Michael W. Deem and Ramdas Pophale) SiO2 
 PCOD8211894
Probable space group: P M M A
;
_chemical_formula_sum "Si O2"
_cell_formula_units_Z 64
_cell_length_a 9.180512
_cell_length_b 14.649516
_cell_length_c 23.823039
_cell_angle_alpha 90.000000
_cell_angle_beta 90.000000
_cell_angle_gamma 90.000000
_cell_volume 3203.961883
_symmetry_space_group_name_H-M "P M M A"
_symmetry_group_IT_number 51
_symmetry_cell_setting 'orthorhombic'
loop_
_space_group_symop_operation_xyz
x,y,z
1/2-x,-y,z
1/2+x,-y,-z
-x,y,-z
-x,-y,-z
1/2+x,y,-z
1/2-x,y,z
x,-y,z
loop_
_atom_site_type_symbol
_atom_site_label
_atom_site_fract_x
_atom_site_fract_y
_atom_site_fract_z
Si Si1 0.578678 0.103406 0.941040
Si Si2 0.592923 0.154050 0.451298
Si Si3 0.413253 0.233597 0.858665
Si Si4 0.912403 0.892345 0.652377
Si Si5 0.414628 0.392616 0.334148
Si Si6 0.411013 0.361261 0.551664
Si Si7 0.078760 0.394178 0.778963
Si Si8 0.590083 0.897804 0.244803
O O1 0.750000 0.117706 0.949048
O O2 0.521255 0.187912 0.903492
O O3 0.547830 0.000000 0.916950
O O4 0.500000 0.113047 0.000000
O O5 0.500000 0.103727 0.500000
O O6 0.750000 0.104670 0.446775
O O7 0.511442 0.154258 0.393043
O O8 0.616004 0.258357 0.467724
O O9 0.250000 0.244450 0.884334
O O10 0.467204 0.331264 0.832851
O O11 0.409216 0.163073 0.808866
O O12 0.750000 0.855736 0.644992
O O13 0.971009 0.859192 0.712211
O O14 0.923421 0.000000 0.646167
O O15 0.250000 0.351538 0.336086
O O16 0.406077 0.500000 0.332284
O O17 0.502654 0.364574 0.389668
O O18 0.495409 0.359710 0.277079
O O19 0.500000 0.409144 0.500000
O O20 0.250000 0.407371 0.558609
O O21 0.250000 0.380781 0.767092
O O22 0.042213 0.500000 0.793324
O O23 0.750000 0.896661 0.273612
O O24 0.547408 0.000000 0.226378
#
# Coordination Sequence:
#
# PCOD8211894 Si02
#       8
#     8   8   8   8   8   8   8   8
#     4  10  21  37  59  89 126 164 199 237 281 330
#     4  10  21  36  53  71  92 121 161 208 259 317
#     4  10  20  34  57  86 115 153 197 236 281 332
#     4  10  21  35  50  70  97 129 165 209 262 317
#     4  10  21  36  54  77 105 137 174 219 274 335
#     4  10  21  36  54  75  99 128 166 214 270 335
#     4   9  19  36  56  81 115 153 194 240 287 336
#     4   9  18  32  49  73 107 142 177 221 270 324
#
# _framework density 19.975268
#
# number of rings (size 3 to 8) (size 9 to 14) (size 15 to 20)
#    0.000    2.250    0.000    2.250    1.750    5.750 
#    0.000    1.250    0.000    0.375    0.000    0.000 
#    0.000    0.000    0.000    0.000    0.000    0.000 
#
# Total GULP energy -793040.644746 kJ/mol
# GULP energy per Si atom -12391.260074 kJ/mol
# Density = 1.992980 g / cm^3
# Si number density = 19.975268 Si / 1000 Ang^3
#
#
#
# Elastic Constant Matrix: (Units=GPa)
#
#
# Indices 1 2 3 4 5 6 
#
# 1 151.3777 33.0854 62.2497 0.0000 0.0000 0.0000
# 2 33.0854 66.9475 44.9329 0.0000 0.0000 0.0000
# 3 62.2497 44.9329 92.7567 0.0000 0.0000 0.0000
# 4 0.0000 0.0000 0.0000 27.7604 0.0000 0.0000
# 5 0.0000 0.0000 0.0000 0.0000 39.8849 0.0000
# 6 0.0000 0.0000 0.0000 0.0000 0.0000 20.5007
#
#
#
# Elastic Compliance Matrix: (Units=1/GPa)
#
#
# Indices 1 2 3 4 5 6 
#
# 1 0.009140 -0.000593 -0.005847 0.000000 0.000000 0.000000
# 2 -0.000593 0.022172 -0.010342 0.000000 0.000000 0.000000
# 3 -0.005847 -0.010342 0.019715 0.000000 0.000000 0.000000
# 4 0.000000 0.000000 0.000000 0.036023 0.000000 0.000000
# 5 0.000000 0.000000 0.000000 0.000000 0.025072 0.000000
# 6 0.000000 0.000000 0.000000 0.000000 0.000000 0.048779
#
#
# Mechanical properties :
#
#
# Convention : Reuss Voigt Hill
#
# Bulk Modulus (GPa) = 57.26634 65.73530 61.50082
# Shear Modulus (GPa) = 24.96457 29.01679 26.99068
#
# Velocity S-wave (km/s) = 3.53905 3.81548 3.67986
# Velocity P-wave (km/s) = 6.74023 7.23812 6.99360
#
# Compressibility (1/GPa) = 0.01746227
#
# Stress axis : x y z
#
# Youngs Moduli (GPa) = 109.41136 45.10293 50.72375
#
# Poissons Ratio (x) = 0.02674 0.29656
# Poissons Ratio (y) = 0.06486 0.52460
# Poissons Ratio (z) = 0.63969 0.46647
#
# Static dielectric constant tensor:
#      x y z
#    x 4.206410 0.000000 0.000000 
#    y 0.000000 3.760920 0.000000 
#    z 0.000000 0.000000 3.495560 
# 
# 
# High freq. dielectric constant tensor:
#      x y z
#    x 1.790760 0.000000 0.000000 
#    y 0.000000 1.774700 0.000000 
#    z 0.000000 0.000000 1.756050 
# 
# From -- ./inp_files/34867.got.cif
#   From: 2010.03.12/outbox.cif.g09.slc.cpg/sg51_18_cif.got.tgz:34867.got - 2010.04.16 13:43:02.
