data_PCOD8211122
_publ_section_title
;
Structure prediction by ZEFSAII (Michael W. Deem and Ramdas Pophale) SiO2 
 PCOD8211122
Probable space group: P M M A
;
_chemical_formula_sum "Si O2"
_cell_formula_units_Z 64
_cell_length_a 32.437217
_cell_length_b 9.081897
_cell_length_c 11.330140
_cell_angle_alpha 90.000000
_cell_angle_beta 90.000000
_cell_angle_gamma 90.000000
_cell_volume 3337.762527
_symmetry_space_group_name_H-M "P M M A"
_symmetry_group_IT_number 51
_symmetry_cell_setting 'orthorhombic'
loop_
_space_group_symop_operation_xyz
x,y,z
1/2-x,-y,z
1/2+x,-y,-z
-x,y,-z
-x,-y,-z
1/2+x,y,-z
1/2-x,y,z
x,-y,z
loop_
_atom_site_type_symbol
_atom_site_label
_atom_site_fract_x
_atom_site_fract_y
_atom_site_fract_z
Si Si1 0.586596 0.669021 0.822270
Si Si2 0.862680 0.671684 0.312417
Si Si3 0.975312 0.171033 0.673310
Si Si4 0.703423 0.166559 0.907282
Si Si5 0.637220 0.329512 0.042723
Si Si6 0.298026 0.174641 0.542284
Si Si7 0.561271 0.172628 0.423987
Si Si8 0.169993 0.327217 0.309890
O O1 0.574801 0.500000 0.819581
O O2 0.545091 0.752985 0.786559
O O3 0.623224 0.704714 0.730281
O O4 0.600129 0.716888 0.954580
O O5 0.855972 0.500000 0.338673
O O6 0.875332 0.700471 0.177017
O O7 0.820377 0.757659 0.342583
O O8 0.899439 0.730834 0.392677
O O9 0.952516 0.221679 0.554091
O O10 0.023813 0.209357 0.665823
O O11 0.969093 0.000000 0.689822
O O12 0.750000 0.168880 0.952307
O O13 0.700208 0.264050 0.789663
O O14 0.688940 0.000000 0.879058
O O15 0.677083 0.232799 0.013993
O O16 0.648568 0.500000 0.019722
O O17 0.250000 0.219243 0.544037
O O18 0.321106 0.243153 0.430363
O O19 0.303527 0.000000 0.540354
O O20 0.572427 0.000000 0.418629
O O21 0.178493 0.500000 0.326203
#
# Coordination Sequence:
#
# PCOD8211122 Si02
#       8
#     8   8   8   8   8   8   8   8
#     4   9  18  33  53  78 107 138 173 217 264 307
#     4  11  23  39  58  78 103 140 184 225 269 321
#     4   9  18  33  55  83 111 139 172 210 258 318
#     4  10  20  33  52  79 107 136 175 223 272 319
#     4   9  21  39  54  72 102 140 182 224 267 320
#     4  11  24  39  55  78 109 143 178 220 272 326
#     4   9  19  36  56  80 112 144 172 210 262 318
#     4  10  20  34  54  81 112 144 178 217 265 320
#
# _framework density 19.174520999999999
#
# number of rings (size 3 to 8) (size 9 to 14) (size 15 to 20)
#    0.000    2.250    0.000    4.125    0.000   10.500 
#    0.000    4.375    0.000    3.750    0.000    0.000 
#    0.000    0.000    0.000    0.000    0.000    0.000 
#
# Total GULP energy -793646.146708 kJ/mol
# GULP energy per Si atom -12400.721042 kJ/mol
# Density = 1.913088 g / cm^3
# Si number density = 19.174521 Si / 1000 Ang^3
#
#
#
# Elastic Constant Matrix: (Units=GPa)
#
#
# Indices 1 2 3 4 5 6 
#
# 1 63.7984 31.0572 22.4008 0.0000 0.0000 0.0000
# 2 31.0572 72.6299 27.9212 0.0000 0.0000 0.0000
# 3 22.4008 27.9212 73.1447 0.0000 0.0000 0.0000
# 4 0.0000 0.0000 0.0000 20.7069 0.0000 0.0000
# 5 0.0000 0.0000 0.0000 0.0000 17.9631 0.0000
# 6 0.0000 0.0000 0.0000 0.0000 0.0000 21.7496
#
#
#
# Elastic Compliance Matrix: (Units=1/GPa)
#
#
# Indices 1 2 3 4 5 6 
#
# 1 0.020507 -0.007447 -0.003437 0.000000 0.000000 0.000000
# 2 -0.007447 0.018841 -0.004911 0.000000 0.000000 0.000000
# 3 -0.003437 -0.004911 0.016599 0.000000 0.000000 0.000000
# 4 0.000000 0.000000 0.000000 0.048293 0.000000 0.000000
# 5 0.000000 0.000000 0.000000 0.000000 0.055670 0.000000
# 6 0.000000 0.000000 0.000000 0.000000 0.000000 0.045978
#
#
# Mechanical properties :
#
#
# Convention : Reuss Voigt Hill
#
# Bulk Modulus (GPa) = 41.06007 41.37017 41.21512
# Shear Modulus (GPa) = 20.35848 20.63018 20.49433
#
# Velocity S-wave (km/s) = 3.26198 3.28367 3.27285
# Velocity P-wave (km/s) = 5.97057 5.99993 5.98527
#
# Compressibility (1/GPa) = 0.02435456
#
# Stress axis : x y z
#
# Youngs Moduli (GPa) = 48.76449 53.07547 60.24455
#
# Poissons Ratio (x) = 0.39528 0.20708
# Poissons Ratio (y) = 0.36317 0.29588
# Poissons Ratio (z) = 0.16762 0.26067
#
# Static dielectric constant tensor:
#      x y z
#    x 3.469830 0.000000 0.000000 
#    y 0.000000 3.517960 0.000000 
#    z 0.000000 0.000000 3.477970 
# 
# 
# High freq. dielectric constant tensor:
#      x y z
#    x 1.741300 0.000000 0.000000 
#    y 0.000000 1.750210 0.000000 
#    z 0.000000 0.000000 1.736770 
# 
# From -- ./inp_files/19584.got.cif
#   From: 2010.03.12/outbox.cif.g09.slc.cpg/sg51_10_cif.got.tgz:19584.got - 2010.04.16 13:43:02.
