data_PCOD8211850
_publ_section_title
;
Structure prediction by ZEFSAII (Michael W. Deem and Ramdas Pophale) SiO2 
 PCOD8211850
Probable space group: P M M A
;
_chemical_formula_sum "Si O2"
_cell_formula_units_Z 48
_cell_length_a 21.441503
_cell_length_b 9.382852
_cell_length_c 12.345442
_cell_angle_alpha 90.000000
_cell_angle_beta 90.000000
_cell_angle_gamma 90.000000
_cell_volume 2483.686259
_symmetry_space_group_name_H-M "P M M A"
_symmetry_group_IT_number 51
_symmetry_cell_setting 'orthorhombic'
loop_
_space_group_symop_operation_xyz
x,y,z
1/2-x,-y,z
1/2+x,-y,-z
-x,y,-z
-x,-y,-z
1/2+x,y,-z
1/2-x,y,z
x,-y,z
loop_
_atom_site_type_symbol
_atom_site_label
_atom_site_fract_x
_atom_site_fract_y
_atom_site_fract_z
Si Si1 0.429054 0.332037 0.486123
Si Si2 0.319574 0.334229 0.644310
Si Si3 0.989026 0.840502 0.119517
Si Si4 0.180179 0.339575 0.066555
Si Si5 0.083300 0.333373 0.244352
Si Si6 0.655411 0.838961 0.144643
O O1 0.500000 0.269103 0.500000
O O2 0.433061 0.500000 0.501793
O O3 0.376164 0.273030 0.569244
O O4 0.402797 0.290240 0.367930
O O5 0.250000 0.316320 0.590656
O O6 0.331813 0.500000 0.670191
O O7 0.317171 0.248212 0.755765
O O8 0.020358 0.743307 0.209239
O O9 0.918114 0.841298 0.152611
O O10 0.017599 0.000000 0.121516
O O11 0.000000 0.774157 0.000000
O O12 0.250000 0.340806 0.111643
O O13 0.159633 0.500000 0.032075
O O14 0.138841 0.282368 0.166206
O O15 0.175863 0.234682 0.966049
O O16 0.071017 0.500000 0.235066
O O17 0.681980 0.000000 0.146412
#
# Coordination Sequence:
#
# PCOD8211850 Si02
#       6
#     8   8   8   8   8   8
#     4   9  18  34  56  82 111 141 179 228 276 324
#     4  10  21  37  58  83 112 148 188 232 282 332
#     4  10  20  35  53  77 111 144 176 221 276 331
#     4  10  21  35  51  76 110 143 177 220 269 322
#     4  10  20  34  56  83 108 141 183 224 268 325
#     4  11  22  36  56  80 109 145 183 226 275 330
#
# _framework density 19.326114
#
# number of rings (size 3 to 8) (size 9 to 14) (size 15 to 20)
#    0.000    2.000    1.667    2.000    0.000    6.333 
#    0.000    4.167    0.000    3.000    0.000    2.333 
#    0.000    0.000    0.000    0.000    0.000    0.000 
#
# Total GULP energy -595041.638278 kJ/mol
# GULP energy per Si atom -12396.700797 kJ/mol
# Density = 1.928213 g / cm^3
# Si number density = 19.326114 Si / 1000 Ang^3
#
#
#
# Elastic Constant Matrix: (Units=GPa)
#
#
# Indices 1 2 3 4 5 6 
#
# 1 120.0287 27.9841 55.2840 0.0000 0.0000 0.0000
# 2 27.9841 50.9366 39.9454 0.0000 0.0000 0.0000
# 3 55.2840 39.9454 124.4766 0.0000 0.0000 0.0000
# 4 0.0000 0.0000 0.0000 3.4227 0.0000 0.0000
# 5 0.0000 0.0000 0.0000 0.0000 21.3208 0.0000
# 6 0.0000 0.0000 0.0000 0.0000 0.0000 7.9297
#
#
#
# Elastic Compliance Matrix: (Units=1/GPa)
#
#
# Indices 1 2 3 4 5 6 
#
# 1 0.010785 -0.002898 -0.003860 0.000000 0.000000 0.000000
# 2 -0.002898 0.027013 -0.007382 0.000000 0.000000 0.000000
# 3 -0.003860 -0.007382 0.012117 0.000000 0.000000 0.000000
# 4 0.000000 0.000000 0.000000 0.292166 0.000000 0.000000
# 5 0.000000 0.000000 0.000000 0.000000 0.046902 0.000000
# 6 0.000000 0.000000 0.000000 0.000000 0.000000 0.126109
#
#
# Mechanical properties :
#
#
# Convention : Reuss Voigt Hill
#
# Bulk Modulus (GPa) = 46.21998 60.20765 53.21381
# Shear Modulus (GPa) = 9.08128 18.01653 13.54890
#
# Velocity S-wave (km/s) = 2.17006 3.05657 2.65064
# Velocity P-wave (km/s) = 5.49969 6.60893 6.07966
#
# Compressibility (1/GPa) = 0.02163567
#
# Stress axis : x y z
#
# Youngs Moduli (GPa) = 92.72272 37.01889 82.53053
#
# Poissons Ratio (x) = 0.10729 0.31856
# Poissons Ratio (y) = 0.26872 0.60921
# Poissons Ratio (z) = 0.35790 0.27326
#
# Static dielectric constant tensor:
#      x y z
#    x 3.738170 0.000000 0.000000 
#    y 0.000000 3.454670 0.000000 
#    z 0.000000 0.000000 3.557890 
# 
# 
# High freq. dielectric constant tensor:
#      x y z
#    x 1.766670 0.000000 0.000000 
#    y 0.000000 1.727060 0.000000 
#    z 0.000000 0.000000 1.748090 
# 
# From -- ./inp_files/18606.got.cif
#   From: 2010.03.12/outbox.cif.g09.slc.cpg/sg51_10_cif.got.tgz:18606.got - 2010.04.16 13:43:02.
