data_PCOD8211606
_publ_section_title
;
Structure prediction by ZEFSAII (Michael W. Deem and Ramdas Pophale) SiO2 
 PCOD8211606
Probable space group: P M M A
;
_chemical_formula_sum "Si O2"
_cell_formula_units_Z 48
_cell_length_a 9.072277
_cell_length_b 9.371269
_cell_length_c 31.019988
_cell_angle_alpha 90.000000
_cell_angle_beta 90.000000
_cell_angle_gamma 90.000000
_cell_volume 2637.280549
_symmetry_space_group_name_H-M "P M M A"
_symmetry_group_IT_number 51
_symmetry_cell_setting 'orthorhombic'
loop_
_space_group_symop_operation_xyz
x,y,z
1/2-x,-y,z
1/2+x,-y,-z
-x,y,-z
-x,-y,-z
1/2+x,y,-z
1/2-x,y,z
x,-y,z
loop_
_atom_site_type_symbol
_atom_site_label
_atom_site_fract_x
_atom_site_fract_y
_atom_site_fract_z
Si Si1 0.922049 0.334858 0.455693
Si Si2 0.083830 0.169645 0.704805
Si Si3 0.080303 0.830916 0.380323
Si Si4 0.416150 0.670034 0.958256
Si Si5 0.078193 0.665115 0.126758
Si Si6 0.921250 0.166086 0.789636
O O1 0.750000 0.300282 0.459965
O O2 0.950427 0.500000 0.444670
O O3 0.000000 0.291507 0.500000
O O4 0.990841 0.239555 0.418650
O O5 0.250000 0.229191 0.701147
O O6 0.989068 0.225012 0.664403
O O7 0.010625 0.226579 0.748762
O O8 0.082847 0.000000 0.705301
O O9 0.250000 0.782752 0.381970
O O10 0.064528 0.000000 0.384638
O O11 0.250000 0.727798 0.959170
O O12 0.421009 0.500000 0.959220
O O13 0.493837 0.725892 0.914894
O O14 0.500000 0.732034 0.000000
O O15 0.250000 0.690229 0.118374
O O16 0.041668 0.500000 0.134755
O O17 0.022319 0.750998 0.168319
O O18 0.750000 0.195881 0.780715
O O19 0.952345 0.000000 0.797251
#
# Coordination Sequence:
#
# PCOD8211606 Si02
#       6
#     8   8   8   8   8   8
#     4  10  21  37  56  77 103 136 171 205 245 295
#     4   9  17  30  49  72  97 126 161 201 242 284
#     4  10  20  34  54  79 104 131 166 208 251 293
#     4   9  16  26  42  64  89 117 149 185 226 272
#     4   9  17  29  45  66  92 119 148 186 231 275
#     4   9  17  30  48  68  91 122 158 192 229 279
#
# _framework density 18.200566999999999
#
# number of rings (size 3 to 8) (size 9 to 14) (size 15 to 20)
#    0.000    2.667    0.000    2.000    0.000    7.000 
#    0.000    0.833    0.000    3.500    0.000    0.000 
#    0.000    0.000    0.000    0.000    0.000    0.000 
#
# Total GULP energy -595262.240060 kJ/mol
# GULP energy per Si atom -12401.296668 kJ/mol
# Density = 1.815914 g / cm^3
# Si number density = 18.200567 Si / 1000 Ang^3
#
#
#
# Elastic Constant Matrix: (Units=GPa)
#
#
# Indices 1 2 3 4 5 6 
#
# 1 127.1721 29.9451 91.2882 0.0000 0.0000 0.0000
# 2 29.9451 26.5763 41.7017 0.0000 0.0000 0.0000
# 3 91.2882 41.7017 185.2903 0.0000 0.0000 0.0000
# 4 0.0000 0.0000 0.0000 29.3681 0.0000 0.0000
# 5 0.0000 0.0000 0.0000 0.0000 42.2908 0.0000
# 6 0.0000 0.0000 0.0000 0.0000 0.0000 17.6896
#
#
#
# Elastic Compliance Matrix: (Units=1/GPa)
#
#
# Indices 1 2 3 4 5 6 
#
# 1 0.012977 -0.007096 -0.004797 0.000000 0.000000 0.000000
# 2 -0.007096 0.062050 -0.010469 0.000000 0.000000 0.000000
# 3 -0.004797 -0.010469 0.010116 0.000000 0.000000 0.000000
# 4 0.000000 0.000000 0.000000 0.034050 0.000000 0.000000
# 5 0.000000 0.000000 0.000000 0.000000 0.023646 0.000000
# 6 0.000000 0.000000 0.000000 0.000000 0.000000 0.056530
#
#
# Mechanical properties :
#
#
# Convention : Reuss Voigt Hill
#
# Bulk Modulus (GPa) = 24.73980 73.87874 49.30927
# Shear Modulus (GPa) = 19.41239 29.60995 24.51117
#
# Velocity S-wave (km/s) = 3.26940 4.03782 3.67376
# Velocity P-wave (km/s) = 5.27962 7.90052 6.71910
#
# Compressibility (1/GPa) = 0.04042070
#
# Stress axis : x y z
#
# Youngs Moduli (GPa) = 77.05698 16.11597 98.84971
#
# Poissons Ratio (x) = 0.11436 0.47415
# Poissons Ratio (y) = 0.54678 1.03488
# Poissons Ratio (z) = 0.36962 0.16872
#
# Static dielectric constant tensor:
#      x y z
#    x 3.552510 0.000000 0.000000 
#    y 0.000000 2.959890 0.000000 
#    z 0.000000 0.000000 3.590740 
# 
# 
# High freq. dielectric constant tensor:
#      x y z
#    x 1.715600 0.000000 0.000000 
#    y 0.000000 1.658270 0.000000 
#    z 0.000000 0.000000 1.722120 
# 
# From -- ./inp_files/34524.got.cif
#   From: 2010.03.12/outbox.cif.g09.slc.cpg/sg51_18_cif.got.tgz:34524.got - 2010.04.16 13:43:02.
