data_PCOD8211168
_publ_section_title
;
Structure prediction by ZEFSAII (Michael W. Deem and Ramdas Pophale) SiO2 
 PCOD8211168
Probable space group: P M M A
;
_chemical_formula_sum "Si O2"
_cell_formula_units_Z 64
_cell_length_a 13.515272
_cell_length_b 9.160059
_cell_length_c 26.024180
_cell_angle_alpha 90.000000
_cell_angle_beta 90.000000
_cell_angle_gamma 90.000000
_cell_volume 3221.811413
_symmetry_space_group_name_H-M "P M M A"
_symmetry_group_IT_number 51
_symmetry_cell_setting 'orthorhombic'
loop_
_space_group_symop_operation_xyz
x,y,z
1/2-x,-y,z
1/2+x,-y,-z
-x,y,-z
-x,-y,-z
1/2+x,y,-z
1/2-x,y,z
x,-y,z
loop_
_atom_site_type_symbol
_atom_site_label
_atom_site_fract_x
_atom_site_fract_y
_atom_site_fract_z
Si Si1 0.366735 0.663302 0.532984
Si Si2 0.631979 0.335754 0.972457
Si Si3 0.138355 0.166742 0.434327
Si Si4 0.945549 0.831030 0.179227
Si Si5 0.047493 0.831173 0.627571
Si Si6 0.135256 0.328265 0.723045
Si Si7 0.859955 0.168368 0.872226
Si Si8 0.132828 0.163632 0.930213
O O1 0.250000 0.656935 0.527845
O O2 0.410691 0.500000 0.539465
O O3 0.407274 0.734475 0.480101
O O4 0.390231 0.762091 0.581664
O O5 0.750000 0.328964 0.974244
O O6 0.592568 0.500000 0.969093
O O7 0.595929 0.250230 0.921893
O O8 0.587487 0.264816 0.024626
O O9 0.250000 0.212647 0.419085
O O10 0.069423 0.186903 0.384391
O O11 0.135500 0.000000 0.453913
O O12 0.900541 0.727812 0.222142
O O13 0.898215 0.778604 0.125676
O O14 0.064713 0.808396 0.175336
O O15 0.919416 0.000000 0.191346
O O16 0.069558 0.749234 0.680143
O O17 0.077623 0.000000 0.633162
O O18 0.250000 0.288837 0.714640
O O19 0.117482 0.500000 0.719618
O O20 0.750000 0.224823 0.856445
O O21 0.855397 0.000000 0.888000
O O22 0.250000 0.165416 0.933987
O O23 0.091301 0.000000 0.937684
#
# Coordination Sequence:
#
# PCOD8211168 Si02
#       8
#     8   8   8   8   8   8   8   8
#     4  10  20  33  52  82 119 155 188 225 273 325
#     4   9  17  29  47  73 105 140 175 212 259 316
#     4   9  19  36  56  81 115 151 187 227 269 315
#     4  10  21  37  58  81 103 135 180 224 267 317
#     4  11  22  36  58  84 109 145 190 230 270 317
#     4  11  25  43  61  82 109 139 172 217 273 326
#     4   9  18  34  55  78 106 139 175 217 264 314
#     4   9  17  30  49  73 102 135 171 214 264 318
#
# _framework density 19.864601
#
# number of rings (size 3 to 8) (size 9 to 14) (size 15 to 20)
#    0.000    2.250    0.000    2.625    0.000    9.250 
#    0.000    4.375    0.000    3.750    0.000    0.000 
#    0.000    0.000    0.000    0.000    0.000    0.000 
#
# Total GULP energy -793662.121735 kJ/mol
# GULP energy per Si atom -12400.970652 kJ/mol
# Density = 1.981939 g / cm^3
# Si number density = 19.864601 Si / 1000 Ang^3
#
#
#
# Elastic Constant Matrix: (Units=GPa)
#
#
# Indices 1 2 3 4 5 6 
#
# 1 46.0044 38.7954 34.3186 0.0000 0.0000 0.0000
# 2 38.7954 116.4986 68.3382 0.0000 0.0000 0.0000
# 3 34.3186 68.3382 108.1368 0.0000 0.0000 0.0000
# 4 0.0000 0.0000 0.0000 20.7800 0.0000 0.0000
# 5 0.0000 0.0000 0.0000 0.0000 30.1624 0.0000
# 6 0.0000 0.0000 0.0000 0.0000 0.0000 20.6191
#
#
#
# Elastic Compliance Matrix: (Units=1/GPa)
#
#
# Indices 1 2 3 4 5 6 
#
# 1 0.032133 -0.007498 -0.005459 0.000000 0.000000 0.000000
# 2 -0.007498 0.015390 -0.007346 0.000000 0.000000 0.000000
# 3 -0.005459 -0.007346 0.015623 0.000000 0.000000 0.000000
# 4 0.000000 0.000000 0.000000 0.048123 0.000000 0.000000
# 5 0.000000 0.000000 0.000000 0.000000 0.033154 0.000000
# 6 0.000000 0.000000 0.000000 0.000000 0.000000 0.048499
#
#
# Mechanical properties :
#
#
# Convention : Reuss Voigt Hill
#
# Bulk Modulus (GPa) = 44.36917 61.50491 52.93704
# Shear Modulus (GPa) = 20.74333 22.92481 21.83407
#
# Velocity S-wave (km/s) = 3.23497 3.40082 3.31893
# Velocity P-wave (km/s) = 6.02807 6.81543 6.43381
#
# Compressibility (1/GPa) = 0.02253817
#
# Stress axis : x y z
#
# Youngs Moduli (GPa) = 31.12090 64.97663 64.00957
#
# Poissons Ratio (x) = 0.48721 0.34944
# Poissons Ratio (y) = 0.23335 0.47023
# Poissons Ratio (z) = 0.16989 0.47734
#
# Static dielectric constant tensor:
#      x y z
#    x 3.802830 0.000000 0.000000 
#    y 0.000000 3.763310 0.000000 
#    z 0.000000 0.000000 3.429200 
# 
# 
# High freq. dielectric constant tensor:
#      x y z
#    x 1.789590 0.000000 0.000000 
#    y 0.000000 1.775130 0.000000 
#    z 0.000000 0.000000 1.753930 
# 
# From -- ./inp_files/35875.got.cif
#   From: 2010.03.12/outbox.cif.g09.slc.cpg/sg51_18_cif.got.tgz:35875.got - 2010.04.16 13:43:02.
