data_PCOD8211780
_publ_section_title
;
Structure prediction by ZEFSAII (Michael W. Deem and Ramdas Pophale) SiO2 
 PCOD8211780
Probable space group: P M M A
;
_chemical_formula_sum "Si O2"
_cell_formula_units_Z 56
_cell_length_a 18.776885
_cell_length_b 9.095610
_cell_length_c 17.619203
_cell_angle_alpha 90.000000
_cell_angle_beta 90.000000
_cell_angle_gamma 90.000000
_cell_volume 3009.134751
_symmetry_space_group_name_H-M "P M M A"
_symmetry_group_IT_number 51
_symmetry_cell_setting 'orthorhombic'
loop_
_space_group_symop_operation_xyz
x,y,z
1/2-x,-y,z
1/2+x,-y,-z
-x,y,-z
-x,-y,-z
1/2+x,y,-z
1/2-x,y,z
x,-y,z
loop_
_atom_site_type_symbol
_atom_site_label
_atom_site_fract_x
_atom_site_fract_y
_atom_site_fract_z
Si Si1 0.165245 0.665842 0.483177
Si Si2 0.831367 0.327361 0.080439
Si Si3 0.331300 0.170014 0.334575
Si Si4 0.573864 0.827560 0.964341
Si Si5 0.665378 0.832590 0.368751
Si Si6 0.555435 0.170814 0.791531
Si Si7 0.589489 0.674280 0.232331
O O1 0.250000 0.668644 0.483873
O O2 0.135875 0.500000 0.488817
O O3 0.137688 0.737801 0.405149
O O4 0.135803 0.758842 0.554171
O O5 0.750000 0.279302 0.093149
O O6 0.838287 0.500000 0.068770
O O7 0.876744 0.274166 0.152725
O O8 0.860339 0.250405 0.005046
O O9 0.250000 0.213873 0.316018
O O10 0.376780 0.206587 0.260302
O O11 0.336879 0.000000 0.357521
O O12 0.576456 0.783235 0.876422
O O13 0.582334 0.000000 0.977032
O O14 0.500000 0.770101 0.000000
O O15 0.750000 0.825823 0.366194
O O16 0.636507 0.742269 0.298317
O O17 0.637832 0.000000 0.365631
O O18 0.490456 0.267532 0.761648
O O19 0.533341 0.000000 0.787859
O O20 0.590675 0.500000 0.240968
#
# Coordination Sequence:
#
# PCOD8211780 Si02
#       7
#     8   8   8   8   8   8   8
#     4   9  17  31  53  80 110 143 179 223 274 326
#     4  10  22  38  56  81 112 146 185 229 277 329
#     4   9  18  34  56  80 107 141 181 226 276 329
#     4  10  20  36  58  82 109 143 185 230 275 328
#     4  10  20  34  55  82 111 145 185 227 272 325
#     4  10  21  37  57  81 111 145 184 227 275 332
#     4  11  22  36  55  79 112 150 186 226 274 327
#
# _framework density 18.609999999999999
#
# number of rings (size 3 to 8) (size 9 to 14) (size 15 to 20)
#    0.000    2.143    1.429    1.714    0.000    6.000 
#    0.000    2.143    0.000    6.000    0.000    0.000 
#    0.000    0.000    0.000    0.000    0.000    0.000 
#
# Total GULP energy -694612.856053 kJ/mol
# GULP energy per Si atom -12403.801001 kJ/mol
# Density = 1.856764 g / cm^3
# Si number density = 18.610000 Si / 1000 Ang^3
#
#
#
# Elastic Constant Matrix: (Units=GPa)
#
#
# Indices 1 2 3 4 5 6 
#
# 1 58.2735 31.6474 25.7658 0.0000 0.0000 0.0000
# 2 31.6474 79.1935 53.4308 0.0000 0.0000 0.0000
# 3 25.7658 53.4308 126.4794 0.0000 0.0000 0.0000
# 4 0.0000 0.0000 0.0000 32.0653 0.0000 0.0000
# 5 0.0000 0.0000 0.0000 0.0000 24.2304 0.0000
# 6 0.0000 0.0000 0.0000 0.0000 0.0000 28.7443
#
#
#
# Elastic Compliance Matrix: (Units=1/GPa)
#
#
# Indices 1 2 3 4 5 6 
#
# 1 0.022021 -0.008075 -0.001075 0.000000 0.000000 0.000000
# 2 -0.008075 0.020622 -0.007067 0.000000 0.000000 0.000000
# 3 -0.001075 -0.007067 0.011111 0.000000 0.000000 0.000000
# 4 0.000000 0.000000 0.000000 0.031186 0.000000 0.000000
# 5 0.000000 0.000000 0.000000 0.000000 0.041270 0.000000
# 6 0.000000 0.000000 0.000000 0.000000 0.000000 0.034790
#
#
# Mechanical properties :
#
#
# Convention : Reuss Voigt Hill
#
# Bulk Modulus (GPa) = 46.90238 53.95937 50.43087
# Shear Modulus (GPa) = 24.93269 27.21483 26.07376
#
# Velocity S-wave (km/s) = 3.66423 3.82825 3.74714
# Velocity P-wave (km/s) = 6.56959 6.97126 6.77340
#
# Compressibility (1/GPa) = 0.02132088
#
# Stress axis : x y z
#
# Youngs Moduli (GPa) = 45.41111 48.49187 90.00339
#
# Poissons Ratio (x) = 0.39157 0.09674
# Poissons Ratio (y) = 0.36669 0.63603
# Poissons Ratio (z) = 0.04881 0.34268
#
# Static dielectric constant tensor:
#      x y z
#    x 3.260050 0.000000 0.000000 
#    y 0.000000 3.455500 0.000000 
#    z 0.000000 0.000000 3.543770 
# 
# 
# High freq. dielectric constant tensor:
#      x y z
#    x 1.703810 0.000000 0.000000 
#    y 0.000000 1.724070 0.000000 
#    z 0.000000 0.000000 1.734400 
# 
# From -- ./inp_files/25673.got.cif
#   From: 2010.03.12/outbox.cif.g09.slc.cpg/sg51_13_cif.got.tgz:25673.got - 2010.04.16 13:43:02.
