data_PCOD8211965
_publ_section_title
;
Structure prediction by ZEFSAII (Michael W. Deem and Ramdas Pophale) SiO2 
 PCOD8211965
Probable space group: P M M A
;
_chemical_formula_sum "Si O2"
_cell_formula_units_Z 64
_cell_length_a 9.026538
_cell_length_b 19.361102
_cell_length_c 20.620059
_cell_angle_alpha 90.000000
_cell_angle_beta 90.000000
_cell_angle_gamma 90.000000
_cell_volume 3603.638278
_symmetry_space_group_name_H-M "P M M A"
_symmetry_group_IT_number 51
_symmetry_cell_setting 'orthorhombic'
loop_
_space_group_symop_operation_xyz
x,y,z
1/2-x,-y,z
1/2+x,-y,-z
-x,y,-z
-x,-y,-z
1/2+x,y,-z
1/2-x,y,z
x,-y,z
loop_
_atom_site_type_symbol
_atom_site_label
_atom_site_fract_x
_atom_site_fract_y
_atom_site_fract_z
Si Si1 0.416854 0.082269 0.810093
Si Si2 0.086019 0.582020 0.186388
Si Si3 0.078415 0.418958 0.331117
Si Si4 0.422002 0.921180 0.317767
Si Si5 0.916983 0.917602 0.936470
Si Si6 0.073021 0.324084 0.567675
Si Si7 0.584653 0.582433 0.062859
Si Si8 0.925987 0.180460 0.566780
O O1 0.250000 0.110172 0.812983
O O2 0.491365 0.109286 0.744035
O O3 0.503431 0.111903 0.872322
O O4 0.422243 0.000000 0.811275
O O5 0.250000 0.611782 0.174583
O O6 0.090768 0.500000 0.182198
O O7 0.030853 0.603228 0.258133
O O8 0.982907 0.612512 0.129666
O O9 0.250000 0.398854 0.343839
O O10 0.055913 0.500000 0.341649
O O11 0.967658 0.380610 0.379090
O O12 0.250000 0.915746 0.300705
O O13 0.463978 0.877105 0.380426
O O14 0.468319 0.000000 0.332464
O O15 0.750000 0.889590 0.937535
O O16 0.919874 0.000000 0.936105
O O17 0.000000 0.889053 0.000000
O O18 0.250000 0.318033 0.560496
O O19 0.000000 0.347542 0.500000
O O20 0.002308 0.251415 0.589352
O O21 0.750000 0.610560 0.058165
O O22 0.578817 0.500000 0.063566
O O23 0.500000 0.611408 0.000000
O O24 0.750000 0.191194 0.557782
O O25 0.000000 0.155087 0.500000
#
# Coordination Sequence:
#
# PCOD8211965 Si02
#       8
#     8   8   8   8   8   8   8   8
#     4   9  16  25  38  58  85 117 152 190 232 277
#     4   8  14  25  40  58  83 115 148 184 228 275
#     4   9  18  33  52  73  98 127 158 194 238 287
#     4   9  18  32  49  70  96 126 158 193 236 284
#     4   9  15  22  33  50  76 112 152 191 230 275
#     4  11  22  36  54  73  96 125 158 196 236 281
#     4   9  15  21  31  49  76 112 152 190 226 268
#     4  10  20  35  54  73  96 125 157 194 236 283
#
# _framework density 17.759830000000001
#
# number of rings (size 3 to 8) (size 9 to 14) (size 15 to 20)
#    0.000    2.750    0.000    4.125    0.000    6.750 
#    0.000    1.250    0.000    0.000    0.000    0.000 
#    0.000    1.000    0.000    8.250    0.000   12.375 
#
# Total GULP energy -793410.733885 kJ/mol
# GULP energy per Si atom -12397.042717 kJ/mol
# Density = 1.771941 g / cm^3
# Si number density = 17.759830 Si / 1000 Ang^3
#
#
#
# Elastic Constant Matrix: (Units=GPa)
#
#
# Indices 1 2 3 4 5 6 
#
# 1 141.7848 32.5301 90.4184 0.0000 0.0000 0.0000
# 2 32.5301 31.6329 47.6624 0.0000 0.0000 0.0000
# 3 90.4184 47.6624 161.5337 0.0000 0.0000 0.0000
# 4 0.0000 0.0000 0.0000 -0.7427 0.0000 0.0000
# 5 0.0000 0.0000 0.0000 0.0000 40.0136 0.0000
# 6 0.0000 0.0000 0.0000 0.0000 0.0000 16.5273
#
#
#
# Elastic Compliance Matrix: (Units=1/GPa)
#
#
# Indices 1 2 3 4 5 6 
#
# 1 0.011208 -0.003732 -0.005172 0.000000 0.000000 0.000000
# 2 -0.003732 0.058160 -0.015071 0.000000 0.000000 0.000000
# 3 -0.005172 -0.015071 0.013533 0.000000 0.000000 0.000000
# 4 0.000000 0.000000 0.000000 -1.346526 0.000000 0.000000
# 5 0.000000 0.000000 0.000000 0.000000 0.024992 0.000000
# 6 0.000000 0.000000 0.000000 0.000000 0.000000 0.060506
#
#
# Mechanical properties :
#
#
# Convention : Reuss Voigt Hill
#
# Bulk Modulus (GPa) = 28.61395 75.13033 51.87214
# Shear Modulus (GPa) = -4.47017 22.11568 8.82276
#
# Velocity S-wave (km/s) = -1.58823 3.53266 2.23128
# Velocity P-wave (km/s) = 3.57537 7.68342 5.99242
#
# Compressibility (1/GPa) = 0.03494799
#
# Stress axis : x y z
#
# Youngs Moduli (GPa) = 89.22458 17.19404 73.89453
#
# Poissons Ratio (x) = 0.06418 0.38220
# Poissons Ratio (y) = 0.33303 1.11370
# Poissons Ratio (z) = 0.46149 0.25914
#
# Static dielectric constant tensor:
#      x y z
#    x 3.446140 0.000000 0.000000 
#    y 0.000000 2.710000 0.000000 
#    z 0.000000 0.000000 3.507750 
# 
# 
# High freq. dielectric constant tensor:
#      x y z
#    x 1.697010 0.000000 0.000000 
#    y 0.000000 1.618140 0.000000 
#    z 0.000000 0.000000 1.704540 
# 
# From -- ./inp_files/28619.got.cif
#   From: 2010.03.12/outbox.cif.g09.slc.cpg/sg51_15_cif.got.tgz:28619.got - 2010.04.16 13:43:02.
