data_PCOD8211718
_publ_section_title
;
Structure prediction by ZEFSAII (Michael W. Deem and Ramdas Pophale) SiO2 
 PCOD8211718
Probable space group: P M M A
;
_chemical_formula_sum "Si O2"
_cell_formula_units_Z 64
_cell_length_a 22.112732
_cell_length_b 8.935183
_cell_length_c 17.417157
_cell_angle_alpha 90.000000
_cell_angle_beta 90.000000
_cell_angle_gamma 90.000000
_cell_volume 3441.304645
_symmetry_space_group_name_H-M "P M M A"
_symmetry_group_IT_number 51
_symmetry_cell_setting 'orthorhombic'
loop_
_space_group_symop_operation_xyz
x,y,z
1/2-x,-y,z
1/2+x,-y,-z
-x,y,-z
-x,-y,-z
1/2+x,y,-z
1/2-x,y,z
x,-y,z
loop_
_atom_site_type_symbol
_atom_site_label
_atom_site_fract_x
_atom_site_fract_y
_atom_site_fract_z
Si Si1 0.915685 0.674945 0.815682
Si Si2 0.947609 0.176200 0.663298
Si Si3 0.988715 0.169797 0.086250
Si Si4 0.086203 0.176548 0.642683
Si Si5 0.681162 0.670550 0.939895
Si Si6 0.428763 0.331911 0.489100
Si Si7 0.348163 0.170057 0.903750
Si Si8 0.318039 0.672499 0.752537
O O1 0.915458 0.500000 0.797820
O O2 0.911167 0.762868 0.736067
O O3 0.859710 0.724589 0.868882
O O4 0.977684 0.718146 0.857338
O O5 0.914326 0.244526 0.589090
O O6 0.018437 0.223021 0.668631
O O7 0.941156 0.000000 0.658696
O O8 0.919375 0.179278 0.108465
O O9 0.013253 0.000000 0.096349
O O10 0.000000 0.225727 0.000000
O O11 0.102625 0.249850 0.560862
O O12 0.134542 0.230584 0.704712
O O13 0.091437 0.000000 0.634028
O O14 0.750000 0.684681 0.912481
O O15 0.664685 0.500000 0.962461
O O16 0.669651 0.775149 0.012218
O O17 0.500000 0.332166 0.500000
O O18 0.402965 0.500000 0.483931
O O19 0.316607 0.272882 0.840456
O O20 0.325349 0.000000 0.894620
O O21 0.250000 0.691932 0.719418
O O22 0.338151 0.500000 0.749772
#
# Coordination Sequence:
#
# PCOD8211718 Si02
#       8
#     8   8   8   8   8   8   8   8
#     4  11  22  34  53  79 105 137 179 221 265 319
#     4  10  20  34  54  82 115 144 173 216 272 325
#     4  10  20  35  52  74 107 139 168 213 272 325
#     4  10  20  35  56  82 111 144 178 215 265 321
#     4  10  22  39  55  72  99 136 177 222 269 313
#     4   9  17  31  54  83 113 142 172 208 253 311
#     4  11  22  36  56  79 103 136 178 222 268 320
#     4  11  24  39  54  75 107 146 185 227 272 317
#
# _framework density 18.597598000000001
#
# number of rings (size 3 to 8) (size 9 to 14) (size 15 to 20)
#    0.000    1.750    1.250    3.375    0.000   10.500 
#    0.000    0.000    0.000    0.750    0.000    1.750 
#    0.000    0.000    0.000    0.000    0.000    0.000 
#
# Total GULP energy -793830.852215 kJ/mol
# GULP energy per Si atom -12403.607066 kJ/mol
# Density = 1.855527 g / cm^3
# Si number density = 18.597598 Si / 1000 Ang^3
#
#
#
# Elastic Constant Matrix: (Units=GPa)
#
#
# Indices 1 2 3 4 5 6 
#
# 1 63.1868 27.8403 32.9204 0.0000 0.0000 0.0000
# 2 27.8403 87.1678 48.6515 0.0000 0.0000 0.0000
# 3 32.9204 48.6515 130.9685 0.0000 0.0000 0.0000
# 4 0.0000 0.0000 0.0000 40.5476 0.0000 0.0000
# 5 0.0000 0.0000 0.0000 0.0000 13.5651 0.0000
# 6 0.0000 0.0000 0.0000 0.0000 0.0000 9.3813
#
#
#
# Elastic Compliance Matrix: (Units=1/GPa)
#
#
# Indices 1 2 3 4 5 6 
#
# 1 0.019461 -0.004397 -0.003258 0.000000 0.000000 0.000000
# 2 -0.004397 0.015466 -0.004640 0.000000 0.000000 0.000000
# 3 -0.003258 -0.004640 0.010178 0.000000 0.000000 0.000000
# 4 0.000000 0.000000 0.000000 0.024662 0.000000 0.000000
# 5 0.000000 0.000000 0.000000 0.000000 0.073718 0.000000
# 6 0.000000 0.000000 0.000000 0.000000 0.000000 0.106595
#
#
# Mechanical properties :
#
#
# Convention : Reuss Voigt Hill
#
# Bulk Modulus (GPa) = 48.74598 55.57195 52.15897
# Shear Modulus (GPa) = 17.76134 24.15953 20.96044
#
# Velocity S-wave (km/s) = 3.09372 3.60817 3.36080
# Velocity P-wave (km/s) = 6.24734 6.87784 6.57015
#
# Compressibility (1/GPa) = 0.02051451
#
# Stress axis : x y z
#
# Youngs Moduli (GPa) = 51.38469 64.65676 98.24983
#
# Poissons Ratio (x) = 0.28430 0.32014
# Poissons Ratio (y) = 0.22594 0.45589
# Poissons Ratio (z) = 0.16743 0.30001
#
# Static dielectric constant tensor:
#      x y z
#    x 3.141420 0.000000 0.000000 
#    y 0.000000 3.547400 0.000000 
#    z 0.000000 0.000000 3.509040 
# 
# 
# High freq. dielectric constant tensor:
#      x y z
#    x 1.696290 0.000000 0.000000 
#    y 0.000000 1.733860 0.000000 
#    z 0.000000 0.000000 1.725700 
# 
# From -- ./inp_files/30528.got.cif
#   From: 2010.03.12/outbox.cif.g09.slc.cpg/sg51_16_cif.got.tgz:30528.got - 2010.04.16 13:43:02.
