data_PCOD8211259
_publ_section_title
;
Structure prediction by ZEFSAII (Michael W. Deem and Ramdas Pophale) SiO2 
 PCOD8211259
Probable space group: P M M A
;
_chemical_formula_sum "Si O2"
_cell_formula_units_Z 44
_cell_length_a 8.978779
_cell_length_b 12.800724
_cell_length_c 21.743774
_cell_angle_alpha 90.000000
_cell_angle_beta 90.000000
_cell_angle_gamma 90.000000
_cell_volume 2499.117878
_symmetry_space_group_name_H-M "P M M A"
_symmetry_group_IT_number 51
_symmetry_cell_setting 'orthorhombic'
loop_
_space_group_symop_operation_xyz
x,y,z
1/2-x,-y,z
1/2+x,-y,-z
-x,y,-z
-x,-y,-z
1/2+x,y,-z
1/2-x,y,z
x,-y,z
loop_
_atom_site_type_symbol
_atom_site_label
_atom_site_fract_x
_atom_site_fract_y
_atom_site_fract_z
Si Si1 0.580038 0.169576 0.145948
Si Si2 0.418925 0.116330 0.714083
Si Si3 0.074929 0.315323 0.320515
Si Si4 0.077283 0.616067 0.802215
Si Si5 0.573948 0.000000 0.934067
Si Si6 0.414204 0.621014 0.557866
O O1 0.750000 0.157145 0.123001
O O2 0.559422 0.120800 0.212939
O O3 0.533108 0.293123 0.148787
O O4 0.474289 0.106228 0.100299
O O5 0.250000 0.147981 0.697304
O O6 0.531776 0.193289 0.679994
O O7 0.455699 0.000000 0.691142
O O8 0.250000 0.328660 0.322172
O O9 0.014213 0.373537 0.260368
O O10 0.007822 0.367635 0.380423
O O11 0.250000 0.632172 0.784592
O O12 0.048789 0.500000 0.830336
O O13 0.750000 0.000000 0.940526
O O14 0.500000 0.000000 0.000000
O O15 0.500000 0.673806 0.500000
O O16 0.250000 0.672893 0.564567
O O17 0.393508 0.500000 0.543687
#
# Coordination Sequence:
#
# PCOD8211259 Si02
#       6
#     8   8   8   8   4   8
#     4   9  17  33  54  77 105 134 168 211 256 301
#     4   9  17  32  53  73  98 133 167 203 250 302
#     4  11  21  30  45  73 105 134 166 207 252 300
#     4   9  18  33  53  76 104 140 175 207 251 307
#     4  12  24  36  54  78 106 138 173 212 253 298
#     4  10  20  34  51  69  92 125 165 208 253 302
#
# _framework density 17.606210999999998
#
# number of rings (size 3 to 8) (size 9 to 14) (size 15 to 20)
#    0.000    2.182    0.909    4.636    0.000    6.909 
#    0.000    0.000    0.000    1.091    0.000    0.000 
#    0.000    0.000    0.000    0.000    0.000    0.000 
#
# Total GULP energy -545463.199099 kJ/mol
# GULP energy per Si atom -12396.890889 kJ/mol
# Density = 1.756614 g / cm^3
# Si number density = 17.606211 Si / 1000 Ang^3
#
#
#
# Elastic Constant Matrix: (Units=GPa)
#
#
# Indices 1 2 3 4 5 6 
#
# 1 129.1062 41.9502 50.7587 0.0000 0.0000 0.0000
# 2 41.9502 111.4889 31.7572 0.0000 0.0000 0.0000
# 3 50.7587 31.7572 71.2304 0.0000 0.0000 0.0000
# 4 0.0000 0.0000 0.0000 17.8816 0.0000 0.0000
# 5 0.0000 0.0000 0.0000 0.0000 28.1926 0.0000
# 6 0.0000 0.0000 0.0000 0.0000 0.0000 24.0065
#
#
#
# Elastic Compliance Matrix: (Units=1/GPa)
#
#
# Indices 1 2 3 4 5 6 
#
# 1 0.011223 -0.002228 -0.007004 0.000000 0.000000 0.000000
# 2 -0.002228 0.010717 -0.003190 0.000000 0.000000 0.000000
# 3 -0.007004 -0.003190 0.020453 0.000000 0.000000 0.000000
# 4 0.000000 0.000000 0.000000 0.055923 0.000000 0.000000
# 5 0.000000 0.000000 0.000000 0.000000 0.035470 0.000000
# 6 0.000000 0.000000 0.000000 0.000000 0.000000 0.041655
#
#
# Mechanical properties :
#
#
# Convention : Reuss Voigt Hill
#
# Bulk Modulus (GPa) = 56.98868 62.30641 59.64755
# Shear Modulus (GPa) = 24.25587 26.50677 25.38132
#
# Velocity S-wave (km/s) = 3.71575 3.88433 3.80098
# Velocity P-wave (km/s) = 7.13077 7.45541 7.29489
#
# Compressibility (1/GPa) = 0.01754734
#
# Stress axis : x y z
#
# Youngs Moduli (GPa) = 89.10053 93.31393 48.89334
#
# Poissons Ratio (x) = 0.20789 0.34247
# Poissons Ratio (y) = 0.19850 0.15598
# Poissons Ratio (z) = 0.62410 0.29770
#
# Static dielectric constant tensor:
#      x y z
#    x 3.339620 0.000000 0.000000 
#    y 0.000000 3.524030 0.000000 
#    z 0.000000 0.000000 2.979520 
# 
# 
# High freq. dielectric constant tensor:
#      x y z
#    x 1.682670 0.000000 0.000000 
#    y 0.000000 1.681910 0.000000 
#    z 0.000000 0.000000 1.646110 
# 
# From -- ./inp_files/27331.got.cif
#   From: 2010.03.12/outbox.cif.g09.slc.cpg/sg51_14_cif.got.tgz:27331.got - 2010.04.16 13:43:02.
