data_PCOD8211574
_publ_section_title
;
Structure prediction by ZEFSAII (Michael W. Deem and Ramdas Pophale) SiO2 
 PCOD8211574
Probable space group: P M M A
;
_chemical_formula_sum "Si O2"
_cell_formula_units_Z 48
_cell_length_a 9.273076
_cell_length_b 9.098440
_cell_length_c 30.972894
_cell_angle_alpha 90.000000
_cell_angle_beta 90.000000
_cell_angle_gamma 90.000000
_cell_volume 2613.199346
_symmetry_space_group_name_H-M "P M M A"
_symmetry_group_IT_number 51
_symmetry_cell_setting 'orthorhombic'
loop_
_space_group_symop_operation_xyz
x,y,z
1/2-x,-y,z
1/2+x,-y,-z
-x,y,-z
-x,-y,-z
1/2+x,y,-z
1/2-x,y,z
x,-y,z
loop_
_atom_site_type_symbol
_atom_site_label
_atom_site_fract_x
_atom_site_fract_y
_atom_site_fract_z
Si Si1 0.087169 0.175001 0.959061
Si Si2 0.578416 0.665815 0.373002
Si Si3 0.582371 0.329023 0.787950
Si Si4 0.582043 0.170592 0.457634
Si Si5 0.083106 0.169822 0.124616
Si Si6 0.079329 0.830992 0.711769
O O1 0.250000 0.236291 0.960228
O O2 0.010334 0.228857 0.915385
O O3 0.086602 0.000000 0.960814
O O4 0.000000 0.238818 0.000000
O O5 0.750000 0.669444 0.373268
O O6 0.519226 0.500000 0.370528
O O7 0.520358 0.741001 0.416651
O O8 0.520292 0.754779 0.331739
O O9 0.750000 0.299684 0.778703
O O10 0.543959 0.500000 0.786896
O O11 0.537951 0.265614 0.834326
O O12 0.490209 0.246878 0.752407
O O13 0.500000 0.227412 0.500000
O O14 0.750000 0.201281 0.464802
O O15 0.550811 0.000000 0.448950
O O16 0.250000 0.191406 0.112459
O O17 0.049385 0.000000 0.135078
O O18 0.250000 0.814069 0.715580
O O19 0.031671 0.000000 0.710596
#
# Coordination Sequence:
#
# PCOD8211574 Si02
#       6
#     8   8   8   8   8   8
#     4   9  16  26  43  69  99 128 160 201 247 292
#     4   9  17  30  49  72  98 129 164 202 246 296
#     4  10  21  36  53  74 102 135 168 204 251 304
#     4   9  17  30  48  69  94 125 162 203 246 293
#     4   9  17  30  48  69  95 128 164 201 243 292
#     4  10  20  34  54  78 101 128 166 209 250 296
#
# _framework density 18.368288
#
# number of rings (size 3 to 8) (size 9 to 14) (size 15 to 20)
#    0.000    2.667    0.000    2.000    0.000    7.000 
#    0.000    2.500    0.000    3.500    0.000    0.000 
#    0.000    0.000    0.000    0.000    0.000    0.000 
#
# Total GULP energy -595273.466162 kJ/mol
# GULP energy per Si atom -12401.530545 kJ/mol
# Density = 1.832648 g / cm^3
# Si number density = 18.368288 Si / 1000 Ang^3
#
#
#
# Elastic Constant Matrix: (Units=GPa)
#
#
# Indices 1 2 3 4 5 6 
#
# 1 58.6925 36.7635 64.2824 0.0000 0.0000 0.0000
# 2 36.7635 105.5276 82.2411 0.0000 0.0000 0.0000
# 3 64.2824 82.2411 181.5657 0.0000 0.0000 0.0000
# 4 0.0000 0.0000 0.0000 3.8736 0.0000 0.0000
# 5 0.0000 0.0000 0.0000 0.0000 36.3658 0.0000
# 6 0.0000 0.0000 0.0000 0.0000 0.0000 17.1591
#
#
#
# Elastic Compliance Matrix: (Units=1/GPa)
#
#
# Indices 1 2 3 4 5 6 
#
# 1 0.028508 -0.003193 -0.008647 0.000000 0.000000 0.000000
# 2 -0.003193 0.015004 -0.005666 0.000000 0.000000 0.000000
# 3 -0.008647 -0.005666 0.011135 0.000000 0.000000 0.000000
# 4 0.000000 0.000000 0.000000 0.258159 0.000000 0.000000
# 5 0.000000 0.000000 0.000000 0.000000 0.027498 0.000000
# 6 0.000000 0.000000 0.000000 0.000000 0.000000 0.058278
#
#
# Mechanical properties :
#
#
# Convention : Reuss Voigt Hill
#
# Bulk Modulus (GPa) = 50.92516 79.15111 65.03814
# Shear Modulus (GPa) = 11.36003 22.31295 16.83649
#
# Velocity S-wave (km/s) = 2.48958 3.48911 3.03084
# Velocity P-wave (km/s) = 6.00406 7.70822 6.90888
#
# Compressibility (1/GPa) = 0.01963666
#
# Stress axis : x y z
#
# Youngs Moduli (GPa) = 35.07731 66.64893 89.80336
#
# Poissons Ratio (x) = 0.21279 0.77654
# Poissons Ratio (y) = 0.11199 0.50880
# Poissons Ratio (z) = 0.30332 0.37762
#
# Static dielectric constant tensor:
#      x y z
#    x 3.278900 0.000000 0.000000 
#    y 0.000000 3.305870 0.000000 
#    z 0.000000 0.000000 3.577340 
# 
# 
# High freq. dielectric constant tensor:
#      x y z
#    x 1.689420 0.000000 0.000000 
#    y 0.000000 1.697710 0.000000 
#    z 0.000000 0.000000 1.728630 
# 
# From -- ./inp_files/36933.got.cif
#   From: 2010.03.12/outbox.cif.g09.slc.cpg/sg51_19_cif.got.tgz:36933.got - 2010.04.16 13:43:02.
