data_PCOD8211175
_publ_section_title
;
Structure prediction by ZEFSAII (Michael W. Deem and Ramdas Pophale) SiO2 
 PCOD8211175
Probable space group: P M M A
;
_chemical_formula_sum "Si O2"
_cell_formula_units_Z 64
_cell_length_a 18.334877
_cell_length_b 9.319279
_cell_length_c 20.765839
_cell_angle_alpha 90.000000
_cell_angle_beta 90.000000
_cell_angle_gamma 90.000000
_cell_volume 3548.213935
_symmetry_space_group_name_H-M "P M M A"
_symmetry_group_IT_number 51
_symmetry_cell_setting 'orthorhombic'
loop_
_space_group_symop_operation_xyz
x,y,z
1/2-x,-y,z
1/2+x,-y,-z
-x,y,-z
-x,-y,-z
1/2+x,y,-z
1/2-x,y,z
x,-y,z
loop_
_atom_site_type_symbol
_atom_site_label
_atom_site_fract_x
_atom_site_fract_y
_atom_site_fract_z
Si Si1 0.832551 0.332904 0.620200
Si Si2 0.407653 0.333633 0.247285
Si Si3 0.165704 0.668127 0.113467
Si Si4 0.964169 0.167343 0.303291
Si Si5 0.459397 0.833279 0.436502
Si Si6 0.333774 0.336772 0.895103
Si Si7 0.085488 0.833033 0.000741
Si Si8 0.666948 0.664890 0.254299
O O1 0.750000 0.281009 0.609796
O O2 0.841250 0.500000 0.605733
O O3 0.854514 0.297387 0.693461
O O4 0.883048 0.248956 0.569954
O O5 0.430083 0.500000 0.246672
O O6 0.365175 0.289338 0.183134
O O7 0.481560 0.242076 0.252422
O O8 0.250000 0.713402 0.110410
O O9 0.156289 0.500000 0.099913
O O10 0.120945 0.753718 0.060786
O O11 0.883769 0.232410 0.296480
O O12 0.989270 0.199475 0.375794
O O13 0.962374 0.000000 0.287552
O O14 0.500000 0.776195 0.500000
O O15 0.440716 0.000000 0.442590
O O16 0.250000 0.317399 0.916131
O O17 0.358449 0.500000 0.909228
O O18 0.383048 0.227295 0.934330
O O19 0.344056 0.299551 0.820559
O O20 0.104320 0.000000 0.005688
O O21 0.000000 0.803765 0.000000
O O22 0.750000 0.695771 0.274810
O O23 0.646700 0.500000 0.268121
#
# Coordination Sequence:
#
# PCOD8211175 Si02
#       8
#     8   8   8   8   8   8   8   8
#     4   9  17  31  53  81 110 137 171 217 264 309
#     4   9  18  33  54  79 107 139 170 207 259 314
#     4  10  21  37  57  79 102 133 174 214 254 307
#     4  10  20  33  53  80 108 137 173 217 258 303
#     4   9  19  36  54  74 105 146 185 216 251 301
#     4   9  19  37  59  78  96 126 172 218 258 309
#     4  11  25  39  50  72 106 139 171 212 261 310
#     4   9  19  36  57  80 105 134 171 216 265 316
#
# _framework density 18.037244000000001
#
# number of rings (size 3 to 8) (size 9 to 14) (size 15 to 20)
#    0.000    2.500    0.000    2.250    1.750    6.750 
#    0.000    1.875    0.000    6.000    0.000    0.000 
#    0.000    0.000    0.000    0.000    0.000    0.000 
#
# Total GULP energy -793803.670411 kJ/mol
# GULP energy per Si atom -12403.182350 kJ/mol
# Density = 1.799619 g / cm^3
# Si number density = 18.037244 Si / 1000 Ang^3
#
#
#
# Elastic Constant Matrix: (Units=GPa)
#
#
# Indices 1 2 3 4 5 6 
#
# 1 135.4570 69.0030 60.4881 0.0000 0.0000 0.0000
# 2 69.0030 74.3925 46.5740 0.0000 0.0000 0.0000
# 3 60.4881 46.5740 77.6626 0.0000 0.0000 0.0000
# 4 0.0000 0.0000 0.0000 26.7890 0.0000 0.0000
# 5 0.0000 0.0000 0.0000 0.0000 29.3137 0.0000
# 6 0.0000 0.0000 0.0000 0.0000 0.0000 25.9356
#
#
#
# Elastic Compliance Matrix: (Units=1/GPa)
#
#
# Indices 1 2 3 4 5 6 
#
# 1 0.015316 -0.010789 -0.005459 0.000000 0.000000 0.000000
# 2 -0.010789 0.029123 -0.009062 0.000000 0.000000 0.000000
# 3 -0.005459 -0.009062 0.022562 0.000000 0.000000 0.000000
# 4 0.000000 0.000000 0.000000 0.037329 0.000000 0.000000
# 5 0.000000 0.000000 0.000000 0.000000 0.034114 0.000000
# 6 0.000000 0.000000 0.000000 0.000000 0.000000 0.038557
#
#
# Mechanical properties :
#
#
# Convention : Reuss Voigt Hill
#
# Bulk Modulus (GPa) = 61.04348 71.07137 66.05742
# Shear Modulus (GPa) = 21.45185 23.83746 22.64465
#
# Velocity S-wave (km/s) = 3.45238 3.63928 3.54706
# Velocity P-wave (km/s) = 7.05750 7.55958 7.31285
#
# Compressibility (1/GPa) = 0.01638177
#
# Stress axis : x y z
#
# Youngs Moduli (GPa) = 65.29126 34.33766 44.32169
#
# Poissons Ratio (x) = 0.37046 0.24195
# Poissons Ratio (y) = 0.70441 0.40163
# Poissons Ratio (z) = 0.35642 0.31116
#
# Static dielectric constant tensor:
#      x y z
#    x 3.413300 0.000000 0.000000 
#    y 0.000000 3.289680 0.000000 
#    z 0.000000 0.000000 3.274880 
# 
# 
# High freq. dielectric constant tensor:
#      x y z
#    x 1.705860 0.000000 0.000000 
#    y 0.000000 1.695180 0.000000 
#    z 0.000000 0.000000 1.691430 
# 
# From -- ./inp_files/33944.got.cif
#   From: 2010.03.12/outbox.cif.g09.slc.cpg/sg51_17_cif.got.tgz:33944.got - 2010.04.16 13:43:02.
