data_PCOD8211572
_publ_section_title
;
Structure prediction by ZEFSAII (Michael W. Deem and Ramdas Pophale) SiO2 
 PCOD8211572
Probable space group: P M M A
;
_chemical_formula_sum "Si O2"
_cell_formula_units_Z 48
_cell_length_a 9.093943
_cell_length_b 9.018092
_cell_length_c 31.192463
_cell_angle_alpha 90.000000
_cell_angle_beta 90.000000
_cell_angle_gamma 90.000000
_cell_volume 2558.094347
_symmetry_space_group_name_H-M "P M M A"
_symmetry_group_IT_number 51
_symmetry_cell_setting 'orthorhombic'
loop_
_space_group_symop_operation_xyz
x,y,z
1/2-x,-y,z
1/2+x,-y,-z
-x,y,-z
-x,-y,-z
1/2+x,y,-z
1/2-x,y,z
x,-y,z
loop_
_atom_site_type_symbol
_atom_site_label
_atom_site_fract_x
_atom_site_fract_y
_atom_site_fract_z
Si Si1 0.087431 0.323326 0.040133
Si Si2 0.575316 0.664871 0.866905
Si Si3 0.580652 0.674928 0.294889
Si Si4 0.921159 0.173054 0.782508
Si Si5 0.415923 0.176456 0.541506
Si Si6 0.921892 0.173054 0.626904
O O1 0.250000 0.255690 0.036888
O O2 0.092568 0.500000 0.037015
O O3 0.015119 0.280862 0.086460
O O4 0.000000 0.254494 0.000000
O O5 0.750000 0.657981 0.870828
O O6 0.515228 0.500000 0.855773
O O7 0.526436 0.778097 0.829868
O O8 0.750000 0.722271 0.300779
O O9 0.562160 0.500000 0.293529
O O10 0.520154 0.740028 0.250917
O O11 0.485830 0.737270 0.333675
O O12 0.750000 0.212773 0.774943
O O13 0.949702 0.000000 0.776975
O O14 0.500000 0.240760 0.500000
O O15 0.250000 0.238984 0.542083
O O16 0.499864 0.231003 0.583861
O O17 0.414830 0.000000 0.539584
O O18 0.750000 0.205556 0.622467
O O19 0.952899 0.000000 0.634701
#
# Coordination Sequence:
#
# PCOD8211572 Si02
#       6
#     8   8   8   8   8   8
#     4   8  13  22  38  61  88 119 156 197 240 284
#     4   8  14  26  45  68  95 127 161 199 245 294
#     4  11  24  39  54  74 101 133 168 206 252 306
#     4  10  20  34  54  78 100 126 164 207 251 301
#     4   9  16  27  46  74 108 143 177 214 254 295
#     4  10  20  34  54  80 107 136 173 214 255 301
#
# _framework density 18.763967999999998
#
# number of rings (size 3 to 8) (size 9 to 14) (size 15 to 20)
#    0.000    2.667    0.000    3.500    0.000    7.333 
#    0.000    0.833    0.000    4.000    0.000    0.000 
#    0.000    0.000    0.000    0.000    0.000    0.000 
#
# Total GULP energy -595054.240025 kJ/mol
# GULP energy per Si atom -12396.963334 kJ/mol
# Density = 1.872126 g / cm^3
# Si number density = 18.763968 Si / 1000 Ang^3
#
#
#
# Elastic Constant Matrix: (Units=GPa)
#
#
# Indices 1 2 3 4 5 6 
#
# 1 96.3912 34.4802 62.6711 0.0000 0.0000 0.0000
# 2 34.4802 40.5407 35.0138 0.0000 0.0000 0.0000
# 3 62.6711 35.0138 162.8181 0.0000 0.0000 0.0000
# 4 0.0000 0.0000 0.0000 28.2590 0.0000 0.0000
# 5 0.0000 0.0000 0.0000 0.0000 35.3000 0.0000
# 6 0.0000 0.0000 0.0000 0.0000 0.0000 17.7947
#
#
#
# Elastic Compliance Matrix: (Units=1/GPa)
#
#
# Indices 1 2 3 4 5 6 
#
# 1 0.016976 -0.010801 -0.004212 0.000000 0.000000 0.000000
# 2 -0.010801 0.037165 -0.003835 0.000000 0.000000 0.000000
# 3 -0.004212 -0.003835 0.008588 0.000000 0.000000 0.000000
# 4 0.000000 0.000000 0.000000 0.035387 0.000000 0.000000
# 5 0.000000 0.000000 0.000000 0.000000 0.028329 0.000000
# 6 0.000000 0.000000 0.000000 0.000000 0.000000 0.056197
#
#
# Mechanical properties :
#
#
# Convention : Reuss Voigt Hill
#
# Bulk Modulus (GPa) = 39.94585 62.67557 51.31071
# Shear Modulus (GPa) = 21.86453 27.44305 24.65379
#
# Velocity S-wave (km/s) = 3.41726 3.82847 3.62869
# Velocity P-wave (km/s) = 6.07495 7.28131 6.70532
#
# Compressibility (1/GPa) = 0.02503389
#
# Stress axis : x y z
#
# Youngs Moduli (GPa) = 58.90530 26.90707 116.44643
#
# Poissons Ratio (x) = 0.29062 0.49044
# Poissons Ratio (y) = 0.63624 0.44655
# Poissons Ratio (z) = 0.24809 0.10318
#
# Static dielectric constant tensor:
#      x y z
#    x 3.501800 0.000000 0.000000 
#    y 0.000000 3.073600 0.000000 
#    z 0.000000 0.000000 3.841600 
# 
# 
# High freq. dielectric constant tensor:
#      x y z
#    x 1.714540 0.000000 0.000000 
#    y 0.000000 1.686880 0.000000 
#    z 0.000000 0.000000 1.751870 
# 
# From -- ./inp_files/37032.got.cif
#   From: 2010.03.12/outbox.cif.g09.slc.cpg/sg51_19_cif.got.tgz:37032.got - 2010.04.16 13:43:02.
