data_PCOD8211938
_publ_section_title
;
Structure prediction by ZEFSAII (Michael W. Deem and Ramdas Pophale) SiO2 
 PCOD8211938
Probable space group: P M M A
;
_chemical_formula_sum "Si O2"
_cell_formula_units_Z 44
_cell_length_a 9.048214
_cell_length_b 27.090384
_cell_length_c 9.957049
_cell_angle_alpha 90.000000
_cell_angle_beta 90.000000
_cell_angle_gamma 90.000000
_cell_volume 2440.667786
_symmetry_space_group_name_H-M "P M M A"
_symmetry_group_IT_number 51
_symmetry_cell_setting 'orthorhombic'
loop_
_space_group_symop_operation_xyz
x,y,z
1/2-x,-y,z
1/2+x,-y,-z
-x,y,-z
-x,-y,-z
1/2+x,y,-z
1/2-x,y,z
x,-y,z
loop_
_atom_site_type_symbol
_atom_site_label
_atom_site_fract_x
_atom_site_fract_y
_atom_site_fract_z
Si Si1 0.921447 0.370808 0.863213
Si Si2 0.423877 0.807533 0.637701
Si Si3 0.576631 0.443962 0.636924
Si Si4 0.578394 0.921410 0.363140
Si Si5 0.924280 0.000000 0.145537
Si Si6 0.076502 0.742202 0.139817
O O1 0.750000 0.380309 0.886497
O O2 0.985012 0.407145 0.749912
O O3 0.952766 0.314554 0.820216
O O4 0.000000 0.385089 0.000000
O O5 0.500000 0.791133 0.500000
O O6 0.250000 0.796594 0.630000
O O7 0.457615 0.864642 0.668422
O O8 0.498811 0.776064 0.752331
O O9 0.500000 0.428073 0.500000
O O10 0.750000 0.437410 0.616640
O O11 0.535445 0.500000 0.677237
O O12 0.500000 0.939193 0.500000
O O13 0.750000 0.930616 0.388834
O O14 0.525640 0.952397 0.233093
O O15 0.750000 0.000000 0.119748
O O16 0.000000 0.000000 0.000000
O O17 0.250000 0.754125 0.130699
O O18 0.000000 0.754916 0.000000
#
# Coordination Sequence:
#
# PCOD8211938 Si02
#       6
#     8   8   8   8   4   8
#     4   9  19  34  51  73 100 130 166 205 246 295
#     4  10  20  35  54  78 105 134 170 211 253 300
#     4   9  18  33  51  72  99 129 162 202 247 295
#     4   9  19  35  55  77 102 132 168 207 248 297
#     4  10  21  36  52  76 106 134 167 206 248 296
#     4  10  20  35  53  74 102 136 171 209 254 302
#
# _framework density 18.027853
#
# number of rings (size 3 to 8) (size 9 to 14) (size 15 to 20)
#    0.000    2.545    0.000    1.364    0.000    4.727 
#    0.000    3.636    0.000    0.000    0.000    0.000 
#    0.000    0.000    0.000    0.000    0.000    0.000 
#
# Total GULP energy -545638.939381 kJ/mol
# GULP energy per Si atom -12400.884986 kJ/mol
# Density = 1.798682 g / cm^3
# Si number density = 18.027853 Si / 1000 Ang^3
#
#
#
# Elastic Constant Matrix: (Units=GPa)
#
#
# Indices 1 2 3 4 5 6 
#
# 1 76.0786 54.3309 76.2418 0.0000 0.0000 0.0000
# 2 54.3309 107.5923 106.2711 0.0000 0.0000 0.0000
# 3 76.2418 106.2711 180.6415 0.0000 0.0000 0.0000
# 4 0.0000 0.0000 0.0000 42.7006 0.0000 0.0000
# 5 0.0000 0.0000 0.0000 0.0000 40.2065 0.0000
# 6 0.0000 0.0000 0.0000 0.0000 0.0000 23.9338
#
#
#
# Elastic Compliance Matrix: (Units=1/GPa)
#
#
# Indices 1 2 3 4 5 6 
#
# 1 0.023862 -0.005018 -0.007119 0.000000 0.000000 0.000000
# 2 -0.005018 0.023241 -0.011555 0.000000 0.000000 0.000000
# 3 -0.007119 -0.011555 0.015338 0.000000 0.000000 0.000000
# 4 0.000000 0.000000 0.000000 0.023419 0.000000 0.000000
# 5 0.000000 0.000000 0.000000 0.000000 0.024872 0.000000
# 6 0.000000 0.000000 0.000000 0.000000 0.000000 0.041782
#
#
# Mechanical properties :
#
#
# Convention : Reuss Voigt Hill
#
# Bulk Modulus (GPa) = 66.41126 93.11111 79.76118
# Shear Modulus (GPa) = 24.39998 29.86609 27.13303
#
# Velocity S-wave (km/s) = 3.68293 4.07463 3.88372
# Velocity P-wave (km/s) = 7.41643 8.59636 8.02810
#
# Compressibility (1/GPa) = 0.01505769
#
# Stress axis : x y z
#
# Youngs Moduli (GPa) = 41.90690 43.02694 65.19578
#
# Poissons Ratio (x) = 0.21590 0.46416
# Poissons Ratio (y) = 0.21028 0.75333
# Poissons Ratio (z) = 0.29835 0.49717
#
# Static dielectric constant tensor:
#      x y z
#    x 3.342320 0.000000 0.000000 
#    y 0.000000 3.517120 0.000000 
#    z 0.000000 0.000000 3.385050 
# 
# 
# High freq. dielectric constant tensor:
#      x y z
#    x 1.699770 0.000000 0.000000 
#    y 0.000000 1.703540 0.000000 
#    z 0.000000 0.000000 1.701070 
# 
# From -- ./inp_files/5869.got.cif
#   From: 2010.03.12/outbox.cif.g09.slc.cpg/sg51_3_cif.got.tgz:5869.got - 2010.04.16 13:43:02.
