data_PCOD8211157
_publ_section_title
;
Structure prediction by ZEFSAII (Michael W. Deem and Ramdas Pophale) SiO2 
 PCOD8211157
Probable space group: P M M A
;
_chemical_formula_sum "Si O2"
_cell_formula_units_Z 40
_cell_length_a 14.626674
_cell_length_b 9.264345
_cell_length_c 14.147027
_cell_angle_alpha 90.000000
_cell_angle_beta 90.000000
_cell_angle_gamma 90.000000
_cell_volume 1917.014880
_symmetry_space_group_name_H-M "P M M A"
_symmetry_group_IT_number 51
_symmetry_cell_setting 'orthorhombic'
loop_
_space_group_symop_operation_xyz
x,y,z
1/2-x,-y,z
1/2+x,-y,-z
-x,y,-z
-x,-y,-z
1/2+x,y,-z
1/2-x,y,z
x,-y,z
loop_
_atom_site_type_symbol
_atom_site_label
_atom_site_fract_x
_atom_site_fract_y
_atom_site_fract_z
Si Si1 0.856744 0.668391 0.265922
Si Si2 0.358343 0.665188 0.276314
Si Si3 0.999516 0.834119 0.388314
Si Si4 0.148916 0.155983 0.103392
Si Si5 0.094899 0.662709 0.944769
O O1 0.750000 0.713112 0.263033
O O2 0.866816 0.500000 0.290583
O O3 0.908771 0.759853 0.345620
O O4 0.905222 0.703764 0.165497
O O5 0.250000 0.675673 0.291294
O O6 0.391459 0.500000 0.276676
O O7 0.408051 0.752439 0.358625
O O8 0.395729 0.732062 0.177489
O O9 0.000000 0.822953 0.500000
O O10 0.002664 0.000000 0.354350
O O11 0.250000 0.126985 0.141602
O O12 0.097018 0.000000 0.100597
O O13 0.159287 0.225669 0.999598
O O14 0.132356 0.500000 0.956161
O O15 0.000000 0.683489 0.000000
#
# Coordination Sequence:
#
# PCOD8211157 Si02
#       5
#     8   8   8   8   8
#     4  10  22  40  62  90 126 168 213 260 308 364
#     4  10  21  38  62  90 119 154 197 247 304 366
#     4  11  25  43  63  88 118 153 196 253 319 380
#     4  10  20  33  52  81 115 149 185 227 278 339
#     4  10  20  34  55  84 118 157 200 243 288 343
#
# _framework density 20.865773000000001
#
# number of rings (size 3 to 8) (size 9 to 14) (size 15 to 20)
#    0.000    1.800    0.000    3.600    0.000    8.800 
#    0.000    4.000    0.000    0.000    0.000    0.000 
#    0.000    0.000    0.000    0.000    0.000    0.000 
#
# Total GULP energy -495787.954991 kJ/mol
# GULP energy per Si atom -12394.698875 kJ/mol
# Density = 2.081828 g / cm^3
# Si number density = 20.865773 Si / 1000 Ang^3
#
#
#
# Elastic Constant Matrix: (Units=GPa)
#
#
# Indices 1 2 3 4 5 6 
#
# 1 95.1326 47.4651 40.1485 0.0000 0.0000 0.0000
# 2 47.4651 163.7434 76.9309 0.0000 0.0000 0.0000
# 3 40.1485 76.9309 111.5544 0.0000 0.0000 0.0000
# 4 0.0000 0.0000 0.0000 27.8818 0.0000 0.0000
# 5 0.0000 0.0000 0.0000 0.0000 31.1699 0.0000
# 6 0.0000 0.0000 0.0000 0.0000 0.0000 25.8715
#
#
#
# Elastic Compliance Matrix: (Units=1/GPa)
#
#
# Indices 1 2 3 4 5 6 
#
# 1 0.012962 -0.002316 -0.003068 0.000000 0.000000 0.000000
# 2 -0.002316 0.009448 -0.005682 0.000000 0.000000 0.000000
# 3 -0.003068 -0.005682 0.013987 0.000000 0.000000 0.000000
# 4 0.000000 0.000000 0.000000 0.035866 0.000000 0.000000
# 5 0.000000 0.000000 0.000000 0.000000 0.032082 0.000000
# 6 0.000000 0.000000 0.000000 0.000000 0.000000 0.038653
#
#
# Mechanical properties :
#
#
# Convention : Reuss Voigt Hill
#
# Bulk Modulus (GPa) = 70.10174 77.72440 73.91307
# Shear Modulus (GPa) = 29.43181 30.71036 30.07108
#
# Velocity S-wave (km/s) = 3.75978 3.84057 3.80039
# Velocity P-wave (km/s) = 7.24689 7.54965 7.39982
#
# Compressibility (1/GPa) = 0.01426498
#
# Stress axis : x y z
#
# Youngs Moduli (GPa) = 77.14934 105.84174 71.49546
#
# Poissons Ratio (x) = 0.24513 0.21934
# Poissons Ratio (y) = 0.17868 0.40625
# Poissons Ratio (z) = 0.23668 0.60141
#
# Static dielectric constant tensor:
#      x y z
#    x 3.682210 0.000000 0.000000 
#    y 0.000000 4.068370 0.000000 
#    z 0.000000 0.000000 3.644740 
# 
# 
# High freq. dielectric constant tensor:
#      x y z
#    x 1.816110 0.000000 0.000000 
#    y 0.000000 1.827580 0.000000 
#    z 0.000000 0.000000 1.808030 
# 
# From -- ./inp_files/23694.got.cif
#   From: 2010.03.12/outbox.cif.g09.slc.cpg/sg51_12_cif.got.tgz:23694.got - 2010.04.16 13:43:02.
