data_PCOD8211091
_publ_section_title
;
Structure prediction by ZEFSAII (Michael W. Deem and Ramdas Pophale) SiO2 
 PCOD8211091
Probable space group: P M M A
;
_chemical_formula_sum "Si O2"
_cell_formula_units_Z 64
_cell_length_a 18.339906
_cell_length_b 20.211712
_cell_length_c 9.125158
_cell_angle_alpha 90.000000
_cell_angle_beta 90.000000
_cell_angle_gamma 90.000000
_cell_volume 3382.521763
_symmetry_space_group_name_H-M "P M M A"
_symmetry_group_IT_number 51
_symmetry_cell_setting 'orthorhombic'
loop_
_space_group_symop_operation_xyz
x,y,z
1/2-x,-y,z
1/2+x,-y,-z
-x,y,-z
-x,-y,-z
1/2+x,y,-z
1/2-x,y,z
x,-y,z
loop_
_atom_site_type_symbol
_atom_site_label
_atom_site_fract_x
_atom_site_fract_y
_atom_site_fract_z
Si Si1 0.927879 0.575664 0.085668
Si Si2 0.333601 0.191743 0.203415
Si Si3 0.333331 0.575928 0.187726
Si Si4 0.907227 0.072692 0.152688
Si Si5 0.404932 0.689386 0.359376
Si Si6 0.928510 0.310072 0.305479
Si Si7 0.569722 0.072758 0.807549
Si Si8 0.833726 0.796142 0.136788
O O1 0.936631 0.500000 0.137754
O O2 0.915858 0.619379 0.229194
O O3 0.858640 0.585055 0.979839
O O4 0.000000 0.599339 0.000000
O O5 0.250000 0.171156 0.221287
O O6 0.350022 0.255425 0.300695
O O7 0.380788 0.129900 0.263786
O O8 0.351474 0.209245 0.035274
O O9 0.250000 0.599748 0.197074
O O10 0.342400 0.500000 0.236734
O O11 0.383343 0.618206 0.295805
O O12 0.849977 0.129663 0.196356
O O13 0.985133 0.087627 0.228477
O O14 0.878325 0.000000 0.202703
O O15 0.917612 0.072438 0.979815
O O16 0.486330 0.708291 0.310098
O O17 0.395780 0.684814 0.533022
O O18 0.887022 0.253968 0.216574
O O19 0.590962 0.000000 0.744434
O O20 0.750000 0.778713 0.171159
#
# Coordination Sequence:
#
# PCOD8211091 Si02
#       8
#     8   8   8   8   8   8   8   8
#     4  10  20  38  63  89 113 141 180 227 277 327
#     4  10  20  33  52  77 108 148 186 225 276 331
#     4  10  21  38  61  87 114 145 181 223 273 328
#     4   8  14  27  48  75 107 141 177 226 286 335
#     4  11  23  38  54  79 111 146 188 226 271 332
#     4  11  24  37  56  82 110 146 185 230 278 325
#     4   8  14  26  47  76 106 137 180 230 276 327
#     4  10  21  34  52  81 111 144 188 233 277 331
#
# _framework density 18.920794000000001
#
# number of rings (size 3 to 8) (size 9 to 14) (size 15 to 20)
#    0.000    2.250    1.250    2.625    0.000    4.500 
#    0.000    3.750    0.000    2.250    0.000    5.250 
#    0.000    0.000    0.000    0.000    0.000    0.000 
#
# Total GULP energy -793611.963219 kJ/mol
# GULP energy per Si atom -12400.186925 kJ/mol
# Density = 1.887773 g / cm^3
# Si number density = 18.920794 Si / 1000 Ang^3
#
#
#
# Elastic Constant Matrix: (Units=GPa)
#
#
# Indices 1 2 3 4 5 6 
#
# 1 85.1672 45.7045 40.5285 0.0000 0.0000 0.0000
# 2 45.7045 121.0151 54.2213 0.0000 0.0000 0.0000
# 3 40.5285 54.2213 76.0491 0.0000 0.0000 0.0000
# 4 0.0000 0.0000 0.0000 2.6894 0.0000 0.0000
# 5 0.0000 0.0000 0.0000 0.0000 20.0480 0.0000
# 6 0.0000 0.0000 0.0000 0.0000 0.0000 30.0505
#
#
#
# Elastic Compliance Matrix: (Units=1/GPa)
#
#
# Indices 1 2 3 4 5 6 
#
# 1 0.016628 -0.003394 -0.006442 0.000000 0.000000 0.000000
# 2 -0.003394 0.012835 -0.007342 0.000000 0.000000 0.000000
# 3 -0.006442 -0.007342 0.021817 0.000000 0.000000 0.000000
# 4 0.000000 0.000000 0.000000 0.371833 0.000000 0.000000
# 5 0.000000 0.000000 0.000000 0.000000 0.049880 0.000000
# 6 0.000000 0.000000 0.000000 0.000000 0.000000 0.033277
#
#
# Mechanical properties :
#
#
# Convention : Reuss Voigt Hill
#
# Bulk Modulus (GPa) = 59.08608 62.57110 60.82859
# Shear Modulus (GPa) = 9.15300 20.00940 14.58120
#
# Velocity S-wave (km/s) = 2.20183 3.25550 2.77906
# Velocity P-wave (km/s) = 6.14491 6.87553 6.52046
#
# Compressibility (1/GPa) = 0.01692446
#
# Stress axis : x y z
#
# Youngs Moduli (GPa) = 60.13800 77.91208 45.83478
#
# Poissons Ratio (x) = 0.26442 0.29527
# Poissons Ratio (y) = 0.20410 0.33654
# Poissons Ratio (z) = 0.38741 0.57206
#
# Static dielectric constant tensor:
#      x y z
#    x 3.530000 0.000000 0.000000 
#    y 0.000000 3.746910 0.000000 
#    z 0.000000 0.000000 3.129500 
# 
# 
# High freq. dielectric constant tensor:
#      x y z
#    x 1.738050 0.000000 0.000000 
#    y 0.000000 1.749200 0.000000 
#    z 0.000000 0.000000 1.694680 
# 
# From -- ./inp_files/11203.got.cif
#   From: 2010.03.12/outbox.cif.g09.slc.cpg/sg51_6_cif.got.tgz:11203.got - 2010.04.16 13:43:02.
