data_PCOD8211643
_publ_section_title
;
Structure prediction by ZEFSAII (Michael W. Deem and Ramdas Pophale) SiO2 
 PCOD8211643
Probable space group: P M M A
;
_chemical_formula_sum "Si O2"
_cell_formula_units_Z 28
_cell_length_a 9.339547
_cell_length_b 7.885340
_cell_length_c 19.633509
_cell_angle_alpha 90.000000
_cell_angle_beta 90.000000
_cell_angle_gamma 90.000000
_cell_volume 1445.919657
_symmetry_space_group_name_H-M "P M M A"
_symmetry_group_IT_number 51
_symmetry_cell_setting 'orthorhombic'
loop_
_space_group_symop_operation_xyz
x,y,z
1/2-x,-y,z
1/2+x,-y,-z
-x,y,-z
-x,-y,-z
1/2+x,y,-z
1/2-x,y,z
x,-y,z
loop_
_atom_site_type_symbol
_atom_site_label
_atom_site_fract_x
_atom_site_fract_y
_atom_site_fract_z
Si Si1 0.419970 0.812137 0.162413
Si Si2 0.911124 0.801878 0.685117
Si Si3 0.579100 0.500000 0.928899
Si Si4 0.907598 0.304438 0.439226
O O1 0.250000 0.818225 0.163046
O O2 0.470537 0.765990 0.238808
O O3 0.474482 0.667920 0.110882
O O4 0.478206 0.000000 0.140946
O O5 0.750000 0.729109 0.676711
O O6 0.015556 0.710112 0.633150
O O7 0.911045 0.000000 0.669703
O O8 0.750000 0.500000 0.938721
O O9 0.500000 0.500000 0.000000
O O10 0.750000 0.218079 0.436316
O O11 0.887867 0.500000 0.456923
O O12 0.000000 0.217568 0.500000
#
# Coordination Sequence:
#
# PCOD8211643 Si02
#       4
#     8   8   4   8
#     4   8  16  32  53  78 106 136 175 217 257 310
#     4   9  18  33  54  78 100 128 171 218 262 310
#     4  10  20  34  54  80 107 140 175 210 257 308
#     4  10  21  35  50  72 102 137 175 215 260 310
#
# _framework density 19.364837999999999
#
# number of rings (size 3 to 8) (size 9 to 14) (size 15 to 20)
#    0.000    2.857    0.000    2.571    2.000    3.429 
#    0.000    1.429    0.000    1.714    0.000    0.000 
#    0.000    0.000    0.000    0.000    0.000    0.000 
#
# Total GULP energy -347060.841728 kJ/mol
# GULP energy per Si atom -12395.030062 kJ/mol
# Density = 1.932076 g / cm^3
# Si number density = 19.364838 Si / 1000 Ang^3
#
#
#
# Elastic Constant Matrix: (Units=GPa)
#
#
# Indices 1 2 3 4 5 6 
#
# 1 90.1618 30.2917 57.7020 0.0000 0.0000 0.0000
# 2 30.2917 83.1797 65.1855 0.0000 0.0000 0.0000
# 3 57.7020 65.1855 155.9655 0.0000 0.0000 0.0000
# 4 0.0000 0.0000 0.0000 12.1003 0.0000 0.0000
# 5 0.0000 0.0000 0.0000 0.0000 34.3250 0.0000
# 6 0.0000 0.0000 0.0000 0.0000 0.0000 14.5669
#
#
#
# Elastic Compliance Matrix: (Units=1/GPa)
#
#
# Indices 1 2 3 4 5 6 
#
# 1 0.014677 -0.001620 -0.004753 0.000000 0.000000 0.000000
# 2 -0.001620 0.018057 -0.006947 0.000000 0.000000 0.000000
# 3 -0.004753 -0.006947 0.011074 0.000000 0.000000 0.000000
# 4 0.000000 0.000000 0.000000 0.082643 0.000000 0.000000
# 5 0.000000 0.000000 0.000000 0.000000 0.029133 0.000000
# 6 0.000000 0.000000 0.000000 0.000000 0.000000 0.068649
#
#
# Mechanical properties :
#
#
# Convention : Reuss Voigt Hill
#
# Bulk Modulus (GPa) = 58.25260 70.62948 64.44104
# Shear Modulus (GPa) = 19.48588 23.94027 21.71308
#
# Velocity S-wave (km/s) = 3.17559 3.51989 3.35216
# Velocity P-wave (km/s) = 6.60248 7.28503 6.95214
#
# Compressibility (1/GPa) = 0.01716661
#
# Stress axis : x y z
#
# Youngs Moduli (GPa) = 68.13224 55.38138 90.30426
#
# Poissons Ratio (x) = 0.08974 0.42921
# Poissons Ratio (y) = 0.11040 0.62737
# Poissons Ratio (z) = 0.32383 0.38475
#
# Static dielectric constant tensor:
#      x y z
#    x 3.418280 0.000000 0.000000 
#    y 0.000000 3.704830 0.000000 
#    z 0.000000 0.000000 3.552840 
# 
# 
# High freq. dielectric constant tensor:
#      x y z
#    x 1.720250 0.000000 0.000000 
#    y 0.000000 1.749600 0.000000 
#    z 0.000000 0.000000 1.754460 
# 
# From -- ./inp_files/22724.got.cif
#   From: 2010.03.12/outbox.cif.g09.slc.cpg/sg51_12_cif.got.tgz:22724.got - 2010.04.16 13:43:02.
