data_PCOD8211319
_publ_section_title
;
Structure prediction by ZEFSAII (Michael W. Deem and Ramdas Pophale) SiO2 
 PCOD8211319
Probable space group: P M M A
;
_chemical_formula_sum "Si O2"
_cell_formula_units_Z 56
_cell_length_a 13.806952
_cell_length_b 9.303459
_cell_length_c 23.421578
_cell_angle_alpha 90.000000
_cell_angle_beta 90.000000
_cell_angle_gamma 90.000000
_cell_volume 3008.558183
_symmetry_space_group_name_H-M "P M M A"
_symmetry_group_IT_number 51
_symmetry_cell_setting 'orthorhombic'
loop_
_space_group_symop_operation_xyz
x,y,z
1/2-x,-y,z
1/2+x,-y,-z
-x,y,-z
-x,-y,-z
1/2+x,y,-z
1/2-x,y,z
x,-y,z
loop_
_atom_site_type_symbol
_atom_site_label
_atom_site_fract_x
_atom_site_fract_y
_atom_site_fract_z
Si Si1 0.861163 0.830285 0.345946
Si Si2 0.364700 0.159182 0.526752
Si Si3 0.856473 0.828897 0.027705
Si Si4 0.534979 0.670201 0.696054
Si Si5 0.045606 0.829483 0.086494
Si Si6 0.861905 0.333507 0.579521
Si Si7 0.863871 0.166572 0.796631
O O1 0.750000 0.792890 0.331545
O O2 0.888502 0.779042 0.410316
O O3 0.928342 0.741687 0.302205
O O4 0.879151 0.000000 0.339232
O O5 0.250000 0.155310 0.520510
O O6 0.409060 0.253632 0.475290
O O7 0.407926 0.000000 0.520357
O O8 0.750000 0.767399 0.043183
O O9 0.934465 0.778837 0.075389
O O10 0.854403 0.000000 0.025771
O O11 0.887815 0.770892 0.965254
O O12 0.527096 0.500000 0.704400
O O13 0.583508 0.714213 0.636393
O O14 0.601591 0.735746 0.744884
O O15 0.083399 0.771103 0.146886
O O16 0.052579 0.000000 0.087166
O O17 0.750000 0.291781 0.587864
O O18 0.874736 0.500000 0.566975
O O19 0.750000 0.185202 0.805157
O O20 0.890718 0.000000 0.785121
#
# Coordination Sequence:
#
# PCOD8211319 Si02
#       7
#     8   8   8   8   8   8   8
#     4   9  19  37  57  75  97 125 160 205 254 305
#     4   8  15  29  50  74  97 122 154 195 246 302
#     4   8  12  20  38  66 100 133 162 200 253 305
#     4  11  23  36  51  72  99 132 171 212 252 298
#     4   8  14  24  40  66  99 132 167 206 250 303
#     4   9  18  32  48  68  97 130 162 200 247 298
#     4  10  20  34  52  73  99 133 172 212 253 299
#
# _framework density 18.613568000000001
#
# number of rings (size 3 to 8) (size 9 to 14) (size 15 to 20)
#    0.000    3.000    0.000    3.000    0.000    5.143 
#    0.000    6.429    0.000    2.571    0.000    2.000 
#    0.000    1.143    0.000    0.000    0.000    0.000 
#
# Total GULP energy -694139.515094 kJ/mol
# GULP energy per Si atom -12395.348484 kJ/mol
# Density = 1.857120 g / cm^3
# Si number density = 18.613568 Si / 1000 Ang^3
#
#
#
# Elastic Constant Matrix: (Units=GPa)
#
#
# Indices 1 2 3 4 5 6 
#
# 1 107.4699 30.0382 47.8292 0.0000 0.0000 0.0000
# 2 30.0382 44.1452 32.6800 0.0000 0.0000 0.0000
# 3 47.8292 32.6800 78.5241 0.0000 0.0000 0.0000
# 4 0.0000 0.0000 0.0000 -12.1791 0.0000 0.0000
# 5 0.0000 0.0000 0.0000 0.0000 31.3459 0.0000
# 6 0.0000 0.0000 0.0000 0.0000 0.0000 14.8982
#
#
#
# Elastic Compliance Matrix: (Units=1/GPa)
#
#
# Indices 1 2 3 4 5 6 
#
# 1 0.013338 -0.004425 -0.006283 0.000000 0.000000 0.000000
# 2 -0.004425 0.034207 -0.011541 0.000000 0.000000 0.000000
# 3 -0.006283 -0.011541 0.021365 0.000000 0.000000 0.000000
# 4 0.000000 0.000000 0.000000 -0.082108 0.000000 0.000000
# 5 0.000000 0.000000 0.000000 0.000000 0.031902 0.000000
# 6 0.000000 0.000000 0.000000 0.000000 0.000000 0.067122
#
#
# Mechanical properties :
#
#
# Convention : Reuss Voigt Hill
#
# Bulk Modulus (GPa) = 40.96209 50.13709 45.54959
# Shear Modulus (GPa) = 36.11138 14.78578 25.44858
#
# Velocity S-wave (km/s) = 4.40939 2.82149 3.70159
# Velocity P-wave (km/s) = 6.92661 6.13259 6.54166
#
# Compressibility (1/GPa) = 0.02441282
#
# Stress axis : x y z
#
# Youngs Moduli (GPa) = 74.97564 29.23379 46.80581
#
# Poissons Ratio (x) = 0.12935 0.29406
# Poissons Ratio (y) = 0.33174 0.54019
# Poissons Ratio (z) = 0.47104 0.33739
#
# Static dielectric constant tensor:
#      x y z
#    x 3.598710 0.000000 0.000000 
#    y 0.000000 3.055500 0.000000 
#    z 0.000000 0.000000 3.484060 
# 
# 
# High freq. dielectric constant tensor:
#      x y z
#    x 1.734610 0.000000 0.000000 
#    y 0.000000 1.678990 0.000000 
#    z 0.000000 0.000000 1.710670 
# 
# From -- ./inp_files/33402.got.cif
#   From: 2010.03.12/outbox.cif.g09.slc.cpg/sg51_17_cif.got.tgz:33402.got - 2010.04.16 13:43:02.
