data_PCOD8211813
_publ_section_title
;
Structure prediction by ZEFSAII (Michael W. Deem and Ramdas Pophale) SiO2 
 PCOD8211813
Probable space group: P M M A
;
_chemical_formula_sum "Si O2"
_cell_formula_units_Z 64
_cell_length_a 8.763559
_cell_length_b 19.440523
_cell_length_c 20.688160
_cell_angle_alpha 90.000000
_cell_angle_beta 90.000000
_cell_angle_gamma 90.000000
_cell_volume 3524.603966
_symmetry_space_group_name_H-M "P M M A"
_symmetry_group_IT_number 51
_symmetry_cell_setting 'orthorhombic'
loop_
_space_group_symop_operation_xyz
x,y,z
1/2-x,-y,z
1/2+x,-y,-z
-x,y,-z
-x,-y,-z
1/2+x,y,-z
1/2-x,y,z
x,-y,z
loop_
_atom_site_type_symbol
_atom_site_label
_atom_site_fract_x
_atom_site_fract_y
_atom_site_fract_z
Si Si1 0.069475 0.713938 0.433043
Si Si2 0.928314 0.792795 0.315064
Si Si3 0.572820 0.922348 0.123366
Si Si4 0.572277 0.078166 0.738154
Si Si5 0.575166 0.576325 0.239347
Si Si6 0.426525 0.716937 0.817574
Si Si7 0.429963 0.425043 0.374971
Si Si8 0.929900 0.794485 0.934774
O O1 0.250000 0.716120 0.437640
O O2 0.007488 0.636061 0.420263
O O3 0.000000 0.740851 0.500000
O O4 0.018104 0.762675 0.375408
O O5 0.750000 0.787627 0.329256
O O6 0.973378 0.751814 0.250140
O O7 0.978352 0.872180 0.309011
O O8 0.750000 0.905950 0.135833
O O9 0.483465 0.909916 0.189348
O O10 0.503584 0.870276 0.071428
O O11 0.549533 0.000000 0.097786
O O12 0.750000 0.096592 0.735023
O O13 0.540773 0.000000 0.715941
O O14 0.750000 0.582695 0.262253
O O15 0.542169 0.500000 0.210202
O O16 0.540483 0.634914 0.186208
O O17 0.472935 0.590798 0.301409
O O18 0.250000 0.732472 0.833400
O O19 0.530077 0.746467 0.874306
O O20 0.250000 0.426597 0.378833
O O21 0.496871 0.500000 0.396440
O O22 0.750000 0.801044 0.941210
O O23 0.000000 0.761434 0.000000
#
# Coordination Sequence:
#
# PCOD8211813 Si02
#       8
#     8   8   8   8   8   8   8   8
#     4  11  23  37  54  77 111 149 190 233 278 330
#     4  11  21  35  58  84 112 146 184 228 277 326
#     4  10  20  35  55  80 112 148 185 224 268 321
#     4  10  20  34  55  84 114 144 182 227 273 321
#     4   9  17  31  54  82 110 141 178 223 273 324
#     4  10  20  35  56  83 113 143 182 228 274 326
#     4   9  18  32  50  75 108 145 184 226 270 321
#     4  12  25  39  57  79 110 148 187 229 277 329
#
# _framework density 18.158068
#
# number of rings (size 3 to 8) (size 9 to 14) (size 15 to 20)
#    0.000    1.750    2.500    2.625    0.000    3.500 
#    0.000    0.000    0.000    0.750    0.000    0.000 
#    0.000    0.000    0.000    0.000    0.000    0.000 
#
# Total GULP energy -793615.013817 kJ/mol
# GULP energy per Si atom -12400.234591 kJ/mol
# Density = 1.811674 g / cm^3
# Si number density = 18.158068 Si / 1000 Ang^3
#
#
#
# Elastic Constant Matrix: (Units=GPa)
#
#
# Indices 1 2 3 4 5 6 
#
# 1 41.1876 33.7347 21.5817 0.0000 0.0000 0.0000
# 2 33.7347 104.9885 47.2939 0.0000 0.0000 0.0000
# 3 21.5817 47.2939 88.1222 0.0000 0.0000 0.0000
# 4 0.0000 0.0000 0.0000 19.7475 0.0000 0.0000
# 5 0.0000 0.0000 0.0000 0.0000 28.8709 0.0000
# 6 0.0000 0.0000 0.0000 0.0000 0.0000 25.0579
#
#
#
# Elastic Compliance Matrix: (Units=1/GPa)
#
#
# Indices 1 2 3 4 5 6 
#
# 1 0.033627 -0.009357 -0.003214 0.000000 0.000000 0.000000
# 2 -0.009357 0.015166 -0.005847 0.000000 0.000000 0.000000
# 3 -0.003214 -0.005847 0.015273 0.000000 0.000000 0.000000
# 4 0.000000 0.000000 0.000000 0.050639 0.000000 0.000000
# 5 0.000000 0.000000 0.000000 0.000000 0.034637 0.000000
# 6 0.000000 0.000000 0.000000 0.000000 0.000000 0.039908
#
#
# Mechanical properties :
#
#
# Convention : Reuss Voigt Hill
#
# Bulk Modulus (GPa) = 36.72543 48.83545 42.78044
# Shear Modulus (GPa) = 21.26183 23.51446 22.38814
#
# Velocity S-wave (km/s) = 3.42560 3.60250 3.51516
# Velocity P-wave (km/s) = 5.99296 6.65259 6.33137
#
# Compressibility (1/GPa) = 0.02722909
#
# Stress axis : x y z
#
# Youngs Moduli (GPa) = 29.73784 65.93837 65.47436
#
# Poissons Ratio (x) = 0.61701 0.21040
# Poissons Ratio (y) = 0.27827 0.38286
# Poissons Ratio (z) = 0.09556 0.38557
#
# Static dielectric constant tensor:
#      x y z
#    x 3.376450 0.000000 0.000000 
#    y 0.000000 3.725320 0.000000 
#    z 0.000000 0.000000 3.080970 
# 
# 
# High freq. dielectric constant tensor:
#      x y z
#    x 1.710510 0.000000 0.000000 
#    y 0.000000 1.711320 0.000000 
#    z 0.000000 0.000000 1.673830 
# 
# From -- ./inp_files/28460.got.cif
#   From: 2010.03.12/outbox.cif.g09.slc.cpg/sg51_15_cif.got.tgz:28460.got - 2010.04.16 13:43:02.
