data_PCOD8211647
_publ_section_title
;
Structure prediction by ZEFSAII (Michael W. Deem and Ramdas Pophale) SiO2 
 PCOD8211647
Probable space group: P M M A
;
_chemical_formula_sum "Si O2"
_cell_formula_units_Z 64
_cell_length_a 18.427819
_cell_length_b 9.268944
_cell_length_c 20.345343
_cell_angle_alpha 90.000000
_cell_angle_beta 90.000000
_cell_angle_gamma 90.000000
_cell_volume 3475.115249
_symmetry_space_group_name_H-M "P M M A"
_symmetry_group_IT_number 51
_symmetry_cell_setting 'orthorhombic'
loop_
_space_group_symop_operation_xyz
x,y,z
1/2-x,-y,z
1/2+x,-y,-z
-x,y,-z
-x,-y,-z
1/2+x,y,-z
1/2-x,y,z
x,-y,z
loop_
_atom_site_type_symbol
_atom_site_label
_atom_site_fract_x
_atom_site_fract_y
_atom_site_fract_z
Si Si1 0.415585 0.670193 0.684579
Si Si2 0.582359 0.670353 0.688985
Si Si3 0.083296 0.832075 0.075021
Si Si4 0.581493 0.832257 0.075987
Si Si5 0.333150 0.668742 0.815343
Si Si6 0.333795 0.669312 0.184547
Si Si7 0.834296 0.666682 0.561704
Si Si8 0.834279 0.831373 0.430477
O O1 0.406178 0.500000 0.671764
O O2 0.498962 0.717187 0.690010
O O3 0.376987 0.719523 0.751420
O O4 0.380772 0.756547 0.625362
O O5 0.591792 0.500000 0.689937
O O6 0.621952 0.733691 0.753432
O O7 0.620408 0.729196 0.623080
O O8 0.139222 0.742654 0.118134
O O9 0.000971 0.784878 0.091502
O O10 0.093843 0.000000 0.089860
O O11 0.100759 0.798046 0.999316
O O12 0.636859 0.745085 0.120350
O O13 0.591364 0.000000 0.090965
O O14 0.250000 0.713273 0.804824
O O15 0.342420 0.500000 0.826558
O O16 0.250000 0.706408 0.195719
O O17 0.347013 0.500000 0.176941
O O18 0.750000 0.684576 0.579031
O O19 0.853300 0.500000 0.546570
O O20 0.857151 0.761411 0.499432
O O21 0.750000 0.801793 0.415750
O O22 0.852124 0.000000 0.432902
#
# Coordination Sequence:
#
# PCOD8211647 Si02
#       8
#     8   8   8   8   8   8   8   8
#     4  10  20  35  55  76 101 135 172 209 252 304
#     4   9  18  33  54  79 104 132 170 213 253 297
#     4   9  19  36  55  76 104 137 174 214 256 306
#     4   9  19  36  56  76 101 137 177 214 255 306
#     4  10  21  35  52  77 107 136 170 215 262 307
#     4  10  20  34  54  80 108 137 171 212 257 306
#     4   9  17  32  55  78 101 133 170 206 247 298
#     4  10  21  36  53  75 104 135 168 209 254 300
#
# _framework density 18.416654999999999
#
# number of rings (size 3 to 8) (size 9 to 14) (size 15 to 20)
#    0.000    2.500    0.000    2.625    0.000    6.750 
#    0.000    8.125    0.000    1.500    0.000    0.000 
#    0.000    0.000    0.000    0.000    0.000    0.000 
#
# Total GULP energy -793767.464921 kJ/mol
# GULP energy per Si atom -12402.616639 kJ/mol
# Density = 1.837474 g / cm^3
# Si number density = 18.416655 Si / 1000 Ang^3
#
#
#
# Elastic Constant Matrix: (Units=GPa)
#
#
# Indices 1 2 3 4 5 6 
#
# 1 124.9694 54.8742 94.6927 0.0000 0.0000 0.0000
# 2 54.8742 51.1772 56.3847 0.0000 0.0000 0.0000
# 3 94.6927 56.3847 148.3222 0.0000 0.0000 0.0000
# 4 0.0000 0.0000 0.0000 -28.6290 0.0000 0.0000
# 5 0.0000 0.0000 0.0000 0.0000 42.9216 0.0000
# 6 0.0000 0.0000 0.0000 0.0000 0.0000 25.6425
#
#
#
# Elastic Compliance Matrix: (Units=1/GPa)
#
#
# Indices 1 2 3 4 5 6 
#
# 1 0.019035 -0.012081 -0.007560 0.000000 0.000000 0.000000
# 2 -0.012081 0.041289 -0.007983 0.000000 0.000000 0.000000
# 3 -0.007560 -0.007983 0.014603 0.000000 0.000000 0.000000
# 4 0.000000 0.000000 0.000000 -0.034930 0.000000 0.000000
# 5 0.000000 0.000000 0.000000 0.000000 0.023298 0.000000
# 6 0.000000 0.000000 0.000000 0.000000 0.000000 0.038998
#
#
# Mechanical properties :
#
#
# Convention : Reuss Voigt Hill
#
# Bulk Modulus (GPa) = 50.81465 81.81910 66.31688
# Shear Modulus (GPa) = 30.46877 15.88817 23.17847
#
# Velocity S-wave (km/s) = 4.07186 2.94037 3.55147
# Velocity P-wave (km/s) = 7.05396 7.48671 7.27355
#
# Compressibility (1/GPa) = 0.01967936
#
# Stress axis : x y z
#
# Youngs Moduli (GPa) = 52.53457 24.21932 68.47740
#
# Poissons Ratio (x) = 0.29259 0.51768
# Poissons Ratio (y) = 0.63467 0.54668
# Poissons Ratio (z) = 0.39716 0.19335
#
# Static dielectric constant tensor:
#      x y z
#    x 3.492070 0.000000 0.000000 
#    y 0.000000 3.159270 0.000000 
#    z 0.000000 0.000000 3.486390 
# 
# 
# High freq. dielectric constant tensor:
#      x y z
#    x 1.719490 0.000000 0.000000 
#    y 0.000000 1.692900 0.000000 
#    z 0.000000 0.000000 1.726900 
# 
# From -- ./inp_files/33863.got.cif
#   From: 2010.03.12/outbox.cif.g09.slc.cpg/sg51_17_cif.got.tgz:33863.got - 2010.04.16 13:43:02.
