data_PCOD8211173
_publ_section_title
;
Structure prediction by ZEFSAII (Michael W. Deem and Ramdas Pophale) SiO2 
 PCOD8211173
Probable space group: P M M A
;
_chemical_formula_sum "Si O2"
_cell_formula_units_Z 56
_cell_length_a 20.136181
_cell_length_b 9.119997
_cell_length_c 15.005557
_cell_angle_alpha 90.000000
_cell_angle_beta 90.000000
_cell_angle_gamma 90.000000
_cell_volume 2755.649153
_symmetry_space_group_name_H-M "P M M A"
_symmetry_group_IT_number 51
_symmetry_cell_setting 'orthorhombic'
loop_
_space_group_symop_operation_xyz
x,y,z
1/2-x,-y,z
1/2+x,-y,-z
-x,y,-z
-x,-y,-z
1/2+x,y,-z
1/2-x,y,z
x,-y,z
loop_
_atom_site_type_symbol
_atom_site_label
_atom_site_fract_x
_atom_site_fract_y
_atom_site_fract_z
Si Si1 0.926361 0.842670 0.516420
Si Si2 0.750000 0.663934 0.564236
Si Si3 0.750000 0.173598 0.379596
Si Si4 0.584529 0.326581 0.866681
Si Si5 0.826517 0.325182 0.029207
Si Si6 0.062574 0.327636 0.836072
Si Si7 0.382240 0.667285 0.328911
Si Si8 0.121431 0.327729 0.651807
O O1 0.929364 0.771067 0.613920
O O2 0.901153 0.724718 0.445341
O O3 0.000000 0.888171 0.500000
O O4 0.886222 0.000000 0.512443
O O5 0.750000 0.500000 0.523245
O O6 0.750000 0.778071 0.483511
O O7 0.689583 0.689727 0.629823
O O8 0.811859 0.239926 0.325989
O O9 0.750000 0.000000 0.373376
O O10 0.580698 0.500000 0.877119
O O11 0.634110 0.264384 0.942160
O O12 0.508294 0.263732 0.871745
O O13 0.617135 0.280429 0.772998
O O14 0.750000 0.263943 0.033983
O O15 0.822496 0.500000 0.027772
O O16 0.872357 0.267555 0.111405
O O17 0.060909 0.500000 0.851245
O O18 0.069332 0.291192 0.730668
O O19 0.407782 0.500000 0.335350
O O20 0.136000 0.500000 0.646202
#
# Coordination Sequence:
#
# PCOD8211173 Si02
#       8
#     8   4   4   8   8   8   8   8
#     4  11  23  37  53  77 111 148 188 235 284 338
#     4  10  20  34  52  77 106 142 184 231 282 335
#     4  12  24  38  56  79 112 150 190 233 290 345
#     4   9  17  30  49  75 108 146 185 228 282 340
#     4   9  17  28  46  74 111 148 179 222 284 346
#     4   9  18  31  49  75 108 146 186 228 278 338
#     4  10  20  33  53  78 108 142 184 231 281 338
#     4  11  22  36  57  81 110 148 193 237 281 336
#
# _framework density 20.32189
#
# number of rings (size 3 to 8) (size 9 to 14) (size 15 to 20)
#    0.000    2.000    1.429    2.786    2.000    4.000 
#    0.000    0.000    0.000    0.000    0.000    2.000 
#    0.000    8.000    0.000    0.000    0.000    0.000 
#
# Total GULP energy -693853.680942 kJ/mol
# GULP energy per Si atom -12390.244303 kJ/mol
# Density = 2.027564 g / cm^3
# Si number density = 20.321890 Si / 1000 Ang^3
#
#
#
# Elastic Constant Matrix: (Units=GPa)
#
#
# Indices 1 2 3 4 5 6 
#
# 1 101.4421 19.2610 23.8912 0.0000 0.0000 0.0000
# 2 19.2610 73.2275 27.1348 0.0000 0.0000 0.0000
# 3 23.8912 27.1348 109.5165 0.0000 0.0000 0.0000
# 4 0.0000 0.0000 0.0000 1.9866 0.0000 0.0000
# 5 0.0000 0.0000 0.0000 0.0000 37.3095 0.0000
# 6 0.0000 0.0000 0.0000 0.0000 0.0000 13.2205
#
#
#
# Elastic Compliance Matrix: (Units=1/GPa)
#
#
# Indices 1 2 3 4 5 6 
#
# 1 0.010689 -0.002144 -0.001801 0.000000 0.000000 0.000000
# 2 -0.002144 0.015467 -0.003364 0.000000 0.000000 0.000000
# 3 -0.001801 -0.003364 0.010357 0.000000 0.000000 0.000000
# 4 0.000000 0.000000 0.000000 0.503363 0.000000 0.000000
# 5 0.000000 0.000000 0.000000 0.000000 0.026803 0.000000
# 6 0.000000 0.000000 0.000000 0.000000 0.000000 0.075640
#
#
# Mechanical properties :
#
#
# Convention : Reuss Voigt Hill
#
# Bulk Modulus (GPa) = 45.67314 47.19560 46.43437
# Shear Modulus (GPa) = 7.52744 24.76325 16.14535
#
# Velocity S-wave (km/s) = 1.92669 3.49456 2.82171
# Velocity P-wave (km/s) = 5.24149 6.28944 5.78922
#
# Compressibility (1/GPa) = 0.02189471
#
# Stress axis : x y z
#
# Youngs Moduli (GPa) = 93.55376 64.65462 96.54910
#
# Poissons Ratio (x) = 0.13864 0.17384
# Poissons Ratio (y) = 0.20061 0.32483
# Poissons Ratio (z) = 0.16845 0.21752
#
# Static dielectric constant tensor:
#      x y z
#    x 4.156710 0.000000 0.000000 
#    y 0.000000 3.201270 0.000000 
#    z 0.000000 0.000000 3.874260 
# 
# 
# High freq. dielectric constant tensor:
#      x y z
#    x 1.809590 0.000000 0.000000 
#    y 0.000000 1.737800 0.000000 
#    z 0.000000 0.000000 1.797020 
# 
# From -- ./inp_files/25867.got.cif
#   From: 2010.03.12/outbox.cif.g09.slc.cpg/sg51_13_cif.got.tgz:25867.got - 2010.04.16 13:43:02.
