data_PCOD8211314
_publ_section_title
;
Structure prediction by ZEFSAII (Michael W. Deem and Ramdas Pophale) SiO2 
 PCOD8211314
Probable space group: P M M A
;
_chemical_formula_sum "Si O2"
_cell_formula_units_Z 48
_cell_length_a 8.766350
_cell_length_b 30.844718
_cell_length_c 9.601781
_cell_angle_alpha 90.000000
_cell_angle_beta 90.000000
_cell_angle_gamma 90.000000
_cell_volume 2596.279273
_symmetry_space_group_name_H-M "P M M A"
_symmetry_group_IT_number 51
_symmetry_cell_setting 'orthorhombic'
loop_
_space_group_symop_operation_xyz
x,y,z
1/2-x,-y,z
1/2+x,-y,-z
-x,y,-z
-x,-y,-z
1/2+x,y,-z
1/2-x,y,z
x,-y,z
loop_
_atom_site_type_symbol
_atom_site_label
_atom_site_fract_x
_atom_site_fract_y
_atom_site_fract_z
Si Si1 0.929840 0.194941 0.351574
Si Si2 0.931640 0.285035 0.649459
Si Si3 0.430175 0.639288 0.151300
Si Si4 0.927263 0.949354 0.644359
Si Si5 0.070722 0.454246 0.150769
Si Si6 0.070922 0.116256 0.849026
O O1 0.750000 0.201298 0.369765
O O2 0.971733 0.158309 0.240747
O O3 0.000000 0.181557 0.500000
O O4 0.004102 0.239320 0.295206
O O5 0.750000 0.282934 0.641274
O O6 0.992332 0.322891 0.749984
O O7 0.000000 0.295686 0.500000
O O8 0.250000 0.642952 0.136485
O O9 0.477919 0.592014 0.219079
O O10 0.500000 0.645791 0.000000
O O11 0.750000 0.938062 0.639206
O O12 0.000000 0.932660 0.500000
O O13 0.003208 0.926037 0.775257
O O14 0.958669 0.000000 0.664808
O O15 0.250000 0.453890 0.131991
O O16 0.022396 0.500000 0.229093
O O17 0.000000 0.455270 0.000000
O O18 0.250000 0.109887 0.863833
O O19 0.000000 0.122125 0.000000
#
# Coordination Sequence:
#
# PCOD8211314 Si02
#       6
#     8   8   8   8   8   8
#     4  10  21  37  57  79 101 131 172 213 255 304
#     4  10  20  34  52  73  98 130 167 206 249 299
#     4   9  18  30  46  71  98 125 160 201 247 297
#     4  10  21  38  61  87 114 146 184 223 261 306
#     4   8  13  23  40  62  89 120 154 194 239 287
#     4  11  24  39  57  82 112 145 178 217 265 313
#
# _framework density 18.487995000000002
#
# number of rings (size 3 to 8) (size 9 to 14) (size 15 to 20)
#    0.000    2.333    0.000    3.500    0.000    7.333 
#    0.000    3.333    0.000    0.500    0.000    0.000 
#    0.000    0.000    0.000    0.000    0.000    0.667 
#
# Total GULP energy -594849.737403 kJ/mol
# GULP energy per Si atom -12392.702863 kJ/mol
# Density = 1.844592 g / cm^3
# Si number density = 18.487995 Si / 1000 Ang^3
#
#
#
# Elastic Constant Matrix: (Units=GPa)
#
#
# Indices 1 2 3 4 5 6 
#
# 1 72.9230 59.8256 44.9825 0.0000 0.0000 0.0000
# 2 59.8256 140.4435 80.4624 0.0000 0.0000 0.0000
# 3 44.9825 80.4624 102.2305 0.0000 0.0000 0.0000
# 4 0.0000 0.0000 0.0000 27.7697 0.0000 0.0000
# 5 0.0000 0.0000 0.0000 0.0000 28.5770 0.0000
# 6 0.0000 0.0000 0.0000 0.0000 0.0000 23.6351
#
#
#
# Elastic Compliance Matrix: (Units=1/GPa)
#
#
# Indices 1 2 3 4 5 6 
#
# 1 0.022028 -0.006976 -0.004202 0.000000 0.000000 0.000000
# 2 -0.006976 0.015177 -0.008876 0.000000 0.000000 0.000000
# 3 -0.004202 -0.008876 0.018617 0.000000 0.000000 0.000000
# 4 0.000000 0.000000 0.000000 0.036010 0.000000 0.000000
# 5 0.000000 0.000000 0.000000 0.000000 0.034993 0.000000
# 6 0.000000 0.000000 0.000000 0.000000 0.000000 0.042310
#
#
# Mechanical properties :
#
#
# Convention : Reuss Voigt Hill
#
# Bulk Modulus (GPa) = 63.63717 76.23756 69.93737
# Shear Modulus (GPa) = 23.31205 24.68480 23.99842
#
# Velocity S-wave (km/s) = 3.55481 3.65798 3.60676
# Velocity P-wave (km/s) = 7.16550 7.69200 7.43341
#
# Compressibility (1/GPa) = 0.01571409
#
# Stress axis : x y z
#
# Youngs Moduli (GPa) = 45.39627 65.88882 53.71551
#
# Poissons Ratio (x) = 0.45965 0.22571
# Poissons Ratio (y) = 0.31669 0.47677
# Poissons Ratio (z) = 0.19075 0.58482
#
# Static dielectric constant tensor:
#      x y z
#    x 3.452210 0.000000 0.000000 
#    y 0.000000 4.053330 0.000000 
#    z 0.000000 0.000000 3.183480 
# 
# 
# High freq. dielectric constant tensor:
#      x y z
#    x 1.726030 0.000000 0.000000 
#    y 0.000000 1.743600 0.000000 
#    z 0.000000 0.000000 1.685670 
# 
# From -- ./inp_files/6091.got.cif
#   From: 2010.03.12/outbox.cif.g09.slc.cpg/sg51_4_cif.got.tgz:6091.got - 2010.04.16 13:43:02.
