data_PCOD8211834
_publ_section_title
;
Structure prediction by ZEFSAII (Michael W. Deem and Ramdas Pophale) SiO2 
 PCOD8211834
Probable space group: P M M A
;
_chemical_formula_sum "Si O2"
_cell_formula_units_Z 40
_cell_length_a 14.911169
_cell_length_b 14.695447
_cell_length_c 8.819810
_cell_angle_alpha 90.000000
_cell_angle_beta 90.000000
_cell_angle_gamma 90.000000
_cell_volume 1932.652277
_symmetry_space_group_name_H-M "P M M A"
_symmetry_group_IT_number 51
_symmetry_cell_setting 'orthorhombic'
loop_
_space_group_symop_operation_xyz
x,y,z
1/2-x,-y,z
1/2+x,-y,-z
-x,y,-z
-x,-y,-z
1/2+x,y,-z
1/2-x,y,z
x,-y,z
loop_
_atom_site_type_symbol
_atom_site_label
_atom_site_fract_x
_atom_site_fract_y
_atom_site_fract_z
Si Si1 0.651977 0.097603 0.205971
Si Si2 0.501729 0.606418 0.823399
Si Si3 0.854112 0.265645 0.698431
Si Si4 0.644875 0.721360 0.342061
Si Si5 0.411943 0.101770 0.101640
O O1 0.750000 0.093154 0.280866
O O2 0.602548 0.183756 0.279440
O O3 0.601771 0.000000 0.238077
O O4 0.665547 0.110368 0.024789
O O5 0.505047 0.500000 0.791965
O O6 0.594385 0.648396 0.765448
O O7 0.413812 0.642614 0.735004
O O8 0.500000 0.630294 0.000000
O O9 0.750000 0.272078 0.743273
O O10 0.868461 0.273215 0.520071
O O11 0.896344 0.171913 0.761704
O O12 0.750000 0.707333 0.297754
O O13 0.415036 0.000000 0.172260
O O14 0.500000 0.123603 0.000000
#
# Coordination Sequence:
#
# PCOD8211834 Si02
#       5
#     8   8   8   8   8
#     4   9  17  31  52  78 112 154 194 232 277 333
#     4  11  25  44  65  87 113 150 198 253 309 365
#     4  11  23  38  60  90 123 160 200 246 303 365
#     4  10  22  39  61  91 124 158 197 245 305 369
#     4  10  20  34  55  85 121 162 206 247 289 342
#
# _framework density 20.696946000000001
#
# number of rings (size 3 to 8) (size 9 to 14) (size 15 to 20)
#    0.000    1.800    0.000    4.200    0.000    6.800 
#    0.000    6.000    0.000    6.000    0.000    0.000 
#    0.000    0.000    0.000    0.000    0.000    0.000 
#
# Total GULP energy -495602.933441 kJ/mol
# GULP energy per Si atom -12390.073336 kJ/mol
# Density = 2.064984 g / cm^3
# Si number density = 20.696946 Si / 1000 Ang^3
#
#
#
# Elastic Constant Matrix: (Units=GPa)
#
#
# Indices 1 2 3 4 5 6 
#
# 1 121.2801 65.5731 55.8241 0.0000 0.0000 0.0000
# 2 65.5731 144.0233 79.3067 0.0000 0.0000 0.0000
# 3 55.8241 79.3067 117.8130 0.0000 0.0000 0.0000
# 4 0.0000 0.0000 0.0000 15.8855 0.0000 0.0000
# 5 0.0000 0.0000 0.0000 0.0000 33.1713 0.0000
# 6 0.0000 0.0000 0.0000 0.0000 0.0000 20.9342
#
#
#
# Elastic Compliance Matrix: (Units=1/GPa)
#
#
# Indices 1 2 3 4 5 6 
#
# 1 0.011603 -0.003584 -0.003086 0.000000 0.000000 0.000000
# 2 -0.003584 0.012140 -0.006474 0.000000 0.000000 0.000000
# 3 -0.003086 -0.006474 0.014308 0.000000 0.000000 0.000000
# 4 0.000000 0.000000 0.000000 0.062950 0.000000 0.000000
# 5 0.000000 0.000000 0.000000 0.000000 0.030147 0.000000
# 6 0.000000 0.000000 0.000000 0.000000 0.000000 0.047769
#
#
# Mechanical properties :
#
#
# Convention : Reuss Voigt Hill
#
# Bulk Modulus (GPa) = 85.00079 87.16936 86.08507
# Shear Modulus (GPa) = 23.90912 26.15904 25.03408
#
# Velocity S-wave (km/s) = 3.40251 3.55901 3.48164
# Velocity P-wave (km/s) = 7.52293 7.68747 7.60564
#
# Compressibility (1/GPa) = 0.01176460
#
# Stress axis : x y z
#
# Youngs Moduli (GPa) = 86.18199 82.37296 69.89076
#
# Poissons Ratio (x) = 0.29521 0.21565
# Poissons Ratio (y) = 0.30886 0.45247
# Poissons Ratio (z) = 0.26592 0.53327
#
# Static dielectric constant tensor:
#      x y z
#    x 3.947250 0.000000 0.000000 
#    y 0.000000 3.844330 0.000000 
#    z 0.000000 0.000000 3.774280 
# 
# 
# High freq. dielectric constant tensor:
#      x y z
#    x 1.820480 0.000000 0.000000 
#    y 0.000000 1.813070 0.000000 
#    z 0.000000 0.000000 1.802690 
# 
# From -- ./inp_files/7903.got.cif
#   From: 2010.03.12/outbox.cif.g09.slc.cpg/sg51_4_cif.got.tgz:7903.got - 2010.04.16 13:43:02.
