data_PCOD8211128
_publ_section_title
;
Structure prediction by ZEFSAII (Michael W. Deem and Ramdas Pophale) SiO2 
 PCOD8211128
Probable space group: P M M A
;
_chemical_formula_sum "Si O2"
_cell_formula_units_Z 64
_cell_length_a 18.178259
_cell_length_b 8.934610
_cell_length_c 21.434132
_cell_angle_alpha 90.000000
_cell_angle_beta 90.000000
_cell_angle_gamma 90.000000
_cell_volume 3481.238581
_symmetry_space_group_name_H-M "P M M A"
_symmetry_group_IT_number 51
_symmetry_cell_setting 'orthorhombic'
loop_
_space_group_symop_operation_xyz
x,y,z
1/2-x,-y,z
1/2+x,-y,-z
-x,y,-z
-x,-y,-z
1/2+x,y,-z
1/2-x,y,z
x,-y,z
loop_
_atom_site_type_symbol
_atom_site_label
_atom_site_fract_x
_atom_site_fract_y
_atom_site_fract_z
Si Si1 0.476457 0.323819 0.433418
Si Si2 0.462321 0.827316 0.683113
Si Si3 0.110709 0.174651 0.249260
Si Si4 0.833789 0.827803 0.227926
Si Si5 0.336191 0.330206 0.898830
Si Si6 0.168594 0.327436 0.366973
Si Si7 0.084604 0.174873 0.009119
Si Si8 0.665527 0.322623 0.875833
O O1 0.500000 0.253669 0.500000
O O2 0.485017 0.500000 0.435977
O O3 0.531118 0.265518 0.380259
O O4 0.392284 0.275938 0.417593
O O5 0.526771 0.788395 0.732127
O O6 0.384817 0.783891 0.713947
O O7 0.466469 0.000000 0.664344
O O8 0.163661 0.229589 0.304542
O O9 0.129081 0.261539 0.186651
O O10 0.123860 0.000000 0.237817
O O11 0.750000 0.800354 0.248914
O O12 0.855695 0.722815 0.170553
O O13 0.846850 0.000000 0.208031
O O14 0.250000 0.319832 0.911451
O O15 0.364423 0.500000 0.907805
O O16 0.374754 0.218326 0.945959
O O17 0.250000 0.304393 0.396020
O O18 0.155185 0.500000 0.348313
O O19 0.118726 0.265127 0.066177
O O20 0.094828 0.000000 0.022399
O O21 0.000000 0.218709 0.000000
O O22 0.750000 0.267683 0.881516
O O23 0.661705 0.500000 0.874873
#
# Coordination Sequence:
#
# PCOD8211128 Si02
#       8
#     8   8   8   8   8   8   8   8
#     4   9  18  33  52  75 104 139 177 214 257 310
#     4   9  19  34  53  78 107 138 174 216 259 307
#     4  10  20  33  52  79 109 138 171 216 264 312
#     4   9  18  34  56  79 105 139 177 218 264 313
#     4  10  21  37  57  81 107 136 174 220 268 319
#     4   9  17  31  51  74 102 137 177 217 257 307
#     4  11  25  41  57  78 105 138 178 222 265 315
#     4  11  24  40  57  79 108 140 175 216 264 319
#
# _framework density 18.384260999999999
#
# number of rings (size 3 to 8) (size 9 to 14) (size 15 to 20)
#    0.000    2.250    0.000    2.250    1.750    7.250 
#    0.000    0.625    0.000    0.750    0.000    0.000 
#    0.000    0.000    0.000    0.000    0.000    0.000 
#
# Total GULP energy -793722.141718 kJ/mol
# GULP energy per Si atom -12401.908464 kJ/mol
# Density = 1.834242 g / cm^3
# Si number density = 18.384261 Si / 1000 Ang^3
#
#
#
# Elastic Constant Matrix: (Units=GPa)
#
#
# Indices 1 2 3 4 5 6 
#
# 1 98.0604 33.6258 79.9766 0.0000 0.0000 0.0000
# 2 33.6258 46.2607 35.5377 0.0000 0.0000 0.0000
# 3 79.9766 35.5377 124.6531 0.0000 0.0000 0.0000
# 4 0.0000 0.0000 0.0000 38.3652 0.0000 0.0000
# 5 0.0000 0.0000 0.0000 0.0000 24.5113 0.0000
# 6 0.0000 0.0000 0.0000 0.0000 0.0000 25.2121
#
#
#
# Elastic Compliance Matrix: (Units=1/GPa)
#
#
# Indices 1 2 3 4 5 6 
#
# 1 0.022986 -0.006887 -0.012784 0.000000 0.000000 0.000000
# 2 -0.006887 0.029742 -0.004061 0.000000 0.000000 0.000000
# 3 -0.012784 -0.004061 0.017382 0.000000 0.000000 0.000000
# 4 0.000000 0.000000 0.000000 0.026065 0.000000 0.000000
# 5 0.000000 0.000000 0.000000 0.000000 0.040797 0.000000
# 6 0.000000 0.000000 0.000000 0.000000 0.000000 0.039663
#
#
# Mechanical properties :
#
#
# Convention : Reuss Voigt Hill
#
# Bulk Modulus (GPa) = 44.15690 63.02826 53.59258
# Shear Modulus (GPa) = 21.58438 25.60667 23.59552
#
# Velocity S-wave (km/s) = 3.43019 3.73615 3.58643
# Velocity P-wave (km/s) = 6.30549 7.27805 6.80916
#
# Compressibility (1/GPa) = 0.02264652
#
# Stress axis : x y z
#
# Youngs Moduli (GPa) = 43.50461 33.62250 57.53024
#
# Poissons Ratio (x) = 0.23156 0.73548
# Poissons Ratio (y) = 0.29962 0.23360
# Poissons Ratio (z) = 0.55617 0.13653
#
# Static dielectric constant tensor:
#      x y z
#    x 3.562850 0.000000 0.000000 
#    y 0.000000 3.453610 0.000000 
#    z 0.000000 0.000000 3.602050 
# 
# 
# High freq. dielectric constant tensor:
#      x y z
#    x 1.718720 0.000000 0.000000 
#    y 0.000000 1.716020 0.000000 
#    z 0.000000 0.000000 1.704560 
# 
# From -- ./inp_files/33749.got.cif
#   From: 2010.03.12/outbox.cif.g09.slc.cpg/sg51_17_cif.got.tgz:33749.got - 2010.04.16 13:43:02.
