data_PCOD8211028
_publ_section_title
;
Structure prediction by ZEFSAII (Michael W. Deem and Ramdas Pophale) SiO2 
 PCOD8211028
Probable space group: P M M A
;
_chemical_formula_sum "Si O2"
_cell_formula_units_Z 48
_cell_length_a 18.923909
_cell_length_b 9.026815
_cell_length_c 15.425487
_cell_angle_alpha 90.000000
_cell_angle_beta 90.000000
_cell_angle_gamma 90.000000
_cell_volume 2635.022191
_symmetry_space_group_name_H-M "P M M A"
_symmetry_group_IT_number 51
_symmetry_cell_setting 'orthorhombic'
loop_
_space_group_symop_operation_xyz
x,y,z
1/2-x,-y,z
1/2+x,-y,-z
-x,y,-z
-x,-y,-z
1/2+x,y,-z
1/2-x,y,z
x,-y,z
loop_
_atom_site_type_symbol
_atom_site_label
_atom_site_fract_x
_atom_site_fract_y
_atom_site_fract_z
Si Si1 0.833862 0.836210 0.491577
Si Si2 0.167421 0.828168 0.314980
Si Si3 0.078099 0.824779 0.818833
Si Si4 0.166211 0.331914 0.675257
Si Si5 0.071867 0.674383 0.177484
Si Si6 0.416490 0.162980 0.008398
O O1 0.750000 0.842963 0.491519
O O2 0.858428 0.787447 0.587578
O O3 0.861436 0.722330 0.418875
O O4 0.863772 0.000000 0.469923
O O5 0.250000 0.795790 0.303689
O O6 0.126279 0.720721 0.251145
O O7 0.150753 0.000000 0.294819
O O8 0.134000 0.770952 0.748891
O O9 0.003028 0.748582 0.802679
O O10 0.066702 0.000000 0.811515
O O11 0.110468 0.783152 0.913751
O O12 0.250000 0.317351 0.681348
O O13 0.140843 0.500000 0.688162
O O14 0.061910 0.500000 0.176757
O O15 0.104313 0.723967 0.084484
O O16 0.385535 0.000000 0.031243
O O17 0.500000 0.151578 0.000000
#
# Coordination Sequence:
#
# PCOD8211028 Si02
#       6
#     8   8   8   8   8   8
#     4   8  15  30  52  74  96 129 171 206 240 291
#     4   9  18  34  55  76 100 133 172 210 245 289
#     4  10  20  35  55  75  98 132 173 211 244 290
#     4  10  20  33  51  77 107 134 161 202 255 303
#     4  11  21  32  51  78 106 133 162 204 256 304
#     4   8  16  32  52  72  95 129 171 207 242 292
#
# _framework density 18.216166000000001
#
# number of rings (size 3 to 8) (size 9 to 14) (size 15 to 20)
#    0.000    2.667    0.000    4.500    0.000    5.667 
#    0.000    3.333    0.000    6.000    0.000    0.000 
#    0.000    0.000    0.000    0.000    0.000    0.000 
#
# Total GULP energy -595011.469740 kJ/mol
# GULP energy per Si atom -12396.072286 kJ/mol
# Density = 1.817471 g / cm^3
# Si number density = 18.216166 Si / 1000 Ang^3
#
#
#
# Elastic Constant Matrix: (Units=GPa)
#
#
# Indices 1 2 3 4 5 6 
#
# 1 31.8364 34.2246 37.4085 0.0000 0.0000 0.0000
# 2 34.2246 119.4240 73.9913 0.0000 0.0000 0.0000
# 3 37.4085 73.9913 151.0678 0.0000 0.0000 0.0000
# 4 0.0000 0.0000 0.0000 14.3337 0.0000 0.0000
# 5 0.0000 0.0000 0.0000 0.0000 28.5908 0.0000
# 6 0.0000 0.0000 0.0000 0.0000 0.0000 24.5368
#
#
#
# Elastic Compliance Matrix: (Units=1/GPa)
#
#
# Indices 1 2 3 4 5 6 
#
# 1 0.051195 -0.009787 -0.007884 0.000000 0.000000 0.000000
# 2 -0.009787 0.013893 -0.004381 0.000000 0.000000 0.000000
# 3 -0.007884 -0.004381 0.010717 0.000000 0.000000 0.000000
# 4 0.000000 0.000000 0.000000 0.069765 0.000000 0.000000
# 5 0.000000 0.000000 0.000000 0.000000 0.034976 0.000000
# 6 0.000000 0.000000 0.000000 0.000000 0.000000 0.040755
#
#
# Mechanical properties :
#
#
# Convention : Reuss Voigt Hill
#
# Bulk Modulus (GPa) = 31.54374 65.95298 48.74836
# Shear Modulus (GPa) = 18.11771 23.93920 21.02846
#
# Velocity S-wave (km/s) = 3.15714 3.62909 3.40131
# Velocity P-wave (km/s) = 5.53570 7.33789 6.49957
#
# Compressibility (1/GPa) = 0.03170201
#
# Stress axis : x y z
#
# Youngs Moduli (GPa) = 19.53301 71.98102 93.30552
#
# Poissons Ratio (x) = 0.70448 0.73560
# Poissons Ratio (y) = 0.19117 0.40876
# Poissons Ratio (z) = 0.15399 0.31534
#
# Static dielectric constant tensor:
#      x y z
#    x 2.928360 0.000000 0.000000 
#    y 0.000000 3.437950 0.000000 
#    z 0.000000 0.000000 3.860930 
# 
# 
# High freq. dielectric constant tensor:
#      x y z
#    x 1.661170 0.000000 0.000000 
#    y 0.000000 1.706480 0.000000 
#    z 0.000000 0.000000 1.724480 
# 
# From -- ./inp_files/25472.got.cif
#   From: 2010.03.12/outbox.cif.g09.slc.cpg/sg51_13_cif.got.tgz:25472.got - 2010.04.16 13:43:02.
