data_PCOD8211345
_publ_section_title
;
Structure prediction by ZEFSAII (Michael W. Deem and Ramdas Pophale) SiO2 
 PCOD8211345
Probable space group: P M M A
;
_chemical_formula_sum "Si O2"
_cell_formula_units_Z 48
_cell_length_a 30.405743
_cell_length_b 9.215596
_cell_length_c 9.167473
_cell_angle_alpha 90.000000
_cell_angle_beta 90.000000
_cell_angle_gamma 90.000000
_cell_volume 2568.790506
_symmetry_space_group_name_H-M "P M M A"
_symmetry_group_IT_number 51
_symmetry_cell_setting 'orthorhombic'
loop_
_space_group_symop_operation_xyz
x,y,z
1/2-x,-y,z
1/2+x,-y,-z
-x,y,-z
-x,-y,-z
1/2+x,y,-z
1/2-x,y,z
x,-y,z
loop_
_atom_site_type_symbol
_atom_site_label
_atom_site_fract_x
_atom_site_fract_y
_atom_site_fract_z
Si Si1 0.200180 0.168308 0.607388
Si Si2 0.799592 0.331075 0.103734
Si Si3 0.376467 0.169566 0.397270
Si Si4 0.459035 0.171235 0.589074
Si Si5 0.454529 0.169443 0.918551
Si Si6 0.620411 0.329006 0.905458
O O1 0.250000 0.211143 0.565833
O O2 0.184008 0.251664 0.750620
O O3 0.170142 0.209412 0.469821
O O4 0.195362 0.000000 0.645148
O O5 0.750000 0.281883 0.061272
O O6 0.801358 0.500000 0.139021
O O7 0.831776 0.290175 0.971454
O O8 0.414055 0.215875 0.510687
O O9 0.382399 0.263035 0.254048
O O10 0.379958 0.000000 0.356698
O O11 0.500000 0.239665 0.500000
O O12 0.459035 0.229918 0.754115
O O13 0.464818 0.000000 0.595272
O O14 0.441608 0.000000 0.922599
O O15 0.500000 0.197921 0.000000
O O16 0.416725 0.260634 0.994311
O O17 0.612765 0.500000 0.896462
#
# Coordination Sequence:
#
# PCOD8211345 Si02
#       6
#     8   8   8   8   8   8
#     4   9  18  33  54  80 106 133 172 223 272 315
#     4   9  19  36  55  75 103 141 181 218 261 316
#     4  10  20  34  52  74 104 139 173 212 260 314
#     4   9  17  31  53  79 102 127 166 211 251 301
#     4  10  20  36  60  84 106 137 175 214 263 323
#     4  11  23  36  52  77 109 142 179 223 265 308
#
# _framework density 18.685835999999998
#
# number of rings (size 3 to 8) (size 9 to 14) (size 15 to 20)
#    0.000    2.333    0.000    2.500    0.000    7.000 
#    0.000    0.833    0.000    2.000    0.000    0.000 
#    0.000    0.000    0.000    0.000    0.000    0.000 
#
# Total GULP energy -595296.130254 kJ/mol
# GULP energy per Si atom -12402.002714 kJ/mol
# Density = 1.864331 g / cm^3
# Si number density = 18.685836 Si / 1000 Ang^3
#
#
#
# Elastic Constant Matrix: (Units=GPa)
#
#
# Indices 1 2 3 4 5 6 
#
# 1 119.3726 47.8576 82.3359 0.0000 0.0000 0.0000
# 2 47.8576 51.5170 55.1383 0.0000 0.0000 0.0000
# 3 82.3359 55.1383 175.8585 0.0000 0.0000 0.0000
# 4 0.0000 0.0000 0.0000 18.4343 0.0000 0.0000
# 5 0.0000 0.0000 0.0000 0.0000 34.0266 0.0000
# 6 0.0000 0.0000 0.0000 0.0000 0.0000 22.5441
#
#
#
# Elastic Compliance Matrix: (Units=1/GPa)
#
#
# Indices 1 2 3 4 5 6 
#
# 1 0.015008 -0.009665 -0.003997 0.000000 0.000000 0.000000
# 2 -0.009665 0.035439 -0.006586 0.000000 0.000000 0.000000
# 3 -0.003997 -0.006586 0.009623 0.000000 0.000000 0.000000
# 4 0.000000 0.000000 0.000000 0.054247 0.000000 0.000000
# 5 0.000000 0.000000 0.000000 0.000000 0.029389 0.000000
# 6 0.000000 0.000000 0.000000 0.000000 0.000000 0.044358
#
#
# Mechanical properties :
#
#
# Convention : Reuss Voigt Hill
#
# Bulk Modulus (GPa) = 51.08752 79.71244 65.39998
# Shear Modulus (GPa) = 21.26906 25.76207 23.51556
#
# Velocity S-wave (km/s) = 3.37745 3.71711 3.55134
# Velocity P-wave (km/s) = 6.52757 7.82141 7.20359
#
# Compressibility (1/GPa) = 0.01957425
#
# Stress axis : x y z
#
# Youngs Moduli (GPa) = 66.62908 28.21768 103.92161
#
# Poissons Ratio (x) = 0.27272 0.41533
# Poissons Ratio (y) = 0.64396 0.68447
# Poissons Ratio (z) = 0.26629 0.18585
#
# Static dielectric constant tensor:
#      x y z
#    x 3.483300 0.000000 0.000000 
#    y 0.000000 3.215510 0.000000 
#    z 0.000000 0.000000 3.531390 
# 
# 
# High freq. dielectric constant tensor:
#      x y z
#    x 1.741450 0.000000 0.000000 
#    y 0.000000 1.700830 0.000000 
#    z 0.000000 0.000000 1.731480 
# 
# From -- ./inp_files/12760.got.cif
#   From: 2010.03.12/outbox.cif.g09.slc.cpg/sg51_7_cif.got.tgz:12760.got - 2010.04.16 13:43:02.
