data_PCOD8211641
_publ_section_title
;
Structure prediction by ZEFSAII (Michael W. Deem and Ramdas Pophale) SiO2 
 PCOD8211641
Probable space group: P M M A
;
_chemical_formula_sum "Si O2"
_cell_formula_units_Z 48
_cell_length_a 8.973033
_cell_length_b 9.023728
_cell_length_c 31.078072
_cell_angle_alpha 90.000000
_cell_angle_beta 90.000000
_cell_angle_gamma 90.000000
_cell_volume 2516.397989
_symmetry_space_group_name_H-M "P M M A"
_symmetry_group_IT_number 51
_symmetry_cell_setting 'orthorhombic'
loop_
_space_group_symop_operation_xyz
x,y,z
1/2-x,-y,z
1/2+x,-y,-z
-x,y,-z
-x,-y,-z
1/2+x,y,-z
1/2-x,y,z
x,-y,z
loop_
_atom_site_type_symbol
_atom_site_label
_atom_site_fract_x
_atom_site_fract_y
_atom_site_fract_z
Si Si1 0.923368 0.327474 0.292457
Si Si2 0.074398 0.829234 0.371214
Si Si3 0.425195 0.829279 0.043236
Si Si4 0.572877 0.666564 0.872511
Si Si5 0.917569 0.823754 0.458022
Si Si6 0.422275 0.174661 0.213515
O O1 0.750000 0.295287 0.300135
O O2 0.956067 0.500000 0.285328
O O3 0.013891 0.272270 0.333419
O O4 0.976864 0.239587 0.250905
O O5 0.250000 0.810575 0.374707
O O6 0.003692 0.770854 0.415545
O O7 0.030455 0.000000 0.362151
O O8 0.250000 0.807102 0.038721
O O9 0.490329 0.740335 0.084013
O O10 0.468426 0.000000 0.050149
O O11 0.500000 0.765895 0.000000
O O12 0.750000 0.669064 0.874249
O O13 0.510816 0.500000 0.868969
O O14 0.518229 0.758551 0.831273
O O15 0.750000 0.760735 0.456707
O O16 0.000000 0.758310 0.500000
O O17 0.916530 0.000000 0.460405
O O18 0.250000 0.217671 0.221922
O O19 0.443070 0.000000 0.211654
#
# Coordination Sequence:
#
# PCOD8211641 Si02
#       6
#     8   8   8   8   8   8
#     4  11  24  39  54  75 105 139 173 211 259 314
#     4  10  20  34  54  80 107 137 177 221 263 311
#     4   9  17  30  48  70  97 130 169 212 256 303
#     4   9  17  30  50  75 102 133 169 209 254 305
#     4   9  16  27  46  74 108 143 178 219 265 310
#     4  10  20  35  57  82 104 130 169 214 258 308
#
# _framework density 19.074884999999998
#
# number of rings (size 3 to 8) (size 9 to 14) (size 15 to 20)
#    0.000    2.333    0.000    3.000    0.000    9.667 
#    0.000    0.833    0.000    3.500    0.000    0.000 
#    0.000    0.000    0.000    0.000    0.000    0.000 
#
# Total GULP energy -595304.720262 kJ/mol
# GULP energy per Si atom -12402.181672 kJ/mol
# Density = 1.903147 g / cm^3
# Si number density = 19.074885 Si / 1000 Ang^3
#
#
#
# Elastic Constant Matrix: (Units=GPa)
#
#
# Indices 1 2 3 4 5 6 
#
# 1 69.0543 29.8159 46.6442 0.0000 0.0000 0.0000
# 2 29.8159 73.8826 51.4301 0.0000 0.0000 0.0000
# 3 46.6442 51.4301 169.0684 0.0000 0.0000 0.0000
# 4 0.0000 0.0000 0.0000 -4.3863 0.0000 0.0000
# 5 0.0000 0.0000 0.0000 0.0000 36.3535 0.0000
# 6 0.0000 0.0000 0.0000 0.0000 0.0000 20.7141
#
#
#
# Elastic Compliance Matrix: (Units=1/GPa)
#
#
# Indices 1 2 3 4 5 6 
#
# 1 0.019234 -0.005161 -0.003736 0.000000 0.000000 0.000000
# 2 -0.005161 0.018556 -0.004221 0.000000 0.000000 0.000000
# 3 -0.003736 -0.004221 0.008230 0.000000 0.000000 0.000000
# 4 0.000000 0.000000 0.000000 -0.227984 0.000000 0.000000
# 5 0.000000 0.000000 0.000000 0.000000 0.027508 0.000000
# 6 0.000000 0.000000 0.000000 0.000000 0.000000 0.048276
#
#
# Mechanical properties :
#
#
# Convention : Reuss Voigt Hill
#
# Bulk Modulus (GPa) = 50.54918 63.08730 56.81824
# Shear Modulus (GPa) = -68.16557 22.81060 -22.67749
#
# Velocity S-wave (km/s) = -5.98443 3.46185 -3.45173
# Velocity P-wave (km/s) = 4.60361 7.00889 3.73706
#
# Compressibility (1/GPa) = 0.01978272
#
# Stress axis : x y z
#
# Youngs Moduli (GPa) = 51.99251 53.89145 121.51331
#
# Poissons Ratio (x) = 0.27813 0.45402
# Poissons Ratio (y) = 0.26833 0.51288
# Poissons Ratio (z) = 0.19426 0.22746
#
# Static dielectric constant tensor:
#      x y z
#    x 3.343700 0.000000 0.000000 
#    y 0.000000 3.378940 0.000000 
#    z 0.000000 0.000000 3.792910 
# 
# 
# High freq. dielectric constant tensor:
#      x y z
#    x 1.726090 0.000000 0.000000 
#    y 0.000000 1.723970 0.000000 
#    z 0.000000 0.000000 1.761120 
# 
# From -- ./inp_files/36976.got.cif
#   From: 2010.03.12/outbox.cif.g09.slc.cpg/sg51_19_cif.got.tgz:36976.got - 2010.04.16 13:43:02.
