data_PCOD8211322
_publ_section_title
;
Structure prediction by ZEFSAII (Michael W. Deem and Ramdas Pophale) SiO2 
 PCOD8211322
Probable space group: P M M A
;
_chemical_formula_sum "Si O2"
_cell_formula_units_Z 52
_cell_length_a 9.702864
_cell_length_b 8.197359
_cell_length_c 35.538235
_cell_angle_alpha 90.000000
_cell_angle_beta 90.000000
_cell_angle_gamma 90.000000
_cell_volume 2826.635144
_symmetry_space_group_name_H-M "P M M A"
_symmetry_group_IT_number 51
_symmetry_cell_setting 'orthorhombic'
loop_
_space_group_symop_operation_xyz
x,y,z
1/2-x,-y,z
1/2+x,-y,-z
-x,y,-z
-x,-y,-z
1/2+x,y,-z
1/2-x,y,z
x,-y,z
loop_
_atom_site_type_symbol
_atom_site_label
_atom_site_fract_x
_atom_site_fract_y
_atom_site_fract_z
Si Si1 0.404187 0.308999 0.467443
Si Si2 0.914582 0.500000 0.037909
Si Si3 0.096075 0.808924 0.233391
Si Si4 0.409014 0.689749 0.311571
Si Si5 0.590886 0.189631 0.610815
Si Si6 0.097605 0.808598 0.830988
Si Si7 0.586584 0.182819 0.085269
O O1 0.500000 0.230919 0.500000
O O2 0.250000 0.231692 0.470076
O O3 0.394192 0.500000 0.473658
O O4 0.472467 0.272367 0.426592
O O5 0.750000 0.500000 0.030794
O O6 0.961543 0.666897 0.059058
O O7 0.000000 0.500000 0.000000
O O8 0.250000 0.731461 0.231080
O O9 0.027091 0.772108 0.274159
O O10 0.002652 0.729869 0.200428
O O11 0.105777 0.000000 0.227147
O O12 0.250000 0.743709 0.313219
O O13 0.430545 0.500000 0.307737
O O14 0.481312 0.749954 0.350379
O O15 0.750000 0.242810 0.612524
O O16 0.568566 0.000000 0.606921
O O17 0.250000 0.728782 0.827339
O O18 0.034193 0.777121 0.872522
O O19 0.111089 0.000000 0.823950
O O20 0.750000 0.174848 0.086353
O O21 0.532750 0.000000 0.072342
#
# Coordination Sequence:
#
# PCOD8211322 Si02
#       7
#     8   4   8   8   8   8   8
#     4   9  17  29  45  65  88 112 138 170 212 259
#     4  10  20  34  52  74 100 128 162 202 244 288
#     4   9  16  26  42  65  91 116 143 180 225 267
#     4   9  16  26  40  59  86 117 146 176 215 263
#     4   9  16  26  42  63  84 109 144 182 214 249
#     4   8  14  27  47  67  88 118 154 187 221 265
#     4   8  15  30  51  72  95 127 165 200 236 283
#
# _framework density 18.396432999999998
#
# number of rings (size 3 to 8) (size 9 to 14) (size 15 to 20)
#    0.000    3.231    0.000    1.846    0.000    4.308 
#    1.385    0.769    0.000    1.846    0.000    0.000 
#    0.000    0.000    0.000    0.000    0.000    0.000 
#
# Total GULP energy -644232.903510 kJ/mol
# GULP energy per Si atom -12389.094298 kJ/mol
# Density = 1.835456 g / cm^3
# Si number density = 18.396433 Si / 1000 Ang^3
#
#
#
# Elastic Constant Matrix: (Units=GPa)
#
#
# Indices 1 2 3 4 5 6 
#
# 1 40.6274 14.7146 53.3155 0.0000 0.0000 0.0000
# 2 14.7146 49.7395 55.5680 0.0000 0.0000 0.0000
# 3 53.3155 55.5680 176.3064 0.0000 0.0000 0.0000
# 4 0.0000 0.0000 0.0000 29.4601 0.0000 0.0000
# 5 0.0000 0.0000 0.0000 0.0000 27.4112 0.0000
# 6 0.0000 0.0000 0.0000 0.0000 0.0000 8.2896
#
#
#
# Elastic Compliance Matrix: (Units=1/GPa)
#
#
# Indices 1 2 3 4 5 6 
#
# 1 0.041035 0.002660 -0.013248 0.000000 0.000000 0.000000
# 2 0.002660 0.031204 -0.010639 0.000000 0.000000 0.000000
# 3 -0.013248 -0.010639 0.013031 0.000000 0.000000 0.000000
# 4 0.000000 0.000000 0.000000 0.033944 0.000000 0.000000
# 5 0.000000 0.000000 0.000000 0.000000 0.036482 0.000000
# 6 0.000000 0.000000 0.000000 0.000000 0.000000 0.120633
#
#
# Mechanical properties :
#
#
# Convention : Reuss Voigt Hill
#
# Bulk Modulus (GPa) = 23.35500 57.09661 40.22580
# Shear Modulus (GPa) = 15.01255 22.57051 18.79153
#
# Velocity S-wave (km/s) = 2.85977 3.50651 3.19952
# Velocity P-wave (km/s) = 4.86080 6.89190 5.96346
#
# Compressibility (1/GPa) = 0.04281738
#
# Stress axis : x y z
#
# Youngs Moduli (GPa) = 24.36922 32.04753 76.73803
#
# Poissons Ratio (x) = -0.08526 1.01660
# Poissons Ratio (y) = -0.06483 0.81644
# Poissons Ratio (z) = 0.32284 0.34096
#
# Static dielectric constant tensor:
#      x y z
#    x 3.187830 0.000000 0.000000 
#    y 0.000000 3.291190 0.000000 
#    z 0.000000 0.000000 3.760800 
# 
# 
# High freq. dielectric constant tensor:
#      x y z
#    x 1.645360 0.000000 0.000000 
#    y 0.000000 1.701680 0.000000 
#    z 0.000000 0.000000 1.730560 
# 
# From -- ./inp_files/37706.got.cif
#   From: 2010.03.12/outbox.cif.g09.slc.cpg/sg51_19_cif.got.tgz:37706.got - 2010.04.16 13:43:02.
