data_PCOD8211576
_publ_section_title
;
Structure prediction by ZEFSAII (Michael W. Deem and Ramdas Pophale) SiO2 
 PCOD8211576
Probable space group: P M M A
;
_chemical_formula_sum "Si O2"
_cell_formula_units_Z 48
_cell_length_a 9.218972
_cell_length_b 9.210937
_cell_length_c 30.907853
_cell_angle_alpha 90.000000
_cell_angle_beta 90.000000
_cell_angle_gamma 90.000000
_cell_volume 2624.551783
_symmetry_space_group_name_H-M "P M M A"
_symmetry_group_IT_number 51
_symmetry_cell_setting 'orthorhombic'
loop_
_space_group_symop_operation_xyz
x,y,z
1/2-x,-y,z
1/2+x,-y,-z
-x,y,-z
-x,-y,-z
1/2+x,y,-z
1/2-x,y,z
x,-y,z
loop_
_atom_site_type_symbol
_atom_site_label
_atom_site_fract_x
_atom_site_fract_y
_atom_site_fract_z
Si Si1 0.079298 0.167591 0.213044
Si Si2 0.919612 0.667846 0.457096
Si Si3 0.581214 0.329650 0.288539
Si Si4 0.581466 0.668508 0.042079
Si Si5 0.077601 0.163794 0.626515
Si Si6 0.416098 0.830841 0.873139
O O1 0.250000 0.192754 0.211656
O O2 0.010763 0.269431 0.249052
O O3 0.013485 0.216623 0.167290
O O4 0.039766 0.000000 0.222944
O O5 0.750000 0.694262 0.463948
O O6 0.954204 0.500000 0.447693
O O7 0.981460 0.759515 0.416801
O O8 0.000000 0.722994 0.500000
O O9 0.750000 0.294263 0.280449
O O10 0.554374 0.500000 0.293595
O O11 0.522823 0.252362 0.331880
O O12 0.750000 0.699989 0.035181
O O13 0.546823 0.500000 0.048419
O O14 0.523484 0.749001 0.084726
O O15 0.500000 0.730551 0.000000
O O16 0.250000 0.165279 0.625532
O O17 0.016822 0.000000 0.628843
O O18 0.250000 0.786314 0.863245
O O19 0.430271 0.000000 0.882617
#
# Coordination Sequence:
#
# PCOD8211576 Si02
#       6
#     8   8   8   8   8   8
#     4  10  21  36  53  75 104 135 166 204 253 305
#     4   9  17  30  48  70  97 128 162 201 245 293
#     4  10  20  34  54  78 101 129 168 210 251 299
#     4   9  18  32  49  70  97 128 162 201 245 292
#     4   9  17  30  50  74  98 127 165 207 248 292
#     4   9  18  33  52  73  98 130 167 205 245 292
#
# _framework density 18.288837000000001
#
# number of rings (size 3 to 8) (size 9 to 14) (size 15 to 20)
#    0.000    2.667    0.000    1.500    0.000    6.000 
#    0.000    2.500    0.000    3.000    0.000    0.000 
#    0.000    0.000    0.000    0.000    0.000    0.000 
#
# Total GULP energy -595301.737614 kJ/mol
# GULP energy per Si atom -12402.119534 kJ/mol
# Density = 1.824721 g / cm^3
# Si number density = 18.288837 Si / 1000 Ang^3
#
#
#
# Elastic Constant Matrix: (Units=GPa)
#
#
# Indices 1 2 3 4 5 6 
#
# 1 52.4789 39.2107 60.2413 0.0000 0.0000 0.0000
# 2 39.2107 91.2675 86.1977 0.0000 0.0000 0.0000
# 3 60.2413 86.1977 190.2888 0.0000 0.0000 0.0000
# 4 0.0000 0.0000 0.0000 41.8409 0.0000 0.0000
# 5 0.0000 0.0000 0.0000 0.0000 31.8837 0.0000
# 6 0.0000 0.0000 0.0000 0.0000 0.0000 19.8119
#
#
#
# Elastic Compliance Matrix: (Units=1/GPa)
#
#
# Indices 1 2 3 4 5 6 
#
# 1 0.032588 -0.007440 -0.006946 0.000000 0.000000 0.000000
# 2 -0.007440 0.020848 -0.007088 0.000000 0.000000 0.000000
# 3 -0.006946 -0.007088 0.010665 0.000000 0.000000 0.000000
# 4 0.000000 0.000000 0.000000 0.023900 0.000000 0.000000
# 5 0.000000 0.000000 0.000000 0.000000 0.031364 0.000000
# 6 0.000000 0.000000 0.000000 0.000000 0.000000 0.050475
#
#
# Mechanical properties :
#
#
# Convention : Reuss Voigt Hill
#
# Bulk Modulus (GPa) = 47.27816 78.37050 62.82433
# Shear Modulus (GPa) = 22.74378 28.59968 25.67173
#
# Velocity S-wave (km/s) = 3.53028 3.95875 3.75064
# Velocity P-wave (km/s) = 6.52105 7.99001 7.29261
#
# Compressibility (1/GPa) = 0.02115142
#
# Stress axis : x y z
#
# Youngs Moduli (GPa) = 30.68595 47.96662 93.76302
#
# Poissons Ratio (x) = 0.35687 0.65132
# Poissons Ratio (y) = 0.22830 0.66463
# Poissons Ratio (z) = 0.21316 0.34000
#
# Static dielectric constant tensor:
#      x y z
#    x 3.100970 0.000000 0.000000 
#    y 0.000000 3.391440 0.000000 
#    z 0.000000 0.000000 3.585990 
# 
# 
# High freq. dielectric constant tensor:
#      x y z
#    x 1.682620 0.000000 0.000000 
#    y 0.000000 1.707760 0.000000 
#    z 0.000000 0.000000 1.723170 
# 
# From -- ./inp_files/36511.got.cif
#   From: 2010.03.12/outbox.cif.g09.slc.cpg/sg51_19_cif.got.tgz:36511.got - 2010.04.16 13:43:02.
