data_PCOD8211867
_publ_section_title
;
Structure prediction by ZEFSAII (Michael W. Deem and Ramdas Pophale) SiO2 
 PCOD8211867
Probable space group: P M M A
;
_chemical_formula_sum "Si O2"
_cell_formula_units_Z 48
_cell_length_a 20.290472
_cell_length_b 9.008408
_cell_length_c 14.354592
_cell_angle_alpha 90.000000
_cell_angle_beta 90.000000
_cell_angle_gamma 90.000000
_cell_volume 2623.801950
_symmetry_space_group_name_H-M "P M M A"
_symmetry_group_IT_number 51
_symmetry_cell_setting 'orthorhombic'
loop_
_space_group_symop_operation_xyz
x,y,z
1/2-x,-y,z
1/2+x,-y,-z
-x,y,-z
-x,-y,-z
1/2+x,y,-z
1/2-x,y,z
x,-y,z
loop_
_atom_site_type_symbol
_atom_site_label
_atom_site_fract_x
_atom_site_fract_y
_atom_site_fract_z
Si Si1 0.325892 0.328255 0.050135
Si Si2 0.175837 0.170122 0.431397
Si Si3 0.477066 0.323894 0.750817
Si Si4 0.061577 0.826584 0.565201
Si Si5 0.373008 0.326105 0.252024
Si Si6 0.562169 0.175345 0.062177
O O1 0.250000 0.301576 0.023434
O O2 0.346195 0.500000 0.036221
O O3 0.337174 0.280486 0.156811
O O4 0.370115 0.225378 0.985203
O O5 0.250000 0.192056 0.468299
O O6 0.127004 0.227489 0.511569
O O7 0.167467 0.256210 0.335632
O O8 0.159158 0.000000 0.409544
O O9 0.472694 0.500000 0.758453
O O10 0.440765 0.269450 0.658285
O O11 0.552259 0.266396 0.749300
O O12 0.440463 0.253307 0.838338
O O13 0.000000 0.788397 0.500000
O O14 0.063422 0.000000 0.591377
O O15 0.372293 0.500000 0.267847
O O16 0.562531 0.000000 0.076084
O O17 0.500000 0.227006 0.000000
#
# Coordination Sequence:
#
# PCOD8211867 Si02
#       6
#     8   8   8   8   8   8
#     4  10  21  38  59  84 117 154 189 230 286 345
#     4  10  21  36  55  81 113 149 186 227 279 335
#     4  11  22  36  59  87 113 145 190 237 281 333
#     4  10  20  36  57  80 111 148 186 230 279 333
#     4  10  20  34  56  85 117 148 181 230 284 337
#     4  11  23  38  59  85 115 151 192 236 282 335
#
# _framework density 18.294063000000001
#
# number of rings (size 3 to 8) (size 9 to 14) (size 15 to 20)
#    0.000    1.667    3.333    1.500    0.000    4.333 
#    0.000    0.833    0.000    3.000    0.000    0.000 
#    0.000    0.000    0.000    0.000    0.000    0.000 
#
# Total GULP energy -595448.152730 kJ/mol
# GULP energy per Si atom -12405.169849 kJ/mol
# Density = 1.825242 g / cm^3
# Si number density = 18.294063 Si / 1000 Ang^3
#
#
#
# Elastic Constant Matrix: (Units=GPa)
#
#
# Indices 1 2 3 4 5 6 
#
# 1 115.3074 35.3109 54.0294 0.0000 0.0000 0.0000
# 2 35.3109 55.9824 48.9002 0.0000 0.0000 0.0000
# 3 54.0294 48.9002 121.4735 0.0000 0.0000 0.0000
# 4 0.0000 0.0000 0.0000 29.0588 0.0000 0.0000
# 5 0.0000 0.0000 0.0000 0.0000 28.8703 0.0000
# 6 0.0000 0.0000 0.0000 0.0000 0.0000 22.0842
#
#
#
# Elastic Compliance Matrix: (Units=1/GPa)
#
#
# Indices 1 2 3 4 5 6 
#
# 1 0.011600 -0.004334 -0.003415 0.000000 0.000000 0.000000
# 2 -0.004334 0.029169 -0.009815 0.000000 0.000000 0.000000
# 3 -0.003415 -0.009815 0.013702 0.000000 0.000000 0.000000
# 4 0.000000 0.000000 0.000000 0.034413 0.000000 0.000000
# 5 0.000000 0.000000 0.000000 0.000000 0.034638 0.000000
# 6 0.000000 0.000000 0.000000 0.000000 0.000000 0.045281
#
#
# Mechanical properties :
#
#
# Convention : Reuss Voigt Hill
#
# Bulk Modulus (GPa) = 51.69404 63.24936 57.47170
# Shear Modulus (GPa) = 23.76674 26.30417 25.03546
#
# Velocity S-wave (km/s) = 3.60828 3.79602 3.70334
# Velocity P-wave (km/s) = 6.75857 7.33906 7.05479
#
# Compressibility (1/GPa) = 0.01934459
#
# Stress axis : x y z
#
# Youngs Moduli (GPa) = 86.20955 34.28242 72.98142
#
# Poissons Ratio (x) = 0.14857 0.24921
# Poissons Ratio (y) = 0.37361 0.71630
# Poissons Ratio (z) = 0.29438 0.33648
#
# Static dielectric constant tensor:
#      x y z
#    x 3.434690 0.000000 0.000000 
#    y 0.000000 3.300970 0.000000 
#    z 0.000000 0.000000 3.362520 
# 
# 
# High freq. dielectric constant tensor:
#      x y z
#    x 1.710960 0.000000 0.000000 
#    y 0.000000 1.706200 0.000000 
#    z 0.000000 0.000000 1.709620 
# 
# From -- ./inp_files/24686.got.cif
#   From: 2010.03.12/outbox.cif.g09.slc.cpg/sg51_13_cif.got.tgz:24686.got - 2010.04.16 13:43:02.
