data_PCOD8211082
_publ_section_title
;
Structure prediction by ZEFSAII (Michael W. Deem and Ramdas Pophale) SiO2 
 PCOD8211082
Probable space group: P M M A
;
_chemical_formula_sum "Si O2"
_cell_formula_units_Z 56
_cell_length_a 9.248946
_cell_length_b 14.155998
_cell_length_c 23.582154
_cell_angle_alpha 90.000000
_cell_angle_beta 90.000000
_cell_angle_gamma 90.000000
_cell_volume 3087.565699
_symmetry_space_group_name_H-M "P M M A"
_symmetry_group_IT_number 51
_symmetry_cell_setting 'orthorhombic'
loop_
_space_group_symop_operation_xyz
x,y,z
1/2-x,-y,z
1/2+x,-y,-z
-x,y,-z
-x,-y,-z
1/2+x,y,-z
1/2-x,y,z
x,-y,z
loop_
_atom_site_type_symbol
_atom_site_label
_atom_site_fract_x
_atom_site_fract_y
_atom_site_fract_z
Si Si1 0.581023 0.231625 0.359805
Si Si2 0.082616 0.606463 0.554956
Si Si3 0.086052 0.888210 0.445178
Si Si4 0.419844 0.244110 0.058272
Si Si5 0.082032 0.742643 0.768166
Si Si6 0.917904 0.392538 0.845892
Si Si7 0.082524 0.108923 0.862924
O O1 0.750000 0.205599 0.363245
O O2 0.545994 0.330328 0.390633
O O3 0.490555 0.148425 0.388565
O O4 0.527161 0.239037 0.295323
O O5 0.250000 0.610307 0.539711
O O6 0.032125 0.500000 0.569390
O O7 0.000000 0.646125 0.500000
O O8 0.250000 0.850423 0.449017
O O9 0.000000 0.850159 0.500000
O O10 0.082407 0.000000 0.442567
O O11 0.250000 0.229168 0.048067
O O12 0.453367 0.334572 0.097275
O O13 0.484368 0.149649 0.086608
O O14 0.500000 0.264593 0.000000
O O15 0.250000 0.717467 0.768522
O O16 0.047853 0.836166 0.804732
O O17 0.001330 0.651544 0.792766
O O18 0.750000 0.387024 0.831169
O O19 0.969326 0.500000 0.855342
O O20 0.250000 0.121290 0.880113
O O21 0.041953 0.000000 0.853287
#
# Coordination Sequence:
#
# PCOD8211082 Si02
#       7
#     8   8   8   8   8   8   8
#     4  10  20  33  52  77 103 132 166 208 257 305
#     4   9  18  32  48  68  96 128 162 201 246 297
#     4  10  21  36  53  74 101 133 169 210 257 309
#     4  10  20  34  53  78 107 135 167 209 252 298
#     4   9  19  34  52  77 104 131 169 213 255 300
#     4   9  19  36  55  75 103 139 174 209 252 298
#     4   9  18  34  54  74 100 135 171 207 249 298
#
# _framework density 18.137266
#
# number of rings (size 3 to 8) (size 9 to 14) (size 15 to 20)
#    0.000    2.571    0.000    1.286    0.000    6.000 
#    0.000    2.857    0.000    1.714    0.000    0.000 
#    0.000    0.000    0.000    0.000    0.000    0.000 
#
# Total GULP energy -694565.978910 kJ/mol
# GULP energy per Si atom -12402.963909 kJ/mol
# Density = 1.809599 g / cm^3
# Si number density = 18.137266 Si / 1000 Ang^3
#
#
#
# Elastic Constant Matrix: (Units=GPa)
#
#
# Indices 1 2 3 4 5 6 
#
# 1 77.2804 43.8832 63.2790 0.0000 0.0000 0.0000
# 2 43.8832 99.4012 49.3627 0.0000 0.0000 0.0000
# 3 63.2790 49.3627 145.8609 0.0000 0.0000 0.0000
# 4 0.0000 0.0000 0.0000 17.3364 0.0000 0.0000
# 5 0.0000 0.0000 0.0000 0.0000 31.6202 0.0000
# 6 0.0000 0.0000 0.0000 0.0000 0.0000 28.1736
#
#
#
# Elastic Compliance Matrix: (Units=1/GPa)
#
#
# Indices 1 2 3 4 5 6 
#
# 1 0.022871 -0.006214 -0.007819 0.000000 0.000000 0.000000
# 2 -0.006214 0.013781 -0.001968 0.000000 0.000000 0.000000
# 3 -0.007819 -0.001968 0.010914 0.000000 0.000000 0.000000
# 4 0.000000 0.000000 0.000000 0.057682 0.000000 0.000000
# 5 0.000000 0.000000 0.000000 0.000000 0.031625 0.000000
# 6 0.000000 0.000000 0.000000 0.000000 0.000000 0.035494
#
#
# Mechanical properties :
#
#
# Convention : Reuss Voigt Hill
#
# Bulk Modulus (GPa) = 64.25216 70.62135 67.43675
# Shear Modulus (GPa) = 23.85977 26.49388 25.17682
#
# Velocity S-wave (km/s) = 3.63093 3.82611 3.72980
# Velocity P-wave (km/s) = 7.28564 7.65118 7.47065
#
# Compressibility (1/GPa) = 0.01556368
#
# Stress axis : x y z
#
# Youngs Moduli (GPa) = 43.72345 72.56461 91.62487
#
# Poissons Ratio (x) = 0.45091 0.71644
# Poissons Ratio (y) = 0.27170 0.18031
# Poissons Ratio (z) = 0.34188 0.14280
#
# Static dielectric constant tensor:
#      x y z
#    x 3.386940 0.000000 0.000000 
#    y 0.000000 3.405590 0.000000 
#    z 0.000000 0.000000 3.371020 
# 
# 
# High freq. dielectric constant tensor:
#      x y z
#    x 1.702490 0.000000 0.000000 
#    y 0.000000 1.705540 0.000000 
#    z 0.000000 0.000000 1.700060 
# 
# From -- ./inp_files/31929.got.cif
#   From: 2010.03.12/outbox.cif.g09.slc.cpg/sg51_16_cif.got.tgz:31929.got - 2010.04.16 13:43:02.
