data_PCOD8211163
_publ_section_title
;
Structure prediction by ZEFSAII (Michael W. Deem and Ramdas Pophale) SiO2 
 PCOD8211163
Probable space group: P M M A
;
_chemical_formula_sum "Si O2"
_cell_formula_units_Z 64
_cell_length_a 14.363965
_cell_length_b 8.775457
_cell_length_c 24.985423
_cell_angle_alpha 90.000000
_cell_angle_beta 90.000000
_cell_angle_gamma 90.000000
_cell_volume 3149.421494
_symmetry_space_group_name_H-M "P M M A"
_symmetry_group_IT_number 51
_symmetry_cell_setting 'orthorhombic'
loop_
_space_group_symop_operation_xyz
x,y,z
1/2-x,-y,z
1/2+x,-y,-z
-x,y,-z
-x,-y,-z
1/2+x,y,-z
1/2-x,y,z
x,-y,z
loop_
_atom_site_type_symbol
_atom_site_label
_atom_site_fract_x
_atom_site_fract_y
_atom_site_fract_z
Si Si1 0.457172 0.824887 0.372546
Si Si2 0.646038 0.824998 0.420540
Si Si3 0.892960 0.327581 0.014251
Si Si4 0.647616 0.828231 0.910087
Si Si5 0.355247 0.680043 0.274476
Si Si6 0.642405 0.325892 0.532108
Si Si7 0.144469 0.176212 0.872694
Si Si8 0.475349 0.678958 0.175209
O O1 0.568857 0.793494 0.374577
O O2 0.408492 0.721251 0.328509
O O3 0.416620 0.784878 0.430487
O O4 0.435960 0.000000 0.358994
O O5 0.750000 0.790154 0.397774
O O6 0.624050 0.718176 0.470855
O O7 0.639164 0.000000 0.439772
O O8 0.855659 0.500000 0.011130
O O9 0.873074 0.266283 0.072954
O O10 0.840026 0.223835 0.971319
O O11 0.000000 0.318141 0.000000
O O12 0.750000 0.822123 0.883476
O O13 0.579100 0.714384 0.879497
O O14 0.607383 0.000000 0.907624
O O15 0.250000 0.748256 0.273871
O O16 0.348914 0.500000 0.270218
O O17 0.414933 0.744656 0.224641
O O18 0.750000 0.304833 0.547302
O O19 0.610621 0.500000 0.540512
O O20 0.250000 0.201498 0.852738
O O21 0.075890 0.239544 0.826443
O O22 0.123084 0.000000 0.883046
O O23 0.491402 0.500000 0.180082
#
# Coordination Sequence:
#
# PCOD8211163 Si02
#       8
#     8   8   8   8   8   8   8   8
#     4  11  22  35  56  85 114 149 193 238 286 340
#     4   9  19  36  55  78 113 154 193 234 281 333
#     4  11  22  36  57  87 119 155 194 234 282 336
#     4  11  23  37  57  86 118 152 188 230 284 343
#     4  10  23  43  64  86 114 147 184 231 287 343
#     4  10  20  33  52  81 117 155 193 234 283 340
#     4  11  24  41  62  88 119 155 193 236 287 342
#     4  11  23  41  64  87 112 147 191 239 290 341
#
# _framework density 20.321192
#
# number of rings (size 3 to 8) (size 9 to 14) (size 15 to 20)
#    0.000    1.500    1.250    3.750    0.000   10.500 
#    0.000    0.625    0.000    2.250    0.000    0.000 
#    0.000    0.000    0.000    0.000    0.000    0.000 
#
# Total GULP energy -793712.898307 kJ/mol
# GULP energy per Si atom -12401.764036 kJ/mol
# Density = 2.027494 g / cm^3
# Si number density = 20.321192 Si / 1000 Ang^3
#
#
#
# Elastic Constant Matrix: (Units=GPa)
#
#
# Indices 1 2 3 4 5 6 
#
# 1 139.5749 33.8240 55.9940 0.0000 0.0000 0.0000
# 2 33.8240 65.1259 14.0278 0.0000 0.0000 0.0000
# 3 55.9940 14.0278 71.5742 0.0000 0.0000 0.0000
# 4 0.0000 0.0000 0.0000 7.1542 0.0000 0.0000
# 5 0.0000 0.0000 0.0000 0.0000 30.9016 0.0000
# 6 0.0000 0.0000 0.0000 0.0000 0.0000 22.6136
#
#
#
# Elastic Compliance Matrix: (Units=1/GPa)
#
#
# Indices 1 2 3 4 5 6 
#
# 1 0.011442 -0.004191 -0.008130 0.000000 0.000000 0.000000
# 2 -0.004191 0.017567 -0.000164 0.000000 0.000000 0.000000
# 3 -0.008130 -0.000164 0.020364 0.000000 0.000000 0.000000
# 4 0.000000 0.000000 0.000000 0.139777 0.000000 0.000000
# 5 0.000000 0.000000 0.000000 0.000000 0.032361 0.000000
# 6 0.000000 0.000000 0.000000 0.000000 0.000000 0.044221
#
#
# Mechanical properties :
#
#
# Convention : Reuss Voigt Hill
#
# Bulk Modulus (GPa) = 40.97943 53.77406 47.37674
# Shear Modulus (GPa) = 16.73159 23.62916 20.18038
#
# Velocity S-wave (km/s) = 2.87253 3.41366 3.15472
# Velocity P-wave (km/s) = 5.58673 6.48513 6.05262
#
# Compressibility (1/GPa) = 0.02440249
#
# Stress axis : x y z
#
# Youngs Moduli (GPa) = 87.39915 56.92484 49.10702
#
# Poissons Ratio (x) = 0.23859 0.39922
# Poissons Ratio (y) = 0.36632 0.00805
# Poissons Ratio (z) = 0.71053 0.00933
#
# Static dielectric constant tensor:
#      x y z
#    x 3.944510 0.000000 0.000000 
#    y 0.000000 3.687360 0.000000 
#    z 0.000000 0.000000 3.451720 
# 
# 
# High freq. dielectric constant tensor:
#      x y z
#    x 1.814040 0.000000 0.000000 
#    y 0.000000 1.797000 0.000000 
#    z 0.000000 0.000000 1.764620 
# 
# From -- ./inp_files/35840.got.cif
#   From: 2010.03.12/outbox.cif.g09.slc.cpg/sg51_18_cif.got.tgz:35840.got - 2010.04.16 13:43:02.
