data_PCOD8211811
_publ_section_title
;
Structure prediction by ZEFSAII (Michael W. Deem and Ramdas Pophale) SiO2 
 PCOD8211811
Probable space group: P M M A
;
_chemical_formula_sum "Si O2"
_cell_formula_units_Z 48
_cell_length_a 9.254989
_cell_length_b 28.727471
_cell_length_c 9.402957
_cell_angle_alpha 90.000000
_cell_angle_beta 90.000000
_cell_angle_gamma 90.000000
_cell_volume 2499.987009
_symmetry_space_group_name_H-M "P M M A"
_symmetry_group_IT_number 51
_symmetry_cell_setting 'orthorhombic'
loop_
_space_group_symop_operation_xyz
x,y,z
1/2-x,-y,z
1/2+x,-y,-z
-x,y,-z
-x,-y,-z
1/2+x,y,-z
1/2-x,y,z
x,-y,z
loop_
_atom_site_type_symbol
_atom_site_label
_atom_site_fract_x
_atom_site_fract_y
_atom_site_fract_z
Si Si1 0.996262 0.883724 0.332115
Si Si2 0.750000 0.050909 0.345826
Si Si3 0.250000 0.947135 0.316725
Si Si4 0.918451 0.618284 0.646442
Si Si5 0.075946 0.202742 0.853921
Si Si6 0.080866 0.702752 0.141098
Si Si7 0.583453 0.444999 0.141855
O O1 0.125464 0.912935 0.266505
O O2 0.000000 0.874781 0.500000
O O3 0.879403 0.920308 0.285104
O O4 0.970336 0.833718 0.264835
O O5 0.750000 0.046402 0.514936
O O6 0.750000 0.000000 0.276647
O O7 0.250000 0.000000 0.250154
O O8 0.750000 0.605230 0.622040
O O9 0.932926 0.664976 0.736776
O O10 0.000000 0.627508 0.500000
O O11 0.999824 0.576162 0.724288
O O12 0.250000 0.206610 0.868321
O O13 0.005421 0.251652 0.806548
O O14 0.000000 0.187112 0.000000
O O15 0.250000 0.714048 0.108451
O O16 0.000000 0.683717 0.000000
O O17 0.750000 0.427538 0.133991
O O18 0.578137 0.500000 0.160562
O O19 0.500000 0.429006 0.000000
#
# Coordination Sequence:
#
# PCOD8211811 Si02
#       7
#     8   4   4   8   8   8   8
#     4  10  20  34  55  84 110 142 184 228 278 330
#     4   9  16  32  53  79 111 141 181 229 272 325
#     4   9  18  30  53  83 111 141 179 227 278 329
#     4  11  24  40  60  89 123 160 199 245 303 355
#     4  11  23  39  59  83 111 148 186 229 283 340
#     4  10  22  40  62  86 110 146 192 237 285 345
#     4  10  21  38  62  91 123 163 209 254 298 349
#
# _framework density 19.200099999999999
#
# number of rings (size 3 to 8) (size 9 to 14) (size 15 to 20)
#    0.000    1.833    0.833    4.000    2.333    8.000 
#    0.000    1.667    0.000    3.000    0.000    0.000 
#    0.000    0.000    0.000    0.000    0.000    0.000 
#
# Total GULP energy -594733.550671 kJ/mol
# GULP energy per Si atom -12390.282306 kJ/mol
# Density = 1.915640 g / cm^3
# Si number density = 19.200100 Si / 1000 Ang^3
#
#
#
# Elastic Constant Matrix: (Units=GPa)
#
#
# Indices 1 2 3 4 5 6 
#
# 1 196.0116 59.3670 56.9469 0.0000 0.0000 0.0000
# 2 59.3670 81.3931 49.9556 0.0000 0.0000 0.0000
# 3 56.9469 49.9556 84.3299 0.0000 0.0000 0.0000
# 4 0.0000 0.0000 0.0000 27.3645 0.0000 0.0000
# 5 0.0000 0.0000 0.0000 0.0000 39.1116 0.0000
# 6 0.0000 0.0000 0.0000 0.0000 0.0000 36.5870
#
#
#
# Elastic Compliance Matrix: (Units=1/GPa)
#
#
# Indices 1 2 3 4 5 6 
#
# 1 0.006903 -0.003416 -0.002638 0.000000 0.000000 0.000000
# 2 -0.003416 0.020995 -0.010131 0.000000 0.000000 0.000000
# 3 -0.002638 -0.010131 0.019641 0.000000 0.000000 0.000000
# 4 0.000000 0.000000 0.000000 0.036544 0.000000 0.000000
# 5 0.000000 0.000000 0.000000 0.000000 0.025568 0.000000
# 6 0.000000 0.000000 0.000000 0.000000 0.000000 0.027332
#
#
# Mechanical properties :
#
#
# Convention : Reuss Voigt Hill
#
# Bulk Modulus (GPa) = 65.91880 77.14151 71.53016
# Shear Modulus (GPa) = 28.66855 33.64361 31.15608
#
# Velocity S-wave (km/s) = 3.86832 4.19054 4.03265
# Velocity P-wave (km/s) = 7.37285 7.97992 7.68238
#
# Compressibility (1/GPa) = 0.01517018
#
# Stress axis : x y z
#
# Youngs Moduli (GPa) = 144.87216 47.63015 50.91471
#
# Poissons Ratio (x) = 0.16269 0.13431
# Poissons Ratio (y) = 0.49484 0.51580
# Poissons Ratio (z) = 0.38215 0.48252
#
# Static dielectric constant tensor:
#      x y z
#    x 3.868560 0.000000 0.000000 
#    y 0.000000 3.578910 0.000000 
#    z 0.000000 0.000000 3.263630 
# 
# 
# High freq. dielectric constant tensor:
#      x y z
#    x 1.774010 0.000000 0.000000 
#    y 0.000000 1.760230 0.000000 
#    z 0.000000 0.000000 1.719620 
# 
# From -- ./inp_files/6289.got.cif
#   From: 2010.03.12/outbox.cif.g09.slc.cpg/sg51_4_cif.got.tgz:6289.got - 2010.04.16 13:43:02.
