data_PCOD8211021
_publ_section_title
;
Structure prediction by ZEFSAII (Michael W. Deem and Ramdas Pophale) SiO2 
 PCOD8211021
Probable space group: P M M A
;
_chemical_formula_sum "Si O2"
_cell_formula_units_Z 56
_cell_length_a 20.290296
_cell_length_b 9.208700
_cell_length_c 15.608371
_cell_angle_alpha 90.000000
_cell_angle_beta 90.000000
_cell_angle_gamma 90.000000
_cell_volume 2916.381179
_symmetry_space_group_name_H-M "P M M A"
_symmetry_group_IT_number 51
_symmetry_cell_setting 'orthorhombic'
loop_
_space_group_symop_operation_xyz
x,y,z
1/2-x,-y,z
1/2+x,-y,-z
-x,y,-z
-x,-y,-z
1/2+x,y,-z
1/2-x,y,z
x,-y,z
loop_
_atom_site_type_symbol
_atom_site_label
_atom_site_fract_x
_atom_site_fract_y
_atom_site_fract_z
Si Si1 0.441369 0.334458 0.439199
Si Si2 0.673010 0.171636 0.976816
Si Si3 0.950511 0.331642 0.923059
Si Si4 0.323504 0.657549 0.860989
Si Si5 0.508026 0.663831 0.264408
Si Si6 0.175836 0.168993 0.514346
Si Si7 0.863717 0.169803 0.296060
O O1 0.500000 0.270020 0.500000
O O2 0.430752 0.500000 0.467204
O O3 0.453139 0.318825 0.337674
O O4 0.373590 0.251217 0.452581
O O5 0.750000 0.211040 0.954527
O O6 0.647633 0.234222 0.068080
O O7 0.664393 0.000000 0.977389
O O8 0.618768 0.243433 0.914538
O O9 0.932751 0.500000 0.937170
O O10 0.983497 0.304369 0.831098
O O11 0.000000 0.279556 0.000000
O O12 0.250000 0.623554 0.888464
O O13 0.361432 0.500000 0.859062
O O14 0.322380 0.736187 0.770408
O O15 0.537245 0.500000 0.269600
O O16 0.560744 0.785861 0.287224
O O17 0.250000 0.211493 0.488247
O O18 0.163622 0.214445 0.611993
O O19 0.162706 0.000000 0.502473
O O20 0.854298 0.000000 0.277327
#
# Coordination Sequence:
#
# PCOD8211021 Si02
#       7
#     8   8   8   8   8   8   8
#     4  10  20  37  60  84 112 149 192 238 286 340
#     4  10  21  37  57  81 111 149 193 242 294 347
#     4  10  21  37  58  85 116 151 192 241 292 345
#     4  10  20  33  51  76 108 148 190 230 281 346
#     4  10  21  37  57  83 114 147 190 239 288 345
#     4  10  22  38  56  82 117 154 192 238 291 346
#     4  11  21  33  53  81 114 148 185 232 289 349
#
# _framework density 19.201878000000001
#
# number of rings (size 3 to 8) (size 9 to 14) (size 15 to 20)
#    0.000    1.857    1.429    2.571    0.000    6.000 
#    0.000    0.714    0.000    4.286    0.000    0.000 
#    0.000    0.000    0.000    0.000    0.000    0.000 
#
# Total GULP energy -694049.716504 kJ/mol
# GULP energy per Si atom -12393.744938 kJ/mol
# Density = 1.915817 g / cm^3
# Si number density = 19.201878 Si / 1000 Ang^3
#
#
#
# Elastic Constant Matrix: (Units=GPa)
#
#
# Indices 1 2 3 4 5 6 
#
# 1 102.5503 39.4757 32.7277 0.0000 0.0000 0.0000
# 2 39.4757 69.9680 28.4478 0.0000 0.0000 0.0000
# 3 32.7277 28.4478 86.9891 0.0000 0.0000 0.0000
# 4 0.0000 0.0000 0.0000 25.9073 0.0000 0.0000
# 5 0.0000 0.0000 0.0000 0.0000 32.7316 0.0000
# 6 0.0000 0.0000 0.0000 0.0000 0.0000 31.6051
#
#
#
# Elastic Compliance Matrix: (Units=1/GPa)
#
#
# Indices 1 2 3 4 5 6 
#
# 1 0.013056 -0.006193 -0.002887 0.000000 0.000000 0.000000
# 2 -0.006193 0.019421 -0.004021 0.000000 0.000000 0.000000
# 3 -0.002887 -0.004021 0.013897 0.000000 0.000000 0.000000
# 4 0.000000 0.000000 0.000000 0.038599 0.000000 0.000000
# 5 0.000000 0.000000 0.000000 0.000000 0.030552 0.000000
# 6 0.000000 0.000000 0.000000 0.000000 0.000000 0.031640
#
#
# Mechanical properties :
#
#
# Convention : Reuss Voigt Hill
#
# Bulk Modulus (GPa) = 49.57252 51.20109 50.38681
# Shear Modulus (GPa) = 27.76361 28.63923 28.20142
#
# Velocity S-wave (km/s) = 3.80660 3.86616 3.83649
# Velocity P-wave (km/s) = 6.72256 6.83023 6.77661
#
# Compressibility (1/GPa) = 0.02017247
#
# Stress axis : x y z
#
# Youngs Moduli (GPa) = 76.59054 51.49039 71.95801
#
# Poissons Ratio (x) = 0.31886 0.20775
# Poissons Ratio (y) = 0.47429 0.28937
# Poissons Ratio (z) = 0.22112 0.20706
#
# Static dielectric constant tensor:
#      x y z
#    x 3.485560 0.000000 0.000000 
#    y 0.000000 3.608920 0.000000 
#    z 0.000000 0.000000 3.496570 
# 
# 
# High freq. dielectric constant tensor:
#      x y z
#    x 1.745290 0.000000 0.000000 
#    y 0.000000 1.747980 0.000000 
#    z 0.000000 0.000000 1.738080 
# 
# From -- ./inp_files/25685.got.cif
#   From: 2010.03.12/outbox.cif.g09.slc.cpg/sg51_13_cif.got.tgz:25685.got - 2010.04.16 13:43:02.
