data_PCOD8211247
_publ_section_title
;
Structure prediction by ZEFSAII (Michael W. Deem and Ramdas Pophale) SiO2 
 PCOD8211247
Probable space group: P M M A
;
_chemical_formula_sum "Si O2"
_cell_formula_units_Z 52
_cell_length_a 8.930334
_cell_length_b 18.616868
_cell_length_c 18.277828
_cell_angle_alpha 90.000000
_cell_angle_beta 90.000000
_cell_angle_gamma 90.000000
_cell_volume 3038.777539
_symmetry_space_group_name_H-M "P M M A"
_symmetry_group_IT_number 51
_symmetry_cell_setting 'orthorhombic'
loop_
_space_group_symop_operation_xyz
x,y,z
1/2-x,-y,z
1/2+x,-y,-z
-x,y,-z
-x,-y,-z
1/2+x,y,-z
1/2-x,y,z
x,-y,z
loop_
_atom_site_type_symbol
_atom_site_label
_atom_site_fract_x
_atom_site_fract_y
_atom_site_fract_z
Si Si1 0.073071 0.365571 0.343279
Si Si2 0.071640 0.500000 0.579724
Si Si3 0.077171 0.843713 0.280196
Si Si4 0.924006 0.920205 0.163803
Si Si5 0.076015 0.217358 0.924230
Si Si6 0.580513 0.778729 0.574077
Si Si7 0.576423 0.707115 0.218424
O O1 0.250000 0.380407 0.346010
O O2 0.023897 0.295510 0.389486
O O3 0.982040 0.431037 0.376151
O O4 0.023202 0.354094 0.258327
O O5 0.250000 0.500000 0.572343
O O6 0.000000 0.500000 0.500000
O O7 0.250000 0.826028 0.259996
O O8 0.060960 0.844806 0.368525
O O9 0.019770 0.915608 0.239837
O O10 0.964531 0.783603 0.251647
O O11 0.750000 0.907390 0.182139
O O12 0.983163 0.859611 0.107088
O O13 0.950418 0.000000 0.130974
O O14 0.250000 0.209369 0.939217
O O15 0.043222 0.283814 0.868479
O O16 0.000000 0.236957 0.000000
O O17 0.500000 0.799590 0.500000
O O18 0.750000 0.766799 0.551760
O O19 0.750000 0.689781 0.232742
#
# Coordination Sequence:
#
# PCOD8211247 Si02
#       7
#     8   4   8   8   8   8   8
#     4  10  20  34  50  71  98 129 165 202 238 282
#     4  12  24  36  50  72 105 142 173 204 242 284
#     4   9  17  29  44  65  89 114 151 196 236 278
#     4   9  18  32  47  64  89 122 157 191 232 286
#     4   9  18  30  46  70  99 126 154 192 236 282
#     4   9  18  29  44  66  90 115 147 190 236 278
#     4   9  17  31  49  69  93 124 160 197 237 280
#
# _framework density 17.112145000000002
#
# number of rings (size 3 to 8) (size 9 to 14) (size 15 to 20)
#    0.000    2.615    0.000    4.385    0.000    8.615 
#    0.000    0.000    0.000    0.462    0.000    0.538 
#    0.000    0.000    0.000    0.000    0.000    0.000 
#
# Total GULP energy -644326.551178 kJ/mol
# GULP energy per Si atom -12390.895215 kJ/mol
# Density = 1.707320 g / cm^3
# Si number density = 17.112145 Si / 1000 Ang^3
#
#
#
# Elastic Constant Matrix: (Units=GPa)
#
#
# Indices 1 2 3 4 5 6 
#
# 1 67.8730 22.0908 49.9091 0.0000 0.0000 0.0000
# 2 22.0908 45.5192 36.0404 0.0000 0.0000 0.0000
# 3 49.9091 36.0404 123.6307 0.0000 0.0000 0.0000
# 4 0.0000 0.0000 0.0000 20.6083 0.0000 0.0000
# 5 0.0000 0.0000 0.0000 0.0000 33.3159 0.0000
# 6 0.0000 0.0000 0.0000 0.0000 0.0000 22.4308
#
#
#
# Elastic Compliance Matrix: (Units=1/GPa)
#
#
# Indices 1 2 3 4 5 6 
#
# 1 0.021692 -0.004672 -0.007395 0.000000 0.000000 0.000000
# 2 -0.004672 0.029567 -0.006733 0.000000 0.000000 0.000000
# 3 -0.007395 -0.006733 0.013037 0.000000 0.000000 0.000000
# 4 0.000000 0.000000 0.000000 0.048524 0.000000 0.000000
# 5 0.000000 0.000000 0.000000 0.000000 0.030016 0.000000
# 6 0.000000 0.000000 0.000000 0.000000 0.000000 0.044581
#
#
# Mechanical properties :
#
#
# Convention : Reuss Voigt Hill
#
# Bulk Modulus (GPa) = 37.45988 50.34484 43.90236
# Shear Modulus (GPa) = 21.37521 23.86985 22.62253
#
# Velocity S-wave (km/s) = 3.53813 3.73890 3.63990
# Velocity P-wave (km/s) = 6.21526 6.93711 6.58609
#
# Compressibility (1/GPa) = 0.02669523
#
# Stress axis : x y z
#
# Youngs Moduli (GPa) = 46.10060 33.82114 76.70665
#
# Poissons Ratio (x) = 0.15802 0.56723
# Poissons Ratio (y) = 0.21539 0.51648
# Poissons Ratio (z) = 0.34090 0.22772
#
# Static dielectric constant tensor:
#      x y z
#    x 3.490660 0.000000 0.000000 
#    y 0.000000 3.111510 0.000000 
#    z 0.000000 0.000000 3.425100 
# 
# 
# High freq. dielectric constant tensor:
#      x y z
#    x 1.668950 0.000000 0.000000 
#    y 0.000000 1.622560 0.000000 
#    z 0.000000 0.000000 1.656360 
# 
# From -- ./inp_files/27953.got.cif
#   From: 2010.03.12/outbox.cif.g09.slc.cpg/sg51_14_cif.got.tgz:27953.got - 2010.04.16 13:43:02.
