data_PCOD8211216
_publ_section_title
;
Structure prediction by ZEFSAII (Michael W. Deem and Ramdas Pophale) SiO2 
 PCOD8211216
Probable space group: P M M A
;
_chemical_formula_sum "Si O2"
_cell_formula_units_Z 64
_cell_length_a 17.323888
_cell_length_b 14.233884
_cell_length_c 12.875388
_cell_angle_alpha 90.000000
_cell_angle_beta 90.000000
_cell_angle_gamma 90.000000
_cell_volume 3174.893158
_symmetry_space_group_name_H-M "P M M A"
_symmetry_group_IT_number 51
_symmetry_cell_setting 'orthorhombic'
loop_
_space_group_symop_operation_xyz
x,y,z
1/2-x,-y,z
1/2+x,-y,-z
-x,y,-z
-x,-y,-z
1/2+x,y,-z
1/2-x,y,z
x,-y,z
loop_
_atom_site_type_symbol
_atom_site_label
_atom_site_fract_x
_atom_site_fract_y
_atom_site_fract_z
Si Si1 0.658219 0.396607 0.040060
Si Si2 0.338329 0.794699 0.492249
Si Si3 0.102422 0.891066 0.294537
Si Si4 0.577150 0.108870 0.321913
Si Si5 0.159365 0.208153 0.867089
Si Si6 0.666404 0.610558 0.817906
Si Si7 0.659209 0.106775 0.923882
Si Si8 0.842044 0.604022 0.595197
O O1 0.750000 0.400972 0.024873
O O2 0.627076 0.500000 0.074308
O O3 0.637989 0.319171 0.127077
O O4 0.623040 0.364273 0.926902
O O5 0.250000 0.802569 0.530105
O O6 0.345011 0.838159 0.377819
O O7 0.392449 0.850227 0.570386
O O8 0.364617 0.684504 0.487826
O O9 0.119445 0.849687 0.179420
O O10 0.013681 0.876693 0.322626
O O11 0.126465 0.000000 0.296353
O O12 0.613561 0.164092 0.226897
O O13 0.600506 0.000000 0.313401
O O14 0.250000 0.191273 0.848516
O O15 0.131590 0.162297 0.974698
O O16 0.750000 0.662056 0.817685
O O17 0.679605 0.500000 0.819329
O O18 0.622360 0.633670 0.709004
O O19 0.750000 0.114057 0.908839
O O20 0.631792 0.000000 0.939753
O O21 0.750000 0.600838 0.608559
O O22 0.871725 0.500000 0.559570
#
# Coordination Sequence:
#
# PCOD8211216 Si02
#       8
#     8   8   8   8   8   8   8   8
#     4   8  14  25  44  74 110 143 176 217 268 323
#     4  11  22  35  59  88 111 138 181 234 282 321
#     4  10  22  39  58  80 109 144 181 228 285 339
#     4  11  24  41  57  74 105 153 197 225 265 337
#     4  10  20  33  54  82 112 145 185 229 273 318
#     4   7  10  19  38  66 102 138 165 199 254 316
#     4   9  18  33  55  85 114 135 167 225 286 327
#     4   8  15  28  48  79 115 143 171 214 272 331
#
# _framework density 20.158158
#
# number of rings (size 3 to 8) (size 9 to 14) (size 15 to 20)
#    0.000    2.750    0.000    3.375    1.750    4.250 
#    0.000    2.500    0.000    5.250    0.000    0.875 
#    0.000    0.000    0.000    0.000    0.000    0.000 
#
# Total GULP energy -793038.209693 kJ/mol
# GULP energy per Si atom -12391.222026 kJ/mol
# Density = 2.011228 g / cm^3
# Si number density = 20.158158 Si / 1000 Ang^3
#
#
#
# Elastic Constant Matrix: (Units=GPa)
#
#
# Indices 1 2 3 4 5 6 
#
# 1 23.2976 16.5411 11.6389 0.0000 0.0000 0.0000
# 2 16.5411 92.2251 42.5418 0.0000 0.0000 0.0000
# 3 11.6389 42.5418 84.2630 0.0000 0.0000 0.0000
# 4 0.0000 0.0000 0.0000 37.0219 0.0000 0.0000
# 5 0.0000 0.0000 0.0000 0.0000 27.1517 0.0000
# 6 0.0000 0.0000 0.0000 0.0000 0.0000 6.3110
#
#
#
# Elastic Compliance Matrix: (Units=1/GPa)
#
#
# Indices 1 2 3 4 5 6 
#
# 1 0.049795 -0.007507 -0.003088 0.000000 0.000000 0.000000
# 2 -0.007507 0.015266 -0.006671 0.000000 0.000000 0.000000
# 3 -0.003088 -0.006671 0.015662 0.000000 0.000000 0.000000
# 4 0.000000 0.000000 0.000000 0.027011 0.000000 0.000000
# 5 0.000000 0.000000 0.000000 0.000000 0.036830 0.000000
# 6 0.000000 0.000000 0.000000 0.000000 0.000000 0.158453
#
#
# Mechanical properties :
#
#
# Convention : Reuss Voigt Hill
#
# Bulk Modulus (GPa) = 21.64840 37.91438 29.78139
# Shear Modulus (GPa) = 14.16647 22.70119 18.43383
#
# Velocity S-wave (km/s) = 2.65385 3.35946 3.02728
# Velocity P-wave (km/s) = 4.48923 5.82214 5.19858
#
# Compressibility (1/GPa) = 0.04619279
#
# Stress axis : x y z
#
# Youngs Moduli (GPa) = 20.08226 65.50305 63.84878
#
# Poissons Ratio (x) = 0.49170 0.19718
# Poissons Ratio (y) = 0.15075 0.42592
# Poissons Ratio (z) = 0.06202 0.43695
#
# Static dielectric constant tensor:
#      x y z
#    x 3.148050 0.000000 0.000000 
#    y 0.000000 3.998020 0.000000 
#    z 0.000000 0.000000 3.794450 
# 
# 
# High freq. dielectric constant tensor:
#      x y z
#    x 1.730060 0.000000 0.000000 
#    y 0.000000 1.800310 0.000000 
#    z 0.000000 0.000000 1.784420 
# 
# From -- ./inp_files/17514.got.cif
#   From: 2010.03.12/outbox.cif.g09.slc.cpg/sg51_9_cif.got.tgz:17514.got - 2010.04.16 13:43:02.
