data_PCOD8211456
_publ_section_title
;
Structure prediction by ZEFSAII (Michael W. Deem and Ramdas Pophale) SiO2 
 PCOD8211456
Probable space group: P M M A
;
_chemical_formula_sum "Si O2"
_cell_formula_units_Z 56
_cell_length_a 9.355169
_cell_length_b 18.674671
_cell_length_c 18.940742
_cell_angle_alpha 90.000000
_cell_angle_beta 90.000000
_cell_angle_gamma 90.000000
_cell_volume 3309.036710
_symmetry_space_group_name_H-M "P M M A"
_symmetry_group_IT_number 51
_symmetry_cell_setting 'orthorhombic'
loop_
_space_group_symop_operation_xyz
x,y,z
1/2-x,-y,z
1/2+x,-y,-z
-x,y,-z
-x,-y,-z
1/2+x,y,-z
1/2-x,y,z
x,-y,z
loop_
_atom_site_type_symbol
_atom_site_label
_atom_site_fract_x
_atom_site_fract_y
_atom_site_fract_z
Si Si1 0.919781 0.714433 0.926807
Si Si2 0.415431 0.208542 0.809235
Si Si3 0.914949 0.419891 0.835593
Si Si4 0.416794 0.140952 0.567790
Si Si5 0.584459 0.692151 0.433164
Si Si6 0.413506 0.651778 0.719318
Si Si7 0.419576 0.920063 0.714458
O O1 0.750000 0.724542 0.936066
O O2 0.960171 0.636053 0.896206
O O3 0.982012 0.775259 0.875250
O O4 0.000000 0.722872 0.000000
O O5 0.250000 0.204000 0.834302
O O6 0.433697 0.268690 0.749697
O O7 0.471398 0.134179 0.775469
O O8 0.750000 0.410241 0.817415
O O9 0.950026 0.500000 0.862815
O O10 0.996634 0.405875 0.762727
O O11 0.500000 0.110059 0.500000
O O12 0.250000 0.125579 0.556631
O O13 0.449242 0.224535 0.577185
O O14 0.478182 0.101678 0.637339
O O15 0.500000 0.660149 0.500000
O O16 0.750000 0.679205 0.447707
O O17 0.535204 0.651589 0.361978
O O18 0.250000 0.627829 0.724878
O O19 0.250000 0.914953 0.710656
O O20 0.472416 0.000000 0.733657
#
# Coordination Sequence:
#
# PCOD8211456 Si02
#       7
#     8   8   8   8   8   8   8
#     4  10  20  34  53  77 101 126 153 182 221 269
#     4   9  16  30  50  70  94 123 158 198 235 275
#     4   9  19  34  50  72 102 129 151 180 222 272
#     4   9  16  27  41  61  91 126 161 199 241 284
#     4   9  16  26  41  63  90 120 157 202 244 279
#     4   9  16  28  47  68  91 122 161 200 235 274
#     4   9  16  27  46  69  93 126 165 201 240 285
#
# _framework density 16.923355000000001
#
# number of rings (size 3 to 8) (size 9 to 14) (size 15 to 20)
#    0.000    2.857    1.429    0.429    0.000    2.000 
#    0.000    0.714    0.000    2.143    0.000    0.000 
#    0.000    0.000    0.000    0.000    0.000    0.000 
#
# Total GULP energy -694274.930403 kJ/mol
# GULP energy per Si atom -12397.766614 kJ/mol
# Density = 1.688484 g / cm^3
# Si number density = 16.923355 Si / 1000 Ang^3
#
#
#
# Elastic Constant Matrix: (Units=GPa)
#
#
# Indices 1 2 3 4 5 6 
#
# 1 51.5767 27.9447 53.5679 0.0000 0.0000 0.0000
# 2 27.9447 74.3576 52.7363 0.0000 0.0000 0.0000
# 3 53.5679 52.7363 143.0851 0.0000 0.0000 0.0000
# 4 0.0000 0.0000 0.0000 17.8688 0.0000 0.0000
# 5 0.0000 0.0000 0.0000 0.0000 31.6424 0.0000
# 6 0.0000 0.0000 0.0000 0.0000 0.0000 16.0841
#
#
#
# Elastic Compliance Matrix: (Units=1/GPa)
#
#
# Indices 1 2 3 4 5 6 
#
# 1 0.033006 -0.004929 -0.010540 0.000000 0.000000 0.000000
# 2 -0.004929 0.018944 -0.005137 0.000000 0.000000 0.000000
# 3 -0.010540 -0.005137 0.012828 0.000000 0.000000 0.000000
# 4 0.000000 0.000000 0.000000 0.055963 0.000000 0.000000
# 5 0.000000 0.000000 0.000000 0.000000 0.031603 0.000000
# 6 0.000000 0.000000 0.000000 0.000000 0.000000 0.062173
#
#
# Mechanical properties :
#
#
# Convention : Reuss Voigt Hill
#
# Bulk Modulus (GPa) = 42.43302 59.72416 51.07859
# Shear Modulus (GPa) = 18.96918 22.10377 20.53648
#
# Velocity S-wave (km/s) = 3.35160 3.61794 3.48731
# Velocity P-wave (km/s) = 6.33291 7.26775 6.81637
#
# Compressibility (1/GPa) = 0.02356655
#
# Stress axis : x y z
#
# Youngs Moduli (GPa) = 30.29735 52.78696 77.95364
#
# Poissons Ratio (x) = 0.26018 0.82165
# Poissons Ratio (y) = 0.14933 0.40044
# Poissons Ratio (z) = 0.31934 0.27116
#
# Static dielectric constant tensor:
#      x y z
#    x 3.044610 0.000000 0.000000 
#    y 0.000000 3.113520 0.000000 
#    z 0.000000 0.000000 3.230890 
# 
# 
# High freq. dielectric constant tensor:
#      x y z
#    x 1.635990 0.000000 0.000000 
#    y 0.000000 1.630560 0.000000 
#    z 0.000000 0.000000 1.651330 
# 
# From -- ./inp_files/28210.got.cif
#   From: 2010.03.12/outbox.cif.g09.slc.cpg/sg51_15_cif.got.tgz:28210.got - 2010.04.16 13:43:02.
