data_PCOD8211523
_publ_section_title
;
Structure prediction by ZEFSAII (Michael W. Deem and Ramdas Pophale) SiO2 
 PCOD8211523
Probable space group: P M M A
;
_chemical_formula_sum "Si O2"
_cell_formula_units_Z 52
_cell_length_a 9.225929
_cell_length_b 13.253380
_cell_length_c 22.613587
_cell_angle_alpha 90.000000
_cell_angle_beta 90.000000
_cell_angle_gamma 90.000000
_cell_volume 2765.070536
_symmetry_space_group_name_H-M "P M M A"
_symmetry_group_IT_number 51
_symmetry_cell_setting 'orthorhombic'
loop_
_space_group_symop_operation_xyz
x,y,z
1/2-x,-y,z
1/2+x,-y,-z
-x,y,-z
-x,-y,-z
1/2+x,y,-z
1/2-x,y,z
x,-y,z
loop_
_atom_site_type_symbol
_atom_site_label
_atom_site_fract_x
_atom_site_fract_y
_atom_site_fract_z
Si Si1 0.418962 0.113882 0.439396
Si Si2 0.914064 0.112222 0.165048
Si Si3 0.914395 0.612297 0.863746
Si Si4 0.080675 0.700606 0.759169
Si Si5 0.920101 0.695521 0.637031
Si Si6 0.080505 0.799885 0.060721
Si Si7 0.580635 0.500000 0.561515
O O1 0.500000 0.136431 0.500000
O O2 0.250000 0.125641 0.452887
O O3 0.468640 0.198095 0.392206
O O4 0.454706 0.000000 0.416207
O O5 0.750000 0.134503 0.143239
O O6 0.955001 0.186301 0.218648
O O7 0.021569 0.123211 0.109827
O O8 0.929876 0.000000 0.190712
O O9 0.750000 0.634287 0.842611
O O10 0.931527 0.500000 0.889240
O O11 0.956152 0.686897 0.917108
O O12 0.019073 0.623579 0.807702
O O13 0.250000 0.680435 0.751320
O O14 0.003932 0.681648 0.697624
O O15 0.750000 0.695032 0.650456
O O16 0.964715 0.600961 0.596473
O O17 0.250000 0.818568 0.051379
O O18 0.000000 0.821232 0.000000
O O19 0.750000 0.500000 0.548378
O O20 0.500000 0.500000 0.500000
#
# Coordination Sequence:
#
# PCOD8211523 Si02
#       7
#     8   8   8   8   8   8   4
#     4   9  18  33  53  76 102 133 171 216 264 313
#     4   9  19  37  57  76 104 141 177 218 268 315
#     4   9  19  36  56  75 101 139 176 213 262 317
#     4  10  21  35  53  80 107 133 173 221 263 307
#     4  10  21  36  53  76 107 142 177 213 262 322
#     4  10  20  34  53  79 108 138 176 219 263 315
#     4  10  22  38  56  78 106 142 179 218 263 314
#
# _framework density 18.80603
#
# number of rings (size 3 to 8) (size 9 to 14) (size 15 to 20)
#    0.000    2.462    0.000    1.385    1.077    4.308 
#    0.000    0.000    0.000    0.000    0.000    0.000 
#    0.000    0.000    0.000    0.000    0.000    0.000 
#
# Total GULP energy -644834.734913 kJ/mol
# GULP energy per Si atom -12400.667979 kJ/mol
# Density = 1.876323 g / cm^3
# Si number density = 18.806030 Si / 1000 Ang^3
#
#
#
# Elastic Constant Matrix: (Units=GPa)
#
#
# Indices 1 2 3 4 5 6 
#
# 1 62.9601 20.8286 42.8979 0.0000 0.0000 0.0000
# 2 20.8286 94.5672 22.0032 0.0000 0.0000 0.0000
# 3 42.8979 22.0032 93.6970 0.0000 0.0000 0.0000
# 4 0.0000 0.0000 0.0000 10.0191 0.0000 0.0000
# 5 0.0000 0.0000 0.0000 0.0000 31.9860 0.0000
# 6 0.0000 0.0000 0.0000 0.0000 0.0000 21.4714
#
#
#
# Elastic Compliance Matrix: (Units=1/GPa)
#
#
# Indices 1 2 3 4 5 6 
#
# 1 0.023795 -0.002862 -0.010222 0.000000 0.000000 0.000000
# 2 -0.002862 0.011530 -0.001397 0.000000 0.000000 0.000000
# 3 -0.010222 -0.001397 0.015681 0.000000 0.000000 0.000000
# 4 0.000000 0.000000 0.000000 0.099809 0.000000 0.000000
# 5 0.000000 0.000000 0.000000 0.000000 0.031264 0.000000
# 6 0.000000 0.000000 0.000000 0.000000 0.000000 0.046574
#
#
# Mechanical properties :
#
#
# Convention : Reuss Voigt Hill
#
# Bulk Modulus (GPa) = 45.36674 46.96485 46.16579
# Shear Modulus (GPa) = 18.87062 23.72829 21.29946
#
# Velocity S-wave (km/s) = 3.17114 3.55595 3.36904
# Velocity P-wave (km/s) = 6.13058 6.47203 6.30362
#
# Compressibility (1/GPa) = 0.02204258
#
# Stress axis : x y z
#
# Youngs Moduli (GPa) = 42.02610 86.73011 63.77245
#
# Poissons Ratio (x) = 0.24826 0.65188
# Poissons Ratio (y) = 0.12030 0.08910
# Poissons Ratio (z) = 0.42959 0.12117
#
# Static dielectric constant tensor:
#      x y z
#    x 3.416840 0.000000 0.000000 
#    y 0.000000 3.644540 0.000000 
#    z 0.000000 0.000000 3.225440 
# 
# 
# High freq. dielectric constant tensor:
#      x y z
#    x 1.732160 0.000000 0.000000 
#    y 0.000000 1.741610 0.000000 
#    z 0.000000 0.000000 1.717540 
# 
# From -- ./inp_files/31719.got.cif
#   From: 2010.03.12/outbox.cif.g09.slc.cpg/sg51_16_cif.got.tgz:31719.got - 2010.04.16 13:43:02.
