data_PCOD8211309
_publ_section_title
;
Structure prediction by ZEFSAII (Michael W. Deem and Ramdas Pophale) SiO2 
 PCOD8211309
Probable space group: P M M A
;
_chemical_formula_sum "Si O2"
_cell_formula_units_Z 64
_cell_length_a 18.299412
_cell_length_b 9.185767
_cell_length_c 21.393206
_cell_angle_alpha 90.000000
_cell_angle_beta 90.000000
_cell_angle_gamma 90.000000
_cell_volume 3596.072455
_symmetry_space_group_name_H-M "P M M A"
_symmetry_group_IT_number 51
_symmetry_cell_setting 'orthorhombic'
loop_
_space_group_symop_operation_xyz
x,y,z
1/2-x,-y,z
1/2+x,-y,-z
-x,y,-z
-x,-y,-z
1/2+x,y,-z
1/2-x,y,z
x,-y,z
loop_
_atom_site_type_symbol
_atom_site_label
_atom_site_fract_x
_atom_site_fract_y
_atom_site_fract_z
Si Si1 0.663153 0.836819 0.377355
Si Si2 0.335221 0.669566 0.746009
Si Si3 0.332989 0.330502 0.122677
Si Si4 0.330997 0.326951 0.368115
Si Si5 0.454636 0.829596 0.811775
Si Si6 0.662775 0.662590 0.495025
Si Si7 0.037902 0.169788 0.062880
Si Si8 0.083635 0.329685 0.248099
O O1 0.750000 0.838945 0.380891
O O2 0.637822 0.739469 0.319072
O O3 0.631240 0.767774 0.441252
O O4 0.632091 0.000000 0.369738
O O5 0.250000 0.696645 0.757576
O O6 0.354591 0.500000 0.744490
O O7 0.377263 0.749123 0.802560
O O8 0.250000 0.273994 0.114871
O O9 0.338266 0.500000 0.107358
O O10 0.384872 0.248841 0.073401
O O11 0.357918 0.298510 0.193480
O O12 0.250000 0.260789 0.357767
O O13 0.325411 0.500000 0.365500
O O14 0.362237 0.280125 0.436335
O O15 0.383310 0.270974 0.313112
O O16 0.481795 0.795596 0.881452
O O17 0.511045 0.763338 0.762051
O O18 0.445401 0.000000 0.799472
O O19 0.750000 0.658513 0.493717
O O20 0.632482 0.500000 0.482524
O O21 0.055465 0.000000 0.057827
O O22 0.000000 0.228820 0.000000
O O23 0.063280 0.500000 0.250606
#
# Coordination Sequence:
#
# PCOD8211309 Si02
#       8
#     8   8   8   8   8   8   8   8
#     4   9  16  26  42  65  92 121 153 191 238 287
#     4  10  20  34  53  75  96 119 152 195 241 289
#     4   9  17  29  48  76 105 131 164 206 246 282
#     4   8  13  22  40  66  93 124 163 202 236 274
#     4  10  20  34  52  73  97 124 155 192 235 283
#     4   8  13  22  37  59  88 121 158 197 234 275
#     4   9  19  36  55  74  99 134 171 200 231 280
#     4   9  16  28  47  69  96 130 164 197 235 281
#
# _framework density 17.797194000000001
#
# number of rings (size 3 to 8) (size 9 to 14) (size 15 to 20)
#    0.000    3.000    0.000    2.250    0.000    4.750 
#    0.000    1.250    0.000    6.375    0.000    5.250 
#    0.000    0.000    0.000    0.000    0.000    0.000 
#
# Total GULP energy -793451.418170 kJ/mol
# GULP energy per Si atom -12397.678409 kJ/mol
# Density = 1.775669 g / cm^3
# Si number density = 17.797194 Si / 1000 Ang^3
#
#
#
# Elastic Constant Matrix: (Units=GPa)
#
#
# Indices 1 2 3 4 5 6 
#
# 1 81.6736 47.9900 56.5697 0.0000 0.0000 0.0000
# 2 47.9900 85.7532 49.8004 0.0000 0.0000 0.0000
# 3 56.5697 49.8004 105.0135 0.0000 0.0000 0.0000
# 4 0.0000 0.0000 0.0000 25.6299 0.0000 0.0000
# 5 0.0000 0.0000 0.0000 0.0000 23.4393 0.0000
# 6 0.0000 0.0000 0.0000 0.0000 0.0000 22.5802
#
#
#
# Elastic Compliance Matrix: (Units=1/GPa)
#
#
# Indices 1 2 3 4 5 6 
#
# 1 0.022731 -0.007742 -0.008574 0.000000 0.000000 0.000000
# 2 -0.007742 0.018730 -0.004712 0.000000 0.000000 0.000000
# 3 -0.008574 -0.004712 0.016376 0.000000 0.000000 0.000000
# 4 0.000000 0.000000 0.000000 0.039017 0.000000 0.000000
# 5 0.000000 0.000000 0.000000 0.000000 0.042663 0.000000
# 6 0.000000 0.000000 0.000000 0.000000 0.000000 0.044287
#
#
# Mechanical properties :
#
#
# Convention : Reuss Voigt Hill
#
# Bulk Modulus (GPa) = 63.36264 64.57338 63.96801
# Shear Modulus (GPa) = 21.63375 22.20189 21.91782
#
# Velocity S-wave (km/s) = 3.49029 3.53582 3.51313
# Velocity P-wave (km/s) = 7.20574 7.28224 7.24409
#
# Compressibility (1/GPa) = 0.01578217
#
# Stress axis : x y z
#
# Youngs Moduli (GPa) = 43.99221 53.38890 61.06637
#
# Poissons Ratio (x) = 0.41334 0.52356
# Poissons Ratio (y) = 0.34059 0.28774
# Poissons Ratio (z) = 0.37717 0.25157
#
# Static dielectric constant tensor:
#      x y z
#    x 3.104320 0.000000 0.000000 
#    y 0.000000 3.234390 0.000000 
#    z 0.000000 0.000000 3.437830 
# 
# 
# High freq. dielectric constant tensor:
#      x y z
#    x 1.661230 0.000000 0.000000 
#    y 0.000000 1.676780 0.000000 
#    z 0.000000 0.000000 1.687370 
# 
# From -- ./inp_files/34117.got.cif
#   From: 2010.03.12/outbox.cif.g09.slc.cpg/sg51_18_cif.got.tgz:34117.got - 2010.04.16 13:43:02.
