data_PCOD8211100
_publ_section_title
;
Structure prediction by ZEFSAII (Michael W. Deem and Ramdas Pophale) SiO2 
 PCOD8211100
Probable space group: P M M A
;
_chemical_formula_sum "Si O2"
_cell_formula_units_Z 48
_cell_length_a 15.326881
_cell_length_b 9.256671
_cell_length_c 18.555322
_cell_angle_alpha 90.000000
_cell_angle_beta 90.000000
_cell_angle_gamma 90.000000
_cell_volume 2632.552913
_symmetry_space_group_name_H-M "P M M A"
_symmetry_group_IT_number 51
_symmetry_cell_setting 'orthorhombic'
loop_
_space_group_symop_operation_xyz
x,y,z
1/2-x,-y,z
1/2+x,-y,-z
-x,y,-z
-x,-y,-z
1/2+x,y,-z
1/2-x,y,z
x,-y,z
loop_
_atom_site_type_symbol
_atom_site_label
_atom_site_fract_x
_atom_site_fract_y
_atom_site_fract_z
Si Si1 0.350581 0.330986 0.430963
Si Si2 0.511550 0.169368 0.833267
Si Si3 0.845166 0.836932 0.080524
Si Si4 0.014806 0.168703 0.331827
Si Si5 0.848804 0.166462 0.423764
Si Si6 0.910246 0.337342 0.956739
O O1 0.250000 0.300164 0.410533
O O2 0.370637 0.500000 0.434658
O O3 0.411334 0.259181 0.371517
O O4 0.373386 0.263956 0.508216
O O5 0.415208 0.214663 0.860596
O O6 0.518351 0.217843 0.750877
O O7 0.582753 0.255250 0.880370
O O8 0.529049 0.000000 0.842213
O O9 0.750000 0.826758 0.117404
O O10 0.867394 0.000000 0.056352
O O11 0.841380 0.741523 0.008145
O O12 0.917643 0.203512 0.361040
O O13 0.036137 0.000000 0.341006
O O14 0.750000 0.199380 0.396405
O O15 0.857166 0.000000 0.447780
O O16 0.879331 0.500000 0.941284
O O17 0.000000 0.331690 0.000000
#
# Coordination Sequence:
#
# PCOD8211100 Si02
#       6
#     8   8   8   8   8   8
#     4  10  21  36  53  73  98 131 173 218 259 299
#     4   9  18  32  49  71 100 130 160 197 242 294
#     4   9  17  30  50  74  98 126 160 198 241 290
#     4  10  20  33  52  78 105 135 169 205 251 304
#     4   9  18  33  53  77 105 135 167 205 249 300
#     4   9  17  30  48  68  91 122 159 195 231 275
#
# _framework density 18.233253000000001
#
# number of rings (size 3 to 8) (size 9 to 14) (size 15 to 20)
#    0.000    2.667    0.000    1.500    0.000    7.333 
#    0.000    4.167    0.000    1.000    0.000    4.667 
#    0.000    0.000    0.000    0.000    0.000    0.000 
#
# Total GULP energy -595130.941194 kJ/mol
# GULP energy per Si atom -12398.561275 kJ/mol
# Density = 1.819175 g / cm^3
# Si number density = 18.233253 Si / 1000 Ang^3
#
#
#
# Elastic Constant Matrix: (Units=GPa)
#
#
# Indices 1 2 3 4 5 6 
#
# 1 55.2564 27.1982 33.5629 0.0000 0.0000 0.0000
# 2 27.1982 75.8364 51.4928 0.0000 0.0000 0.0000
# 3 33.5629 51.4928 120.3405 0.0000 0.0000 0.0000
# 4 0.0000 0.0000 0.0000 10.1902 0.0000 0.0000
# 5 0.0000 0.0000 0.0000 0.0000 19.7086 0.0000
# 6 0.0000 0.0000 0.0000 0.0000 0.0000 20.8843
#
#
#
# Elastic Compliance Matrix: (Units=1/GPa)
#
#
# Indices 1 2 3 4 5 6 
#
# 1 0.023346 -0.005570 -0.004128 0.000000 0.000000 0.000000
# 2 -0.005570 0.019915 -0.006968 0.000000 0.000000 0.000000
# 3 -0.004128 -0.006968 0.012443 0.000000 0.000000 0.000000
# 4 0.000000 0.000000 0.000000 0.098133 0.000000 0.000000
# 5 0.000000 0.000000 0.000000 0.000000 0.050739 0.000000
# 6 0.000000 0.000000 0.000000 0.000000 0.000000 0.047883
#
#
# Mechanical properties :
#
#
# Convention : Reuss Voigt Hill
#
# Bulk Modulus (GPa) = 44.69862 52.88235 48.79049
# Shear Modulus (GPa) = 17.05033 19.43524 18.24279
#
# Velocity S-wave (km/s) = 3.06130 3.26839 3.16654
# Velocity P-wave (km/s) = 6.08798 6.58099 6.33928
#
# Compressibility (1/GPa) = 0.02237206
#
# Stress axis : x y z
#
# Youngs Moduli (GPa) = 42.83298 50.21263 80.36894
#
# Poissons Ratio (x) = 0.27970 0.33175
# Poissons Ratio (y) = 0.23859 0.56002
# Poissons Ratio (z) = 0.17681 0.34989
#
# Static dielectric constant tensor:
#      x y z
#    x 3.353290 0.000000 0.000000 
#    y 0.000000 3.405970 0.000000 
#    z 0.000000 0.000000 3.281300 
# 
# 
# High freq. dielectric constant tensor:
#      x y z
#    x 1.702710 0.000000 0.000000 
#    y 0.000000 1.704460 0.000000 
#    z 0.000000 0.000000 1.693800 
# 
# From -- ./inp_files/29455.got.cif
#   From: 2010.03.12/outbox.cif.g09.slc.cpg/sg51_15_cif.got.tgz:29455.got - 2010.04.16 13:43:02.
