data_PCOD8211389
_publ_section_title
;
Structure prediction by ZEFSAII (Michael W. Deem and Ramdas Pophale) SiO2 
 PCOD8211389
Probable space group: P M M A
;
_chemical_formula_sum "Si O2"
_cell_formula_units_Z 52
_cell_length_a 9.156204
_cell_length_b 14.870583
_cell_length_c 23.228005
_cell_angle_alpha 90.000000
_cell_angle_beta 90.000000
_cell_angle_gamma 90.000000
_cell_volume 3162.680831
_symmetry_space_group_name_H-M "P M M A"
_symmetry_group_IT_number 51
_symmetry_cell_setting 'orthorhombic'
loop_
_space_group_symop_operation_xyz
x,y,z
1/2-x,-y,z
1/2+x,-y,-z
-x,y,-z
-x,-y,-z
1/2+x,y,-z
1/2-x,y,z
x,-y,z
loop_
_atom_site_type_symbol
_atom_site_label
_atom_site_fract_x
_atom_site_fract_y
_atom_site_fract_z
Si Si1 0.583485 0.755840 0.771548
Si Si2 0.417646 0.398445 0.827014
Si Si3 0.589216 0.159743 0.895531
Si Si4 0.080324 0.000000 0.940157
Si Si5 0.080381 0.350329 0.057749
Si Si6 0.589600 0.893732 0.552855
Si Si7 0.575396 0.100770 0.679614
O O1 0.750000 0.727920 0.756886
O O2 0.487065 0.665781 0.777926
O O3 0.577033 0.809267 0.830537
O O4 0.517159 0.822813 0.723199
O O5 0.250000 0.369480 0.837962
O O6 0.426906 0.500000 0.803355
O O7 0.504745 0.394354 0.886956
O O8 0.750000 0.117407 0.906565
O O9 0.463068 0.087884 0.904761
O O10 0.565862 0.242759 0.938661
O O11 0.250000 0.000000 0.951479
O O12 0.000000 0.000000 0.000000
O O13 0.250000 0.380028 0.056392
O O14 0.000000 0.384352 0.000000
O O15 0.500000 0.850357 0.500000
O O16 0.750000 0.850240 0.549928
O O17 0.518410 0.873406 0.615478
O O18 0.600837 0.000000 0.544772
O O19 0.750000 0.098855 0.679841
O O20 0.519388 0.000000 0.696835
#
# Coordination Sequence:
#
# PCOD8211389 Si02
#       7
#     8   8   8   4   8   8   8
#     4   9  18  32  52  72  90 118 153 192 231 268
#     4  10  21  36  52  69  92 121 148 181 229 281
#     4   9  19  33  48  66  86 111 144 183 226 267
#     4  12  24  34  46  62  82 112 149 186 223 264
#     4  10  20  34  53  73  91 113 141 179 226 277
#     4   8  13  22  37  59  89 125 162 194 222 256
#     4   8  14  25  44  69  95 126 162 194 225 265
#
# _framework density 16.441748
#
# number of rings (size 3 to 8) (size 9 to 14) (size 15 to 20)
#    0.000    2.769    0.000    3.923    1.077    5.846 
#    0.000    0.769    0.000    0.923    0.000    0.000 
#    0.000    0.615    0.000    1.385    0.000    2.462 
#
# Total GULP energy -644532.347119 kJ/mol
# GULP energy per Si atom -12394.852829 kJ/mol
# Density = 1.640433 g / cm^3
# Si number density = 16.441748 Si / 1000 Ang^3
#
#
#
# Elastic Constant Matrix: (Units=GPa)
#
#
# Indices 1 2 3 4 5 6 
#
# 1 92.9942 41.0913 32.7896 0.0000 0.0000 0.0000
# 2 41.0913 80.7128 39.2423 0.0000 0.0000 0.0000
# 3 32.7896 39.2423 92.2403 0.0000 0.0000 0.0000
# 4 0.0000 0.0000 0.0000 12.1124 0.0000 0.0000
# 5 0.0000 0.0000 0.0000 0.0000 22.6773 0.0000
# 6 0.0000 0.0000 0.0000 0.0000 0.0000 22.1276
#
#
#
# Elastic Compliance Matrix: (Units=1/GPa)
#
#
# Indices 1 2 3 4 5 6 
#
# 1 0.014320 -0.006071 -0.002508 0.000000 0.000000 0.000000
# 2 -0.006071 0.018195 -0.005582 0.000000 0.000000 0.000000
# 3 -0.002508 -0.005582 0.014108 0.000000 0.000000 0.000000
# 4 0.000000 0.000000 0.000000 0.082560 0.000000 0.000000
# 5 0.000000 0.000000 0.000000 0.000000 0.044097 0.000000
# 6 0.000000 0.000000 0.000000 0.000000 0.000000 0.045192
#
#
# Mechanical properties :
#
#
# Convention : Reuss Voigt Hill
#
# Bulk Modulus (GPa) = 54.64529 54.68821 54.66675
# Shear Modulus (GPa) = 19.77107 21.57173 20.67140
#
# Velocity S-wave (km/s) = 3.47146 3.62610 3.54962
# Velocity P-wave (km/s) = 7.02680 7.13200 7.07959
#
# Compressibility (1/GPa) = 0.01829984
#
# Stress axis : x y z
#
# Youngs Moduli (GPa) = 69.83107 54.96095 70.88358
#
# Poissons Ratio (x) = 0.33369 0.17775
# Poissons Ratio (y) = 0.42397 0.39570
# Poissons Ratio (z) = 0.17511 0.30682
#
# Static dielectric constant tensor:
#      x y z
#    x 3.193660 0.000000 0.000000 
#    y 0.000000 2.975920 0.000000 
#    z 0.000000 0.000000 3.143120 
# 
# 
# High freq. dielectric constant tensor:
#      x y z
#    x 1.624450 0.000000 0.000000 
#    y 0.000000 1.607840 0.000000 
#    z 0.000000 0.000000 1.617610 
# 
# From -- ./inp_files/34687.got.cif
#   From: 2010.03.12/outbox.cif.g09.slc.cpg/sg51_18_cif.got.tgz:34687.got - 2010.04.16 13:43:02.
