data_PCOD8211547
_publ_section_title
;
Structure prediction by ZEFSAII (Michael W. Deem and Ramdas Pophale) SiO2 
 PCOD8211547
Probable space group: P M M A
;
_chemical_formula_sum "Si O2"
_cell_formula_units_Z 48
_cell_length_a 9.508378
_cell_length_b 8.965524
_cell_length_c 29.224383
_cell_angle_alpha 90.000000
_cell_angle_beta 90.000000
_cell_angle_gamma 90.000000
_cell_volume 2491.308254
_symmetry_space_group_name_H-M "P M M A"
_symmetry_group_IT_number 51
_symmetry_cell_setting 'orthorhombic'
loop_
_space_group_symop_operation_xyz
x,y,z
1/2-x,-y,z
1/2+x,-y,-z
-x,y,-z
-x,-y,-z
1/2+x,y,-z
1/2-x,y,z
x,-y,z
loop_
_atom_site_type_symbol
_atom_site_label
_atom_site_fract_x
_atom_site_fract_y
_atom_site_fract_z
Si Si1 0.021392 0.331052 0.394963
Si Si2 0.910809 0.822968 0.957174
Si Si3 0.750000 0.337671 0.453944
Si Si4 0.410849 0.323965 0.210197
Si Si5 0.750000 0.174727 0.546179
Si Si6 0.914435 0.824610 0.131387
Si Si7 0.585508 0.829300 0.694892
O O1 0.076861 0.500000 0.388179
O O2 0.874911 0.324038 0.419164
O O3 0.116067 0.239928 0.429378
O O4 0.005468 0.252989 0.345910
O O5 0.750000 0.759447 0.956820
O O6 0.995933 0.771799 0.912415
O O7 0.903636 0.000000 0.960210
O O8 0.000000 0.759345 0.000000
O O9 0.750000 0.500000 0.478858
O O10 0.750000 0.211888 0.492448
O O11 0.250000 0.279844 0.196864
O O12 0.426947 0.500000 0.214198
O O13 0.521591 0.262892 0.173892
O O14 0.453319 0.251927 0.258201
O O15 0.750000 0.000000 0.552295
O O16 0.750000 0.783540 0.124619
O O17 0.932590 0.000000 0.139819
O O18 0.750000 0.818179 0.684083
O O19 0.535462 0.000000 0.698234
#
# Coordination Sequence:
#
# PCOD8211547 Si02
#       7
#     8   8   4   8   4   8   8
#     4  11  22  39  62  85 115 152 190 234 284 342
#     4   9  16  27  47  77 113 152 193 239 291 344
#     4  10  24  42  58  84 116 152 192 232 283 342
#     4  10  21  37  58  82 108 143 187 232 282 341
#     4  12  24  38  60  88 116 150 194 238 283 336
#     4  10  20  34  53  80 114 150 191 238 288 340
#     4  10  20  36  60  88 115 143 183 232 282 341
#
# _framework density 19.266984000000001
#
# number of rings (size 3 to 8) (size 9 to 14) (size 15 to 20)
#    0.000    1.833    0.833    3.750    0.000    8.000 
#    1.500    0.000    0.000    0.500    0.000    0.000 
#    0.000    0.000    0.000    0.000    0.000    0.000 
#
# Total GULP energy -595197.422783 kJ/mol
# GULP energy per Si atom -12399.946308 kJ/mol
# Density = 1.922313 g / cm^3
# Si number density = 19.266984 Si / 1000 Ang^3
#
#
#
# Elastic Constant Matrix: (Units=GPa)
#
#
# Indices 1 2 3 4 5 6 
#
# 1 127.3578 53.8792 68.9158 0.0000 0.0000 0.0000
# 2 53.8792 100.9429 61.8158 0.0000 0.0000 0.0000
# 3 68.9158 61.8158 152.6854 0.0000 0.0000 0.0000
# 4 0.0000 0.0000 0.0000 -24.3937 0.0000 0.0000
# 5 0.0000 0.0000 0.0000 0.0000 38.7749 0.0000
# 6 0.0000 0.0000 0.0000 0.0000 0.0000 7.7531
#
#
#
# Elastic Compliance Matrix: (Units=1/GPa)
#
#
# Indices 1 2 3 4 5 6 
#
# 1 0.011447 -0.003917 -0.003581 0.000000 0.000000 0.000000
# 2 -0.003917 0.014513 -0.004108 0.000000 0.000000 0.000000
# 3 -0.003581 -0.004108 0.009829 0.000000 0.000000 0.000000
# 4 0.000000 0.000000 0.000000 -0.040994 0.000000 0.000000
# 5 0.000000 0.000000 0.000000 0.000000 0.025790 0.000000
# 6 0.000000 0.000000 0.000000 0.000000 0.000000 0.128980
#
#
# Mechanical properties :
#
#
# Convention : Reuss Voigt Hill
#
# Bulk Modulus (GPa) = 79.50809 83.35641 81.43225
# Shear Modulus (GPa) = 28.25392 17.51857 22.88624
#
# Velocity S-wave (km/s) = 3.83357 3.01865 3.45026
# Velocity P-wave (km/s) = 7.80712 7.45033 7.63081
#
# Compressibility (1/GPa) = 0.01257734
#
# Stress axis : x y z
#
# Youngs Moduli (GPa) = 87.36253 68.90491 101.74384
#
# Poissons Ratio (x) = 0.26990 0.36431
# Poissons Ratio (y) = 0.34219 0.41793
# Poissons Ratio (z) = 0.31282 0.28304
#
# Static dielectric constant tensor:
#      x y z
#    x 3.515320 0.000000 0.000000 
#    y 0.000000 3.507710 0.000000 
#    z 0.000000 0.000000 3.645600 
# 
# 
# High freq. dielectric constant tensor:
#      x y z
#    x 1.749530 0.000000 0.000000 
#    y 0.000000 1.737200 0.000000 
#    z 0.000000 0.000000 1.763600 
# 
# From -- ./inp_files/37120.got.cif
#   From: 2010.03.12/outbox.cif.g09.slc.cpg/sg51_19_cif.got.tgz:37120.got - 2010.04.16 13:43:02.
