data_PCOD8211636
_publ_section_title
;
Structure prediction by ZEFSAII (Michael W. Deem and Ramdas Pophale) SiO2 
 PCOD8211636
Probable space group: P M M A
;
_chemical_formula_sum "Si O2"
_cell_formula_units_Z 56
_cell_length_a 19.367490
_cell_length_b 9.271352
_cell_length_c 16.484529
_cell_angle_alpha 90.000000
_cell_angle_beta 90.000000
_cell_angle_gamma 90.000000
_cell_volume 2960.008467
_symmetry_space_group_name_H-M "P M M A"
_symmetry_group_IT_number 51
_symmetry_cell_setting 'orthorhombic'
loop_
_space_group_symop_operation_xyz
x,y,z
1/2-x,-y,z
1/2+x,-y,-z
-x,y,-z
-x,-y,-z
1/2+x,y,-z
1/2-x,y,z
x,-y,z
loop_
_atom_site_type_symbol
_atom_site_label
_atom_site_fract_x
_atom_site_fract_y
_atom_site_fract_z
Si Si1 0.450597 0.831060 0.745749
Si Si2 0.048856 0.171499 0.928704
Si Si3 0.829583 0.831541 0.369631
Si Si4 0.578352 0.664581 0.497757
Si Si5 0.075277 0.663836 0.319970
Si Si6 0.824524 0.829203 0.976120
Si Si7 0.831637 0.162454 0.797020
O O1 0.463184 0.770920 0.837427
O O2 0.372460 0.801756 0.713695
O O3 0.503247 0.749398 0.686800
O O4 0.467171 0.000000 0.742354
O O5 0.042313 0.000000 0.928223
O O6 0.125310 0.223873 0.953087
O O7 0.000000 0.235176 0.000000
O O8 0.750000 0.776462 0.359940
O O9 0.868586 0.754306 0.443469
O O10 0.829533 0.000000 0.390059
O O11 0.500000 0.726530 0.500000
O O12 0.576907 0.500000 0.465067
O O13 0.605642 0.673216 0.589580
O O14 0.060548 0.500000 0.294461
O O15 0.134222 0.727921 0.263965
O O16 0.750000 0.756424 0.991207
O O17 0.854136 0.788666 0.887383
O O18 0.816462 0.000000 0.977668
O O19 0.750000 0.170397 0.787915
O O20 0.858078 0.000000 0.779332
#
# Coordination Sequence:
#
# PCOD8211636 Si02
#       7
#     8   8   8   8   8   8   8
#     4  10  20  34  54  79 109 145 179 219 269 318
#     4   9  16  26  45  74 104 134 174 219 258 302
#     4  10  22  38  56  83 115 143 176 220 272 327
#     4  10  21  39  59  78 103 138 182 225 264 317
#     4  11  22  35  55  79 105 137 178 222 265 316
#     4   8  14  26  46  72 101 134 172 213 258 309
#     4   9  18  33  53  78 108 140 175 217 266 320
#
# _framework density 18.918865
#
# number of rings (size 3 to 8) (size 9 to 14) (size 15 to 20)
#    0.000    2.429    1.429    2.143    0.000    5.429 
#    0.000    5.714    0.000    3.857    0.000    0.000 
#    0.000    0.000    0.000    0.000    0.000    0.000 
#
# Total GULP energy -694039.196282 kJ/mol
# GULP energy per Si atom -12393.557076 kJ/mol
# Density = 1.887580 g / cm^3
# Si number density = 18.918865 Si / 1000 Ang^3
#
#
#
# Elastic Constant Matrix: (Units=GPa)
#
#
# Indices 1 2 3 4 5 6 
#
# 1 87.9411 28.2116 48.5287 0.0000 0.0000 0.0000
# 2 28.2116 47.8559 35.0237 0.0000 0.0000 0.0000
# 3 48.5287 35.0237 104.2322 0.0000 0.0000 0.0000
# 4 0.0000 0.0000 0.0000 6.8042 0.0000 0.0000
# 5 0.0000 0.0000 0.0000 0.0000 25.3035 0.0000
# 6 0.0000 0.0000 0.0000 0.0000 0.0000 15.3221
#
#
#
# Elastic Compliance Matrix: (Units=1/GPa)
#
#
# Indices 1 2 3 4 5 6 
#
# 1 0.016281 -0.005371 -0.005776 0.000000 0.000000 0.000000
# 2 -0.005371 0.029483 -0.007406 0.000000 0.000000 0.000000
# 3 -0.005776 -0.007406 0.014771 0.000000 0.000000 0.000000
# 4 0.000000 0.000000 0.000000 0.146967 0.000000 0.000000
# 5 0.000000 0.000000 0.000000 0.000000 0.039520 0.000000
# 6 0.000000 0.000000 0.000000 0.000000 0.000000 0.065265
#
#
# Mechanical properties :
#
#
# Convention : Reuss Voigt Hill
#
# Bulk Modulus (GPa) = 42.68002 51.50635 47.09318
# Shear Modulus (GPa) = 13.99763 18.03697 16.01730
#
# Velocity S-wave (km/s) = 2.72302 3.09104 2.91285
# Velocity P-wave (km/s) = 5.70043 6.32640 6.02156
#
# Compressibility (1/GPa) = 0.02343017
#
# Stress axis : x y z
#
# Youngs Moduli (GPa) = 61.41947 33.91842 67.69810
#
# Poissons Ratio (x) = 0.18218 0.39099
# Poissons Ratio (y) = 0.32990 0.50136
# Poissons Ratio (z) = 0.35473 0.25120
#
# Static dielectric constant tensor:
#      x y z
#    x 3.858640 0.000000 0.000000 
#    y 0.000000 3.123530 0.000000 
#    z 0.000000 0.000000 3.647870 
# 
# 
# High freq. dielectric constant tensor:
#      x y z
#    x 1.742420 0.000000 0.000000 
#    y 0.000000 1.690130 0.000000 
#    z 0.000000 0.000000 1.742330 
# 
# From -- ./inp_files/25721.got.cif
#   From: 2010.03.12/outbox.cif.g09.slc.cpg/sg51_13_cif.got.tgz:25721.got - 2010.04.16 13:43:02.
