data_PCOD8211945
_publ_section_title
;
Structure prediction by ZEFSAII (Michael W. Deem and Ramdas Pophale) SiO2 
 PCOD8211945
Probable space group: P M M A
;
_chemical_formula_sum "Si O2"
_cell_formula_units_Z 40
_cell_length_a 14.648534
_cell_length_b 8.829139
_cell_length_c 16.545975
_cell_angle_alpha 90.000000
_cell_angle_beta 90.000000
_cell_angle_gamma 90.000000
_cell_volume 2139.956185
_symmetry_space_group_name_H-M "P M M A"
_symmetry_group_IT_number 51
_symmetry_cell_setting 'orthorhombic'
loop_
_space_group_symop_operation_xyz
x,y,z
1/2-x,-y,z
1/2+x,-y,-z
-x,y,-z
-x,-y,-z
1/2+x,y,-z
1/2-x,y,z
x,-y,z
loop_
_atom_site_type_symbol
_atom_site_label
_atom_site_fract_x
_atom_site_fract_y
_atom_site_fract_z
Si Si1 0.104379 0.322265 0.992229
Si Si2 0.250000 0.325866 0.124767
Si Si3 0.904015 0.677650 0.417715
Si Si4 0.750000 0.177708 0.119973
Si Si5 0.250000 0.325782 0.709706
Si Si6 0.902861 0.819759 0.583670
Si Si7 0.250000 0.821988 0.296370
O O1 0.105361 0.500000 0.973553
O O2 0.156981 0.242899 0.918662
O O3 0.158904 0.285276 0.074442
O O4 0.000000 0.262627 0.000000
O O5 0.250000 0.500000 0.149456
O O6 0.250000 0.229955 0.204999
O O7 0.917343 0.500000 0.432525
O O8 0.838012 0.711240 0.343580
O O9 0.864840 0.751116 0.499826
O O10 0.998639 0.755412 0.394929
O O11 0.750000 0.216317 0.214082
O O12 0.750000 0.000000 0.106896
O O13 0.250000 0.500000 0.738583
O O14 0.838879 0.763294 0.656383
O O15 0.906056 0.000000 0.575150
O O16 0.250000 0.000000 0.296394
#
# Coordination Sequence:
#
# PCOD8211945 Si02
#       7
#     8   4   8   4   4   8   4
#     4   9  19  39  63  82 106 142 180 218 265 321
#     4   9  19  34  55  83 107 133 173 218 263 310
#     4  10  20  35  55  78 102 136 182 226 265 307
#     4  11  23  36  55  85 115 141 175 220 269 326
#     4  10  22  38  55  76 108 145 180 223 270 315
#     4  10  20  35  53  75 106 143 178 216 266 318
#     4  10  22  36  51  74 108 145 174 209 260 313
#
# _framework density 18.691970999999999
#
# number of rings (size 3 to 8) (size 9 to 14) (size 15 to 20)
#    0.000    2.200    0.000    4.500    0.000    6.800 
#    0.000    6.000    0.000    0.000    0.000    0.000 
#    0.000    0.000    0.000    0.000    0.000    0.000 
#
# Total GULP energy -496015.179637 kJ/mol
# GULP energy per Si atom -12400.379491 kJ/mol
# Density = 1.864943 g / cm^3
# Si number density = 18.691971 Si / 1000 Ang^3
#
#
#
# Elastic Constant Matrix: (Units=GPa)
#
#
# Indices 1 2 3 4 5 6 
#
# 1 143.8685 47.0619 70.0450 0.0000 0.0000 0.0000
# 2 47.0619 77.2607 43.4793 0.0000 0.0000 0.0000
# 3 70.0450 43.4793 125.3034 0.0000 0.0000 0.0000
# 4 0.0000 0.0000 0.0000 21.3195 0.0000 0.0000
# 5 0.0000 0.0000 0.0000 0.0000 142.8637 0.0000
# 6 0.0000 0.0000 0.0000 0.0000 0.0000 11.3652
#
#
#
# Elastic Compliance Matrix: (Units=1/GPa)
#
#
# Indices 1 2 3 4 5 6 
#
# 1 0.010375 -0.003798 -0.004482 0.000000 0.000000 0.000000
# 2 -0.003798 0.017474 -0.003940 0.000000 0.000000 0.000000
# 3 -0.004482 -0.003940 0.011853 0.000000 0.000000 0.000000
# 4 0.000000 0.000000 0.000000 0.046905 0.000000 0.000000
# 5 0.000000 0.000000 0.000000 0.000000 0.007000 0.000000
# 6 0.000000 0.000000 0.000000 0.000000 0.000000 0.087988
#
#
# Mechanical properties :
#
#
# Convention : Reuss Voigt Hill
#
# Bulk Modulus (GPa) = 65.52042 74.17832 69.84937
# Shear Modulus (GPa) = 23.68283 47.49944 35.59113
#
# Velocity S-wave (km/s) = 3.56336 5.04647 4.36832
# Velocity P-wave (km/s) = 7.21518 8.58642 7.93049
#
# Compressibility (1/GPa) = 0.01526242
#
# Stress axis : x y z
#
# Youngs Moduli (GPa) = 96.38370 57.22813 84.36379
#
# Poissons Ratio (x) = 0.21733 0.37812
# Poissons Ratio (y) = 0.36602 0.33243
# Poissons Ratio (z) = 0.43200 0.22551
#
# Static dielectric constant tensor:
#      x y z
#    x 3.644080 0.000000 0.000000 
#    y 0.000000 3.388850 0.000000 
#    z 0.000000 0.000000 3.417390 
# 
# 
# High freq. dielectric constant tensor:
#      x y z
#    x 1.735740 0.000000 0.000000 
#    y 0.000000 1.725920 0.000000 
#    z 0.000000 0.000000 1.724710 
# 
# From -- ./inp_files/23877.got.cif
#   From: 2010.03.12/outbox.cif.g09.slc.cpg/sg51_12_cif.got.tgz:23877.got - 2010.04.16 13:43:02.
