data_PCOD8211271
_publ_section_title
;
Structure prediction by ZEFSAII (Michael W. Deem and Ramdas Pophale) SiO2 
 PCOD8211271
Probable space group: P M M A
;
_chemical_formula_sum "Si O2"
_cell_formula_units_Z 48
_cell_length_a 8.912983
_cell_length_b 14.281013
_cell_length_c 20.538520
_cell_angle_alpha 90.000000
_cell_angle_beta 90.000000
_cell_angle_gamma 90.000000
_cell_volume 2614.274808
_symmetry_space_group_name_H-M "P M M A"
_symmetry_group_IT_number 51
_symmetry_cell_setting 'orthorhombic'
loop_
_space_group_symop_operation_xyz
x,y,z
1/2-x,-y,z
1/2+x,-y,-z
-x,y,-z
-x,-y,-z
1/2+x,y,-z
1/2-x,y,z
x,-y,z
loop_
_atom_site_type_symbol
_atom_site_label
_atom_site_fract_x
_atom_site_fract_y
_atom_site_fract_z
Si Si1 0.426172 0.208634 0.065861
Si Si2 0.075762 0.890610 0.433163
Si Si3 0.924476 0.394229 0.727096
Si Si4 0.424762 0.108571 0.197390
Si Si5 0.571747 0.398358 0.875334
Si Si6 0.073135 0.215155 0.685578
O O1 0.250000 0.211756 0.055089
O O2 0.468665 0.139048 0.124400
O O3 0.490527 0.313191 0.081061
O O4 0.500000 0.170214 0.000000
O O5 0.250000 0.865365 0.436299
O O6 0.000000 0.857413 0.500000
O O7 0.000576 0.836907 0.374417
O O8 0.048857 0.000000 0.421189
O O9 0.750000 0.367198 0.721529
O O10 0.951781 0.500000 0.701945
O O11 0.981315 0.384298 0.801260
O O12 0.021422 0.323324 0.683603
O O13 0.250000 0.129451 0.210878
O O14 0.521907 0.167786 0.247410
O O15 0.462931 0.000000 0.206091
O O16 0.750000 0.397083 0.875472
O O17 0.513751 0.500000 0.901407
O O18 0.250000 0.208392 0.679071
#
# Coordination Sequence:
#
# PCOD8211271 Si02
#       6
#     8   8   8   8   8   8
#     4  10  20  34  51  72 101 135 176 223 278 338
#     4  10  21  38  60  86 118 154 191 229 270 321
#     4   9  17  33  58  82 106 142 186 227 270 324
#     4  10  21  38  57  75  99 138 188 235 277 327
#     4   8  14  28  51  74  97 129 170 217 269 327
#     4  12  23  34  55  86 119 148 179 225 277 326
#
# _framework density 18.360731999999999
#
# number of rings (size 3 to 8) (size 9 to 14) (size 15 to 20)
#    0.000    2.167    1.667    3.500    0.000    5.000 
#    0.000    0.000    0.000    0.500    0.000    0.000 
#    0.000    0.000    0.000    0.000    0.000    0.000 
#
# Total GULP energy -595173.690654 kJ/mol
# GULP energy per Si atom -12399.451889 kJ/mol
# Density = 1.831894 g / cm^3
# Si number density = 18.360732 Si / 1000 Ang^3
#
#
#
# Elastic Constant Matrix: (Units=GPa)
#
#
# Indices 1 2 3 4 5 6 
#
# 1 72.1596 46.3021 56.6082 0.0000 0.0000 0.0000
# 2 46.3021 88.8873 40.1043 0.0000 0.0000 0.0000
# 3 56.6082 40.1043 104.1920 0.0000 0.0000 0.0000
# 4 0.0000 0.0000 0.0000 35.9757 0.0000 0.0000
# 5 0.0000 0.0000 0.0000 0.0000 30.8675 0.0000
# 6 0.0000 0.0000 0.0000 0.0000 0.0000 116.2969
#
#
#
# Elastic Compliance Matrix: (Units=1/GPa)
#
#
# Indices 1 2 3 4 5 6 
#
# 1 0.030100 -0.010045 -0.012487 0.000000 0.000000 0.000000
# 2 -0.010045 0.016967 -0.001073 0.000000 0.000000 0.000000
# 3 -0.012487 -0.001073 0.016795 0.000000 0.000000 0.000000
# 4 0.000000 0.000000 0.000000 0.027797 0.000000 0.000000
# 5 0.000000 0.000000 0.000000 0.000000 0.032397 0.000000
# 6 0.000000 0.000000 0.000000 0.000000 0.000000 0.008599
#
#
# Mechanical properties :
#
#
# Convention : Reuss Voigt Hill
#
# Bulk Modulus (GPa) = 60.05590 61.25201 60.65395
# Shear Modulus (GPa) = 26.96670 44.77631 35.87151
#
# Velocity S-wave (km/s) = 3.83654 4.94368 4.42487
# Velocity P-wave (km/s) = 7.23915 8.12523 7.69495
#
# Compressibility (1/GPa) = 0.01665115
#
# Stress axis : x y z
#
# Youngs Moduli (GPa) = 33.22306 58.93787 59.54217
#
# Poissons Ratio (x) = 0.59205 0.74349
# Poissons Ratio (y) = 0.33374 0.06389
# Poissons Ratio (z) = 0.41485 0.06324
#
# Static dielectric constant tensor:
#      x y z
#    x 11.135790 0.000000 0.000000 
#    y 0.000000 3.677230 0.000000 
#    z 0.000000 0.000000 3.380990 
# 
# 
# High freq. dielectric constant tensor:
#      x y z
#    x 1.691130 0.000000 0.000000 
#    y 0.000000 1.721240 0.000000 
#    z 0.000000 0.000000 1.698460 
# 
# From -- ./inp_files/27537.got.cif
#   From: 2010.03.12/outbox.cif.g09.slc.cpg/sg51_14_cif.got.tgz:27537.got - 2010.04.16 13:43:02.
