data_PCOD8211213
_publ_section_title
;
Structure prediction by ZEFSAII (Michael W. Deem and Ramdas Pophale) SiO2 
 PCOD8211213
Probable space group: P M M A
;
_chemical_formula_sum "Si O2"
_cell_formula_units_Z 64
_cell_length_a 22.359000
_cell_length_b 9.414451
_cell_length_c 16.302202
_cell_angle_alpha 90.000000
_cell_angle_beta 90.000000
_cell_angle_gamma 90.000000
_cell_volume 3431.576187
_symmetry_space_group_name_H-M "P M M A"
_symmetry_group_IT_number 51
_symmetry_cell_setting 'orthorhombic'
loop_
_space_group_symop_operation_xyz
x,y,z
1/2-x,-y,z
1/2+x,-y,-z
-x,y,-z
-x,-y,-z
1/2+x,y,-z
1/2-x,y,z
x,-y,z
loop_
_atom_site_type_symbol
_atom_site_label
_atom_site_fract_x
_atom_site_fract_y
_atom_site_fract_z
Si Si1 0.817617 0.346849 0.718418
Si Si2 0.820070 0.331579 0.376594
Si Si3 0.919173 0.830462 0.283470
Si Si4 0.033322 0.336591 0.870798
Si Si5 0.867040 0.336275 0.551704
Si Si6 0.089418 0.337971 0.045353
Si Si7 0.820732 0.838821 0.863489
Si Si8 0.021605 0.844512 0.408543
O O1 0.750000 0.362211 0.746538
O O2 0.850288 0.500000 0.731903
O O3 0.817884 0.308185 0.622017
O O4 0.845405 0.228023 0.777847
O O5 0.750000 0.295572 0.367091
O O6 0.830822 0.500000 0.366677
O O7 0.856741 0.245634 0.307680
O O8 0.842600 0.275105 0.465832
O O9 0.942115 0.770698 0.197229
O O10 0.968057 0.787723 0.351743
O O11 0.909355 0.000000 0.278107
O O12 0.037230 0.500000 0.840186
O O13 0.965411 0.296587 0.894622
O O14 0.073428 0.315300 0.950941
O O15 0.882186 0.500000 0.538009
O O16 0.924906 0.265396 0.591599
O O17 0.107687 0.500000 0.061520
O O18 0.146695 0.240315 0.062150
O O19 0.750000 0.825389 0.876188
O O20 0.841828 0.000000 0.862479
O O21 0.000000 0.859275 0.500000
O O22 0.042889 0.000000 0.377070
#
# Coordination Sequence:
#
# PCOD8211213 Si02
#       8
#     8   8   8   8   8   8   8   8
#     4   9  18  33  51  74 107 144 182 223 266 317
#     4  10  21  38  59  81 108 144 188 239 286 324
#     4  11  23  38  57  83 114 149 186 224 272 329
#     4   9  20  39  62  86 112 140 177 229 280 330
#     4  10  20  33  54  81 105 138 186 233 274 318
#     4   9  19  38  62  86 110 140 179 223 276 334
#     4  10  21  35  52  79 115 150 183 222 268 324
#     4  10  21  37  52  73 111 149 178 217 266 320
#
# _framework density 18.650321999999999
#
# number of rings (size 3 to 8) (size 9 to 14) (size 15 to 20)
#    0.000    2.250    1.250    1.875    1.750    5.250 
#    0.000    1.875    0.000    3.000    0.000    0.000 
#    0.000    0.000    0.000    0.000    0.000    0.000 
#
# Total GULP energy -793283.740577 kJ/mol
# GULP energy per Si atom -12395.058447 kJ/mol
# Density = 1.860787 g / cm^3
# Si number density = 18.650322 Si / 1000 Ang^3
#
#
#
# Elastic Constant Matrix: (Units=GPa)
#
#
# Indices 1 2 3 4 5 6 
#
# 1 81.3054 54.3098 44.8390 0.0000 0.0000 0.0000
# 2 54.3098 95.4819 53.7518 0.0000 0.0000 0.0000
# 3 44.8390 53.7518 98.3386 0.0000 0.0000 0.0000
# 4 0.0000 0.0000 0.0000 31.4938 0.0000 0.0000
# 5 0.0000 0.0000 0.0000 0.0000 27.3960 0.0000
# 6 0.0000 0.0000 0.0000 0.0000 0.0000 26.4816
#
#
#
# Elastic Compliance Matrix: (Units=1/GPa)
#
#
# Indices 1 2 3 4 5 6 
#
# 1 0.021086 -0.009506 -0.004418 0.000000 0.000000 0.000000
# 2 -0.009506 0.019414 -0.006277 0.000000 0.000000 0.000000
# 3 -0.004418 -0.006277 0.015615 0.000000 0.000000 0.000000
# 4 0.000000 0.000000 0.000000 0.031752 0.000000 0.000000
# 5 0.000000 0.000000 0.000000 0.000000 0.036502 0.000000
# 6 0.000000 0.000000 0.000000 0.000000 0.000000 0.037762
#
#
# Mechanical properties :
#
#
# Convention : Reuss Voigt Hill
#
# Bulk Modulus (GPa) = 63.64941 64.54744 64.09843
# Shear Modulus (GPa) = 24.06495 25.22265 24.64380
#
# Velocity S-wave (km/s) = 3.59600 3.68149 3.63900
# Velocity P-wave (km/s) = 7.17241 7.26330 7.21800
#
# Compressibility (1/GPa) = 0.01571107
#
# Stress axis : x y z
#
# Youngs Moduli (GPa) = 47.42512 51.50906 64.04246
#
# Poissons Ratio (x) = 0.48966 0.28296
# Poissons Ratio (y) = 0.45084 0.40201
# Poissons Ratio (z) = 0.20954 0.32333
#
# Static dielectric constant tensor:
#      x y z
#    x 3.186550 0.000000 0.000000 
#    y 0.000000 3.590920 0.000000 
#    z 0.000000 0.000000 3.624390 
# 
# 
# High freq. dielectric constant tensor:
#      x y z
#    x 1.715030 0.000000 0.000000 
#    y 0.000000 1.722580 0.000000 
#    z 0.000000 0.000000 1.721340 
# 
# From -- ./inp_files/26264.got.cif
#   From: 2010.03.12/outbox.cif.g09.slc.cpg/sg51_14_cif.got.tgz:26264.got - 2010.04.16 13:43:02.
