data_PCOD8211974
_publ_section_title
;
Structure prediction by ZEFSAII (Michael W. Deem and Ramdas Pophale) SiO2 
 PCOD8211974
Probable space group: P M M A
;
_chemical_formula_sum "Si O2"
_cell_formula_units_Z 36
_cell_length_a 9.006856
_cell_length_b 22.278400
_cell_length_c 10.137188
_cell_angle_alpha 90.000000
_cell_angle_beta 90.000000
_cell_angle_gamma 90.000000
_cell_volume 2034.111324
_symmetry_space_group_name_H-M "P M M A"
_symmetry_group_IT_number 51
_symmetry_cell_setting 'orthorhombic'
loop_
_space_group_symop_operation_xyz
x,y,z
1/2-x,-y,z
1/2+x,-y,-z
-x,y,-z
-x,-y,-z
1/2+x,y,-z
1/2-x,y,z
x,-y,z
loop_
_atom_site_type_symbol
_atom_site_label
_atom_site_fract_x
_atom_site_fract_y
_atom_site_fract_z
Si Si1 0.576648 0.781520 0.365383
Si Si2 0.921433 0.570434 0.865144
Si Si3 0.420951 0.000000 0.863465
Si Si4 0.424496 0.643252 0.635973
Si Si5 0.575300 0.130085 0.141582
O O1 0.500000 0.802492 0.500000
O O2 0.750000 0.792602 0.384307
O O3 0.540225 0.712562 0.333034
O O4 0.513216 0.821108 0.244697
O O5 0.750000 0.590166 0.870784
O O6 0.937780 0.500000 0.840228
O O7 0.004965 0.603700 0.749091
O O8 0.000000 0.589929 0.000000
O O9 0.461356 0.063724 0.794174
O O10 0.250000 0.000000 0.897596
O O11 0.500000 0.000000 0.000000
O O12 0.500000 0.623389 0.500000
O O13 0.250000 0.630700 0.626641
O O14 0.750000 0.138807 0.120295
O O15 0.500000 0.139806 0.000000
#
# Coordination Sequence:
#
# PCOD8211974 Si02
#       5
#     8   8   4   8   8
#     4   9  19  34  50  70  98 130 163 200 243 289
#     4  10  21  37  56  78 104 133 164 201 246 293
#     4   8  14  26  45  66  92 124 156 196 241 284
#     4  10  20  35  54  75 100 132 169 207 247 293
#     4   9  17  30  48  71  96 124 161 201 242 288
#
# _framework density 17.698146999999999
#
# number of rings (size 3 to 8) (size 9 to 14) (size 15 to 20)
#    0.000    2.667    0.000    1.333    0.000    4.444 
#    0.000    2.778    0.000    0.000    0.000    0.000 
#    0.000    0.000    0.000    0.000    0.000    0.000 
#
# Total GULP energy -446212.289965 kJ/mol
# GULP energy per Si atom -12394.785832 kJ/mol
# Density = 1.765786 g / cm^3
# Si number density = 17.698147 Si / 1000 Ang^3
#
#
#
# Elastic Constant Matrix: (Units=GPa)
#
#
# Indices 1 2 3 4 5 6 
#
# 1 77.6872 44.7025 61.6667 0.0000 0.0000 0.0000
# 2 44.7025 72.8183 76.0032 0.0000 0.0000 0.0000
# 3 61.6667 76.0032 145.7584 0.0000 0.0000 0.0000
# 4 0.0000 0.0000 0.0000 224.9220 0.0000 0.0000
# 5 0.0000 0.0000 0.0000 0.0000 34.4151 0.0000
# 6 0.0000 0.0000 0.0000 0.0000 0.0000 43.0794
#
#
#
# Elastic Compliance Matrix: (Units=1/GPa)
#
#
# Indices 1 2 3 4 5 6 
#
# 1 0.021343 -0.008069 -0.004822 0.000000 0.000000 0.000000
# 2 -0.008069 0.033182 -0.013888 0.000000 0.000000 0.000000
# 3 -0.004822 -0.013888 0.016143 0.000000 0.000000 0.000000
# 4 0.000000 0.000000 0.000000 0.004446 0.000000 0.000000
# 5 0.000000 0.000000 0.000000 0.000000 0.029057 0.000000
# 6 0.000000 0.000000 0.000000 0.000000 0.000000 0.023213
#
#
# Mechanical properties :
#
#
# Convention : Reuss Voigt Hill
#
# Bulk Modulus (GPa) = 58.45089 73.44541 65.94815
# Shear Modulus (GPa) = 26.78858 68.07607 47.43233
#
# Velocity S-wave (km/s) = 3.89477 6.20875 5.18256
# Velocity P-wave (km/s) = 7.30232 9.64298 8.55310
#
# Compressibility (1/GPa) = 0.01710838
#
# Stress axis : x y z
#
# Youngs Moduli (GPa) = 46.85366 30.13643 61.94750
#
# Poissons Ratio (x) = 0.24318 0.29872
# Poissons Ratio (y) = 0.37808 0.86036
# Poissons Ratio (z) = 0.22593 0.41855
#
# Static dielectric constant tensor:
#      x y z
#    x 3.319580 0.000000 0.000000 
#    y 0.000000 3.845020 0.000000 
#    z 0.000000 0.000000 3.194990 
# 
# 
# High freq. dielectric constant tensor:
#      x y z
#    x 1.690190 0.000000 0.000000 
#    y 0.000000 1.692500 0.000000 
#    z 0.000000 0.000000 1.673080 
# 
# From -- ./inp_files/5230.got.cif
#   From: 2010.03.12/outbox.cif.g09.slc.cpg/sg51_3_cif.got.tgz:5230.got - 2010.04.16 13:43:02.
