data_PCOD8211918
_publ_section_title
;
Structure prediction by ZEFSAII (Michael W. Deem and Ramdas Pophale) SiO2 
 PCOD8211918
Probable space group: P M M A
;
_chemical_formula_sum "Si O2"
_cell_formula_units_Z 64
_cell_length_a 14.249723
_cell_length_b 19.765333
_cell_length_c 11.734049
_cell_angle_alpha 90.000000
_cell_angle_beta 90.000000
_cell_angle_gamma 90.000000
_cell_volume 3304.901006
_symmetry_space_group_name_H-M "P M M A"
_symmetry_group_IT_number 51
_symmetry_cell_setting 'orthorhombic'
loop_
_space_group_symop_operation_xyz
x,y,z
1/2-x,-y,z
1/2+x,-y,-z
-x,y,-z
-x,-y,-z
1/2+x,y,-z
1/2-x,y,z
x,-y,z
loop_
_atom_site_type_symbol
_atom_site_label
_atom_site_fract_x
_atom_site_fract_y
_atom_site_fract_z
Si Si1 0.995412 0.238029 0.634569
Si Si2 0.361361 0.173022 0.212151
Si Si3 0.638487 0.194401 0.192681
Si Si4 0.144591 0.276549 0.022258
Si Si5 0.145829 0.577267 0.531385
Si Si6 0.011170 0.925645 0.867945
Si Si7 0.524029 0.385624 0.676857
Si Si8 0.588201 0.574057 0.919784
O O1 0.091443 0.206410 0.683901
O O2 0.000000 0.247928 0.500000
O O3 0.902842 0.194351 0.664569
O O4 0.988796 0.307759 0.702913
O O5 0.250000 0.162612 0.219041
O O6 0.397674 0.232048 0.125283
O O7 0.412819 0.103843 0.179152
O O8 0.750000 0.193422 0.208202
O O9 0.601907 0.121168 0.153390
O O10 0.603425 0.252061 0.100177
O O11 0.250000 0.252099 0.018162
O O12 0.143301 0.357836 0.043940
O O13 0.250000 0.607334 0.559212
O O14 0.155631 0.500000 0.498294
O O15 0.102815 0.612646 0.421123
O O16 0.076590 0.584205 0.638915
O O17 0.027342 0.000000 0.812039
O O18 0.000000 0.934999 0.000000
O O19 0.558719 0.424348 0.788103
O O20 0.640610 0.500000 0.936242
O O21 0.500000 0.573699 0.000000
#
# Coordination Sequence:
#
# PCOD8211918 Si02
#       8
#     8   8   8   8   8   8   8   8
#     4  11  22  37  58  87 114 153 202 254 300 350
#     4  10  21  37  59  86 122 161 193 237 293 353
#     4  10  22  39  61  89 124 163 196 237 296 358
#     4  10  20  36  58  83 112 153 196 235 291 356
#     4  10  21  36  56  79 105 142 186 238 306 371
#     4  10  20  34  60  97 130 160 191 233 289 350
#     4  11  20  38  58  79 111 146 188 249 308 355
#     4  11  23  36  55  80 111 154 197 241 291 351
#
# _framework density 19.365179000000001
#
# number of rings (size 3 to 8) (size 9 to 14) (size 15 to 20)
#    0.000    1.625    3.750    2.250    1.750    2.750 
#    0.000    1.875    0.000    6.750    0.000    7.000 
#    0.000    0.000    0.000    0.000    0.000    0.000 
#
# Total GULP energy -792842.835319 kJ/mol
# GULP energy per Si atom -12388.169302 kJ/mol
# Density = 1.932110 g / cm^3
# Si number density = 19.365179 Si / 1000 Ang^3
#
#
#
# Elastic Constant Matrix: (Units=GPa)
#
#
# Indices 1 2 3 4 5 6 
#
# 1 114.4476 23.2023 23.5561 0.0000 0.0000 0.0000
# 2 23.2023 126.2525 23.7015 0.0000 0.0000 0.0000
# 3 23.5561 23.7015 72.6218 0.0000 0.0000 0.0000
# 4 0.0000 0.0000 0.0000 22.2301 0.0000 0.0000
# 5 0.0000 0.0000 0.0000 0.0000 13.7769 0.0000
# 6 0.0000 0.0000 0.0000 0.0000 0.0000 16.3478
#
#
#
# Elastic Compliance Matrix: (Units=1/GPa)
#
#
# Indices 1 2 3 4 5 6 
#
# 1 0.009544 -0.001249 -0.002688 0.000000 0.000000 0.000000
# 2 -0.001249 0.008601 -0.002402 0.000000 0.000000 0.000000
# 3 -0.002688 -0.002402 0.015426 0.000000 0.000000 0.000000
# 4 0.000000 0.000000 0.000000 0.044984 0.000000 0.000000
# 5 0.000000 0.000000 0.000000 0.000000 0.072586 0.000000
# 6 0.000000 0.000000 0.000000 0.000000 0.000000 0.061170
#
#
# Mechanical properties :
#
#
# Convention : Reuss Voigt Hill
#
# Bulk Modulus (GPa) = 47.86411 50.47129 49.16770
# Shear Modulus (GPa) = 21.55602 26.66176 24.10889
#
# Velocity S-wave (km/s) = 3.33998 3.71454 3.53223
# Velocity P-wave (km/s) = 6.29637 6.67207 6.48694
#
# Compressibility (1/GPa) = 0.02089248
#
# Stress axis : x y z
#
# Youngs Moduli (GPa) = 104.77596 116.26351 64.82653
#
# Poissons Ratio (x) = 0.14526 0.17426
# Poissons Ratio (y) = 0.13090 0.15571
# Poissons Ratio (z) = 0.28164 0.27925
#
# Static dielectric constant tensor:
#      x y z
#    x 3.367410 0.000000 0.000000 
#    y 0.000000 4.002610 0.000000 
#    z 0.000000 0.000000 3.384000 
# 
# 
# High freq. dielectric constant tensor:
#      x y z
#    x 1.751430 0.000000 0.000000 
#    y 0.000000 1.752390 0.000000 
#    z 0.000000 0.000000 1.743360 
# 
# From -- ./inp_files/16823.got.cif
#   From: 2010.03.12/outbox.cif.g09.slc.cpg/sg51_9_cif.got.tgz:16823.got - 2010.04.16 13:43:02.
