data_PCOD8211097
_publ_section_title
;
Structure prediction by ZEFSAII (Michael W. Deem and Ramdas Pophale) SiO2 
 PCOD8211097
Probable space group: P M M A
;
_chemical_formula_sum "Si O2"
_cell_formula_units_Z 48
_cell_length_a 9.550792
_cell_length_b 14.026526
_cell_length_c 19.158992
_cell_angle_alpha 90.000000
_cell_angle_beta 90.000000
_cell_angle_gamma 90.000000
_cell_volume 2566.623487
_symmetry_space_group_name_H-M "P M M A"
_symmetry_group_IT_number 51
_symmetry_cell_setting 'orthorhombic'
loop_
_space_group_symop_operation_xyz
x,y,z
1/2-x,-y,z
1/2+x,-y,-z
-x,y,-z
-x,-y,-z
1/2+x,y,-z
1/2-x,y,z
x,-y,z
loop_
_atom_site_type_symbol
_atom_site_label
_atom_site_fract_x
_atom_site_fract_y
_atom_site_fract_z
Si Si1 0.593368 0.112799 0.436344
Si Si2 0.596552 0.391667 0.681524
Si Si3 0.593015 0.254044 0.808081
Si Si4 0.914679 0.110514 0.279508
Si Si5 0.585619 0.608359 0.930550
Si Si6 0.094462 0.386623 0.561417
O O1 0.500000 0.155026 0.500000
O O2 0.750000 0.153528 0.446107
O O3 0.536736 0.140556 0.358489
O O4 0.597112 0.000000 0.441255
O O5 0.750000 0.385041 0.644806
O O6 0.559571 0.500000 0.699223
O O7 0.597132 0.337520 0.752834
O O8 0.476924 0.348597 0.631833
O O9 0.750000 0.212658 0.819492
O O10 0.493500 0.169625 0.780887
O O11 0.537047 0.308515 0.876900
O O12 0.750000 0.128860 0.271756
O O13 0.950723 0.000000 0.266669
O O14 0.750000 0.618395 0.946025
O O15 0.553400 0.500000 0.903584
O O16 0.500000 0.629619 0.000000
O O17 0.250000 0.344067 0.556999
O O18 0.096447 0.500000 0.558407
O O19 0.000000 0.344438 0.500000
#
# Coordination Sequence:
#
# PCOD8211097 Si02
#       6
#     8   8   8   8   8   8
#     4   8  14  26  45  68  93 123 162 209 260 310
#     4   9  17  30  47  67  94 127 160 197 245 298
#     4  10  20  33  52  78 104 131 166 207 250 298
#     4   9  19  35  52  72 102 139 176 216 264 312
#     4   9  18  34  56  83 114 143 169 200 243 298
#     4   9  16  26  41  61  86 120 163 207 248 291
#
# _framework density 18.701612999999998
#
# number of rings (size 3 to 8) (size 9 to 14) (size 15 to 20)
#    0.000    3.000    0.000    2.000    0.000    6.333 
#    0.000    2.500    0.000    7.500    0.000    0.000 
#    0.000    0.000    0.000    0.000    0.000    0.000 
#
# Total GULP energy -594723.469536 kJ/mol
# GULP energy per Si atom -12390.072282 kJ/mol
# Density = 1.865905 g / cm^3
# Si number density = 18.701613 Si / 1000 Ang^3
#
#
#
# Elastic Constant Matrix: (Units=GPa)
#
#
# Indices 1 2 3 4 5 6 
#
# 1 95.8761 39.2391 60.2496 0.0000 0.0000 0.0000
# 2 39.2391 87.6369 51.5754 0.0000 0.0000 0.0000
# 3 60.2496 51.5754 114.2939 0.0000 0.0000 0.0000
# 4 0.0000 0.0000 0.0000 63.3896 0.0000 0.0000
# 5 0.0000 0.0000 0.0000 0.0000 33.7684 0.0000
# 6 0.0000 0.0000 0.0000 0.0000 0.0000 34.7338
#
#
#
# Elastic Compliance Matrix: (Units=1/GPa)
#
#
# Indices 1 2 3 4 5 6 
#
# 1 0.016166 -0.003027 -0.007156 0.000000 0.000000 0.000000
# 2 -0.003027 0.016104 -0.005671 0.000000 0.000000 0.000000
# 3 -0.007156 -0.005671 0.015081 0.000000 0.000000 0.000000
# 4 0.000000 0.000000 0.000000 0.015775 0.000000 0.000000
# 5 0.000000 0.000000 0.000000 0.000000 0.029614 0.000000
# 6 0.000000 0.000000 0.000000 0.000000 0.000000 0.028790
#
#
# Mechanical properties :
#
#
# Convention : Reuss Voigt Hill
#
# Bulk Modulus (GPa) = 63.92948 66.65946 65.29447
# Shear Modulus (GPa) = 31.55549 36.16120 33.85835
#
# Velocity S-wave (km/s) = 4.11215 4.40203 4.25955
# Velocity P-wave (km/s) = 7.53688 7.84590 7.69294
#
# Compressibility (1/GPa) = 0.01564224
#
# Stress axis : x y z
#
# Youngs Moduli (GPa) = 61.85925 62.09822 66.31008
#
# Poissons Ratio (x) = 0.18796 0.47450
# Poissons Ratio (y) = 0.18724 0.37606
# Poissons Ratio (z) = 0.44265 0.35217
#
# Static dielectric constant tensor:
#      x y z
#    x 3.742760 0.000000 0.000000 
#    y 0.000000 3.269470 0.000000 
#    z 0.000000 0.000000 3.384520 
# 
# 
# High freq. dielectric constant tensor:
#      x y z
#    x 1.723790 0.000000 0.000000 
#    y 0.000000 1.720100 0.000000 
#    z 0.000000 0.000000 1.706420 
# 
# From -- ./inp_files/27552.got.cif
#   From: 2010.03.12/outbox.cif.g09.slc.cpg/sg51_14_cif.got.tgz:27552.got - 2010.04.16 13:43:02.
