data_PCOD8211720
_publ_section_title
;
Structure prediction by ZEFSAII (Michael W. Deem and Ramdas Pophale) SiO2 
 PCOD8211720
Probable space group: P M M A
;
_chemical_formula_sum "Si O2"
_cell_formula_units_Z 64
_cell_length_a 21.853411
_cell_length_b 9.164099
_cell_length_c 15.449703
_cell_angle_alpha 90.000000
_cell_angle_beta 90.000000
_cell_angle_gamma 90.000000
_cell_volume 3094.062919
_symmetry_space_group_name_H-M "P M M A"
_symmetry_group_IT_number 51
_symmetry_cell_setting 'orthorhombic'
loop_
_space_group_symop_operation_xyz
x,y,z
1/2-x,-y,z
1/2+x,-y,-z
-x,y,-z
-x,-y,-z
1/2+x,y,-z
1/2-x,y,z
x,-y,z
loop_
_atom_site_type_symbol
_atom_site_label
_atom_site_fract_x
_atom_site_fract_y
_atom_site_fract_z
Si Si1 0.636662 0.838785 0.150165
Si Si2 0.679080 0.828880 0.824613
Si Si3 0.053298 0.671367 0.436867
Si Si4 0.927370 0.328842 0.754987
Si Si5 0.501504 0.837261 0.902435
Si Si6 0.320745 0.339130 0.008454
Si Si7 0.319591 0.336796 0.697380
Si Si8 0.817110 0.327132 0.500014
O O1 0.566500 0.849974 0.129600
O O2 0.641503 0.774604 0.246030
O O3 0.666775 0.000000 0.145936
O O4 0.670513 0.732079 0.084463
O O5 0.750000 0.792366 0.808096
O O6 0.639223 0.749335 0.750698
O O7 0.653500 0.766151 0.916305
O O8 0.666903 0.000000 0.824021
O O9 0.056394 0.500000 0.455556
O O10 0.037755 0.703845 0.335964
O O11 0.121812 0.737335 0.453910
O O12 0.000000 0.738249 0.500000
O O13 0.916956 0.500000 0.767043
O O14 0.963921 0.268517 0.836916
O O15 0.531697 0.000000 0.902749
O O16 0.500000 0.771768 0.000000
O O17 0.250000 0.359195 0.026283
O O18 0.352188 0.500000 0.011766
O O19 0.250000 0.336347 0.730388
O O20 0.347158 0.500000 0.706354
O O21 0.323819 0.282060 0.599591
O O22 0.750000 0.267175 0.534147
O O23 0.815350 0.500000 0.510151
#
# Coordination Sequence:
#
# PCOD8211720 Si02
#       8
#     8   8   8   8   8   8   8   8
#     4  11  22  33  51  78 108 150 197 239 291 351
#     4  10  21  38  60  83 113 154 190 225 280 348
#     4   9  19  34  54  85 122 154 190 242 303 359
#     4  11  23  37  60  92 119 148 190 245 299 345
#     4  10  23  42  59  76 108 155 201 243 289 351
#     4  10  20  34  54  82 115 148 188 242 294 342
#     4   9  18  32  52  79 109 145 189 237 289 344
#     4   8  15  30  53  79 110 151 194 236 289 352
#
# _framework density 20.684777
#
# number of rings (size 3 to 8) (size 9 to 14) (size 15 to 20)
#    0.000    2.250    0.000    3.375    1.750    6.000 
#    0.000    1.250    0.000    3.000    0.000    0.000 
#    0.000    0.000    0.000    0.000    0.000    0.000 
#
# Total GULP energy -793207.528268 kJ/mol
# GULP energy per Si atom -12393.867629 kJ/mol
# Density = 2.063770 g / cm^3
# Si number density = 20.684777 Si / 1000 Ang^3
#
#
#
# Elastic Constant Matrix: (Units=GPa)
#
#
# Indices 1 2 3 4 5 6 
#
# 1 81.9255 25.7966 56.8480 0.0000 0.0000 0.0000
# 2 25.7966 102.5842 47.5527 0.0000 0.0000 0.0000
# 3 56.8480 47.5527 111.6151 0.0000 0.0000 0.0000
# 4 0.0000 0.0000 0.0000 22.9307 0.0000 0.0000
# 5 0.0000 0.0000 0.0000 0.0000 34.8002 0.0000
# 6 0.0000 0.0000 0.0000 0.0000 0.0000 26.0975
#
#
#
# Elastic Compliance Matrix: (Units=1/GPa)
#
#
# Indices 1 2 3 4 5 6 
#
# 1 0.018889 -0.000362 -0.009466 0.000000 0.000000 0.000000
# 2 -0.000362 0.012154 -0.004994 0.000000 0.000000 0.000000
# 3 -0.009466 -0.004994 0.015908 0.000000 0.000000 0.000000
# 4 0.000000 0.000000 0.000000 0.043610 0.000000 0.000000
# 5 0.000000 0.000000 0.000000 0.000000 0.028735 0.000000
# 6 0.000000 0.000000 0.000000 0.000000 0.000000 0.038318
#
#
# Mechanical properties :
#
#
# Convention : Reuss Voigt Hill
#
# Bulk Modulus (GPa) = 57.77952 61.83550 59.80751
# Shear Modulus (GPa) = 25.90311 27.82751 26.86531
#
# Velocity S-wave (km/s) = 3.54259 3.67183 3.60779
# Velocity P-wave (km/s) = 6.68785 6.92355 6.80672
#
# Compressibility (1/GPa) = 0.01730717
#
# Stress axis : x y z
#
# Youngs Moduli (GPa) = 52.94137 82.27783 62.86008
#
# Poissons Ratio (x) = 0.02977 0.59505
# Poissons Ratio (y) = 0.01916 0.31391
# Poissons Ratio (z) = 0.50116 0.41088
#
# Static dielectric constant tensor:
#      x y z
#    x 3.894770 0.000000 0.000000 
#    y 0.000000 3.645160 0.000000 
#    z 0.000000 0.000000 3.860590 
# 
# 
# High freq. dielectric constant tensor:
#      x y z
#    x 1.812930 0.000000 0.000000 
#    y 0.000000 1.780310 0.000000 
#    z 0.000000 0.000000 1.807720 
# 
# From -- ./inp_files/26228.got.cif
#   From: 2010.03.12/outbox.cif.g09.slc.cpg/sg51_14_cif.got.tgz:26228.got - 2010.04.16 13:43:02.
