data_PCOD8211373
_publ_section_title
;
Structure prediction by ZEFSAII (Michael W. Deem and Ramdas Pophale) SiO2 
 PCOD8211373
Probable space group: P M M A
;
_chemical_formula_sum "Si O2"
_cell_formula_units_Z 56
_cell_length_a 18.949846
_cell_length_b 9.404355
_cell_length_c 17.541071
_cell_angle_alpha 90.000000
_cell_angle_beta 90.000000
_cell_angle_gamma 90.000000
_cell_volume 3126.013189
_symmetry_space_group_name_H-M "P M M A"
_symmetry_group_IT_number 51
_symmetry_cell_setting 'orthorhombic'
loop_
_space_group_symop_operation_xyz
x,y,z
1/2-x,-y,z
1/2+x,-y,-z
-x,y,-z
-x,-y,-z
1/2+x,y,-z
1/2-x,y,z
x,-y,z
loop_
_atom_site_type_symbol
_atom_site_label
_atom_site_fract_x
_atom_site_fract_y
_atom_site_fract_z
Si Si1 0.831944 0.835230 0.331022
Si Si2 0.591427 0.165332 0.774640
Si Si3 0.667742 0.164867 0.621465
Si Si4 0.431807 0.835032 0.806004
Si Si5 0.833870 0.660769 0.476294
Si Si6 0.929822 0.335731 0.041683
Si Si7 0.830327 0.664120 0.904284
O O1 0.750000 0.804734 0.314635
O O2 0.874895 0.788283 0.256700
O O3 0.860972 0.742608 0.401431
O O4 0.844963 0.000000 0.351252
O O5 0.624727 0.216140 0.695142
O O6 0.508778 0.200452 0.772912
O O7 0.626746 0.247573 0.843345
O O8 0.606742 0.000000 0.787763
O O9 0.750000 0.193375 0.637347
O O10 0.638687 0.257204 0.551039
O O11 0.653942 0.000000 0.602462
O O12 0.415089 0.749019 0.881780
O O13 0.424628 0.000000 0.826438
O O14 0.750000 0.662150 0.476694
O O15 0.863424 0.500000 0.476290
O O16 0.940800 0.500000 0.063271
O O17 0.862803 0.311510 0.987633
O O18 0.000000 0.277180 0.000000
O O19 0.750000 0.717391 0.906633
O O20 0.835592 0.500000 0.880491
#
# Coordination Sequence:
#
# PCOD8211373 Si02
#       7
#     8   8   8   8   8   8   8
#     4   9  18  34  54  75 102 135 171 213 261 310
#     4  10  20  34  52  76 106 137 172 212 256 307
#     4   9  17  30  49  72  99 133 169 205 251 305
#     4  10  21  35  54  79 104 134 173 214 258 308
#     4   9  17  30  50  76 102 130 169 214 256 300
#     4  10  20  36  55  74 100 137 174 207 254 313
#     4  10  21  36  54  77 104 135 173 215 258 305
#
# _framework density 17.914190999999999
#
# number of rings (size 3 to 8) (size 9 to 14) (size 15 to 20)
#    0.000    2.429    1.429    0.857    0.000    5.143 
#    0.000    2.143    0.000    4.286    0.000    0.000 
#    0.000    0.000    0.000    0.000    0.000    0.000 
#
# Total GULP energy -694558.285799 kJ/mol
# GULP energy per Si atom -12402.826532 kJ/mol
# Density = 1.787342 g / cm^3
# Si number density = 17.914191 Si / 1000 Ang^3
#
#
#
# Elastic Constant Matrix: (Units=GPa)
#
#
# Indices 1 2 3 4 5 6 
#
# 1 72.2679 33.7599 48.9541 0.0000 0.0000 0.0000
# 2 33.7599 75.2103 72.9434 0.0000 0.0000 0.0000
# 3 48.9541 72.9434 154.2553 0.0000 0.0000 0.0000
# 4 0.0000 0.0000 0.0000 -13.7836 0.0000 0.0000
# 5 0.0000 0.0000 0.0000 0.0000 13.1476 0.0000
# 6 0.0000 0.0000 0.0000 0.0000 0.0000 18.8360
#
#
#
# Elastic Compliance Matrix: (Units=1/GPa)
#
#
# Indices 1 2 3 4 5 6 
#
# 1 0.018530 -0.004829 -0.003597 0.000000 0.000000 0.000000
# 2 -0.004829 0.025818 -0.010676 0.000000 0.000000 0.000000
# 3 -0.003597 -0.010676 0.012673 0.000000 0.000000 0.000000
# 4 0.000000 0.000000 0.000000 -0.072550 0.000000 0.000000
# 5 0.000000 0.000000 0.000000 0.000000 0.076060 0.000000
# 6 0.000000 0.000000 0.000000 0.000000 0.000000 0.053090
#
#
# Mechanical properties :
#
#
# Convention : Reuss Voigt Hill
#
# Bulk Modulus (GPa) = 53.14531 68.11647 60.63089
# Shear Modulus (GPa) = 31.62617 13.37840 22.50228
#
# Velocity S-wave (km/s) = 4.20626 2.73574 3.54802
# Velocity P-wave (km/s) = 7.30213 6.93436 7.12062
#
# Compressibility (1/GPa) = 0.01881633
#
# Stress axis : x y z
#
# Youngs Moduli (GPa) = 53.96681 38.73265 78.90881
#
# Poissons Ratio (x) = 0.18703 0.28385
# Poissons Ratio (y) = 0.26060 0.84245
# Poissons Ratio (z) = 0.19413 0.41352
#
# Static dielectric constant tensor:
#      x y z
#    x 3.274920 0.000000 0.000000 
#    y 0.000000 3.331170 0.000000 
#    z 0.000000 0.000000 3.355610 
# 
# 
# High freq. dielectric constant tensor:
#      x y z
#    x 1.681160 0.000000 0.000000 
#    y 0.000000 1.690040 0.000000 
#    z 0.000000 0.000000 1.700650 
# 
# From -- ./inp_files/25691.got.cif
#   From: 2010.03.12/outbox.cif.g09.slc.cpg/sg51_13_cif.got.tgz:25691.got - 2010.04.16 13:43:02.
