data_PCOD8211657
_publ_section_title
;
Structure prediction by ZEFSAII (Michael W. Deem and Ramdas Pophale) SiO2 
 PCOD8211657
Probable space group: P M M A
;
_chemical_formula_sum "Si O2"
_cell_formula_units_Z 48
_cell_length_a 8.841983
_cell_length_b 9.167848
_cell_length_c 30.865960
_cell_angle_alpha 90.000000
_cell_angle_beta 90.000000
_cell_angle_gamma 90.000000
_cell_volume 2502.055096
_symmetry_space_group_name_H-M "P M M A"
_symmetry_group_IT_number 51
_symmetry_cell_setting 'orthorhombic'
loop_
_space_group_symop_operation_xyz
x,y,z
1/2-x,-y,z
1/2+x,-y,-z
-x,y,-z
-x,-y,-z
1/2+x,y,-z
1/2-x,y,z
x,-y,z
loop_
_atom_site_type_symbol
_atom_site_label
_atom_site_fract_x
_atom_site_fract_y
_atom_site_fract_z
Si Si1 0.574950 0.671656 0.131166
Si Si2 0.422163 0.327885 0.377540
Si Si3 0.074910 0.170892 0.210277
Si Si4 0.926871 0.667733 0.288958
Si Si5 0.420134 0.673241 0.042902
Si Si6 0.072532 0.833370 0.544033
O O1 0.750000 0.714401 0.136200
O O2 0.550662 0.500000 0.137990
O O3 0.475370 0.755685 0.165872
O O4 0.517688 0.722789 0.084166
O O5 0.250000 0.274559 0.381098
O O6 0.436926 0.500000 0.381785
O O7 0.487411 0.275476 0.331580
O O8 0.518730 0.258992 0.415517
O O9 0.250000 0.206562 0.218781
O O10 0.976210 0.234037 0.249094
O O11 0.044317 0.000000 0.206914
O O12 0.750000 0.686729 0.297115
O O13 0.968525 0.500000 0.278699
O O14 0.250000 0.736065 0.046443
O O15 0.414684 0.500000 0.040048
O O16 0.500000 0.737515 0.000000
O O17 0.250000 0.817710 0.539469
O O18 0.000000 0.770559 0.500000
O O19 0.021409 0.000000 0.551142
#
# Coordination Sequence:
#
# PCOD8211657 Si02
#       6
#     8   8   8   8   8   8
#     4  10  20  34  54  80 108 140 179 221 267 319
#     4  10  21  37  58  84 112 143 179 220 268 320
#     4  11  24  39  55  78 108 142 180 221 266 318
#     4  10  21  38  60  84 109 139 177 221 269 321
#     4   9  16  27  46  74 107 140 175 218 265 312
#     4  10  21  37  57  81 110 146 186 226 269 317
#
# _framework density 19.184229999999999
#
# number of rings (size 3 to 8) (size 9 to 14) (size 15 to 20)
#    0.000    2.000    0.000    3.500    0.000   10.333 
#    0.000    0.000    0.000    0.500    0.000    0.000 
#    0.000    0.000    0.000    0.000    0.000    0.000 
#
# Total GULP energy -595404.346785 kJ/mol
# GULP energy per Si atom -12404.257225 kJ/mol
# Density = 1.914057 g / cm^3
# Si number density = 19.184230 Si / 1000 Ang^3
#
#
#
# Elastic Constant Matrix: (Units=GPa)
#
#
# Indices 1 2 3 4 5 6 
#
# 1 72.8159 23.9974 22.2416 0.0000 0.0000 0.0000
# 2 23.9974 38.3420 35.3222 0.0000 0.0000 0.0000
# 3 22.2416 35.3222 128.0481 0.0000 0.0000 0.0000
# 4 0.0000 0.0000 0.0000 60.0288 0.0000 0.0000
# 5 0.0000 0.0000 0.0000 0.0000 45.1735 0.0000
# 6 0.0000 0.0000 0.0000 0.0000 0.0000 52.8668
#
#
#
# Elastic Compliance Matrix: (Units=1/GPa)
#
#
# Indices 1 2 3 4 5 6 
#
# 1 0.017302 -0.010807 -0.000024 0.000000 0.000000 0.000000
# 2 -0.010807 0.041717 -0.009631 0.000000 0.000000 0.000000
# 3 -0.000024 -0.009631 0.010470 0.000000 0.000000 0.000000
# 4 0.000000 0.000000 0.000000 0.016659 0.000000 0.000000
# 5 0.000000 0.000000 0.000000 0.000000 0.022137 0.000000
# 6 0.000000 0.000000 0.000000 0.000000 0.000000 0.018915
#
#
# Mechanical properties :
#
#
# Convention : Reuss Voigt Hill
#
# Bulk Modulus (GPa) = 35.00627 44.70317 39.85472
# Shear Modulus (GPa) = 28.14597 42.12349 35.13473
#
# Velocity S-wave (km/s) = 3.83448 4.69095 4.28417
# Velocity P-wave (km/s) = 6.15560 7.25897 6.72993
#
# Compressibility (1/GPa) = 0.02856631
#
# Stress axis : x y z
#
# Youngs Moduli (GPa) = 57.79622 23.97119 95.50752
#
# Poissons Ratio (x) = 0.25905 0.00232
# Poissons Ratio (y) = 0.62458 0.91979
# Poissons Ratio (z) = 0.00141 0.23086
#
# Static dielectric constant tensor:
#      x y z
#    x 4.380000 0.000000 0.000000 
#    y 0.000000 3.273990 0.000000 
#    z 0.000000 0.000000 3.688890 
# 
# 
# High freq. dielectric constant tensor:
#      x y z
#    x 1.765610 0.000000 0.000000 
#    y 0.000000 1.715680 0.000000 
#    z 0.000000 0.000000 1.763390 
# 
# From -- ./inp_files/36963.got.cif
#   From: 2010.03.12/outbox.cif.g09.slc.cpg/sg51_19_cif.got.tgz:36963.got - 2010.04.16 13:43:02.
