data_PCOD8211705
_publ_section_title
;
Structure prediction by ZEFSAII (Michael W. Deem and Ramdas Pophale) SiO2 
 PCOD8211705
Probable space group: P M M A
;
_chemical_formula_sum "Si O2"
_cell_formula_units_Z 56
_cell_length_a 16.010557
_cell_length_b 13.549149
_cell_length_c 12.606586
_cell_angle_alpha 90.000000
_cell_angle_beta 90.000000
_cell_angle_gamma 90.000000
_cell_volume 2734.739419
_symmetry_space_group_name_H-M "P M M A"
_symmetry_group_IT_number 51
_symmetry_cell_setting 'orthorhombic'
loop_
_space_group_symop_operation_xyz
x,y,z
1/2-x,-y,z
1/2+x,-y,-z
-x,y,-z
-x,-y,-z
1/2+x,y,-z
1/2-x,y,z
x,-y,z
loop_
_atom_site_type_symbol
_atom_site_label
_atom_site_fract_x
_atom_site_fract_y
_atom_site_fract_z
Si Si1 0.566547 0.384794 0.235651
Si Si2 0.843724 0.198583 0.571114
Si Si3 0.157588 0.115407 0.657623
Si Si4 0.345379 0.393102 0.976046
Si Si5 0.447829 0.733690 0.106737
Si Si6 0.978059 0.117008 0.735362
Si Si7 0.903785 0.610998 0.470077
O O1 0.545278 0.500000 0.243631
O O2 0.480905 0.327562 0.208724
O O3 0.606033 0.351553 0.348075
O O4 0.629264 0.356173 0.141079
O O5 0.750000 0.182290 0.617812
O O6 0.856342 0.134353 0.466096
O O7 0.914985 0.163262 0.650617
O O8 0.852848 0.314754 0.544544
O O9 0.250000 0.158422 0.693877
O O10 0.074575 0.155573 0.719444
O O11 0.159650 0.000000 0.677898
O O12 0.250000 0.413190 0.971643
O O13 0.389877 0.500000 0.999893
O O14 0.360268 0.313250 0.070119
O O15 0.446373 0.846734 0.147749
O O16 0.500000 0.718662 0.000000
O O17 0.972070 0.000000 0.730042
O O18 0.867734 0.500000 0.484309
O O19 0.000000 0.613561 0.500000
#
# Coordination Sequence:
#
# PCOD8211705 Si02
#       7
#     8   8   8   8   8   8   8
#     4   9  17  31  54  81 109 143 179 218 270 333
#     4  11  22  35  54  80 113 152 191 227 267 325
#     4   9  18  34  58  86 109 132 172 229 289 344
#     4   9  18  33  54  81 111 144 186 233 277 325
#     4  10  20  35  55  79 107 141 182 227 281 336
#     4  11  23  39  59  80 107 145 189 238 289 340
#     4  10  20  34  54  81 115 153 189 226 273 333
#
# _framework density 20.477270999999998
#
# number of rings (size 3 to 8) (size 9 to 14) (size 15 to 20)
#    0.000    2.143    0.000    3.857    0.000    5.429 
#    0.000    6.429    0.000    0.000    0.000    2.000 
#    0.000    0.000    0.000    0.000    0.000    0.000 
#
# Total GULP energy -693765.946471 kJ/mol
# GULP energy per Si atom -12388.677616 kJ/mol
# Density = 2.043066 g / cm^3
# Si number density = 20.477271 Si / 1000 Ang^3
#
#
#
# Elastic Constant Matrix: (Units=GPa)
#
#
# Indices 1 2 3 4 5 6 
#
# 1 104.0876 35.6789 36.1300 0.0000 0.0000 0.0000
# 2 35.6789 70.9728 37.3376 0.0000 0.0000 0.0000
# 3 36.1300 37.3376 71.3376 0.0000 0.0000 0.0000
# 4 0.0000 0.0000 0.0000 35.3801 0.0000 0.0000
# 5 0.0000 0.0000 0.0000 0.0000 15.7735 0.0000
# 6 0.0000 0.0000 0.0000 0.0000 0.0000 21.6214
#
#
#
# Elastic Compliance Matrix: (Units=1/GPa)
#
#
# Indices 1 2 3 4 5 6 
#
# 1 0.012450 -0.004059 -0.004181 0.000000 0.000000 0.000000
# 2 -0.004059 0.020767 -0.008814 0.000000 0.000000 0.000000
# 3 -0.004181 -0.008814 0.020748 0.000000 0.000000 0.000000
# 4 0.000000 0.000000 0.000000 0.028264 0.000000 0.000000
# 5 0.000000 0.000000 0.000000 0.000000 0.063397 0.000000
# 6 0.000000 0.000000 0.000000 0.000000 0.000000 0.046250
#
#
# Mechanical properties :
#
#
# Convention : Reuss Voigt Hill
#
# Bulk Modulus (GPa) = 50.35736 51.63234 50.99485
# Shear Modulus (GPa) = 21.49572 23.70510 22.60041
#
# Velocity S-wave (km/s) = 3.24348 3.40609 3.32578
# Velocity P-wave (km/s) = 6.21869 6.38261 6.30118
#
# Compressibility (1/GPa) = 0.01985807
#
# Stress axis : x y z
#
# Youngs Moduli (GPa) = 80.32160 48.15285 48.19685
#
# Poissons Ratio (x) = 0.19547 0.20150
# Poissons Ratio (y) = 0.32605 0.42478
# Poissons Ratio (z) = 0.33581 0.42440
#
# Static dielectric constant tensor:
#      x y z
#    x 3.852480 0.000000 0.000000 
#    y 0.000000 3.914620 0.000000 
#    z 0.000000 0.000000 3.684130 
# 
# 
# High freq. dielectric constant tensor:
#      x y z
#    x 1.789720 0.000000 0.000000 
#    y 0.000000 1.807630 0.000000 
#    z 0.000000 0.000000 1.782970 
# 
# From -- ./inp_files/16595.got.cif
#   From: 2010.03.12/outbox.cif.g09.slc.cpg/sg51_9_cif.got.tgz:16595.got - 2010.04.16 13:43:02.
