data_PCOD8211663
_publ_section_title
;
Structure prediction by ZEFSAII (Michael W. Deem and Ramdas Pophale) SiO2 
 PCOD8211663
Probable space group: P M M A
;
_chemical_formula_sum "Si O2"
_cell_formula_units_Z 48
_cell_length_a 8.996900
_cell_length_b 9.183246
_cell_length_c 30.867692
_cell_angle_alpha 90.000000
_cell_angle_beta 90.000000
_cell_angle_gamma 90.000000
_cell_volume 2550.311738
_symmetry_space_group_name_H-M "P M M A"
_symmetry_group_IT_number 51
_symmetry_cell_setting 'orthorhombic'
loop_
_space_group_symop_operation_xyz
x,y,z
1/2-x,-y,z
1/2+x,-y,-z
-x,y,-z
-x,-y,-z
1/2+x,y,-z
1/2-x,y,z
x,-y,z
loop_
_atom_site_type_symbol
_atom_site_label
_atom_site_fract_x
_atom_site_fract_y
_atom_site_fract_z
Si Si1 0.919784 0.328189 0.378423
Si Si2 0.922686 0.329446 0.878267
Si Si3 0.077396 0.669393 0.290998
Si Si4 0.075563 0.166660 0.955253
Si Si5 0.423408 0.168818 0.456164
Si Si6 0.426686 0.164305 0.206661
O O1 0.750000 0.275949 0.381434
O O2 0.934668 0.500000 0.383428
O O3 0.985787 0.277228 0.332551
O O4 0.014030 0.256645 0.416061
O O5 0.750000 0.292683 0.886032
O O6 0.949115 0.500000 0.872458
O O7 0.984583 0.250690 0.835282
O O8 0.015867 0.272674 0.918536
O O9 0.250000 0.703206 0.299722
O O10 0.051830 0.500000 0.281216
O O11 0.014194 0.757880 0.249995
O O12 0.250000 0.188758 0.960419
O O13 0.034934 0.000000 0.943425
O O14 0.000000 0.213373 0.000000
O O15 0.500000 0.225553 0.500000
O O16 0.250000 0.199620 0.460452
O O17 0.459464 0.000000 0.448571
O O18 0.250000 0.167210 0.207164
O O19 0.488496 0.000000 0.205006
#
# Coordination Sequence:
#
# PCOD8211663 Si02
#       6
#     8   8   8   8   8   8
#     4  10  21  36  54  78 108 142 179 218 262 313
#     4  10  20  34  54  80 109 142 179 218 262 313
#     4   9  17  31  51  74 102 136 174 217 264 313
#     4  10  21  37  57  80 106 138 176 218 265 316
#     4  10  21  37  57  80 106 138 176 218 265 316
#     4   9  17  30  51  78 105 135 175 221 265 311
#
# _framework density 18.821228000000001
#
# number of rings (size 3 to 8) (size 9 to 14) (size 15 to 20)
#    0.000    2.333    0.000    2.500    0.000    7.333 
#    0.000    2.500    0.000    3.000    0.000    0.000 
#    0.000    0.000    0.000    0.000    0.000    0.000 
#
# Total GULP energy -595373.323565 kJ/mol
# GULP energy per Si atom -12403.610908 kJ/mol
# Density = 1.877839 g / cm^3
# Si number density = 18.821228 Si / 1000 Ang^3
#
#
#
# Elastic Constant Matrix: (Units=GPa)
#
#
# Indices 1 2 3 4 5 6 
#
# 1 65.1529 31.9305 50.8658 0.0000 0.0000 0.0000
# 2 31.9305 76.5923 67.0275 0.0000 0.0000 0.0000
# 3 50.8658 67.0275 165.8074 0.0000 0.0000 0.0000
# 4 0.0000 0.0000 0.0000 36.9673 0.0000 0.0000
# 5 0.0000 0.0000 0.0000 0.0000 31.3085 0.0000
# 6 0.0000 0.0000 0.0000 0.0000 0.0000 23.9649
#
#
#
# Elastic Compliance Matrix: (Units=1/GPa)
#
#
# Indices 1 2 3 4 5 6 
#
# 1 0.021305 -0.004893 -0.004558 0.000000 0.000000 0.000000
# 2 -0.004893 0.021327 -0.007120 0.000000 0.000000 0.000000
# 3 -0.004558 -0.007120 0.010308 0.000000 0.000000 0.000000
# 4 0.000000 0.000000 0.000000 0.027051 0.000000 0.000000
# 5 0.000000 0.000000 0.000000 0.000000 0.031940 0.000000
# 6 0.000000 0.000000 0.000000 0.000000 0.000000 0.041728
#
#
# Mechanical properties :
#
#
# Convention : Reuss Voigt Hill
#
# Bulk Modulus (GPa) = 50.51230 67.46671 58.98950
# Shear Modulus (GPa) = 25.85307 28.96340 27.40824
#
# Velocity S-wave (km/s) = 3.71025 3.92710 3.82021
# Velocity P-wave (km/s) = 6.72687 7.51576 7.13223
#
# Compressibility (1/GPa) = 0.01979716
#
# Stress axis : x y z
#
# Youngs Moduli (GPa) = 46.93757 46.88827 97.01446
#
# Poissons Ratio (x) = 0.22943 0.44217
# Poissons Ratio (y) = 0.22967 0.69079
# Poissons Ratio (z) = 0.21393 0.33386
#
# Static dielectric constant tensor:
#      x y z
#    x 3.237060 0.000000 0.000000 
#    y 0.000000 3.449240 0.000000 
#    z 0.000000 0.000000 3.622830 
# 
# 
# High freq. dielectric constant tensor:
#      x y z
#    x 1.715920 0.000000 0.000000 
#    y 0.000000 1.728850 0.000000 
#    z 0.000000 0.000000 1.746550 
# 
# From -- ./inp_files/36874.got.cif
#   From: 2010.03.12/outbox.cif.g09.slc.cpg/sg51_19_cif.got.tgz:36874.got - 2010.04.16 13:43:02.
