data_PCOD8211721
_publ_section_title
;
Structure prediction by ZEFSAII (Michael W. Deem and Ramdas Pophale) SiO2 
 PCOD8211721
Probable space group: P M M A
;
_chemical_formula_sum "Si O2"
_cell_formula_units_Z 48
_cell_length_a 9.394152
_cell_length_b 8.820307
_cell_length_c 28.692063
_cell_angle_alpha 90.000000
_cell_angle_beta 90.000000
_cell_angle_gamma 90.000000
_cell_volume 2377.404389
_symmetry_space_group_name_H-M "P M M A"
_symmetry_group_IT_number 51
_symmetry_cell_setting 'orthorhombic'
loop_
_space_group_symop_operation_xyz
x,y,z
1/2-x,-y,z
1/2+x,-y,-z
-x,y,-z
-x,-y,-z
1/2+x,y,-z
1/2-x,y,z
x,-y,z
loop_
_atom_site_type_symbol
_atom_site_label
_atom_site_fract_x
_atom_site_fract_y
_atom_site_fract_z
Si Si1 0.750000 0.679423 0.965784
Si Si2 0.912756 0.820042 0.633681
Si Si3 0.968726 0.178253 0.898536
Si Si4 0.750000 0.679258 0.073050
Si Si5 0.914074 0.678535 0.282970
Si Si6 0.093074 0.328565 0.195262
Si Si7 0.587396 0.180533 0.455485
O O1 0.750000 0.500000 0.960537
O O2 0.611405 0.746007 0.941680
O O3 0.750000 0.729968 0.019370
O O4 0.750000 0.758737 0.631316
O O5 0.991221 0.763635 0.679507
O O6 0.003009 0.758939 0.589688
O O7 0.911345 0.000000 0.633917
O O8 0.901459 0.217758 0.848850
O O9 0.123074 0.248222 0.898559
O O10 0.967114 0.000000 0.906072
O O11 0.750000 0.500000 0.078153
O O12 0.750000 0.731484 0.286142
O O13 0.928907 0.500000 0.291159
O O14 0.975222 0.724672 0.232418
O O15 0.250000 0.321577 0.218731
O O16 0.059820 0.500000 0.178348
O O17 0.500000 0.241757 0.500000
O O18 0.750000 0.243539 0.455719
O O19 0.591641 0.000000 0.456056
#
# Coordination Sequence:
#
# PCOD8211721 Si02
#       7
#     4   8   8   4   8   8   8
#     4  11  23  43  67  91 119 163 209 241 286 355
#     4  10  20  34  54  82 115 152 194 242 296 351
#     4  12  25  40  62  94 127 156 193 249 308 352
#     4  11  25  43  65  89 121 163 207 245 286 355
#     4  10  22  39  60  87 115 149 193 240 290 347
#     4  10  21  39  62  84 112 153 197 236 283 353
#     4   9  16  27  46  74 110 151 196 245 297 354
#
# _framework density 20.190085
#
# number of rings (size 3 to 8) (size 9 to 14) (size 15 to 20)
#    0.000    1.667    0.833    4.000    1.167    8.000 
#    0.000    0.000    0.000    0.500    0.000    0.000 
#    0.000    0.000    0.000    0.000    0.000    0.000 
#
# Total GULP energy -595258.352838 kJ/mol
# GULP energy per Si atom -12401.215684 kJ/mol
# Density = 2.014413 g / cm^3
# Si number density = 20.190085 Si / 1000 Ang^3
#
#
#
# Elastic Constant Matrix: (Units=GPa)
#
#
# Indices 1 2 3 4 5 6 
#
# 1 166.0620 23.1078 50.1238 0.0000 0.0000 0.0000
# 2 23.1078 49.7991 26.8891 0.0000 0.0000 0.0000
# 3 50.1238 26.8891 104.4125 0.0000 0.0000 0.0000
# 4 0.0000 0.0000 0.0000 -39.0150 0.0000 0.0000
# 5 0.0000 0.0000 0.0000 0.0000 43.2643 0.0000
# 6 0.0000 0.0000 0.0000 0.0000 0.0000 28.5991
#
#
#
# Elastic Compliance Matrix: (Units=1/GPa)
#
#
# Indices 1 2 3 4 5 6 
#
# 1 0.007165 -0.001704 -0.003001 0.000000 0.000000 0.000000
# 2 -0.001704 0.023729 -0.005293 0.000000 0.000000 0.000000
# 3 -0.003001 -0.005293 0.012381 0.000000 0.000000 0.000000
# 4 0.000000 0.000000 0.000000 -0.025631 0.000000 0.000000
# 5 0.000000 0.000000 0.000000 0.000000 0.023114 0.000000
# 6 0.000000 0.000000 0.000000 0.000000 0.000000 0.034966
#
#
# Mechanical properties :
#
#
# Convention : Reuss Voigt Hill
#
# Bulk Modulus (GPa) = 42.95616 57.83499 50.39557
# Shear Modulus (GPa) = 48.31905 21.24654 34.78279
#
# Velocity S-wave (km/s) = 4.89735 3.24748 4.15512
# Velocity P-wave (km/s) = 7.30074 6.53979 6.93072
#
# Compressibility (1/GPa) = 0.02327955
#
# Stress axis : x y z
#
# Youngs Moduli (GPa) = 139.57334 42.14180 80.76998
#
# Poissons Ratio (x) = 0.07183 0.24235
# Poissons Ratio (y) = 0.23789 0.42750
# Poissons Ratio (z) = 0.41879 0.22305
#
# Static dielectric constant tensor:
#      x y z
#    x 4.014660 0.000000 0.000000 
#    y 0.000000 3.378100 0.000000 
#    z 0.000000 0.000000 3.668540 
# 
# 
# High freq. dielectric constant tensor:
#      x y z
#    x 1.811480 0.000000 0.000000 
#    y 0.000000 1.759600 0.000000 
#    z 0.000000 0.000000 1.794100 
# 
# From -- ./inp_files/37129.got.cif
#   From: 2010.03.12/outbox.cif.g09.slc.cpg/sg51_19_cif.got.tgz:37129.got - 2010.04.16 13:43:02.
