data_PCOD8211261
_publ_section_title
;
Structure prediction by ZEFSAII (Michael W. Deem and Ramdas Pophale) SiO2 
 PCOD8211261
Probable space group: P M M A
;
_chemical_formula_sum "Si O2"
_cell_formula_units_Z 56
_cell_length_a 17.878883
_cell_length_b 9.639007
_cell_length_c 18.400433
_cell_angle_alpha 90.000000
_cell_angle_beta 90.000000
_cell_angle_gamma 90.000000
_cell_volume 3171.032703
_symmetry_space_group_name_H-M "P M M A"
_symmetry_group_IT_number 51
_symmetry_cell_setting 'orthorhombic'
loop_
_space_group_symop_operation_xyz
x,y,z
1/2-x,-y,z
1/2+x,-y,-z
-x,y,-z
-x,-y,-z
1/2+x,y,-z
1/2-x,y,z
x,-y,z
loop_
_atom_site_type_symbol
_atom_site_label
_atom_site_fract_x
_atom_site_fract_y
_atom_site_fract_z
Si Si1 0.161654 0.655377 0.939445
Si Si2 0.423886 0.161247 0.042821
Si Si3 0.910456 0.156182 0.789782
Si Si4 0.022153 0.662372 0.419723
Si Si5 0.837537 0.156538 0.189504
Si Si6 0.447466 0.845849 0.691607
Si Si7 0.164566 0.661811 0.327610
O O1 0.250000 0.647654 0.935556
O O2 0.127480 0.500000 0.941222
O O3 0.129435 0.736759 0.869400
O O4 0.140614 0.741711 0.010689
O O5 0.425316 0.202183 0.127514
O O6 0.403294 0.000000 0.032223
O O7 0.500000 0.197355 0.000000
O O8 0.853096 0.255845 0.746735
O O9 0.990620 0.164607 0.753411
O O10 0.877621 0.000000 0.786258
O O11 0.010532 0.500000 0.412233
O O12 0.106512 0.704254 0.392869
O O13 0.000000 0.713326 0.500000
O O14 0.960009 0.734431 0.370538
O O15 0.750000 0.172833 0.196530
O O16 0.869729 0.190131 0.269080
O O17 0.860531 0.000000 0.165588
O O18 0.446470 0.000000 0.656991
O O19 0.250000 0.695057 0.352500
O O20 0.155266 0.500000 0.309636
#
# Coordination Sequence:
#
# PCOD8211261 Si02
#       7
#     8   8   8   8   8   8   8
#     4  10  21  34  47  67  96 128 162 201 245 292
#     4  10  20  34  51  70  94 126 166 209 252 299
#     4   9  18  31  48  70  94 122 158 201 244 285
#     4   9  18  33  52  74 100 129 160 192 230 282
#     4   9  17  31  51  71  93 125 162 198 238 286
#     4   9  17  31  51  73  96 122 155 194 235 280
#     4   9  18  33  52  72  96 128 163 198 238 285
#
# _framework density 17.659862
#
# number of rings (size 3 to 8) (size 9 to 14) (size 15 to 20)
#    0.000    2.714    0.000    1.286    0.000    5.714 
#    0.000    6.429    0.000    0.857    0.000    0.000 
#    0.000    0.000    0.000    0.000    0.000    0.000 
#
# Total GULP energy -694162.838887 kJ/mol
# GULP energy per Si atom -12395.764980 kJ/mol
# Density = 1.761967 g / cm^3
# Si number density = 17.659862 Si / 1000 Ang^3
#
#
#
# Elastic Constant Matrix: (Units=GPa)
#
#
# Indices 1 2 3 4 5 6 
#
# 1 31.2562 31.4616 43.4067 0.0000 0.0000 0.0000
# 2 31.4616 71.0035 58.3822 0.0000 0.0000 0.0000
# 3 43.4067 58.3822 139.0113 0.0000 0.0000 0.0000
# 4 0.0000 0.0000 0.0000 26.2104 0.0000 0.0000
# 5 0.0000 0.0000 0.0000 0.0000 21.0794 0.0000
# 6 0.0000 0.0000 0.0000 0.0000 0.0000 21.5519
#
#
#
# Elastic Compliance Matrix: (Units=1/GPa)
#
#
# Indices 1 2 3 4 5 6 
#
# 1 0.071757 -0.020426 -0.013828 0.000000 0.000000 0.000000
# 2 -0.020426 0.027327 -0.005099 0.000000 0.000000 0.000000
# 3 -0.013828 -0.005099 0.013653 0.000000 0.000000 0.000000
# 4 0.000000 0.000000 0.000000 0.038153 0.000000 0.000000
# 5 0.000000 0.000000 0.000000 0.000000 0.047440 0.000000
# 6 0.000000 0.000000 0.000000 0.000000 0.000000 0.046400
#
#
# Mechanical properties :
#
#
# Convention : Reuss Voigt Hill
#
# Bulk Modulus (GPa) = 29.38414 56.41911 42.90162
# Shear Modulus (GPa) = 14.93530 20.96970 17.95250
#
# Velocity S-wave (km/s) = 2.91128 3.44964 3.19183
# Velocity P-wave (km/s) = 5.28922 6.91980 6.15871
#
# Compressibility (1/GPa) = 0.03403197
#
# Stress axis : x y z
#
# Youngs Moduli (GPa) = 13.93597 36.59403 73.24453
#
# Poissons Ratio (x) = 0.74745 1.01282
# Poissons Ratio (y) = 0.28465 0.37346
# Poissons Ratio (z) = 0.19271 0.18659
#
# Static dielectric constant tensor:
#      x y z
#    x 3.259890 0.000000 0.000000 
#    y 0.000000 3.460080 0.000000 
#    z 0.000000 0.000000 3.307080 
# 
# 
# High freq. dielectric constant tensor:
#      x y z
#    x 1.674580 0.000000 0.000000 
#    y 0.000000 1.684500 0.000000 
#    z 0.000000 0.000000 1.671970 
# 
# From -- ./inp_files/30386.got.cif
#   From: 2010.03.12/outbox.cif.g09.slc.cpg/sg51_16_cif.got.tgz:30386.got - 2010.04.16 13:43:02.
