data_PCOD8211759
_publ_section_title
;
Structure prediction by ZEFSAII (Michael W. Deem and Ramdas Pophale) SiO2 
 PCOD8211759
Probable space group: P M M A
;
_chemical_formula_sum "Si O2"
_cell_formula_units_Z 52
_cell_length_a 8.913530
_cell_length_b 21.195301
_cell_length_c 13.916216
_cell_angle_alpha 90.000000
_cell_angle_beta 90.000000
_cell_angle_gamma 90.000000
_cell_volume 2629.120430
_symmetry_space_group_name_H-M "P M M A"
_symmetry_group_IT_number 51
_symmetry_cell_setting 'orthorhombic'
loop_
_space_group_symop_operation_xyz
x,y,z
1/2-x,-y,z
1/2+x,-y,-z
-x,y,-z
-x,-y,-z
1/2+x,y,-z
1/2-x,y,z
x,-y,z
loop_
_atom_site_type_symbol
_atom_site_label
_atom_site_fract_x
_atom_site_fract_y
_atom_site_fract_z
Si Si1 0.425920 0.572068 0.097812
Si Si2 0.577499 0.927501 0.216537
Si Si3 0.074568 0.126871 0.397828
Si Si4 0.426825 0.500000 0.602139
Si Si5 0.572912 0.178868 0.899470
Si Si6 0.073693 0.620925 0.720611
Si Si7 0.421979 0.253790 0.289825
O O1 0.250000 0.580642 0.089190
O O2 0.471802 0.500000 0.120965
O O3 0.490075 0.617568 0.178298
O O4 0.500000 0.595017 0.000000
O O5 0.750000 0.905578 0.224147
O O6 0.499808 0.918910 0.319861
O O7 0.495289 0.887814 0.133664
O O8 0.564758 0.000000 0.185748
O O9 0.250000 0.111200 0.403334
O O10 0.046808 0.198896 0.366285
O O11 0.000000 0.113987 0.500000
O O12 0.250000 0.500000 0.590876
O O13 0.500000 0.500000 0.500000
O O14 0.482909 0.437100 0.655766
O O15 0.750000 0.170488 0.912363
O O16 0.536120 0.230724 0.817728
O O17 0.500000 0.200704 0.000000
O O18 0.250000 0.617253 0.736235
O O19 0.025969 0.688014 0.676190
O O20 0.250000 0.275722 0.293482
#
# Coordination Sequence:
#
# PCOD8211759 Si02
#       7
#     8   8   8   4   8   8   8
#     4  10  20  34  55  81 109 143 178 218 270 328
#     4  10  21  37  58  86 119 154 194 238 284 337
#     4  10  21  38  60  84 114 150 189 238 288 342
#     4  10  24  42  59  82 111 144 185 230 280 338
#     4  10  21  38  60  85 117 155 195 239 283 333
#     4  11  22  38  59  83 114 147 184 233 284 339
#     4   9  21  39  57  82 113 147 191 236 282 337
#
# _framework density 19.778476999999999
#
# number of rings (size 3 to 8) (size 9 to 14) (size 15 to 20)
#    0.000    2.000    0.769    3.231    0.000    8.615 
#    0.000    4.615    0.000    0.000    0.000    0.000 
#    0.000    0.000    0.000    0.000    0.000    0.000 
#
# Total GULP energy -644989.876599 kJ/mol
# GULP energy per Si atom -12403.651473 kJ/mol
# Density = 1.973346 g / cm^3
# Si number density = 19.778477 Si / 1000 Ang^3
#
#
#
# Elastic Constant Matrix: (Units=GPa)
#
#
# Indices 1 2 3 4 5 6 
#
# 1 93.8506 33.6447 28.0151 0.0000 0.0000 0.0000
# 2 33.6447 86.0260 11.7633 0.0000 0.0000 0.0000
# 3 28.0151 11.7633 77.5228 0.0000 0.0000 0.0000
# 4 0.0000 0.0000 0.0000 15.6507 0.0000 0.0000
# 5 0.0000 0.0000 0.0000 0.0000 39.3292 0.0000
# 6 0.0000 0.0000 0.0000 0.0000 0.0000 34.5066
#
#
#
# Elastic Compliance Matrix: (Units=1/GPa)
#
#
# Indices 1 2 3 4 5 6 
#
# 1 0.013611 -0.004749 -0.004198 0.000000 0.000000 0.000000
# 2 -0.004749 0.013528 -0.000336 0.000000 0.000000 0.000000
# 3 -0.004198 -0.000336 0.014468 0.000000 0.000000 0.000000
# 4 0.000000 0.000000 0.000000 0.063895 0.000000 0.000000
# 5 0.000000 0.000000 0.000000 0.000000 0.025426 0.000000
# 6 0.000000 0.000000 0.000000 0.000000 0.000000 0.028980
#
#
# Mechanical properties :
#
#
# Convention : Reuss Voigt Hill
#
# Bulk Modulus (GPa) = 43.40482 44.91618 44.16050
# Shear Modulus (GPa) = 26.85941 30.16238 28.51090
#
# Velocity S-wave (km/s) = 3.68912 3.90937 3.80084
# Velocity P-wave (km/s) = 6.33555 6.56784 6.45274
#
# Compressibility (1/GPa) = 0.02303892
#
# Stress axis : x y z
#
# Youngs Moduli (GPa) = 73.47040 73.92184 69.12007
#
# Poissons Ratio (x) = 0.35107 0.29017
# Poissons Ratio (y) = 0.34892 0.02326
# Poissons Ratio (z) = 0.30843 0.02487
#
# Static dielectric constant tensor:
#      x y z
#    x 3.634750 0.000000 0.000000 
#    y 0.000000 3.581800 0.000000 
#    z 0.000000 0.000000 3.526480 
# 
# 
# High freq. dielectric constant tensor:
#      x y z
#    x 1.781310 0.000000 0.000000 
#    y 0.000000 1.769170 0.000000 
#    z 0.000000 0.000000 1.767720 
# 
# From -- ./inp_files/21568.got.cif
#   From: 2010.03.12/outbox.cif.g09.slc.cpg/sg51_11_cif.got.tgz:21568.got - 2010.04.16 13:43:02.
