data_PCOD8211351
_publ_section_title
;
Structure prediction by ZEFSAII (Michael W. Deem and Ramdas Pophale) SiO2 
 PCOD8211351
Probable space group: P M M A
;
_chemical_formula_sum "Si O2"
_cell_formula_units_Z 56
_cell_length_a 18.454633
_cell_length_b 8.936667
_cell_length_c 18.955708
_cell_angle_alpha 90.000000
_cell_angle_beta 90.000000
_cell_angle_gamma 90.000000
_cell_volume 3126.230519
_symmetry_space_group_name_H-M "P M M A"
_symmetry_group_IT_number 51
_symmetry_cell_setting 'orthorhombic'
loop_
_space_group_symop_operation_xyz
x,y,z
1/2-x,-y,z
1/2+x,-y,-z
-x,y,-z
-x,-y,-z
1/2+x,y,-z
1/2-x,y,z
x,-y,z
loop_
_atom_site_type_symbol
_atom_site_label
_atom_site_fract_x
_atom_site_fract_y
_atom_site_fract_z
Si Si1 0.983684 0.826729 0.711638
Si Si2 0.326436 0.673693 0.625118
Si Si3 0.019325 0.322366 0.578969
Si Si4 0.332852 0.676455 0.033906
Si Si5 0.073934 0.170815 0.142701
Si Si6 0.411740 0.825186 0.905389
Si Si7 0.121523 0.671325 0.771908
O O1 0.921506 0.811670 0.771691
O O2 0.964160 0.762562 0.633469
O O3 0.046442 0.718696 0.737458
O O4 0.008449 0.000000 0.707079
O O5 0.250000 0.741125 0.594839
O O6 0.329884 0.500000 0.606049
O O7 0.399172 0.743700 0.591719
O O8 0.320437 0.695264 0.709910
O O9 0.013348 0.500000 0.591525
O O10 0.000000 0.276636 0.500000
O O11 0.250000 0.733089 0.025438
O O12 0.336151 0.500000 0.027350
O O13 0.363679 0.725626 0.109996
O O14 0.385943 0.746703 0.976251
O O15 0.994792 0.217688 0.112501
O O16 0.089224 0.000000 0.120904
O O17 0.360775 0.770428 0.840763
O O18 0.401775 0.000000 0.915264
O O19 0.117511 0.500000 0.796857
#
# Coordination Sequence:
#
# PCOD8211351 Si02
#       7
#     8   8   8   8   8   8   8
#     4   9  17  30  49  73  97 121 154 194 236 286
#     4   8  14  25  42  64  91 123 155 187 227 277
#     4   9  17  29  47  72  98 125 159 196 236 284
#     4  11  24  37  49  70  98 128 166 211 257 301
#     4   9  19  35  54  74  95 123 163 206 246 297
#     4  10  20  34  52  74  99 128 164 202 244 299
#     4   9  16  27  45  69  96 124 154 191 234 281
#
# _framework density 17.912946000000002
#
# number of rings (size 3 to 8) (size 9 to 14) (size 15 to 20)
#    0.000    2.714    0.000    3.857    0.000    7.143 
#    0.000    1.429    0.000   11.143    0.000    2.000 
#    0.000    0.000    0.000    0.000    0.000    0.000 
#
# Total GULP energy -693753.238721 kJ/mol
# GULP energy per Si atom -12388.450691 kJ/mol
# Density = 1.787218 g / cm^3
# Si number density = 17.912946 Si / 1000 Ang^3
#
#
#
# Elastic Constant Matrix: (Units=GPa)
#
#
# Indices 1 2 3 4 5 6 
#
# 1 57.9211 30.2649 38.0282 0.0000 0.0000 0.0000
# 2 30.2649 48.9643 36.7474 0.0000 0.0000 0.0000
# 3 38.0282 36.7474 125.2472 0.0000 0.0000 0.0000
# 4 0.0000 0.0000 0.0000 29.8991 0.0000 0.0000
# 5 0.0000 0.0000 0.0000 0.0000 5.8151 0.0000
# 6 0.0000 0.0000 0.0000 0.0000 0.0000 13.1950
#
#
#
# Elastic Compliance Matrix: (Units=1/GPa)
#
#
# Indices 1 2 3 4 5 6 
#
# 1 0.027164 -0.013594 -0.004259 0.000000 0.000000 0.000000
# 2 -0.013594 0.032992 -0.005553 0.000000 0.000000 0.000000
# 3 -0.004259 -0.005553 0.010907 0.000000 0.000000 0.000000
# 4 0.000000 0.000000 0.000000 0.033446 0.000000 0.000000
# 5 0.000000 0.000000 0.000000 0.000000 0.171965 0.000000
# 6 0.000000 0.000000 0.000000 0.000000 0.000000 0.075787
#
#
# Mechanical properties :
#
#
# Convention : Reuss Voigt Hill
#
# Bulk Modulus (GPa) = 41.23353 49.13484 45.18419
# Shear Modulus (GPa) = 12.28031 18.25465 15.26748
#
# Velocity S-wave (km/s) = 2.62115 3.19576 2.92261
# Velocity P-wave (km/s) = 5.67709 6.41144 6.05541
#
# Compressibility (1/GPa) = 0.02425211
#
# Stress axis : x y z
#
# Youngs Moduli (GPa) = 36.81295 30.30992 91.68773
#
# Poissons Ratio (x) = 0.41202 0.39053
# Poissons Ratio (y) = 0.50042 0.50910
# Poissons Ratio (z) = 0.15680 0.16830
#
# Static dielectric constant tensor:
#      x y z
#    x 3.271300 0.000000 0.000000 
#    y 0.000000 3.272050 0.000000 
#    z 0.000000 0.000000 3.657980 
# 
# 
# High freq. dielectric constant tensor:
#      x y z
#    x 1.657840 0.000000 0.000000 
#    y 0.000000 1.685960 0.000000 
#    z 0.000000 0.000000 1.693270 
# 
# From -- ./inp_files/33729.got.cif
#   From: 2010.03.12/outbox.cif.g09.slc.cpg/sg51_17_cif.got.tgz:33729.got - 2010.04.16 13:43:02.
