data_PCOD8211064
_publ_section_title
;
Structure prediction by ZEFSAII (Michael W. Deem and Ramdas Pophale) SiO2 
 PCOD8211064
Probable space group: P M M A
;
_chemical_formula_sum "Si O2"
_cell_formula_units_Z 48
_cell_length_a 30.521085
_cell_length_b 8.748251
_cell_length_c 9.588804
_cell_angle_alpha 90.000000
_cell_angle_beta 90.000000
_cell_angle_gamma 90.000000
_cell_volume 2560.269278
_symmetry_space_group_name_H-M "P M M A"
_symmetry_group_IT_number 51
_symmetry_cell_setting 'orthorhombic'
loop_
_space_group_symop_operation_xyz
x,y,z
1/2-x,-y,z
1/2+x,-y,-z
-x,y,-z
-x,-y,-z
1/2+x,y,-z
1/2-x,y,z
x,-y,z
loop_
_atom_site_type_symbol
_atom_site_label
_atom_site_fract_x
_atom_site_fract_y
_atom_site_fract_z
Si Si1 0.301061 0.177352 0.212080
Si Si2 0.485739 0.819814 0.649617
Si Si3 0.565391 0.676102 0.778805
Si Si4 0.388548 0.819579 0.712120
Si Si5 0.140785 0.678278 0.436671
Si Si6 0.635347 0.320038 0.000347
O O1 0.250000 0.208220 0.193993
O O2 0.317550 0.270388 0.346538
O O3 0.311942 0.000000 0.234644
O O4 0.324136 0.235273 0.071591
O O5 0.500000 0.749286 0.500000
O O6 0.520841 0.772325 0.766886
O O7 0.438055 0.757482 0.692092
O O8 0.483773 0.000000 0.638616
O O9 0.552052 0.500000 0.780272
O O10 0.596706 0.714522 0.648834
O O11 0.590113 0.722714 0.921070
O O12 0.359920 0.775797 0.577839
O O13 0.367196 0.733780 0.841752
O O14 0.386947 0.000000 0.737138
O O15 0.145003 0.500000 0.471689
O O16 0.643972 0.500000 0.989973
#
# Coordination Sequence:
#
# PCOD8211064 Si02
#       6
#     8   8   8   8   8   8
#     4  10  21  39  64  90 113 141 179 223 274 337
#     4  10  20  33  51  78 110 148 193 237 280 326
#     4   9  19  34  53  77 106 147 191 231 274 324
#     4  11  22  36  55  81 114 152 191 235 284 329
#     4  10  20  35  57  84 113 146 184 227 276 328
#     4  10  22  39  57  82 115 150 188 230 283 339
#
# _framework density 18.748028000000001
#
# number of rings (size 3 to 8) (size 9 to 14) (size 15 to 20)
#    0.000    2.000    1.667    3.000    0.000    7.000 
#    0.000    4.167    0.000    5.000    0.000    0.000 
#    0.000    0.000    0.000    0.000    0.000    0.000 
#
# Total GULP energy -595382.083725 kJ/mol
# GULP energy per Si atom -12403.793411 kJ/mol
# Density = 1.870536 g / cm^3
# Si number density = 18.748028 Si / 1000 Ang^3
#
#
#
# Elastic Constant Matrix: (Units=GPa)
#
#
# Indices 1 2 3 4 5 6 
#
# 1 96.7690 27.2018 35.8369 0.0000 0.0000 0.0000
# 2 27.2018 36.2920 6.4956 0.0000 0.0000 0.0000
# 3 35.8369 6.4956 99.0593 0.0000 0.0000 0.0000
# 4 0.0000 0.0000 0.0000 31.6992 0.0000 0.0000
# 5 0.0000 0.0000 0.0000 0.0000 19.9230 0.0000
# 6 0.0000 0.0000 0.0000 0.0000 0.0000 25.0586
#
#
#
# Elastic Compliance Matrix: (Units=1/GPa)
#
#
# Indices 1 2 3 4 5 6 
#
# 1 0.015019 -0.010406 -0.004751 0.000000 0.000000 0.000000
# 2 -0.010406 0.035092 0.001464 0.000000 0.000000 0.000000
# 3 -0.004751 0.001464 0.011718 0.000000 0.000000 0.000000
# 4 0.000000 0.000000 0.000000 0.031547 0.000000 0.000000
# 5 0.000000 0.000000 0.000000 0.000000 0.050193 0.000000
# 6 0.000000 0.000000 0.000000 0.000000 0.000000 0.039906
#
#
# Mechanical properties :
#
#
# Convention : Reuss Voigt Hill
#
# Bulk Modulus (GPa) = 29.03510 41.24321 35.13916
# Shear Modulus (GPa) = 22.48782 26.17523 24.33152
#
# Velocity S-wave (km/s) = 3.46710 3.74057 3.60643
# Velocity P-wave (km/s) = 5.61679 6.37984 6.01044
#
# Compressibility (1/GPa) = 0.03444107
#
# Stress axis : x y z
#
# Youngs Moduli (GPa) = 66.58418 28.49638 85.34066
#
# Poissons Ratio (x) = 0.29655 0.40545
# Poissons Ratio (y) = 0.69291 -0.12491
# Poissons Ratio (z) = 0.31634 -0.04171
#
# Static dielectric constant tensor:
#      x y z
#    x 3.333250 0.000000 0.000000 
#    y 0.000000 3.414530 0.000000 
#    z 0.000000 0.000000 3.412550 
# 
# 
# High freq. dielectric constant tensor:
#      x y z
#    x 1.715000 0.000000 0.000000 
#    y 0.000000 1.732980 0.000000 
#    z 0.000000 0.000000 1.726110 
# 
# From -- ./inp_files/12763.got.cif
#   From: 2010.03.12/outbox.cif.g09.slc.cpg/sg51_7_cif.got.tgz:12763.got - 2010.04.16 13:43:02.
