data_PCOD8211317
_publ_section_title
;
Structure prediction by ZEFSAII (Michael W. Deem and Ramdas Pophale) SiO2 
 PCOD8211317
Probable space group: P M M A
;
_chemical_formula_sum "Si O2"
_cell_formula_units_Z 64
_cell_length_a 33.113341
_cell_length_b 9.221294
_cell_length_c 11.469159
_cell_angle_alpha 90.000000
_cell_angle_beta 90.000000
_cell_angle_gamma 90.000000
_cell_volume 3502.083073
_symmetry_space_group_name_H-M "P M M A"
_symmetry_group_IT_number 51
_symmetry_cell_setting 'orthorhombic'
loop_
_space_group_symop_operation_xyz
x,y,z
1/2-x,-y,z
1/2+x,-y,-z
-x,y,-z
-x,-y,-z
1/2+x,y,-z
1/2-x,y,z
x,-y,z
loop_
_atom_site_type_symbol
_atom_site_label
_atom_site_fract_x
_atom_site_fract_y
_atom_site_fract_z
Si Si1 0.296383 0.332205 0.474411
Si Si2 0.358045 0.334962 0.660890
Si Si3 0.623750 0.830505 0.878993
Si Si4 0.021369 0.828854 0.738872
Si Si5 0.895950 0.169257 0.139091
Si Si6 0.795310 0.831972 0.757897
Si Si7 0.442596 0.329167 0.264696
Si Si8 0.558536 0.664285 0.464856
O O1 0.250000 0.305354 0.503368
O O2 0.306948 0.500000 0.453454
O O3 0.320571 0.273140 0.586473
O O4 0.309456 0.250092 0.357932
O O5 0.350756 0.500000 0.699068
O O6 0.363004 0.244051 0.778413
O O7 0.396073 0.318351 0.577062
O O8 0.671510 0.799664 0.857836
O O9 0.597803 0.736582 0.789599
O O10 0.613687 0.000000 0.861310
O O11 0.612251 0.778102 0.008256
O O12 0.058594 0.787607 0.823635
O O13 0.029565 0.769978 0.608426
O O14 0.981850 0.749510 0.790963
O O15 0.013963 0.000000 0.734104
O O16 0.888928 0.000000 0.152474
O O17 0.750000 0.782070 0.798216
O O18 0.794714 0.000000 0.725905
O O19 0.444265 0.500000 0.239622
O O20 0.442394 0.291571 0.400965
O O21 0.542802 0.500000 0.445871
#
# Coordination Sequence:
#
# PCOD8211317 Si02
#       8
#     8   8   8   8   8   8   8   8
#     4   9  17  30  50  77 108 137 163 197 247 305
#     4   9  17  31  51  72  96 129 166 203 246 295
#     4  10  21  37  54  72  99 134 171 209 249 295
#     4  10  20  34  52  73  99 132 169 207 250 300
#     4   9  20  37  53  70  96 133 173 211 250 293
#     4   9  18  33  54  79 104 130 162 202 247 294
#     4  11  22  34  51  76 104 131 164 207 252 300
#     4   9  18  32  49  71 100 130 161 203 254 303
#
# _framework density 18.274839
#
# number of rings (size 3 to 8) (size 9 to 14) (size 15 to 20)
#    0.000    2.500    0.000    1.875    0.000    6.000 
#    0.000    5.625    0.000    0.750    0.000    0.000 
#    0.000    0.000    0.000    0.000    0.000    0.000 
#
# Total GULP energy -793630.559831 kJ/mol
# GULP energy per Si atom -12400.477497 kJ/mol
# Density = 1.823324 g / cm^3
# Si number density = 18.274839 Si / 1000 Ang^3
#
#
#
# Elastic Constant Matrix: (Units=GPa)
#
#
# Indices 1 2 3 4 5 6 
#
# 1 101.6093 44.1160 66.8152 0.0000 0.0000 0.0000
# 2 44.1160 61.1244 44.0858 0.0000 0.0000 0.0000
# 3 66.8152 44.0858 94.3586 0.0000 0.0000 0.0000
# 4 0.0000 0.0000 0.0000 22.9114 0.0000 0.0000
# 5 0.0000 0.0000 0.0000 0.0000 21.3521 0.0000
# 6 0.0000 0.0000 0.0000 0.0000 0.0000 26.4013
#
#
#
# Elastic Compliance Matrix: (Units=1/GPa)
#
#
# Indices 1 2 3 4 5 6 
#
# 1 0.019923 -0.006341 -0.011145 0.000000 0.000000 0.000000
# 2 -0.006341 0.026693 -0.007981 0.000000 0.000000 0.000000
# 3 -0.011145 -0.007981 0.022219 0.000000 0.000000 0.000000
# 4 0.000000 0.000000 0.000000 0.043646 0.000000 0.000000
# 5 0.000000 0.000000 0.000000 0.000000 0.046834 0.000000
# 6 0.000000 0.000000 0.000000 0.000000 0.000000 0.037877
#
#
# Mechanical properties :
#
#
# Convention : Reuss Voigt Hill
#
# Bulk Modulus (GPa) = 55.86522 63.01403 59.43963
# Shear Modulus (GPa) = 19.67773 20.93798 20.30786
#
# Velocity S-wave (km/s) = 3.28497 3.38853 3.33715
# Velocity P-wave (km/s) = 6.70998 7.06156 6.88802
#
# Compressibility (1/GPa) = 0.01790023
#
# Stress axis : x y z
#
# Youngs Moduli (GPa) = 50.19207 37.46265 45.00727
#
# Poissons Ratio (x) = 0.23756 0.50161
# Poissons Ratio (y) = 0.31828 0.35922
# Poissons Ratio (z) = 0.55939 0.29900
#
# Static dielectric constant tensor:
#      x y z
#    x 3.549230 0.000000 0.000000 
#    y 0.000000 3.346540 0.000000 
#    z 0.000000 0.000000 3.320290 
# 
# 
# High freq. dielectric constant tensor:
#      x y z
#    x 1.716190 0.000000 0.000000 
#    y 0.000000 1.704890 0.000000 
#    z 0.000000 0.000000 1.693640 
# 
# From -- ./inp_files/19465.got.cif
#   From: 2010.03.12/outbox.cif.g09.slc.cpg/sg51_10_cif.got.tgz:19465.got - 2010.04.16 13:43:02.
