data_PCOD8211435
_publ_section_title
;
Structure prediction by ZEFSAII (Michael W. Deem and Ramdas Pophale) SiO2 
 PCOD8211435
Probable space group: P M M A
;
_chemical_formula_sum "Si O2"
_cell_formula_units_Z 40
_cell_length_a 18.191564
_cell_length_b 8.753697
_cell_length_c 13.848521
_cell_angle_alpha 90.000000
_cell_angle_beta 90.000000
_cell_angle_gamma 90.000000
_cell_volume 2205.286112
_symmetry_space_group_name_H-M "P M M A"
_symmetry_group_IT_number 51
_symmetry_cell_setting 'orthorhombic'
loop_
_space_group_symop_operation_xyz
x,y,z
1/2-x,-y,z
1/2+x,-y,-z
-x,y,-z
-x,-y,-z
1/2+x,y,-z
1/2-x,y,z
x,-y,z
loop_
_atom_site_type_symbol
_atom_site_label
_atom_site_fract_x
_atom_site_fract_y
_atom_site_fract_z
Si Si1 0.592229 0.179856 0.888838
Si Si2 0.165380 0.819430 0.912023
Si Si3 0.544100 0.680186 0.208256
Si Si4 0.829805 0.180228 0.696018
Si Si5 0.476913 0.181648 0.394846
O O1 0.514523 0.261559 0.870931
O O2 0.648742 0.226923 0.804661
O O3 0.576411 0.000000 0.888359
O O4 0.628049 0.234896 0.988271
O O5 0.250000 0.767771 0.911714
O O6 0.124650 0.735858 0.823985
O O7 0.158182 0.000000 0.899300
O O8 0.541181 0.500000 0.214124
O O9 0.529691 0.747219 0.314441
O O10 0.750000 0.253476 0.670639
O O11 0.892893 0.237729 0.622701
O O12 0.823655 0.000000 0.688526
O O13 0.500000 0.241190 0.500000
O O14 0.483408 0.000000 0.386112
#
# Coordination Sequence:
#
# PCOD8211435 Si02
#       5
#     8   8   8   8   8
#     4   9  17  31  52  75  99 129 168 211 251 294
#     4  10  20  34  53  76 102 135 175 214 248 286
#     4  11  22  34  50  73 103 137 169 203 251 311
#     4   8  13  24  46  75 100 120 151 202 258 302
#     4   9  18  34  55  75  96 126 169 218 262 304
#
# _framework density 18.138235000000002
#
# number of rings (size 3 to 8) (size 9 to 14) (size 15 to 20)
#    0.000    2.600    0.000    4.200    0.000    6.400 
#    0.000    1.000    0.000   18.000    0.000    0.000 
#    0.000    0.000    0.000    0.000    0.000    0.000 
#
# Total GULP energy -495918.475745 kJ/mol
# GULP energy per Si atom -12397.961894 kJ/mol
# Density = 1.809695 g / cm^3
# Si number density = 18.138235 Si / 1000 Ang^3
#
#
#
# Elastic Constant Matrix: (Units=GPa)
#
#
# Indices 1 2 3 4 5 6 
#
# 1 131.5257 34.5642 90.9414 0.0000 0.0000 0.0000
# 2 34.5642 45.4646 34.7591 0.0000 0.0000 0.0000
# 3 90.9414 34.7591 130.9416 0.0000 0.0000 0.0000
# 4 0.0000 0.0000 0.0000 10.9162 0.0000 0.0000
# 5 0.0000 0.0000 0.0000 0.0000 21.1480 0.0000
# 6 0.0000 0.0000 0.0000 0.0000 0.0000 5.7603
#
#
#
# Elastic Compliance Matrix: (Units=1/GPa)
#
#
# Indices 1 2 3 4 5 6 
#
# 1 0.015298 -0.004400 -0.009457 0.000000 0.000000 0.000000
# 2 -0.004400 0.028861 -0.004605 0.000000 0.000000 0.000000
# 3 -0.009457 -0.004605 0.015427 0.000000 0.000000 0.000000
# 4 0.000000 0.000000 0.000000 0.091607 0.000000 0.000000
# 5 0.000000 0.000000 0.000000 0.000000 0.047286 0.000000
# 6 0.000000 0.000000 0.000000 0.000000 0.000000 0.173602
#
#
# Mechanical properties :
#
#
# Convention : Reuss Voigt Hill
#
# Bulk Modulus (GPa) = 44.12644 69.82902 56.97773
# Shear Modulus (GPa) = 12.00304 17.40939 14.70621
#
# Velocity S-wave (km/s) = 2.57525 3.10145 2.85052
# Velocity P-wave (km/s) = 5.76396 7.16988 6.50501
#
# Compressibility (1/GPa) = 0.02266215
#
# Stress axis : x y z
#
# Youngs Moduli (GPa) = 65.36701 34.64842 64.81966
#
# Poissons Ratio (x) = 0.15247 0.61299
# Poissons Ratio (y) = 0.28764 0.29851
# Poissons Ratio (z) = 0.61816 0.15956
#
# Static dielectric constant tensor:
#      x y z
#    x 3.670330 0.000000 0.000000 
#    y 0.000000 2.982050 0.000000 
#    z 0.000000 0.000000 3.357560 
# 
# 
# High freq. dielectric constant tensor:
#      x y z
#    x 1.709960 0.000000 0.000000 
#    y 0.000000 1.669040 0.000000 
#    z 0.000000 0.000000 1.692700 
# 
# From -- ./inp_files/24536.got.cif
#   From: 2010.03.12/outbox.cif.g09.slc.cpg/sg51_13_cif.got.tgz:24536.got - 2010.04.16 13:43:02.
