data_PCOD8211709
_publ_section_title
;
Structure prediction by ZEFSAII (Michael W. Deem and Ramdas Pophale) SiO2 
 PCOD8211709
Probable space group: P M M A
;
_chemical_formula_sum "Si O2"
_cell_formula_units_Z 64
_cell_length_a 25.164100
_cell_length_b 14.315431
_cell_length_c 9.545203
_cell_angle_alpha 90.000000
_cell_angle_beta 90.000000
_cell_angle_gamma 90.000000
_cell_volume 3438.515604
_symmetry_space_group_name_H-M "P M M A"
_symmetry_group_IT_number 51
_symmetry_cell_setting 'orthorhombic'
loop_
_space_group_symop_operation_xyz
x,y,z
1/2-x,-y,z
1/2+x,-y,-z
-x,y,-z
-x,-y,-z
1/2+x,y,-z
1/2-x,y,z
x,-y,z
loop_
_atom_site_type_symbol
_atom_site_label
_atom_site_fract_x
_atom_site_fract_y
_atom_site_fract_z
Si Si1 0.398867 0.608633 0.324006
Si Si2 0.897829 0.393139 0.354071
Si Si3 0.310261 0.300298 0.819158
Si Si4 0.980591 0.893747 0.846659
Si Si5 0.001729 0.275403 0.664881
Si Si6 0.689497 0.099471 0.154611
Si Si7 0.856789 0.898608 0.859235
Si Si8 0.310795 0.293173 0.149890
O O1 0.412558 0.500000 0.301800
O O2 0.384585 0.630451 0.485054
O O3 0.450026 0.669298 0.278952
O O4 0.348228 0.634266 0.229903
O O5 0.914416 0.500000 0.337713
O O6 0.846219 0.373619 0.261241
O O7 0.946565 0.334136 0.293670
O O8 0.250000 0.330674 0.789781
O O9 0.321584 0.194492 0.758188
O O10 0.322382 0.301278 0.984680
O O11 0.918068 0.880302 0.828595
O O12 0.008237 0.825361 0.735962
O O13 0.998178 0.000000 0.813801
O O14 0.000000 0.864062 0.000000
O O15 0.000000 0.260525 0.500000
O O16 0.750000 0.107742 0.095482
O O17 0.683126 0.000000 0.239352
O O18 0.649412 0.096174 0.025882
O O19 0.822790 0.812790 0.796747
O O20 0.839326 0.000000 0.794792
O O21 0.250000 0.317951 0.185616
#
# Coordination Sequence:
#
# PCOD8211709 Si02
#       8
#     8   8   8   8   8   8   8   8
#     4  10  21  39  58  77 103 138 182 229 275 321
#     4  10  22  38  58  79 101 138 185 227 271 325
#     4   9  19  34  53  81 113 141 173 219 268 316
#     4  10  21  34  53  84 115 143 176 217 264 319
#     4  10  21  38  59  80 106 140 181 226 271 318
#     4   8  14  26  47  75 104 136 172 207 249 305
#     4   9  16  29  50  75 108 141 174 212 257 309
#     4  10  20  34  54  82 111 141 179 221 268 320
#
# _framework density 18.612683000000001
#
# number of rings (size 3 to 8) (size 9 to 14) (size 15 to 20)
#    0.000    2.500    1.250    1.500    3.500    4.000 
#    0.000    2.500    0.000    3.750    0.000    1.750 
#    0.000    0.000    0.000    0.000    0.000    0.000 
#
# Total GULP energy -793255.243815 kJ/mol
# GULP energy per Si atom -12394.613185 kJ/mol
# Density = 1.857032 g / cm^3
# Si number density = 18.612683 Si / 1000 Ang^3
#
#
#
# Elastic Constant Matrix: (Units=GPa)
#
#
# Indices 1 2 3 4 5 6 
#
# 1 89.3074 40.6898 39.7535 0.0000 0.0000 0.0000
# 2 40.6898 97.7578 37.0462 0.0000 0.0000 0.0000
# 3 39.7535 37.0462 42.6839 0.0000 0.0000 0.0000
# 4 0.0000 0.0000 0.0000 28.2914 0.0000 0.0000
# 5 0.0000 0.0000 0.0000 0.0000 24.7284 0.0000
# 6 0.0000 0.0000 0.0000 0.0000 0.0000 30.6492
#
#
#
# Elastic Compliance Matrix: (Units=1/GPa)
#
#
# Indices 1 2 3 4 5 6 
#
# 1 0.019343 -0.001824 -0.016431 0.000000 0.000000 0.000000
# 2 -0.001824 0.015415 -0.011680 0.000000 0.000000 0.000000
# 3 -0.016431 -0.011680 0.048869 0.000000 0.000000 0.000000
# 4 0.000000 0.000000 0.000000 0.035346 0.000000 0.000000
# 5 0.000000 0.000000 0.000000 0.000000 0.040439 0.000000
# 6 0.000000 0.000000 0.000000 0.000000 0.000000 0.032627
#
#
# Mechanical properties :
#
#
# Convention : Reuss Voigt Hill
#
# Bulk Modulus (GPa) = 42.09633 51.63645 46.86639
# Shear Modulus (GPa) = 19.24348 24.21780 21.73064
#
# Velocity S-wave (km/s) = 3.21891 3.61105 3.42060
# Velocity P-wave (km/s) = 6.03997 6.72228 6.39024
#
# Compressibility (1/GPa) = 0.02375504
#
# Stress axis : x y z
#
# Youngs Moduli (GPa) = 51.69956 64.87257 20.46300
#
# Poissons Ratio (x) = 0.11833 0.33624
# Poissons Ratio (y) = 0.09431 0.23901
# Poissons Ratio (z) = 0.84950 0.75771
#
# Static dielectric constant tensor:
#      x y z
#    x 3.423300 0.000000 0.000000 
#    y 0.000000 3.683540 0.000000 
#    z 0.000000 0.000000 3.003200 
# 
# 
# High freq. dielectric constant tensor:
#      x y z
#    x 1.727700 0.000000 0.000000 
#    y 0.000000 1.740270 0.000000 
#    z 0.000000 0.000000 1.674300 
# 
# From -- ./inp_files/11895.got.cif
#   From: 2010.03.12/outbox.cif.g09.slc.cpg/sg51_6_cif.got.tgz:11895.got - 2010.04.16 13:43:02.
