data_PCOD8211829
_publ_section_title
;
Structure prediction by ZEFSAII (Michael W. Deem and Ramdas Pophale) SiO2 
 PCOD8211829
Probable space group: P M M A
;
_chemical_formula_sum "Si O2"
_cell_formula_units_Z 48
_cell_length_a 8.764157
_cell_length_b 14.152064
_cell_length_c 20.660825
_cell_angle_alpha 90.000000
_cell_angle_beta 90.000000
_cell_angle_gamma 90.000000
_cell_volume 2562.580942
_symmetry_space_group_name_H-M "P M M A"
_symmetry_group_IT_number 51
_symmetry_cell_setting 'orthorhombic'
loop_
_space_group_symop_operation_xyz
x,y,z
1/2-x,-y,z
1/2+x,-y,-z
-x,y,-z
-x,-y,-z
1/2+x,y,-z
1/2-x,y,z
x,-y,z
loop_
_atom_site_type_symbol
_atom_site_label
_atom_site_fract_x
_atom_site_fract_y
_atom_site_fract_z
Si Si1 0.930088 0.715949 0.565601
Si Si2 0.572325 0.892729 0.761692
Si Si3 0.070923 0.716141 0.814820
Si Si4 0.072146 0.893213 0.622453
Si Si5 0.427184 0.390078 0.684129
Si Si6 0.070337 0.392374 0.066707
O O1 0.750000 0.721450 0.559602
O O2 0.000000 0.671552 0.500000
O O3 0.997735 0.821615 0.571831
O O4 0.974395 0.649989 0.625395
O O5 0.750000 0.867285 0.760896
O O6 0.483793 0.824568 0.810888
O O7 0.507590 0.876002 0.690602
O O8 0.543669 0.000000 0.784682
O O9 0.250000 0.711060 0.826396
O O10 0.021924 0.661409 0.749810
O O11 0.987816 0.670267 0.874955
O O12 0.250000 0.870471 0.631002
O O13 0.045131 0.000000 0.597600
O O14 0.250000 0.371161 0.669232
O O15 0.463151 0.500000 0.692570
O O16 0.250000 0.384094 0.061782
O O17 0.016855 0.500000 0.078627
O O18 0.000000 0.353578 0.000000
#
# Coordination Sequence:
#
# PCOD8211829 Si02
#       6
#     8   8   8   8   8   8
#     4  12  25  40  59  80 109 147 188 235 289 346
#     4  10  20  34  55  85 118 151 189 233 281 333
#     4  11  21  35  60  89 119 154 192 234 283 336
#     4  10  20  36  58  83 112 145 183 229 283 342
#     4  10  22  40  60  83 112 146 188 236 284 337
#     4  10  21  37  58  86 122 160 198 239 284 337
#
# _framework density 18.731116
#
# number of rings (size 3 to 8) (size 9 to 14) (size 15 to 20)
#    0.000    1.500    1.667    4.000    0.000    5.333 
#    0.000    0.000    0.000    0.500    0.000    0.000 
#    0.000    0.000    0.000    0.000    0.000    0.000 
#
# Total GULP energy -595433.662392 kJ/mol
# GULP energy per Si atom -12404.867967 kJ/mol
# Density = 1.868848 g / cm^3
# Si number density = 18.731116 Si / 1000 Ang^3
#
#
#
# Elastic Constant Matrix: (Units=GPa)
#
#
# Indices 1 2 3 4 5 6 
#
# 1 565.7022 100.4932 299.0995 0.0000 0.0000 0.0000
# 2 100.4932 104.5486 81.0593 0.0000 0.0000 0.0000
# 3 299.0995 81.0593 249.8940 0.0000 0.0000 0.0000
# 4 0.0000 0.0000 0.0000 21.6558 0.0000 0.0000
# 5 0.0000 0.0000 0.0000 0.0000 34.7183 0.0000
# 6 0.0000 0.0000 0.0000 0.0000 0.0000 31.8907
#
#
#
# Elastic Compliance Matrix: (Units=1/GPa)
#
#
# Indices 1 2 3 4 5 6 
#
# 1 0.004818 -0.000214 -0.005697 0.000000 0.000000 0.000000
# 2 -0.000214 0.012788 -0.003892 0.000000 0.000000 0.000000
# 3 -0.005697 -0.003892 0.012083 0.000000 0.000000 0.000000
# 4 0.000000 0.000000 0.000000 0.046177 0.000000 0.000000
# 5 0.000000 0.000000 0.000000 0.000000 0.028803 0.000000
# 6 0.000000 0.000000 0.000000 0.000000 0.000000 0.031357
#
#
# Mechanical properties :
#
#
# Convention : Reuss Voigt Hill
#
# Bulk Modulus (GPa) = 99.17855 209.04985 154.11420
# Shear Modulus (GPa) = 31.44759 46.95251 39.20005
#
# Velocity S-wave (km/s) = 4.10188 5.01209 4.57965
# Velocity P-wave (km/s) = 8.68892 12.05581 10.50809
#
# Compressibility (1/GPa) = 0.01008283
#
# Stress axis : x y z
#
# Youngs Moduli (GPa) = 207.55425 78.19697 82.75791
#
# Poissons Ratio (x) = 0.01672 0.47150
# Poissons Ratio (y) = 0.04438 0.32211
# Poissons Ratio (z) = 1.18251 0.30436
#
# Static dielectric constant tensor:
#      x y z
#    x 3.924810 0.000000 0.000000 
#    y 0.000000 3.511540 0.000000 
#    z 0.000000 0.000000 3.306390 
# 
# 
# High freq. dielectric constant tensor:
#      x y z
#    x 1.741480 0.000000 0.000000 
#    y 0.000000 1.731260 0.000000 
#    z 0.000000 0.000000 1.714340 
# 
# From -- ./inp_files/27513.got.cif
#   From: 2010.03.12/outbox.cif.g09.slc.cpg/sg51_14_cif.got.tgz:27513.got - 2010.04.16 13:43:02.
