data_PCOD8211062
_publ_section_title
;
Structure prediction by ZEFSAII (Michael W. Deem and Ramdas Pophale) SiO2 
 PCOD8211062
Probable space group: P M M A
;
_chemical_formula_sum "Si O2"
_cell_formula_units_Z 56
_cell_length_a 8.651681
_cell_length_b 14.400266
_cell_length_c 23.369012
_cell_angle_alpha 90.000000
_cell_angle_beta 90.000000
_cell_angle_gamma 90.000000
_cell_volume 2911.463595
_symmetry_space_group_name_H-M "P M M A"
_symmetry_group_IT_number 51
_symmetry_cell_setting 'orthorhombic'
loop_
_space_group_symop_operation_xyz
x,y,z
1/2-x,-y,z
1/2+x,-y,-z
-x,y,-z
-x,-y,-z
1/2+x,y,-z
1/2-x,y,z
x,-y,z
loop_
_atom_site_type_symbol
_atom_site_label
_atom_site_fract_x
_atom_site_fract_y
_atom_site_fract_z
Si Si1 0.066849 0.605137 0.059966
Si Si2 0.930854 0.727142 0.834853
Si Si3 0.927726 0.608005 0.262350
Si Si4 0.931578 0.772656 0.441428
Si Si5 0.572383 0.891323 0.657555
Si Si6 0.930055 0.394481 0.616860
Si Si7 0.069172 0.105408 0.778354
O O1 0.250000 0.607149 0.057361
O O2 0.008343 0.500000 0.072554
O O3 0.004730 0.673756 0.109260
O O4 0.000000 0.641331 0.000000
O O5 0.750000 0.745396 0.840103
O O6 0.963921 0.664237 0.780049
O O7 0.015606 0.826649 0.829381
O O8 0.750000 0.637148 0.253331
O O9 0.954737 0.500000 0.250024
O O10 0.976325 0.633150 0.326464
O O11 0.750000 0.760940 0.447069
O O12 0.000000 0.815451 0.500000
O O13 0.969864 0.840319 0.389281
O O14 0.010045 0.671949 0.433207
O O15 0.750000 0.861098 0.650572
O O16 0.516782 0.862622 0.720644
O O17 0.548707 0.000000 0.648099
O O18 0.750000 0.378817 0.628872
O O19 0.964833 0.500000 0.598365
O O20 0.250000 0.114984 0.767480
O O21 0.024184 0.000000 0.795206
#
# Coordination Sequence:
#
# PCOD8211062 Si02
#       7
#     8   8   8   8   8   8   8
#     4   9  19  35  54  78 110 148 187 225 266 313
#     4  11  21  33  53  80 111 145 181 223 270 321
#     4  10  20  33  51  78 110 142 177 217 263 317
#     4  12  25  40  58  79 106 138 176 221 265 317
#     4  10  21  39  62  85 110 140 174 215 267 325
#     4  10  21  38  58  78 104 139 177 219 268 320
#     4  10  21  37  57  82 111 142 178 221 268 319
#
# _framework density 19.234313
#
# number of rings (size 3 to 8) (size 9 to 14) (size 15 to 20)
#    0.000    1.714    0.000    4.714    0.000    5.714 
#    0.000    1.429    0.000    0.429    0.000    0.000 
#    0.000    0.000    0.000    0.000    0.000    0.000 
#
# Total GULP energy -694663.441861 kJ/mol
# GULP energy per Si atom -12404.704319 kJ/mol
# Density = 1.919053 g / cm^3
# Si number density = 19.234313 Si / 1000 Ang^3
#
#
#
# Elastic Constant Matrix: (Units=GPa)
#
#
# Indices 1 2 3 4 5 6 
#
# 1 63.8140 30.6556 19.7724 0.0000 0.0000 0.0000
# 2 30.6556 90.6107 63.4505 0.0000 0.0000 0.0000
# 3 19.7724 63.4505 87.0653 0.0000 0.0000 0.0000
# 4 0.0000 0.0000 0.0000 22.2253 0.0000 0.0000
# 5 0.0000 0.0000 0.0000 0.0000 32.3734 0.0000
# 6 0.0000 0.0000 0.0000 0.0000 0.0000 30.1946
#
#
#
# Elastic Compliance Matrix: (Units=1/GPa)
#
#
# Indices 1 2 3 4 5 6 
#
# 1 0.018735 -0.006860 0.000745 0.000000 0.000000 0.000000
# 2 -0.006860 0.025050 -0.016697 0.000000 0.000000 0.000000
# 3 0.000745 -0.016697 0.023485 0.000000 0.000000 0.000000
# 4 0.000000 0.000000 0.000000 0.044994 0.000000 0.000000
# 5 0.000000 0.000000 0.000000 0.000000 0.030890 0.000000
# 6 0.000000 0.000000 0.000000 0.000000 0.000000 0.033119
#
#
# Mechanical properties :
#
#
# Convention : Reuss Voigt Hill
#
# Bulk Modulus (GPa) = 46.20155 52.13854 49.17005
# Shear Modulus (GPa) = 21.82335 25.46609 23.64472
#
# Velocity S-wave (km/s) = 3.37204 3.64262 3.50994
# Velocity P-wave (km/s) = 6.26366 6.69757 6.48425
#
# Compressibility (1/GPa) = 0.02164430
#
# Stress axis : x y z
#
# Youngs Moduli (GPa) = 53.37524 39.92083 42.58011
#
# Poissons Ratio (x) = 0.27385 -0.03170
# Poissons Ratio (y) = 0.36615 0.71098
# Poissons Ratio (z) = -0.03974 0.66658
#
# Static dielectric constant tensor:
#      x y z
#    x 3.536750 0.000000 0.000000 
#    y 0.000000 3.678810 0.000000 
#    z 0.000000 0.000000 3.437010 
# 
# 
# High freq. dielectric constant tensor:
#      x y z
#    x 1.758420 0.000000 0.000000 
#    y 0.000000 1.753220 0.000000 
#    z 0.000000 0.000000 1.731560 
# 
# From -- ./inp_files/31867.got.cif
#   From: 2010.03.12/outbox.cif.g09.slc.cpg/sg51_16_cif.got.tgz:31867.got - 2010.04.16 13:43:02.
