data_PCOD8211135
_publ_section_title
;
Structure prediction by ZEFSAII (Michael W. Deem and Ramdas Pophale) SiO2 
 PCOD8211135
Probable space group: P M M A
;
_chemical_formula_sum "Si O2"
_cell_formula_units_Z 48
_cell_length_a 9.189937
_cell_length_b 9.271407
_cell_length_c 30.791812
_cell_angle_alpha 90.000000
_cell_angle_beta 90.000000
_cell_angle_gamma 90.000000
_cell_volume 2623.574656
_symmetry_space_group_name_H-M "P M M A"
_symmetry_group_IT_number 51
_symmetry_cell_setting 'orthorhombic'
loop_
_space_group_symop_operation_xyz
x,y,z
1/2-x,-y,z
1/2+x,-y,-z
-x,y,-z
-x,-y,-z
1/2+x,y,-z
1/2-x,y,z
x,-y,z
loop_
_atom_site_type_symbol
_atom_site_label
_atom_site_fract_x
_atom_site_fract_y
_atom_site_fract_z
Si Si1 0.919836 0.333608 0.542857
Si Si2 0.919861 0.167368 0.627500
Si Si3 0.915740 0.328709 0.880807
Si Si4 0.580378 0.832681 0.043979
Si Si5 0.578176 0.336278 0.298373
Si Si6 0.589016 0.671011 0.201759
O O1 0.750000 0.308992 0.535463
O O2 0.958372 0.500000 0.551510
O O3 0.977675 0.244379 0.583996
O O4 0.000000 0.275715 0.500000
O O5 0.750000 0.197702 0.633741
O O6 0.001199 0.229247 0.668901
O O7 0.956061 0.000000 0.623261
O O8 0.750000 0.275363 0.885682
O O9 0.926633 0.500000 0.884606
O O10 0.015090 0.261140 0.917648
O O11 0.975372 0.273623 0.834251
O O12 0.750000 0.796927 0.038748
O O13 0.553587 0.000000 0.054524
O O14 0.500000 0.786931 0.000000
O O15 0.750000 0.328295 0.305071
O O16 0.523298 0.500000 0.306179
O O17 0.536650 0.282424 0.249803
O O18 0.750000 0.734909 0.191690
O O19 0.599766 0.500000 0.200942
#
# Coordination Sequence:
#
# PCOD8211135 Si02
#       6
#     8   8   8   8   8   8
#     4   9  18  33  52  73  97 127 165 208 251 296
#     4  10  21  35  50  72 104 138 170 205 248 299
#     4  10  20  33  52  80 109 135 167 208 254 304
#     4  10  21  37  56  76 100 134 174 213 255 303
#     4   9  18  33  54  78 101 129 169 212 252 298
#     4   8  15  30  51  74 101 132 166 207 253 298
#
# _framework density 18.295648
#
# number of rings (size 3 to 8) (size 9 to 14) (size 15 to 20)
#    0.000    2.667    0.000    2.500    0.000    5.333 
#    0.000    4.167    0.000    1.000    0.000    0.000 
#    0.000    0.000    0.000    0.000    0.000    0.000 
#
# Total GULP energy -595215.501049 kJ/mol
# GULP energy per Si atom -12400.322939 kJ/mol
# Density = 1.825401 g / cm^3
# Si number density = 18.295648 Si / 1000 Ang^3
#
#
#
# Elastic Constant Matrix: (Units=GPa)
#
#
# Indices 1 2 3 4 5 6 
#
# 1 85.2544 35.9716 71.6641 0.0000 0.0000 0.0000
# 2 35.9716 52.5748 56.0687 0.0000 0.0000 0.0000
# 3 71.6641 56.0687 166.7416 0.0000 0.0000 0.0000
# 4 0.0000 0.0000 0.0000 -4.5024 0.0000 0.0000
# 5 0.0000 0.0000 0.0000 0.0000 38.1534 0.0000
# 6 0.0000 0.0000 0.0000 0.0000 0.0000 25.0753
#
#
#
# Elastic Compliance Matrix: (Units=1/GPa)
#
#
# Indices 1 2 3 4 5 6 
#
# 1 0.019891 -0.007004 -0.006194 0.000000 0.000000 0.000000
# 2 -0.007004 0.032121 -0.007791 0.000000 0.000000 0.000000
# 3 -0.006194 -0.007791 0.011279 0.000000 0.000000 0.000000
# 4 0.000000 0.000000 0.000000 -0.222105 0.000000 0.000000
# 5 0.000000 0.000000 0.000000 0.000000 0.026210 0.000000
# 6 0.000000 0.000000 0.000000 0.000000 0.000000 0.039880
#
#
# Mechanical properties :
#
#
# Convention : Reuss Voigt Hill
#
# Bulk Modulus (GPa) = 46.91728 70.21994 58.56861
# Shear Modulus (GPa) = -114.57270 21.13635 -46.71818
#
# Velocity S-wave (km/s) = -7.92205 3.40261 -5.05871
# Velocity P-wave (km/s) = 7.61439 7.34173 1.42792
#
# Compressibility (1/GPa) = 0.02131411
#
# Stress axis : x y z
#
# Youngs Moduli (GPa) = 50.27281 31.13200 88.65904
#
# Poissons Ratio (x) = 0.21805 0.54915
# Poissons Ratio (y) = 0.35212 0.69073
# Poissons Ratio (z) = 0.31139 0.24254
#
# Static dielectric constant tensor:
#      x y z
#    x 1.962570 0.000000 0.000000 
#    y 0.000000 3.146990 0.000000 
#    z 0.000000 0.000000 3.623260 
# 
# 
# High freq. dielectric constant tensor:
#      x y z
#    x 1.708810 0.000000 0.000000 
#    y 0.000000 1.684590 0.000000 
#    z 0.000000 0.000000 1.723860 
# 
# From -- ./inp_files/37011.got.cif
#   From: 2010.03.12/outbox.cif.g09.slc.cpg/sg51_19_cif.got.tgz:37011.got - 2010.04.16 13:43:02.
