data_PCOD8211416
_publ_section_title
;
Structure prediction by ZEFSAII (Michael W. Deem and Ramdas Pophale) SiO2 
 PCOD8211416
Probable space group: P M M A
;
_chemical_formula_sum "Si O2"
_cell_formula_units_Z 40
_cell_length_a 18.281536
_cell_length_b 7.454939
_cell_length_c 15.791866
_cell_angle_alpha 90.000000
_cell_angle_beta 90.000000
_cell_angle_gamma 90.000000
_cell_volume 2152.237660
_symmetry_space_group_name_H-M "P M M A"
_symmetry_group_IT_number 51
_symmetry_cell_setting 'orthorhombic'
loop_
_space_group_symop_operation_xyz
x,y,z
1/2-x,-y,z
1/2+x,-y,-z
-x,y,-z
-x,-y,-z
1/2+x,y,-z
1/2-x,y,z
x,-y,z
loop_
_atom_site_type_symbol
_atom_site_label
_atom_site_fract_x
_atom_site_fract_y
_atom_site_fract_z
Si Si1 0.668386 0.711956 0.016610
Si Si2 0.961369 0.705642 0.716952
Si Si3 0.480953 0.000000 0.597502
Si Si4 0.891676 0.705503 0.190243
Si Si5 0.832923 0.000000 0.310315
Si Si6 0.832196 0.286812 0.830976
O O1 0.750000 0.779541 0.037469
O O2 0.666864 0.500000 0.010158
O O3 0.616862 0.776617 0.093610
O O4 0.644509 0.787682 0.924253
O O5 0.952748 0.500000 0.686597
O O6 0.887493 0.784244 0.759273
O O7 0.023212 0.723933 0.788576
O O8 0.982074 0.822679 0.635984
O O9 0.500000 0.000000 0.500000
O O10 0.393123 0.000000 0.613976
O O11 0.864407 0.500000 0.199138
O O12 0.843102 0.823104 0.253563
O O13 0.750000 0.000000 0.347482
O O14 0.750000 0.221928 0.808833
O O15 0.836239 0.500000 0.831903
#
# Coordination Sequence:
#
# PCOD8211416 Si02
#       6
#     8   8   4   8   4   8
#     4   8  13  22  39  65  98 135 169 200 234 268
#     4   9  18  33  53  74  96 128 164 197 244 295
#     4  10  22  40  57  75  99 121 151 200 250 302
#     4   9  17  29  47  72 101 133 168 201 233 278
#     4  10  20  34  53  75  99 127 157 195 245 292
#     4   8  14  26  45  70 101 135 170 205 236 272
#
# _framework density 18.585308999999999
#
# number of rings (size 3 to 8) (size 9 to 14) (size 15 to 20)
#    0.000    3.200    0.000    1.800    0.000    2.400 
#    0.000    6.500    0.000    6.000    0.000    0.000 
#    0.000    0.000    0.000    0.000    0.000    0.000 
#
# Total GULP energy -495670.376611 kJ/mol
# GULP energy per Si atom -12391.759415 kJ/mol
# Density = 1.854301 g / cm^3
# Si number density = 18.585309 Si / 1000 Ang^3
#
#
#
# Elastic Constant Matrix: (Units=GPa)
#
#
# Indices 1 2 3 4 5 6 
#
# 1 118.6789 33.6935 81.0736 0.0000 0.0000 0.0000
# 2 33.6935 68.5242 39.2337 0.0000 0.0000 0.0000
# 3 81.0736 39.2337 139.1082 0.0000 0.0000 0.0000
# 4 0.0000 0.0000 0.0000 -57.6564 0.0000 0.0000
# 5 0.0000 0.0000 0.0000 0.0000 21.7879 0.0000
# 6 0.0000 0.0000 0.0000 0.0000 0.0000 10.1569
#
#
#
# Elastic Compliance Matrix: (Units=1/GPa)
#
#
# Indices 1 2 3 4 5 6 
#
# 1 0.014412 -0.002716 -0.007633 0.000000 0.000000 0.000000
# 2 -0.002716 0.017916 -0.003470 0.000000 0.000000 0.000000
# 3 -0.007633 -0.003470 0.012616 0.000000 0.000000 0.000000
# 4 0.000000 0.000000 0.000000 -0.017344 0.000000 0.000000
# 5 0.000000 0.000000 0.000000 0.000000 0.045897 0.000000
# 6 0.000000 0.000000 0.000000 0.000000 0.000000 0.098455
#
#
# Mechanical properties :
#
#
# Convention : Reuss Voigt Hill
#
# Bulk Modulus (GPa) = 57.78680 70.47921 64.13300
# Shear Modulus (GPa) = 24.34771 6.34505 15.34638
#
# Velocity S-wave (km/s) = 3.62339 1.84971 2.87666
# Velocity P-wave (km/s) = 6.97607 6.52428 6.75395
#
# Compressibility (1/GPa) = 0.01730499
#
# Stress axis : x y z
#
# Youngs Moduli (GPa) = 69.38805 55.81750 79.26374
#
# Poissons Ratio (x) = 0.15159 0.60505
# Poissons Ratio (y) = 0.18844 0.27505
# Poissons Ratio (z) = 0.52966 0.19369
#
# Static dielectric constant tensor:
#      x y z
#    x 3.552420 0.000000 0.000000 
#    y 0.000000 3.388120 0.000000 
#    z 0.000000 0.000000 3.211270 
# 
# 
# High freq. dielectric constant tensor:
#      x y z
#    x 1.715570 0.000000 0.000000 
#    y 0.000000 1.715930 0.000000 
#    z 0.000000 0.000000 1.686990 
# 
# From -- ./inp_files/23736.got.cif
#   From: 2010.03.12/outbox.cif.g09.slc.cpg/sg51_12_cif.got.tgz:23736.got - 2010.04.16 13:43:02.
