data_PCOD8211241
_publ_section_title
;
Structure prediction by ZEFSAII (Michael W. Deem and Ramdas Pophale) SiO2 
 PCOD8211241
Probable space group: P M M A
;
_chemical_formula_sum "Si O2"
_cell_formula_units_Z 64
_cell_length_a 8.846563
_cell_length_b 23.584761
_cell_length_c 15.576577
_cell_angle_alpha 90.000000
_cell_angle_beta 90.000000
_cell_angle_gamma 90.000000
_cell_volume 3249.960485
_symmetry_space_group_name_H-M "P M M A"
_symmetry_group_IT_number 51
_symmetry_cell_setting 'orthorhombic'
loop_
_space_group_symop_operation_xyz
x,y,z
1/2-x,-y,z
1/2+x,-y,-z
-x,y,-z
-x,-y,-z
1/2+x,y,-z
1/2-x,y,z
x,-y,z
loop_
_atom_site_type_symbol
_atom_site_label
_atom_site_fract_x
_atom_site_fract_y
_atom_site_fract_z
Si Si1 0.928866 0.355895 0.259717
Si Si2 0.916857 0.934185 0.417572
Si Si3 0.572094 0.934090 0.091161
Si Si4 0.571733 0.435501 0.411885
Si Si5 0.583930 0.367017 0.917495
Si Si6 0.918225 0.765546 0.919018
Si Si7 0.073852 0.771301 0.745586
Si Si8 0.571772 0.116019 0.739471
O O1 0.750000 0.358026 0.249364
O O2 0.989148 0.396485 0.334903
O O3 0.979895 0.291578 0.283747
O O4 0.995769 0.378704 0.170671
O O5 0.750000 0.906404 0.407130
O O6 0.000000 0.905918 0.500000
O O7 0.012790 0.928066 0.330730
O O8 0.897194 0.000000 0.435883
O O9 0.750000 0.922116 0.088440
O O10 0.498790 0.896825 0.167128
O O11 0.537586 0.000000 0.110344
O O12 0.500000 0.916316 0.000000
O O13 0.500000 0.413066 0.500000
O O14 0.750000 0.430424 0.420442
O O15 0.520880 0.500000 0.393373
O O16 0.750000 0.394826 0.910082
O O17 0.601719 0.300744 0.934572
O O18 0.500000 0.394615 0.000000
O O19 0.750000 0.791801 0.901494
O O20 0.037768 0.777512 0.845392
O O21 0.000000 0.794646 0.000000
O O22 0.250000 0.780465 0.727517
O O23 0.978411 0.821936 0.702263
O O24 0.750000 0.111913 0.746762
#
# Coordination Sequence:
#
# PCOD8211241 Si02
#       8
#     8   8   8   8   8   8   8   8
#     4   9  18  33  53  76 105 142 179 219 268 318
#     4  10  21  39  63  88 110 133 167 214 267 320
#     4  10  21  38  59  83 112 147 188 234 284 336
#     4   9  18  34  57  85 113 139 172 217 268 321
#     4   9  16  26  44  70 100 134 172 214 255 301
#     4   9  16  27  43  65  93 127 170 215 259 303
#     4  10  20  34  50  70 101 140 181 221 264 317
#     4  12  24  37  55  80 111 146 184 225 271 323
#
# _framework density 19.692547999999999
#
# number of rings (size 3 to 8) (size 9 to 14) (size 15 to 20)
#    0.000    2.250    0.000    3.375    0.000    7.500 
#    0.000    3.125    0.000    1.875    0.000    0.000 
#    0.000    0.000    0.000    0.000    0.000    0.000 
#
# Total GULP energy -793344.052243 kJ/mol
# GULP energy per Si atom -12396.000816 kJ/mol
# Density = 1.964773 g / cm^3
# Si number density = 19.692548 Si / 1000 Ang^3
#
#
#
# Elastic Constant Matrix: (Units=GPa)
#
#
# Indices 1 2 3 4 5 6 
#
# 1 106.5324 31.6900 53.8246 0.0000 0.0000 0.0000
# 2 31.6900 64.9073 43.7402 0.0000 0.0000 0.0000
# 3 53.8246 43.7402 127.1856 0.0000 0.0000 0.0000
# 4 0.0000 0.0000 0.0000 13.2588 0.0000 0.0000
# 5 0.0000 0.0000 0.0000 0.0000 33.6786 0.0000
# 6 0.0000 0.0000 0.0000 0.0000 0.0000 17.4281
#
#
#
# Elastic Compliance Matrix: (Units=1/GPa)
#
#
# Indices 1 2 3 4 5 6 
#
# 1 0.012458 -0.003293 -0.004140 0.000000 0.000000 0.000000
# 2 -0.003293 0.020925 -0.005803 0.000000 0.000000 0.000000
# 3 -0.004140 -0.005803 0.011610 0.000000 0.000000 0.000000
# 4 0.000000 0.000000 0.000000 0.075422 0.000000 0.000000
# 5 0.000000 0.000000 0.000000 0.000000 0.029692 0.000000
# 6 0.000000 0.000000 0.000000 0.000000 0.000000 0.057379
#
#
# Mechanical properties :
#
#
# Convention : Reuss Voigt Hill
#
# Bulk Modulus (GPa) = 53.98908 61.90389 57.94648
# Shear Modulus (GPa) = 20.82209 24.16446 22.49327
#
# Velocity S-wave (km/s) = 3.25523 3.50678 3.38334
# Velocity P-wave (km/s) = 6.45013 6.92099 6.68971
#
# Compressibility (1/GPa) = 0.01852226
#
# Stress axis : x y z
#
# Youngs Moduli (GPa) = 80.27063 47.79084 86.13218
#
# Poissons Ratio (x) = 0.15736 0.35657
# Poissons Ratio (y) = 0.26430 0.49980
# Poissons Ratio (z) = 0.33230 0.27732
#
# Static dielectric constant tensor:
#      x y z
#    x 3.768110 0.000000 0.000000 
#    y 0.000000 3.596840 0.000000 
#    z 0.000000 0.000000 3.535160 
# 
# 
# High freq. dielectric constant tensor:
#      x y z
#    x 1.776780 0.000000 0.000000 
#    y 0.000000 1.741240 0.000000 
#    z 0.000000 0.000000 1.759050 
# 
# From -- ./inp_files/22396.got.cif
#   From: 2010.03.12/outbox.cif.g09.slc.cpg/sg51_12_cif.got.tgz:22396.got - 2010.04.16 13:43:02.
