data_PCOD8211258
_publ_section_title
;
Structure prediction by ZEFSAII (Michael W. Deem and Ramdas Pophale) SiO2 
 PCOD8211258
Probable space group: P M M A
;
_chemical_formula_sum "Si O2"
_cell_formula_units_Z 48
_cell_length_a 9.315612
_cell_length_b 18.983300
_cell_length_c 15.423876
_cell_angle_alpha 90.000000
_cell_angle_beta 90.000000
_cell_angle_gamma 90.000000
_cell_volume 2727.574539
_symmetry_space_group_name_H-M "P M M A"
_symmetry_group_IT_number 51
_symmetry_cell_setting 'orthorhombic'
loop_
_space_group_symop_operation_xyz
x,y,z
1/2-x,-y,z
1/2+x,-y,-z
-x,y,-z
-x,-y,-z
1/2+x,y,-z
1/2-x,y,z
x,-y,z
loop_
_atom_site_type_symbol
_atom_site_label
_atom_site_fract_x
_atom_site_fract_y
_atom_site_fract_z
Si Si1 0.415978 0.830809 0.915607
Si Si2 0.083166 0.417743 0.228703
Si Si3 0.412411 0.916154 0.417926
Si Si4 0.083437 0.918038 0.750055
Si Si5 0.592194 0.416548 0.577860
Si Si6 0.582097 0.667344 0.086024
O O1 0.250000 0.845161 0.933831
O O2 0.470124 0.875304 0.833626
O O3 0.447148 0.749279 0.896471
O O4 0.500000 0.857323 0.000000
O O5 0.250000 0.397164 0.215008
O O6 0.061650 0.500000 0.210010
O O7 0.032287 0.398546 0.326503
O O8 0.979879 0.374732 0.166663
O O9 0.500000 0.885845 0.500000
O O10 0.250000 0.886649 0.419799
O O11 0.490868 0.890394 0.330828
O O12 0.411468 0.000000 0.421675
O O13 0.250000 0.903239 0.729380
O O14 0.056005 0.000000 0.768312
O O15 0.500000 0.382638 0.500000
O O16 0.750000 0.383937 0.568283
O O17 0.599562 0.500000 0.567396
O O18 0.750000 0.650731 0.074951
O O19 0.500000 0.641922 0.000000
#
# Coordination Sequence:
#
# PCOD8211258 Si02
#       6
#     8   8   8   8   8   8
#     4   9  19  34  50  69  93 122 156 192 231 278
#     4   9  18  32  49  71  98 124 153 193 236 274
#     4   9  16  26  42  66  95 125 156 190 230 277
#     4   9  17  30  48  70  96 124 154 192 236 276
#     4   8  14  25  42  65  93 122 149 180 220 265
#     4  10  20  34  51  69  91 122 158 193 231 279
#
# _framework density 17.598051000000002
#
# number of rings (size 3 to 8) (size 9 to 14) (size 15 to 20)
#    0.000    3.000    0.000    2.000    0.000    5.000 
#    0.000    1.667    0.000    1.000    0.000    2.333 
#    0.000    0.000    0.000    0.000    0.000    0.000 
#
# Total GULP energy -595107.345952 kJ/mol
# GULP energy per Si atom -12398.069707 kJ/mol
# Density = 1.755800 g / cm^3
# Si number density = 17.598051 Si / 1000 Ang^3
#
#
#
# Elastic Constant Matrix: (Units=GPa)
#
#
# Indices 1 2 3 4 5 6 
#
# 1 108.1662 34.4047 94.2960 0.0000 0.0000 0.0000
# 2 34.4047 33.4808 50.8592 0.0000 0.0000 0.0000
# 3 94.2960 50.8592 184.1089 0.0000 0.0000 0.0000
# 4 0.0000 0.0000 0.0000 -4.1548 0.0000 0.0000
# 5 0.0000 0.0000 0.0000 0.0000 41.0927 0.0000
# 6 0.0000 0.0000 0.0000 0.0000 0.0000 17.2258
#
#
#
# Elastic Compliance Matrix: (Units=1/GPa)
#
#
# Indices 1 2 3 4 5 6 
#
# 1 0.017769 -0.007641 -0.006990 0.000000 0.000000 0.000000
# 2 -0.007641 0.054749 -0.011211 0.000000 0.000000 0.000000
# 3 -0.006990 -0.011211 0.012109 0.000000 0.000000 0.000000
# 4 0.000000 0.000000 0.000000 -0.240684 0.000000 0.000000
# 5 0.000000 0.000000 0.000000 0.000000 0.024335 0.000000
# 6 0.000000 0.000000 0.000000 0.000000 0.000000 0.058053
#
#
# Mechanical properties :
#
#
# Convention : Reuss Voigt Hill
#
# Bulk Modulus (GPa) = 30.35508 76.09730 53.22619
# Shear Modulus (GPa) = -454.37465 20.57914 -216.89775
#
# Velocity S-wave (km/s) = -16.08591 3.42336 -11.11389
# Velocity P-wave (km/s) = 18.10310 7.67865 11.59225
#
# Compressibility (1/GPa) = 0.03294341
#
# Stress axis : x y z
#
# Youngs Moduli (GPa) = 56.27686 18.26501 82.58583
#
# Poissons Ratio (x) = 0.13957 0.57729
# Poissons Ratio (y) = 0.43003 0.92584
# Poissons Ratio (z) = 0.39338 0.20476
#
# Static dielectric constant tensor:
#      x y z
#    x 3.424820 0.000000 0.000000 
#    y 0.000000 2.872720 0.000000 
#    z 0.000000 0.000000 3.461280 
# 
# 
# High freq. dielectric constant tensor:
#      x y z
#    x 1.683590 0.000000 0.000000 
#    y 0.000000 1.634970 0.000000 
#    z 0.000000 0.000000 1.694480 
# 
# From -- ./inp_files/21387.got.cif
#   From: 2010.03.12/outbox.cif.g09.slc.cpg/sg51_11_cif.got.tgz:21387.got - 2010.04.16 13:43:02.
