data_PCOD8211984
_publ_section_title
;
Structure prediction by ZEFSAII (Michael W. Deem and Ramdas Pophale) SiO2 
 PCOD8211984
Probable space group: P M M A
;
_chemical_formula_sum "Si O2"
_cell_formula_units_Z 44
_cell_length_a 8.772216
_cell_length_b 28.650877
_cell_length_c 9.410064
_cell_angle_alpha 90.000000
_cell_angle_beta 90.000000
_cell_angle_gamma 90.000000
_cell_volume 2365.047209
_symmetry_space_group_name_H-M "P M M A"
_symmetry_group_IT_number 51
_symmetry_cell_setting 'orthorhombic'
loop_
_space_group_symop_operation_xyz
x,y,z
1/2-x,-y,z
1/2+x,-y,-z
-x,y,-z
-x,-y,-z
1/2+x,y,-z
1/2-x,y,z
x,-y,z
loop_
_atom_site_type_symbol
_atom_site_label
_atom_site_fract_x
_atom_site_fract_y
_atom_site_fract_z
Si Si1 0.571811 0.000000 0.653160
Si Si2 0.069277 0.371146 0.154641
Si Si3 0.572321 0.445604 0.351459
Si Si4 0.428231 0.291984 0.655370
Si Si5 0.570678 0.099707 0.656793
Si Si6 0.074605 0.811100 0.652920
O O1 0.500000 0.000000 0.500000
O O2 0.527549 0.950697 0.731306
O O3 0.750000 0.000000 0.626661
O O4 0.250000 0.372602 0.145473
O O5 0.009505 0.418684 0.224701
O O6 0.016643 0.326637 0.243023
O O7 0.000000 0.366879 0.000000
O O8 0.500000 0.429196 0.500000
O O9 0.750000 0.433139 0.354482
O O10 0.542901 0.500000 0.324853
O O11 0.500000 0.295759 0.500000
O O12 0.250000 0.305231 0.646041
O O13 0.449253 0.239914 0.723161
O O14 0.500000 0.099658 0.500000
O O15 0.750000 0.106156 0.648169
O O16 0.501871 0.145184 0.739351
O O17 0.250000 0.823156 0.635395
O O18 0.000000 0.807826 0.500000
#
# Coordination Sequence:
#
# PCOD8211984 Si02
#       6
#     4   8   8   8   8   8
#     4   8  14  20  26  40  64 100 141 182 229 282
#     4  12  25  40  58  80 109 142 176 215 260 309
#     4  10  21  39  63  89 116 146 180 216 254 298
#     4  10  20  35  54  76 102 133 172 215 259 308
#     4   9  14  20  30  45  70 103 143 188 234 286
#     4   9  16  25  39  59  83 112 150 197 244 290
#
# _framework density 18.604281
#
# number of rings (size 3 to 8) (size 9 to 14) (size 15 to 20)
#    0.000    2.182    0.000    5.455    0.000    4.364 
#    0.000    0.000    0.000    0.000    0.000    0.000 
#    0.000    0.000    0.000    0.818    0.000   11.455 
#
# Total GULP energy -545074.623015 kJ/mol
# GULP energy per Si atom -12388.059614 kJ/mol
# Density = 1.856194 g / cm^3
# Si number density = 18.604281 Si / 1000 Ang^3
#
#
#
# Elastic Constant Matrix: (Units=GPa)
#
#
# Indices 1 2 3 4 5 6 
#
# 1 138.2430 66.8764 37.8860 0.0000 0.0000 0.0000
# 2 66.8764 146.6880 48.1523 0.0000 0.0000 0.0000
# 3 37.8860 48.1523 68.2486 0.0000 0.0000 0.0000
# 4 0.0000 0.0000 0.0000 0.7720 0.0000 0.0000
# 5 0.0000 0.0000 0.0000 0.0000 22.1037 0.0000
# 6 0.0000 0.0000 0.0000 0.0000 0.0000 33.9612
#
#
#
# Elastic Compliance Matrix: (Units=1/GPa)
#
#
# Indices 1 2 3 4 5 6 
#
# 1 0.009717 -0.003461 -0.002952 0.000000 0.000000 0.000000
# 2 -0.003461 0.010105 -0.005208 0.000000 0.000000 0.000000
# 3 -0.002952 -0.005208 0.019966 0.000000 0.000000 0.000000
# 4 0.000000 0.000000 0.000000 1.295410 0.000000 0.000000
# 5 0.000000 0.000000 0.000000 0.000000 0.045241 0.000000
# 6 0.000000 0.000000 0.000000 0.000000 0.000000 0.029445
#
#
# Mechanical properties :
#
#
# Convention : Reuss Voigt Hill
#
# Bulk Modulus (GPa) = 60.44170 73.22322 66.83246
# Shear Modulus (GPa) = 3.47550 24.71836 14.09693
#
# Velocity S-wave (km/s) = 1.36827 3.64900 2.75567
# Velocity P-wave (km/s) = 5.92071 7.56289 6.79162
#
# Compressibility (1/GPa) = 0.01654487
#
# Stress axis : x y z
#
# Youngs Moduli (GPa) = 102.91268 98.96402 50.08600
#
# Poissons Ratio (x) = 0.34251 0.14786
# Poissons Ratio (y) = 0.35618 0.26085
# Poissons Ratio (z) = 0.30382 0.51541
#
# Static dielectric constant tensor:
#      x y z
#    x 3.136140 0.000000 0.000000 
#    y 0.000000 4.698220 0.000000 
#    z 0.000000 0.000000 2.817250 
# 
# 
# High freq. dielectric constant tensor:
#      x y z
#    x 1.742470 0.000000 0.000000 
#    y 0.000000 1.762580 0.000000 
#    z 0.000000 0.000000 1.643130 
# 
# From -- ./inp_files/5823.got.cif
#   From: 2010.03.12/outbox.cif.g09.slc.cpg/sg51_3_cif.got.tgz:5823.got - 2010.04.16 13:43:02.
