data_PCOD8211366
_publ_section_title
;
Structure prediction by ZEFSAII (Michael W. Deem and Ramdas Pophale) SiO2 
 PCOD8211366
Probable space group: P M M A
;
_chemical_formula_sum "Si O2"
_cell_formula_units_Z 64
_cell_length_a 22.881846
_cell_length_b 8.748190
_cell_length_c 17.875409
_cell_angle_alpha 90.000000
_cell_angle_beta 90.000000
_cell_angle_gamma 90.000000
_cell_volume 3578.205284
_symmetry_space_group_name_H-M "P M M A"
_symmetry_group_IT_number 51
_symmetry_cell_setting 'orthorhombic'
loop_
_space_group_symop_operation_xyz
x,y,z
1/2-x,-y,z
1/2+x,-y,-z
-x,y,-z
-x,-y,-z
1/2+x,y,-z
1/2-x,y,z
x,-y,z
loop_
_atom_site_type_symbol
_atom_site_label
_atom_site_fract_x
_atom_site_fract_y
_atom_site_fract_z
Si Si1 0.680595 0.669069 0.070266
Si Si2 0.008083 0.322011 0.412913
Si Si3 0.318268 0.323180 0.226115
Si Si4 0.891195 0.178542 0.366323
Si Si5 0.682345 0.679822 0.236768
Si Si6 0.872266 0.821166 0.633040
Si Si7 0.319373 0.830725 0.075298
Si Si8 0.317818 0.674675 0.505676
O O1 0.750000 0.661008 0.065086
O O2 0.654559 0.500000 0.058907
O O3 0.663625 0.729796 0.152791
O O4 0.654469 0.773773 0.004126
O O5 0.020984 0.500000 0.399822
O O6 0.061167 0.223457 0.381645
O O7 0.000000 0.284041 0.500000
O O8 0.950968 0.273308 0.367246
O O9 0.250000 0.286242 0.236827
O O10 0.331953 0.500000 0.240207
O O11 0.355302 0.220985 0.282716
O O12 0.339027 0.279814 0.142507
O O13 0.856520 0.221045 0.291926
O O14 0.853190 0.218040 0.438786
O O15 0.905492 0.000000 0.367226
O O16 0.750000 0.718744 0.251793
O O17 0.671516 0.500000 0.249671
O O18 0.828981 0.728731 0.578594
O O19 0.863666 0.000000 0.619726
O O20 0.250000 0.832532 0.069477
O O21 0.343864 0.000000 0.090753
O O22 0.250000 0.687838 0.525072
O O23 0.339560 0.500000 0.514836
#
# Coordination Sequence:
#
# PCOD8211366 Si02
#       8
#     8   8   8   8   8   8   8   8
#     4   8  14  26  45  69  99 138 179 213 250 303
#     4  11  23  41  63  78  96 132 177 219 261 314
#     4  10  20  34  52  75 107 145 181 214 253 310
#     4  12  24  36  54  79 106 134 171 220 270 310
#     4   9  18  33  52  75 107 145 181 216 257 312
#     4  12  24  37  56  80 106 132 168 219 270 311
#     4   9  16  26  43  70 104 139 174 214 260 306
#     4  11  23  38  55  75 103 140 177 208 249 312
#
# _framework density 17.886061999999999
#
# number of rings (size 3 to 8) (size 9 to 14) (size 15 to 20)
#    0.000    1.750    1.250    5.250    0.000    7.500 
#    0.000    1.250    0.000    0.000    0.000    0.875 
#    0.000    7.000    0.000    0.000    0.000    0.000 
#
# Total GULP energy -793722.065205 kJ/mol
# GULP energy per Si atom -12401.907269 kJ/mol
# Density = 1.784535 g / cm^3
# Si number density = 17.886062 Si / 1000 Ang^3
#
#
#
# Elastic Constant Matrix: (Units=GPa)
#
#
# Indices 1 2 3 4 5 6 
#
# 1 50.4373 25.8124 23.3405 0.0000 0.0000 0.0000
# 2 25.8124 73.9278 31.3890 0.0000 0.0000 0.0000
# 3 23.3405 31.3890 106.3690 0.0000 0.0000 0.0000
# 4 0.0000 0.0000 0.0000 31.1657 0.0000 0.0000
# 5 0.0000 0.0000 0.0000 0.0000 3.4458 0.0000
# 6 0.0000 0.0000 0.0000 0.0000 0.0000 21.7755
#
#
#
# Elastic Compliance Matrix: (Units=1/GPa)
#
#
# Indices 1 2 3 4 5 6 
#
# 1 0.025140 -0.007357 -0.003345 0.000000 0.000000 0.000000
# 2 -0.007357 0.017618 -0.003584 0.000000 0.000000 0.000000
# 3 -0.003345 -0.003584 0.011193 0.000000 0.000000 0.000000
# 4 0.000000 0.000000 0.000000 0.032087 0.000000 0.000000
# 5 0.000000 0.000000 0.000000 0.000000 0.290209 0.000000
# 6 0.000000 0.000000 0.000000 0.000000 0.000000 0.045923
#
#
# Mechanical properties :
#
#
# Convention : Reuss Voigt Hill
#
# Bulk Modulus (GPa) = 39.40689 43.53532 41.47110
# Shear Modulus (GPa) = 10.88844 21.29023 16.08933
#
# Velocity S-wave (km/s) = 2.47000 3.45385 3.00250
# Velocity P-wave (km/s) = 5.49677 6.34812 5.93773
#
# Compressibility (1/GPa) = 0.02537627
#
# Stress axis : x y z
#
# Youngs Moduli (GPa) = 39.77719 56.76172 89.34127
#
# Poissons Ratio (x) = 0.41762 0.29888
# Poissons Ratio (y) = 0.29266 0.32023
# Poissons Ratio (z) = 0.13307 0.20346
#
# Static dielectric constant tensor:
#      x y z
#    x 3.132230 0.000000 0.000000 
#    y 0.000000 3.412810 0.000000 
#    z 0.000000 0.000000 3.483900 
# 
# 
# High freq. dielectric constant tensor:
#      x y z
#    x 1.650420 0.000000 0.000000 
#    y 0.000000 1.701980 0.000000 
#    z 0.000000 0.000000 1.701220 
# 
# From -- ./inp_files/30939.got.cif
#   From: 2010.03.12/outbox.cif.g09.slc.cpg/sg51_16_cif.got.tgz:30939.got - 2010.04.16 13:43:02.
