data_PCOD8211610
_publ_section_title
;
Structure prediction by ZEFSAII (Michael W. Deem and Ramdas Pophale) SiO2 
 PCOD8211610
Probable space group: P M M A
;
_chemical_formula_sum "Si O2"
_cell_formula_units_Z 48
_cell_length_a 9.255387
_cell_length_b 9.089408
_cell_length_c 31.025815
_cell_angle_alpha 90.000000
_cell_angle_beta 90.000000
_cell_angle_gamma 90.000000
_cell_volume 2610.077360
_symmetry_space_group_name_H-M "P M M A"
_symmetry_group_IT_number 51
_symmetry_cell_setting 'orthorhombic'
loop_
_space_group_symop_operation_xyz
x,y,z
1/2-x,-y,z
1/2+x,-y,-z
-x,y,-z
-x,-y,-z
1/2+x,y,-z
1/2-x,y,z
x,-y,z
loop_
_atom_site_type_symbol
_atom_site_label
_atom_site_fract_x
_atom_site_fract_y
_atom_site_fract_z
Si Si1 0.086662 0.175211 0.958912
Si Si2 0.580852 0.670607 0.371531
Si Si3 0.578216 0.334117 0.789926
Si Si4 0.581656 0.168855 0.457707
Si Si5 0.082402 0.172037 0.124974
Si Si6 0.579614 0.829911 0.705106
O O1 0.250000 0.236319 0.959891
O O2 0.007879 0.230425 0.915733
O O3 0.086426 0.000000 0.960345
O O4 0.000000 0.238249 0.000000
O O5 0.750000 0.698229 0.364427
O O6 0.540118 0.500000 0.369162
O O7 0.530996 0.732510 0.417680
O O8 0.495264 0.756820 0.335385
O O9 0.750000 0.331387 0.789929
O O10 0.518142 0.500000 0.788230
O O11 0.521807 0.256163 0.833226
O O12 0.520000 0.246772 0.748426
O O13 0.500000 0.226419 0.500000
O O14 0.750000 0.187574 0.466748
O O15 0.540892 0.000000 0.447541
O O16 0.250000 0.207210 0.116111
O O17 0.058626 0.000000 0.133082
O O18 0.750000 0.807534 0.700383
O O19 0.536784 0.000000 0.707332
#
# Coordination Sequence:
#
# PCOD8211610 Si02
#       6
#     8   8   8   8   8   8
#     4   9  16  26  42  66  95 124 155 194 239 284
#     4  10  21  36  53  75 105 139 172 207 252 305
#     4   9  17  30  49  72  98 128 162 201 245 292
#     4   9  18  33  52  73  99 132 170 211 253 298
#     4   9  16  27  45  68  93 122 157 196 238 285
#     4  10  20  34  54  79 104 132 170 213 253 297
#
# _framework density 18.390259
#
# number of rings (size 3 to 8) (size 9 to 14) (size 15 to 20)
#    0.000    2.667    0.000    2.000    0.000    7.000 
#    0.000    2.500    0.000    4.000    0.000    0.000 
#    0.000    0.000    0.000    0.000    0.000    0.000 
#
# Total GULP energy -595268.989206 kJ/mol
# GULP energy per Si atom -12401.437275 kJ/mol
# Density = 1.834840 g / cm^3
# Si number density = 18.390259 Si / 1000 Ang^3
#
#
#
# Elastic Constant Matrix: (Units=GPa)
#
#
# Indices 1 2 3 4 5 6 
#
# 1 61.7049 40.6064 67.9755 0.0000 0.0000 0.0000
# 2 40.6064 103.0202 84.1156 0.0000 0.0000 0.0000
# 3 67.9755 84.1156 197.1808 0.0000 0.0000 0.0000
# 4 0.0000 0.0000 0.0000 4.2137 0.0000 0.0000
# 5 0.0000 0.0000 0.0000 0.0000 33.6561 0.0000
# 6 0.0000 0.0000 0.0000 0.0000 0.0000 16.6597
#
#
#
# Elastic Compliance Matrix: (Units=1/GPa)
#
#
# Indices 1 2 3 4 5 6 
#
# 1 0.027576 -0.004768 -0.007472 0.000000 0.000000 0.000000
# 2 -0.004768 0.015719 -0.005062 0.000000 0.000000 0.000000
# 3 -0.007472 -0.005062 0.009807 0.000000 0.000000 0.000000
# 4 0.000000 0.000000 0.000000 0.237320 0.000000 0.000000
# 5 0.000000 0.000000 0.000000 0.000000 0.029712 0.000000
# 6 0.000000 0.000000 0.000000 0.000000 0.000000 0.060025
#
#
# Mechanical properties :
#
#
# Convention : Reuss Voigt Hill
#
# Bulk Modulus (GPa) = 54.06276 83.03344 68.54810
# Shear Modulus (GPa) = 11.87847 22.18648 17.03248
#
# Velocity S-wave (km/s) = 2.54424 3.47713 3.04660
# Velocity P-wave (km/s) = 6.17188 7.83386 7.05201
#
# Compressibility (1/GPa) = 0.01849702
#
# Stress axis : x y z
#
# Youngs Moduli (GPa) = 36.26402 63.61612 101.96936
#
# Poissons Ratio (x) = 0.30332 0.76195
# Poissons Ratio (y) = 0.17291 0.51617
# Poissons Ratio (z) = 0.27098 0.32202
#
# Static dielectric constant tensor:
#      x y z
#    x 3.825290 0.000000 0.000000 
#    y 0.000000 3.320910 0.000000 
#    z 0.000000 0.000000 3.598790 
# 
# 
# High freq. dielectric constant tensor:
#      x y z
#    x 1.689520 0.000000 0.000000 
#    y 0.000000 1.698330 0.000000 
#    z 0.000000 0.000000 1.730220 
# 
# From -- ./inp_files/36952.got.cif
#   From: 2010.03.12/outbox.cif.g09.slc.cpg/sg51_19_cif.got.tgz:36952.got - 2010.04.16 13:43:02.
