data_PCOD8211804
_publ_section_title
;
Structure prediction by ZEFSAII (Michael W. Deem and Ramdas Pophale) SiO2 
 PCOD8211804
Probable space group: P M M A
;
_chemical_formula_sum "Si O2"
_cell_formula_units_Z 48
_cell_length_a 23.498471
_cell_length_b 8.597595
_cell_length_c 11.353923
_cell_angle_alpha 90.000000
_cell_angle_beta 90.000000
_cell_angle_gamma 90.000000
_cell_volume 2293.836887
_symmetry_space_group_name_H-M "P M M A"
_symmetry_group_IT_number 51
_symmetry_cell_setting 'orthorhombic'
loop_
_space_group_symop_operation_xyz
x,y,z
1/2-x,-y,z
1/2+x,-y,-z
-x,y,-z
-x,-y,-z
1/2+x,y,-z
1/2-x,y,z
x,-y,z
loop_
_atom_site_type_symbol
_atom_site_label
_atom_site_fract_x
_atom_site_fract_y
_atom_site_fract_z
Si Si1 0.184973 0.315373 0.143340
Si Si2 0.405515 0.819965 0.307701
Si Si3 0.314827 0.820349 0.701371
Si Si4 0.620191 0.681821 0.086971
Si Si5 0.593258 0.682845 0.444196
Si Si6 0.026271 0.179603 0.767769
O O1 0.250000 0.251329 0.141690
O O2 0.186166 0.500000 0.143384
O O3 0.152242 0.255665 0.258686
O O4 0.149810 0.251448 0.030838
O O5 0.425769 0.737740 0.427325
O O6 0.458393 0.795912 0.216735
O O7 0.393859 0.000000 0.331874
O O8 0.250000 0.783008 0.676113
O O9 0.336148 0.713811 0.807865
O O10 0.347977 0.771921 0.583748
O O11 0.325466 0.000000 0.733235
O O12 0.608713 0.500000 0.074916
O O13 0.559462 0.763592 0.114794
O O14 0.603145 0.500000 0.443397
O O15 0.546417 0.725083 0.346543
O O16 0.041112 0.000000 0.745432
#
# Coordination Sequence:
#
# PCOD8211804 Si02
#       6
#     8   8   8   8   8   8
#     4  10  23  42  61  83 114 152 192 234 280 332
#     4  11  24  40  59  83 114 153 191 231 280 335
#     4  10  20  34  55  83 114 149 190 236 285 338
#     4  10  20  36  60  87 115 147 186 235 287 336
#     4  11  22  36  58  85 114 150 190 234 285 339
#     4  10  21  38  60  87 118 148 184 232 284 337
#
# _framework density 20.925637999999999
#
# number of rings (size 3 to 8) (size 9 to 14) (size 15 to 20)
#    0.000    1.667    0.000    6.500    0.000    9.667 
#    0.000    3.333    0.000    0.000    0.000    0.000 
#    0.000    0.000    0.000    0.000    0.000    0.000 
#
# Total GULP energy -595226.766457 kJ/mol
# GULP energy per Si atom -12400.557635 kJ/mol
# Density = 2.087801 g / cm^3
# Si number density = 20.925638 Si / 1000 Ang^3
#
#
#
# Elastic Constant Matrix: (Units=GPa)
#
#
# Indices 1 2 3 4 5 6 
#
# 1 113.5126 21.3794 24.3435 0.0000 0.0000 0.0000
# 2 21.3794 47.9122 11.2173 0.0000 0.0000 0.0000
# 3 24.3435 11.2173 64.5148 0.0000 0.0000 0.0000
# 4 0.0000 0.0000 0.0000 12.1054 0.0000 0.0000
# 5 0.0000 0.0000 0.0000 0.0000 23.9116 0.0000
# 6 0.0000 0.0000 0.0000 0.0000 0.0000 28.6940
#
#
#
# Elastic Compliance Matrix: (Units=1/GPa)
#
#
# Indices 1 2 3 4 5 6 
#
# 1 0.010211 -0.003809 -0.003191 0.000000 0.000000 0.000000
# 2 -0.003809 0.023178 -0.002593 0.000000 0.000000 0.000000
# 3 -0.003191 -0.002593 0.017155 0.000000 0.000000 0.000000
# 4 0.000000 0.000000 0.000000 0.082608 0.000000 0.000000
# 5 0.000000 0.000000 0.000000 0.000000 0.041821 0.000000
# 6 0.000000 0.000000 0.000000 0.000000 0.000000 0.034851
#
#
# Mechanical properties :
#
#
# Convention : Reuss Voigt Hill
#
# Bulk Modulus (GPa) = 31.88864 37.75780 34.82322
# Shear Modulus (GPa) = 20.88010 24.20882 22.54446
#
# Velocity S-wave (km/s) = 3.16226 3.40501 3.28588
# Velocity P-wave (km/s) = 5.34839 5.79152 5.57436
#
# Compressibility (1/GPa) = 0.03135913
#
# Stress axis : x y z
#
# Youngs Moduli (GPa) = 97.93017 43.14364 58.29177
#
# Poissons Ratio (x) = 0.16436 0.18599
# Poissons Ratio (y) = 0.37306 0.15113
# Poissons Ratio (z) = 0.31247 0.11186
#
# Static dielectric constant tensor:
#      x y z
#    x 3.967980 0.000000 0.000000 
#    y 0.000000 3.731310 0.000000 
#    z 0.000000 0.000000 3.691480 
# 
# 
# High freq. dielectric constant tensor:
#      x y z
#    x 1.829330 0.000000 0.000000 
#    y 0.000000 1.823070 0.000000 
#    z 0.000000 0.000000 1.806350 
# 
# From -- ./inp_files/18598.got.cif
#   From: 2010.03.12/outbox.cif.g09.slc.cpg/sg51_10_cif.got.tgz:18598.got - 2010.04.16 13:43:02.
