data_PCOD8211676
_publ_section_title
;
Structure prediction by ZEFSAII (Michael W. Deem and Ramdas Pophale) SiO2 
 PCOD8211676
Probable space group: P M M A
;
_chemical_formula_sum "Si O2"
_cell_formula_units_Z 48
_cell_length_a 16.239385
_cell_length_b 9.298220
_cell_length_c 16.007360
_cell_angle_alpha 90.000000
_cell_angle_beta 90.000000
_cell_angle_gamma 90.000000
_cell_volume 2417.069331
_symmetry_space_group_name_H-M "P M M A"
_symmetry_group_IT_number 51
_symmetry_cell_setting 'orthorhombic'
loop_
_space_group_symop_operation_xyz
x,y,z
1/2-x,-y,z
1/2+x,-y,-z
-x,y,-z
-x,-y,-z
1/2+x,y,-z
1/2-x,y,z
x,-y,z
loop_
_atom_site_type_symbol
_atom_site_label
_atom_site_fract_x
_atom_site_fract_y
_atom_site_fract_z
Si Si1 0.250000 0.343695 0.266256
Si Si2 0.250000 0.831898 0.424355
Si Si3 0.110588 0.659909 0.133626
Si Si4 0.906234 0.168782 0.019554
Si Si5 0.066962 0.171066 0.432466
Si Si6 0.343472 0.333969 0.820208
Si Si7 0.504561 0.334545 0.275657
O O1 0.250000 0.500000 0.312840
O O2 0.250000 0.210757 0.328216
O O3 0.329114 0.330999 0.210617
O O4 0.339588 0.776671 0.460151
O O5 0.250000 0.000000 0.434099
O O6 0.108335 0.500000 0.094083
O O7 0.140251 0.769360 0.062017
O O8 0.025060 0.698547 0.180111
O O9 0.893287 0.000000 0.025335
O O10 0.869882 0.236267 0.102449
O O11 0.000000 0.213684 0.000000
O O12 0.000000 0.224506 0.500000
O O13 0.039641 0.235581 0.343742
O O14 0.065425 0.000000 0.422941
O O15 0.250000 0.297077 0.795469
O O16 0.353750 0.500000 0.847185
O O17 0.397706 0.302737 0.736197
O O18 0.486912 0.500000 0.300746
#
# Coordination Sequence:
#
# PCOD8211676 Si02
#       7
#     4   4   8   8   8   8   8
#     4  10  20  34  54  82 111 138 179 232 285 338
#     4  10  20  36  60  86 115 150 187 228 279 340
#     4  10  20  34  54  80 110 146 187 233 287 341
#     4  11  23  36  53  79 111 147 191 241 288 335
#     4  10  22  40  61  87 119 153 187 228 282 344
#     4  10  22  40  59  79 111 155 199 240 285 340
#     4  10  20  37  62  86 109 144 189 237 287 339
#
# _framework density 19.85876
#
# number of rings (size 3 to 8) (size 9 to 14) (size 15 to 20)
#    0.000    1.833    3.333    0.500    1.167    3.333 
#    1.500    0.000    0.000    0.000    0.000    0.000 
#    0.000    0.000    0.000    0.000    0.000    0.000 
#
# Total GULP energy -594688.986974 kJ/mol
# GULP energy per Si atom -12389.353895 kJ/mol
# Density = 1.981356 g / cm^3
# Si number density = 19.858760 Si / 1000 Ang^3
#
#
#
# Elastic Constant Matrix: (Units=GPa)
#
#
# Indices 1 2 3 4 5 6 
#
# 1 145.1280 33.4686 36.6972 0.0000 0.0000 0.0000
# 2 33.4686 38.9861 20.9778 0.0000 0.0000 0.0000
# 3 36.6972 20.9778 61.8012 0.0000 0.0000 0.0000
# 4 0.0000 0.0000 0.0000 28.2192 0.0000 0.0000
# 5 0.0000 0.0000 0.0000 0.0000 14.2822 0.0000
# 6 0.0000 0.0000 0.0000 0.0000 0.0000 24.1294
#
#
#
# Elastic Compliance Matrix: (Units=1/GPa)
#
#
# Indices 1 2 3 4 5 6 
#
# 1 0.009134 -0.006023 -0.003379 0.000000 0.000000 0.000000
# 2 -0.006023 0.035353 -0.008424 0.000000 0.000000 0.000000
# 3 -0.003379 -0.008424 0.021047 0.000000 0.000000 0.000000
# 4 0.000000 0.000000 0.000000 0.035437 0.000000 0.000000
# 5 0.000000 0.000000 0.000000 0.000000 0.070017 0.000000
# 6 0.000000 0.000000 0.000000 0.000000 0.000000 0.041443
#
#
# Mechanical properties :
#
#
# Convention : Reuss Voigt Hill
#
# Bulk Modulus (GPa) = 33.46496 47.57806 40.52151
# Shear Modulus (GPa) = 19.37647 23.64426 21.51037
#
# Velocity S-wave (km/s) = 3.12703 3.45428 3.29472
# Velocity P-wave (km/s) = 5.47045 6.31820 5.90955
#
# Compressibility (1/GPa) = 0.02988200
#
# Stress axis : x y z
#
# Youngs Moduli (GPa) = 109.48197 28.28577 47.51284
#
# Poissons Ratio (x) = 0.17036 0.16056
# Poissons Ratio (y) = 0.65940 0.40025
# Poissons Ratio (z) = 0.36997 0.23828
#
# Static dielectric constant tensor:
#      x y z
#    x 3.787730 0.000000 0.000000 
#    y 0.000000 3.516290 0.000000 
#    z 0.000000 0.000000 3.287840 
# 
# 
# High freq. dielectric constant tensor:
#      x y z
#    x 1.798930 0.000000 0.000000 
#    y 0.000000 1.762330 0.000000 
#    z 0.000000 0.000000 1.745610 
# 
# From -- ./inp_files/24844.got.cif
#   From: 2010.03.12/outbox.cif.g09.slc.cpg/sg51_13_cif.got.tgz:24844.got - 2010.04.16 13:43:02.
