data_PCOD8211471
_publ_section_title
;
Structure prediction by ZEFSAII (Michael W. Deem and Ramdas Pophale) SiO2 
 PCOD8211471
Probable space group: P M M A
;
_chemical_formula_sum "Si O2"
_cell_formula_units_Z 48
_cell_length_a 29.984598
_cell_length_b 9.154996
_cell_length_c 9.832282
_cell_angle_alpha 90.000000
_cell_angle_beta 90.000000
_cell_angle_gamma 90.000000
_cell_volume 2699.048668
_symmetry_space_group_name_H-M "P M M A"
_symmetry_group_IT_number 51
_symmetry_cell_setting 'orthorhombic'
loop_
_space_group_symop_operation_xyz
x,y,z
1/2-x,-y,z
1/2+x,-y,-z
-x,y,-z
-x,-y,-z
1/2+x,y,-z
1/2-x,y,z
x,-y,z
loop_
_atom_site_type_symbol
_atom_site_label
_atom_site_fract_x
_atom_site_fract_y
_atom_site_fract_z
Si Si1 0.039492 0.170745 0.405579
Si Si2 0.541206 0.170596 0.906781
Si Si3 0.302086 0.830224 0.897537
Si Si4 0.371964 0.669039 0.404046
Si Si5 0.368779 0.671637 0.091938
Si Si6 0.800998 0.331109 0.374648
O O1 0.028859 0.208743 0.248791
O O2 0.084989 0.244205 0.455172
O O3 0.000000 0.232788 0.500000
O O4 0.045349 0.000000 0.428305
O O5 0.584145 0.261134 0.955676
O O6 0.552074 0.000000 0.924731
O O7 0.500000 0.219287 0.000000
O O8 0.250000 0.802995 0.924194
O O9 0.316333 0.766811 0.751733
O O10 0.314559 0.000000 0.901439
O O11 0.328372 0.745513 0.013423
O O12 0.383527 0.500000 0.419004
O O13 0.360127 0.708716 0.249427
O O14 0.330076 0.714957 0.495624
O O15 0.369343 0.500000 0.062195
O O16 0.750000 0.299444 0.414477
O O17 0.808143 0.500000 0.335014
#
# Coordination Sequence:
#
# PCOD8211471 Si02
#       6
#     8   8   8   8   8   8
#     4   9  18  32  49  70  97 130 167 205 247 295
#     4   9  18  33  51  71  99 134 170 209 251 295
#     4  10  21  36  53  75 103 134 170 211 253 300
#     4   9  19  34  52  76 103 132 167 206 249 297
#     4  10  20  34  53  77 105 136 170 209 253 302
#     4   9  18  34  54  75 101 132 166 205 249 298
#
# _framework density 17.784044000000002
#
# number of rings (size 3 to 8) (size 9 to 14) (size 15 to 20)
#    0.000    2.667    0.000    1.000    0.000    5.000 
#    0.000    3.333    0.000    2.000    0.000    0.000 
#    0.000    0.000    0.000    0.000    0.000    0.000 
#
# Total GULP energy -595343.327128 kJ/mol
# GULP energy per Si atom -12402.985982 kJ/mol
# Density = 1.774357 g / cm^3
# Si number density = 17.784044 Si / 1000 Ang^3
#
#
#
# Elastic Constant Matrix: (Units=GPa)
#
#
# Indices 1 2 3 4 5 6 
#
# 1 118.1880 58.3740 79.3907 0.0000 0.0000 0.0000
# 2 58.3740 73.3163 49.3965 0.0000 0.0000 0.0000
# 3 79.3907 49.3965 95.8445 0.0000 0.0000 0.0000
# 4 0.0000 0.0000 0.0000 24.9298 0.0000 0.0000
# 5 0.0000 0.0000 0.0000 0.0000 40.9698 0.0000
# 6 0.0000 0.0000 0.0000 0.0000 0.0000 32.5768
#
#
#
# Elastic Compliance Matrix: (Units=1/GPa)
#
#
# Indices 1 2 3 4 5 6 
#
# 1 0.021712 -0.007920 -0.013903 0.000000 0.000000 0.000000
# 2 -0.007920 0.023784 -0.005698 0.000000 0.000000 0.000000
# 3 -0.013903 -0.005698 0.024886 0.000000 0.000000 0.000000
# 4 0.000000 0.000000 0.000000 0.040113 0.000000 0.000000
# 5 0.000000 0.000000 0.000000 0.000000 0.024408 0.000000
# 6 0.000000 0.000000 0.000000 0.000000 0.000000 0.030697
#
#
# Mechanical properties :
#
#
# Convention : Reuss Voigt Hill
#
# Bulk Modulus (GPa) = 65.18292 73.51902 69.35097
# Shear Modulus (GPa) = 22.14812 26.37445 24.26129
#
# Velocity S-wave (km/s) = 3.53284 3.85520 3.69754
# Velocity P-wave (km/s) = 7.30571 7.82601 7.57033
#
# Compressibility (1/GPa) = 0.01534144
#
# Stress axis : x y z
#
# Youngs Moduli (GPa) = 46.05839 42.04507 40.18344
#
# Poissons Ratio (x) = 0.33299 0.55865
# Poissons Ratio (y) = 0.36478 0.22895
# Poissons Ratio (z) = 0.64033 0.23956
#
# Static dielectric constant tensor:
#      x y z
#    x 3.333340 0.000000 0.000000 
#    y 0.000000 3.304960 0.000000 
#    z 0.000000 0.000000 3.353180 
# 
# 
# High freq. dielectric constant tensor:
#      x y z
#    x 1.690220 0.000000 0.000000 
#    y 0.000000 1.689160 0.000000 
#    z 0.000000 0.000000 1.687350 
# 
# From -- ./inp_files/12729.got.cif
#   From: 2010.03.12/outbox.cif.g09.slc.cpg/sg51_7_cif.got.tgz:12729.got - 2010.04.16 13:43:02.
