data_PCOD8211346
_publ_section_title
;
Structure prediction by ZEFSAII (Michael W. Deem and Ramdas Pophale) SiO2 
 PCOD8211346
Probable space group: P M M A
;
_chemical_formula_sum "Si O2"
_cell_formula_units_Z 48
_cell_length_a 15.227623
_cell_length_b 8.980884
_cell_length_c 18.371234
_cell_angle_alpha 90.000000
_cell_angle_beta 90.000000
_cell_angle_gamma 90.000000
_cell_volume 2512.404323
_symmetry_space_group_name_H-M "P M M A"
_symmetry_group_IT_number 51
_symmetry_cell_setting 'orthorhombic'
loop_
_space_group_symop_operation_xyz
x,y,z
1/2-x,-y,z
1/2+x,-y,-z
-x,y,-z
-x,-y,-z
1/2+x,y,-z
1/2-x,y,z
x,-y,z
loop_
_atom_site_type_symbol
_atom_site_label
_atom_site_fract_x
_atom_site_fract_y
_atom_site_fract_z
Si Si1 0.849167 0.328923 0.084498
Si Si2 0.345763 0.830587 0.590649
Si Si3 0.983573 0.175910 0.672325
Si Si4 0.591993 0.667031 0.540840
Si Si5 0.482843 0.325775 0.174662
Si Si6 0.648587 0.172652 0.934363
O O1 0.750000 0.301755 0.114025
O O2 0.861134 0.500000 0.059254
O O3 0.918436 0.288832 0.147571
O O4 0.869247 0.222816 0.016739
O O5 0.250000 0.816770 0.628301
O O6 0.418911 0.772001 0.647045
O O7 0.340124 0.740253 0.515192
O O8 0.368864 0.000000 0.569947
O O9 0.912370 0.239745 0.615514
O O10 0.964521 0.242293 0.750652
O O11 0.973475 0.000000 0.676401
O O12 0.500000 0.669967 0.500000
O O13 0.622168 0.500000 0.559720
O O14 0.470187 0.500000 0.187253
O O15 0.411403 0.271090 0.117340
O O16 0.750000 0.200032 0.913283
O O17 0.623007 0.000000 0.927007
#
# Coordination Sequence:
#
# PCOD8211346 Si02
#       6
#     8   8   8   8   8   8
#     4   9  19  36  56  79 109 144 180 218 263 317
#     4   9  18  33  53  77 104 135 171 210 255 308
#     4  10  20  34  52  74 104 140 173 210 258 310
#     4   9  17  31  51  73  97 127 165 206 246 293
#     4  11  22  35  54  80 110 145 181 219 267 320
#     4  10  21  37  57  80 105 136 178 227 274 320
#
# _framework density 19.105205999999999
#
# number of rings (size 3 to 8) (size 9 to 14) (size 15 to 20)
#    0.000    2.333    0.000    2.500    0.000    8.000 
#    0.000    0.833    0.000    5.000    0.000    0.000 
#    0.000    0.000    0.000    0.000    0.000    0.000 
#
# Total GULP energy -595193.312490 kJ/mol
# GULP energy per Si atom -12399.860677 kJ/mol
# Density = 1.906172 g / cm^3
# Si number density = 19.105206 Si / 1000 Ang^3
#
#
#
# Elastic Constant Matrix: (Units=GPa)
#
#
# Indices 1 2 3 4 5 6 
#
# 1 40.5095 13.7668 5.9916 0.0000 0.0000 0.0000
# 2 13.7668 84.5528 25.9847 0.0000 0.0000 0.0000
# 3 5.9916 25.9847 68.0455 0.0000 0.0000 0.0000
# 4 0.0000 0.0000 0.0000 36.6089 0.0000 0.0000
# 5 0.0000 0.0000 0.0000 0.0000 17.4941 0.0000
# 6 0.0000 0.0000 0.0000 0.0000 0.0000 23.8568
#
#
#
# Elastic Compliance Matrix: (Units=1/GPa)
#
#
# Indices 1 2 3 4 5 6 
#
# 1 0.026167 -0.004025 -0.000767 0.000000 0.000000 0.000000
# 2 -0.004025 0.014018 -0.004999 0.000000 0.000000 0.000000
# 3 -0.000767 -0.004999 0.016673 0.000000 0.000000 0.000000
# 4 0.000000 0.000000 0.000000 0.027316 0.000000 0.000000
# 5 0.000000 0.000000 0.000000 0.000000 0.057162 0.000000
# 6 0.000000 0.000000 0.000000 0.000000 0.000000 0.041917
#
#
# Mechanical properties :
#
#
# Convention : Reuss Voigt Hill
#
# Bulk Modulus (GPa) = 26.82664 31.62156 29.22410
# Shear Modulus (GPa) = 23.22780 25.41627 24.32204
#
# Velocity S-wave (km/s) = 3.49059 3.65133 3.57186
# Velocity P-wave (km/s) = 5.50615 5.86204 5.68688
#
# Compressibility (1/GPa) = 0.03727638
#
# Stress axis : x y z
#
# Youngs Moduli (GPa) = 38.21636 71.33440 59.97887
#
# Poissons Ratio (x) = 0.28710 0.04601
# Poissons Ratio (y) = 0.15381 0.29983
# Poissons Ratio (z) = 0.02932 0.35659
#
# Static dielectric constant tensor:
#      x y z
#    x 3.507510 0.000000 0.000000 
#    y 0.000000 3.601480 0.000000 
#    z 0.000000 0.000000 3.336350 
# 
# 
# High freq. dielectric constant tensor:
#      x y z
#    x 1.737570 0.000000 0.000000 
#    y 0.000000 1.752100 0.000000 
#    z 0.000000 0.000000 1.728570 
# 
# From -- ./inp_files/29388.got.cif
#   From: 2010.03.12/outbox.cif.g09.slc.cpg/sg51_15_cif.got.tgz:29388.got - 2010.04.16 13:43:02.
