data_PCOD8211704
_publ_section_title
;
Structure prediction by ZEFSAII (Michael W. Deem and Ramdas Pophale) SiO2 
 PCOD8211704
Probable space group: P M M A
;
_chemical_formula_sum "Si O2"
_cell_formula_units_Z 64
_cell_length_a 24.464699
_cell_length_b 13.338421
_cell_length_c 9.637408
_cell_angle_alpha 90.000000
_cell_angle_beta 90.000000
_cell_angle_gamma 90.000000
_cell_volume 3144.883363
_symmetry_space_group_name_H-M "P M M A"
_symmetry_group_IT_number 51
_symmetry_cell_setting 'orthorhombic'
loop_
_space_group_symop_operation_xyz
x,y,z
1/2-x,-y,z
1/2+x,-y,-z
-x,y,-z
-x,-y,-z
1/2+x,y,-z
1/2-x,y,z
x,-y,z
loop_
_atom_site_type_symbol
_atom_site_label
_atom_site_fract_x
_atom_site_fract_y
_atom_site_fract_z
Si Si1 0.613873 0.114228 0.631805
Si Si2 0.688175 0.219891 0.834608
Si Si3 0.814779 0.885537 0.358670
Si Si4 0.532653 0.704188 0.637690
Si Si5 0.461140 0.384183 0.870812
Si Si6 0.808505 0.384127 0.367625
Si Si7 0.356313 0.386691 0.352998
Si Si8 0.647212 0.731307 0.132621
O O1 0.647318 0.136265 0.773337
O O2 0.655702 0.134168 0.505699
O O3 0.560179 0.185126 0.629063
O O4 0.592815 0.000000 0.633653
O O5 0.750000 0.184054 0.810455
O O6 0.677991 0.325302 0.758883
O O7 0.679772 0.233875 0.998222
O O8 0.750000 0.857878 0.367469
O O9 0.848294 0.821047 0.245237
O O10 0.821588 0.000000 0.312986
O O11 0.500000 0.679717 0.500000
O O12 0.489015 0.686757 0.757266
O O13 0.579093 0.621915 0.669037
O O14 0.445981 0.500000 0.821566
O O15 0.411158 0.311895 0.914670
O O16 0.500000 0.396168 0.000000
O O17 0.750000 0.331451 0.389502
O O18 0.803200 0.500000 0.388773
O O19 0.846751 0.342603 0.491245
O O20 0.827904 0.364126 0.212075
O O21 0.336860 0.500000 0.334246
#
# Coordination Sequence:
#
# PCOD8211704 Si02
#       8
#     8   8   8   8   8   8   8   8
#     4  10  22  41  64  89 117 151 194 240 290 352
#     4  11  23  37  58  88 120 156 194 238 295 352
#     4  10  21  39  64  91 120 156 193 233 288 352
#     4  11  22  37  60  88 115 147 193 248 295 337
#     4  11  24  42  61  81 113 158 201 241 290 346
#     4  10  20  34  54  81 114 152 189 230 287 350
#     4  10  21  37  56  82 118 157 199 242 285 342
#     4  12  23  38  59  85 118 151 194 246 292 345
#
# _framework density 20.350517
#
# number of rings (size 3 to 8) (size 9 to 14) (size 15 to 20)
#    0.000    1.375    0.000    7.125    0.000    6.250 
#    0.000    0.625    0.000    1.500    0.000    0.000 
#    0.000    0.000    0.000    0.000    0.000    0.000 
#
# Total GULP energy -792977.943889 kJ/mol
# GULP energy per Si atom -12390.280373 kJ/mol
# Density = 2.030420 g / cm^3
# Si number density = 20.350517 Si / 1000 Ang^3
#
#
#
# Elastic Constant Matrix: (Units=GPa)
#
#
# Indices 1 2 3 4 5 6 
#
# 1 56.5959 19.1696 -2.5214 0.0000 0.0000 0.0000
# 2 19.1696 114.1695 23.5428 0.0000 0.0000 0.0000
# 3 -2.5214 23.5428 99.1702 0.0000 0.0000 0.0000
# 4 0.0000 0.0000 0.0000 28.6189 0.0000 0.0000
# 5 0.0000 0.0000 0.0000 0.0000 37.9128 0.0000
# 6 0.0000 0.0000 0.0000 0.0000 0.0000 49.5434
#
#
#
# Elastic Compliance Matrix: (Units=1/GPa)
#
#
# Indices 1 2 3 4 5 6 
#
# 1 0.018892 -0.003439 0.001297 0.000000 0.000000 0.000000
# 2 -0.003439 0.009836 -0.002422 0.000000 0.000000 0.000000
# 3 0.001297 -0.002422 0.010692 0.000000 0.000000 0.000000
# 4 0.000000 0.000000 0.000000 0.034942 0.000000 0.000000
# 5 0.000000 0.000000 0.000000 0.000000 0.026376 0.000000
# 6 0.000000 0.000000 0.000000 0.000000 0.000000 0.020184
#
#
# Mechanical properties :
#
#
# Convention : Reuss Voigt Hill
#
# Bulk Modulus (GPa) = 33.01489 38.92419 35.96954
# Shear Modulus (GPa) = 35.67637 38.53133 37.10385
#
# Velocity S-wave (km/s) = 4.19154 4.35602 4.27457
# Velocity P-wave (km/s) = 6.29950 6.66846 6.48660
#
# Compressibility (1/GPa) = 0.03028936
#
# Stress axis : x y z
#
# Youngs Moduli (GPa) = 52.93279 101.66785 93.53019
#
# Poissons Ratio (x) = 0.34968 -0.12129
# Poissons Ratio (y) = 0.18206 0.22658
# Poissons Ratio (z) = -0.06865 0.24629
#
# Static dielectric constant tensor:
#      x y z
#    x 4.267530 0.000000 0.000000 
#    y 0.000000 3.804660 0.000000 
#    z 0.000000 0.000000 3.652900 
# 
# 
# High freq. dielectric constant tensor:
#      x y z
#    x 1.797480 0.000000 0.000000 
#    y 0.000000 1.799960 0.000000 
#    z 0.000000 0.000000 1.798240 
# 
# From -- ./inp_files/11847.got.cif
#   From: 2010.03.12/outbox.cif.g09.slc.cpg/sg51_6_cif.got.tgz:11847.got - 2010.04.16 13:43:02.
