data_PCOD8211624
_publ_section_title
;
Structure prediction by ZEFSAII (Michael W. Deem and Ramdas Pophale) SiO2 
 PCOD8211624
Probable space group: P M M A
;
_chemical_formula_sum "Si O2"
_cell_formula_units_Z 64
_cell_length_a 14.405060
_cell_length_b 9.318582
_cell_length_c 24.521114
_cell_angle_alpha 90.000000
_cell_angle_beta 90.000000
_cell_angle_gamma 90.000000
_cell_volume 3291.585186
_symmetry_space_group_name_H-M "P M M A"
_symmetry_group_IT_number 51
_symmetry_cell_setting 'orthorhombic'
loop_
_space_group_symop_operation_xyz
x,y,z
1/2-x,-y,z
1/2+x,-y,-z
-x,y,-z
-x,-y,-z
1/2+x,y,-z
1/2-x,y,z
x,-y,z
loop_
_atom_site_type_symbol
_atom_site_label
_atom_site_fract_x
_atom_site_fract_y
_atom_site_fract_z
Si Si1 0.854331 0.664558 0.626460
Si Si2 0.394855 0.837461 0.481874
Si Si3 0.468999 0.831979 0.883166
Si Si4 0.648925 0.659146 0.418388
Si Si5 0.854639 0.665735 0.903236
Si Si6 0.143436 0.167823 0.775617
Si Si7 0.855644 0.663873 0.031086
Si Si8 0.464702 0.333100 0.683366
O O1 0.750000 0.695674 0.647401
O O2 0.865407 0.500000 0.607093
O O3 0.878450 0.764071 0.575783
O O4 0.924604 0.694643 0.676976
O O5 0.500000 0.828416 0.500000
O O6 0.338740 0.757147 0.528719
O O7 0.359175 0.000000 0.477459
O O8 0.569395 0.760413 0.871182
O O9 0.397830 0.796757 0.834719
O O10 0.425161 0.768812 0.938065
O O11 0.484459 0.000000 0.890796
O O12 0.750000 0.651230 0.390418
O O13 0.615157 0.500000 0.436295
O O14 0.579378 0.722916 0.373426
O O15 0.750000 0.712490 0.886253
O O16 0.870248 0.500000 0.887996
O O17 0.868640 0.690496 0.967290
O O18 0.250000 0.223372 0.772820
O O19 0.077432 0.245037 0.732660
O O20 0.139727 0.000000 0.762996
O O21 0.750000 0.697469 0.048344
O O22 0.881201 0.500000 0.045894
O O23 0.441228 0.500000 0.692822
#
# Coordination Sequence:
#
# PCOD8211624 Si02
#       8
#     8   8   8   8   8   8   8   8
#     4  10  21  38  60  83 109 143 180 221 271 323
#     4  11  22  34  51  79 113 147 181 216 256 313
#     4  11  22  35  54  82 115 150 187 231 283 337
#     4  10  20  34  54  79 106 138 175 216 267 321
#     4   9  19  36  56  80 113 152 192 233 277 326
#     4  10  23  42  60  80 110 145 179 221 276 333
#     4   9  18  33  54  81 114 152 192 233 278 331
#     4  10  21  38  60  83 107 135 178 231 274 319
#
# _framework density 19.443519999999999
#
# number of rings (size 3 to 8) (size 9 to 14) (size 15 to 20)
#    0.000    2.000    1.250    3.000    0.000    8.250 
#    0.000    1.875    0.000    2.250    0.000    0.000 
#    0.000    0.000    0.000    0.000    0.000    0.000 
#
# Total GULP energy -793533.102504 kJ/mol
# GULP energy per Si atom -12398.954727 kJ/mol
# Density = 1.939927 g / cm^3
# Si number density = 19.443520 Si / 1000 Ang^3
#
#
#
# Elastic Constant Matrix: (Units=GPa)
#
#
# Indices 1 2 3 4 5 6 
#
# 1 141.5765 52.4925 38.5468 0.0000 0.0000 0.0000
# 2 52.4925 85.0207 37.7678 0.0000 0.0000 0.0000
# 3 38.5468 37.7678 51.8722 0.0000 0.0000 0.0000
# 4 0.0000 0.0000 0.0000 34.7583 0.0000 0.0000
# 5 0.0000 0.0000 0.0000 0.0000 28.3789 0.0000
# 6 0.0000 0.0000 0.0000 0.0000 0.0000 52.2687
#
#
#
# Elastic Compliance Matrix: (Units=1/GPa)
#
#
# Indices 1 2 3 4 5 6 
#
# 1 0.009750 -0.004141 -0.004231 0.000000 0.000000 0.000000
# 2 -0.004141 0.019143 -0.010861 0.000000 0.000000 0.000000
# 3 -0.004231 -0.010861 0.030330 0.000000 0.000000 0.000000
# 4 0.000000 0.000000 0.000000 0.028770 0.000000 0.000000
# 5 0.000000 0.000000 0.000000 0.000000 0.035237 0.000000
# 6 0.000000 0.000000 0.000000 0.000000 0.000000 0.019132
#
#
# Mechanical properties :
#
#
# Convention : Reuss Voigt Hill
#
# Bulk Modulus (GPa) = 48.17314 59.56485 53.86899
# Shear Modulus (GPa) = 26.63157 33.05866 29.84511
#
# Velocity S-wave (km/s) = 3.70495 4.12787 3.92211
# Velocity P-wave (km/s) = 6.56749 7.30893 6.94810
#
# Compressibility (1/GPa) = 0.02075846
#
# Stress axis : x y z
#
# Youngs Moduli (GPa) = 102.55910 52.23881 32.97069
#
# Poissons Ratio (x) = 0.21630 0.13950
# Poissons Ratio (y) = 0.42465 0.35809
# Poissons Ratio (z) = 0.43393 0.56736
#
# Static dielectric constant tensor:
#      x y z
#    x 3.806040 0.000000 0.000000 
#    y 0.000000 3.524880 0.000000 
#    z 0.000000 0.000000 3.266310 
# 
# 
# High freq. dielectric constant tensor:
#      x y z
#    x 1.780150 0.000000 0.000000 
#    y 0.000000 1.749660 0.000000 
#    z 0.000000 0.000000 1.728120 
# 
# From -- ./inp_files/35726.got.cif
#   From: 2010.03.12/outbox.cif.g09.slc.cpg/sg51_18_cif.got.tgz:35726.got - 2010.04.16 13:43:02.
