data_PCOD8211493
_publ_section_title
;
Structure prediction by ZEFSAII (Michael W. Deem and Ramdas Pophale) SiO2 
 PCOD8211493
Probable space group: P M M A
;
_chemical_formula_sum "Si O2"
_cell_formula_units_Z 56
_cell_length_a 9.417854
_cell_length_b 19.207660
_cell_length_c 15.731662
_cell_angle_alpha 90.000000
_cell_angle_beta 90.000000
_cell_angle_gamma 90.000000
_cell_volume 2845.778015
_symmetry_space_group_name_H-M "P M M A"
_symmetry_group_IT_number 51
_symmetry_cell_setting 'orthorhombic'
loop_
_space_group_symop_operation_xyz
x,y,z
1/2-x,-y,z
1/2+x,-y,-z
-x,y,-z
-x,-y,-z
1/2+x,y,-z
1/2-x,y,z
x,-y,z
loop_
_atom_site_type_symbol
_atom_site_label
_atom_site_fract_x
_atom_site_fract_y
_atom_site_fract_z
Si Si1 0.086256 0.076343 0.585520
Si Si2 0.411988 0.785677 0.670470
Si Si3 0.412747 0.417681 0.760103
Si Si4 0.088864 0.785329 0.171750
Si Si5 0.087544 0.352304 0.582197
Si Si6 0.413819 0.923503 0.085562
Si Si7 0.915130 0.646190 0.915392
O O1 0.250000 0.090604 0.562780
O O2 0.029286 0.137818 0.645761
O O3 0.000000 0.078772 0.500000
O O4 0.067022 0.000000 0.629066
O O5 0.250000 0.790439 0.699751
O O6 0.498127 0.756741 0.750190
O O7 0.430432 0.731146 0.593485
O O8 0.250000 0.392463 0.776395
O O9 0.421720 0.500000 0.758554
O O10 0.465942 0.389824 0.668346
O O11 0.515426 0.390747 0.834180
O O12 0.250000 0.791411 0.203042
O O13 0.030215 0.861528 0.145422
O O14 0.074545 0.729851 0.095441
O O15 0.250000 0.372717 0.564696
O O16 0.000000 0.377317 0.500000
O O17 0.250000 0.909785 0.062774
O O18 0.433928 0.000000 0.128887
O O19 0.500000 0.920741 0.000000
O O20 0.750000 0.623090 0.923446
O O21 0.000000 0.623983 0.000000
#
# Coordination Sequence:
#
# PCOD8211493 Si02
#       7
#     8   8   8   8   8   8   8
#     4   9  18  32  49  72 103 140 184 232 282 337
#     4  10  20  34  53  77 108 146 187 234 284 335
#     4  10  22  42  65  89 120 155 192 235 283 342
#     4  10  21  35  53  80 111 145 188 236 284 336
#     4  10  21  37  59  87 117 152 192 234 284 338
#     4   9  18  33  51  73 104 141 183 231 281 334
#     4  11  23  39  62  90 120 155 195 239 288 343
#
# _framework density 19.678274999999999
#
# number of rings (size 3 to 8) (size 9 to 14) (size 15 to 20)
#    0.000    2.143    1.429    1.286    0.000    4.286 
#    0.000    0.000    0.000    0.000    0.000    0.000 
#    0.000    0.000    0.000    0.000    0.000    0.000 
#
# Total GULP energy -694261.093947 kJ/mol
# GULP energy per Si atom -12397.519535 kJ/mol
# Density = 1.963349 g / cm^3
# Si number density = 19.678275 Si / 1000 Ang^3
#
#
#
# Elastic Constant Matrix: (Units=GPa)
#
#
# Indices 1 2 3 4 5 6 
#
# 1 76.9999 30.2164 60.9542 0.0000 0.0000 0.0000
# 2 30.2164 87.8134 35.1073 0.0000 0.0000 0.0000
# 3 60.9542 35.1073 123.1163 0.0000 0.0000 0.0000
# 4 0.0000 0.0000 0.0000 22.9295 0.0000 0.0000
# 5 0.0000 0.0000 0.0000 0.0000 37.5003 0.0000
# 6 0.0000 0.0000 0.0000 0.0000 0.0000 22.7380
#
#
#
# Elastic Compliance Matrix: (Units=1/GPa)
#
#
# Indices 1 2 3 4 5 6 
#
# 1 0.022369 -0.003690 -0.010023 0.000000 0.000000 0.000000
# 2 -0.003690 0.013462 -0.002012 0.000000 0.000000 0.000000
# 3 -0.010023 -0.002012 0.013658 0.000000 0.000000 0.000000
# 4 0.000000 0.000000 0.000000 0.043612 0.000000 0.000000
# 5 0.000000 0.000000 0.000000 0.000000 0.026666 0.000000
# 6 0.000000 0.000000 0.000000 0.000000 0.000000 0.043979
#
#
# Mechanical properties :
#
#
# Convention : Reuss Voigt Hill
#
# Bulk Modulus (GPa) = 55.43178 60.05393 57.74286
# Shear Modulus (GPa) = 24.84976 27.41034 26.13005
#
# Velocity S-wave (km/s) = 3.55745 3.73624 3.64794
# Velocity P-wave (km/s) = 6.71596 7.01404 6.86662
#
# Compressibility (1/GPa) = 0.01804019
#
# Stress axis : x y z
#
# Youngs Moduli (GPa) = 44.70442 74.28400 73.21624
#
# Poissons Ratio (x) = 0.27412 0.73381
# Poissons Ratio (y) = 0.16497 0.14729
# Poissons Ratio (z) = 0.44805 0.14944
#
# Static dielectric constant tensor:
#      x y z
#    x 3.558440 0.000000 0.000000 
#    y 0.000000 3.908660 0.000000 
#    z 0.000000 0.000000 3.342650 
# 
# 
# High freq. dielectric constant tensor:
#      x y z
#    x 1.762460 0.000000 0.000000 
#    y 0.000000 1.780700 0.000000 
#    z 0.000000 0.000000 1.748280 
# 
# From -- ./inp_files/21833.got.cif
#   From: 2010.03.12/outbox.cif.g09.slc.cpg/sg51_11_cif.got.tgz:21833.got - 2010.04.16 13:43:02.
