data_PCOD8211851
_publ_section_title
;
Structure prediction by ZEFSAII (Michael W. Deem and Ramdas Pophale) SiO2 
 PCOD8211851
Probable space group: P M M A
;
_chemical_formula_sum "Si O2"
_cell_formula_units_Z 64
_cell_length_a 8.902412
_cell_length_b 14.378292
_cell_length_c 24.797873
_cell_angle_alpha 90.000000
_cell_angle_beta 90.000000
_cell_angle_gamma 90.000000
_cell_volume 3174.164426
_symmetry_space_group_name_H-M "P M M A"
_symmetry_group_IT_number 51
_symmetry_cell_setting 'orthorhombic'
loop_
_space_group_symop_operation_xyz
x,y,z
1/2-x,-y,z
1/2+x,-y,-z
-x,y,-z
-x,-y,-z
1/2+x,y,-z
1/2-x,y,z
x,-y,z
loop_
_atom_site_type_symbol
_atom_site_label
_atom_site_fract_x
_atom_site_fract_y
_atom_site_fract_z
Si Si1 0.428635 0.648952 0.945709
Si Si2 0.426661 0.393402 0.726208
Si Si3 0.912355 0.896365 0.152282
Si Si4 0.583248 0.889426 0.748300
Si Si5 0.426421 0.105436 0.556039
Si Si6 0.915211 0.605848 0.834583
Si Si7 0.574064 0.782214 0.341429
Si Si8 0.572532 0.848812 0.949172
O O1 0.250000 0.636558 0.948526
O O2 0.488172 0.608637 0.889424
O O3 0.478502 0.754776 0.945609
O O4 0.500000 0.601114 0.000000
O O5 0.250000 0.390289 0.736252
O O6 0.475671 0.500000 0.711649
O O7 0.501397 0.353703 0.781516
O O8 0.472881 0.323191 0.676873
O O9 0.750000 0.849196 0.137400
O O10 0.990358 0.843423 0.201964
O O11 0.033172 0.903648 0.104467
O O12 0.878552 0.000000 0.171341
O O13 0.750000 0.847679 0.750809
O O14 0.505281 0.860027 0.693835
O O15 0.587981 0.000000 0.752082
O O16 0.500000 0.134767 0.500000
O O17 0.250000 0.106046 0.547822
O O18 0.473995 0.187051 0.598229
O O19 0.477645 0.000000 0.573361
O O20 0.750000 0.653726 0.842815
O O21 0.889176 0.500000 0.820169
O O22 0.750000 0.794822 0.333526
O O23 0.750000 0.834145 0.955752
O O24 0.500000 0.903941 0.000000
#
# Coordination Sequence:
#
# PCOD8211851 Si02
#       8
#     8   8   8   8   8   8   8   8
#     4  11  22  37  56  77 103 133 170 217 272 336
#     4   9  19  36  56  80 110 145 188 237 285 336
#     4  10  21  37  55  74  99 133 172 215 265 321
#     4  10  21  35  51  77 112 145 179 223 274 331
#     4   9  18  33  54  82 117 155 193 234 279 328
#     4  10  21  37  56  78 105 137 174 219 275 337
#     4  10  20  34  56  83 111 149 192 232 279 333
#     4  11  22  37  55  74  98 128 167 215 265 322
#
# _framework density 20.162786000000001
#
# number of rings (size 3 to 8) (size 9 to 14) (size 15 to 20)
#    0.000    2.000    0.000    4.500    1.750    4.250 
#    0.000    1.250    0.000    0.375    0.000    0.000 
#    0.000    0.000    0.000    0.000    0.000    0.000 
#
# Total GULP energy -792840.147871 kJ/mol
# GULP energy per Si atom -12388.127310 kJ/mol
# Density = 2.011689 g / cm^3
# Si number density = 20.162786 Si / 1000 Ang^3
#
#
#
# Elastic Constant Matrix: (Units=GPa)
#
#
# Indices 1 2 3 4 5 6 
#
# 1 99.6538 26.1779 69.9623 0.0000 0.0000 0.0000
# 2 26.1779 61.0764 51.8487 0.0000 0.0000 0.0000
# 3 69.9623 51.8487 162.9821 0.0000 0.0000 0.0000
# 4 0.0000 0.0000 0.0000 -550.7274 0.0000 0.0000
# 5 0.0000 0.0000 0.0000 0.0000 34.2528 0.0000
# 6 0.0000 0.0000 0.0000 0.0000 0.0000 18.5486
#
#
#
# Elastic Compliance Matrix: (Units=1/GPa)
#
#
# Indices 1 2 3 4 5 6 
#
# 1 0.014435 -0.001270 -0.005792 0.000000 0.000000 0.000000
# 2 -0.001270 0.022542 -0.006626 0.000000 0.000000 0.000000
# 3 -0.005792 -0.006626 0.010730 0.000000 0.000000 0.000000
# 4 0.000000 0.000000 0.000000 -0.001816 0.000000 0.000000
# 5 0.000000 0.000000 0.000000 0.000000 0.029195 0.000000
# 6 0.000000 0.000000 0.000000 0.000000 0.000000 0.053912
#
#
# Mechanical properties :
#
#
# Convention : Reuss Voigt Hill
#
# Bulk Modulus (GPa) = 49.18703 68.85447 59.02075
# Shear Modulus (GPa) = 30.64627 -87.87029 -28.61201
#
# Velocity S-wave (km/s) = 3.90287 -6.60871 -3.77112
# Velocity P-wave (km/s) = 6.69013 4.90000 3.22086
#
# Compressibility (1/GPa) = 0.02033056
#
# Stress axis : x y z
#
# Youngs Moduli (GPa) = 69.27667 44.36121 93.19556
#
# Poissons Ratio (x) = 0.05632 0.53983
# Poissons Ratio (y) = 0.08795 0.61754
# Poissons Ratio (z) = 0.40128 0.29395
#
# Static dielectric constant tensor:
#      x y z
#    x 3.963690 0.000000 0.000000 
#    y 0.000000 3.604660 0.000000 
#    z 0.000000 0.000000 4.058720 
# 
# 
# High freq. dielectric constant tensor:
#      x y z
#    x 1.796630 0.000000 0.000000 
#    y 0.000000 1.771060 0.000000 
#    z 0.000000 0.000000 1.775040 
# 
# From -- ./inp_files/34855.got.cif
#   From: 2010.03.12/outbox.cif.g09.slc.cpg/sg51_18_cif.got.tgz:34855.got - 2010.04.16 13:43:02.
