data_PCOD8211817
_publ_section_title
;
Structure prediction by ZEFSAII (Michael W. Deem and Ramdas Pophale) SiO2 
 PCOD8211817
Probable space group: P M M A
;
_chemical_formula_sum "Si O2"
_cell_formula_units_Z 48
_cell_length_a 8.759009
_cell_length_b 20.243751
_cell_length_c 14.426875
_cell_angle_alpha 90.000000
_cell_angle_beta 90.000000
_cell_angle_gamma 90.000000
_cell_volume 2558.104186
_symmetry_space_group_name_H-M "P M M A"
_symmetry_group_IT_number 51
_symmetry_cell_setting 'orthorhombic'
loop_
_space_group_symop_operation_xyz
x,y,z
1/2-x,-y,z
1/2+x,-y,-z
-x,y,-z
-x,-y,-z
1/2+x,y,-z
1/2-x,y,z
x,-y,z
loop_
_atom_site_type_symbol
_atom_site_label
_atom_site_fract_x
_atom_site_fract_y
_atom_site_fract_z
Si Si1 0.924534 0.924720 0.782931
Si Si2 0.926577 0.728688 0.404192
Si Si3 0.929158 0.573663 0.904117
Si Si4 0.070352 0.694928 0.218249
Si Si5 0.073678 0.884108 0.596130
Si Si6 0.430446 0.188021 0.899125
O O1 0.750000 0.899946 0.781650
O O2 0.990351 0.920638 0.679619
O O3 0.018890 0.881309 0.855444
O O4 0.936130 0.000000 0.817211
O O5 0.750000 0.708474 0.401796
O O6 0.948811 0.806408 0.390165
O O7 0.000000 0.704850 0.500000
O O8 0.018204 0.691277 0.324194
O O9 0.750000 0.573091 0.918063
O O10 0.988933 0.500000 0.878321
O O11 0.977467 0.624530 0.824487
O O12 0.000000 0.598749 0.000000
O O13 0.250000 0.708477 0.210685
O O14 0.981889 0.752972 0.166766
O O15 0.250000 0.904351 0.595961
O O16 0.000000 0.908156 0.500000
O O17 0.250000 0.188627 0.907381
O O18 0.500000 0.197913 0.000000
#
# Coordination Sequence:
#
# PCOD8211817 Si02
#       6
#     8   8   8   8   8   8
#     4  11  24  41  60  82 110 145 185 231 283 339
#     4  10  20  34  55  84 115 148 185 230 279 333
#     4   9  19  35  55  83 118 155 192 229 275 328
#     4  11  21  35  59  87 117 151 186 232 280 329
#     4  10  20  35  57  83 112 147 183 228 280 335
#     4  12  25  41  60  83 111 145 186 234 281 333
#
# _framework density 18.763895000000002
#
# number of rings (size 3 to 8) (size 9 to 14) (size 15 to 20)
#    0.000    1.500    1.667    4.000    0.000    6.000 
#    0.000    0.000    0.000    0.500    0.000    0.000 
#    0.000    0.000    0.000    0.000    0.000    0.000 
#
# Total GULP energy -595432.128721 kJ/mol
# GULP energy per Si atom -12404.836015 kJ/mol
# Density = 1.872119 g / cm^3
# Si number density = 18.763895 Si / 1000 Ang^3
#
#
#
# Elastic Constant Matrix: (Units=GPa)
#
#
# Indices 1 2 3 4 5 6 
#
# 1 119.0726 41.7600 50.4331 0.0000 0.0000 0.0000
# 2 41.7600 82.0978 49.3625 0.0000 0.0000 0.0000
# 3 50.4331 49.3625 132.9562 0.0000 0.0000 0.0000
# 4 0.0000 0.0000 0.0000 -17.2964 0.0000 0.0000
# 5 0.0000 0.0000 0.0000 0.0000 39.8841 0.0000
# 6 0.0000 0.0000 0.0000 0.0000 0.0000 12.1078
#
#
#
# Elastic Compliance Matrix: (Units=1/GPa)
#
#
# Indices 1 2 3 4 5 6 
#
# 1 0.010915 -0.003943 -0.002676 0.000000 0.000000 0.000000
# 2 -0.003943 0.017105 -0.004855 0.000000 0.000000 0.000000
# 3 -0.002676 -0.004855 0.010339 0.000000 0.000000 0.000000
# 4 0.000000 0.000000 0.000000 -0.057815 0.000000 0.000000
# 5 0.000000 0.000000 0.000000 0.000000 0.025073 0.000000
# 6 0.000000 0.000000 0.000000 0.000000 0.000000 0.082591
#
#
# Mechanical properties :
#
#
# Convention : Reuss Voigt Hill
#
# Bulk Modulus (GPa) = 64.89020 68.58196 66.73608
# Shear Modulus (GPa) = 42.99504 19.77716 31.38610
#
# Velocity S-wave (km/s) = 4.79202 3.25006 4.09428
# Velocity P-wave (km/s) = 8.07932 7.12132 7.61540
#
# Compressibility (1/GPa) = 0.01541065
#
# Stress axis : x y z
#
# Youngs Moduli (GPa) = 91.62111 58.46152 96.72086
#
# Poissons Ratio (x) = 0.23049 0.25886
# Poissons Ratio (y) = 0.36123 0.46959
# Poissons Ratio (z) = 0.24521 0.28384
#
# Static dielectric constant tensor:
#      x y z
#    x 3.566890 0.000000 0.000000 
#    y 0.000000 3.482920 0.000000 
#    z 0.000000 0.000000 3.461670 
# 
# 
# High freq. dielectric constant tensor:
#      x y z
#    x 1.743920 0.000000 0.000000 
#    y 0.000000 1.712850 0.000000 
#    z 0.000000 0.000000 1.734950 
# 
# From -- ./inp_files/21120.got.cif
#   From: 2010.03.12/outbox.cif.g09.slc.cpg/sg51_11_cif.got.tgz:21120.got - 2010.04.16 13:43:02.
