data_PCOD8211420
_publ_section_title
;
Structure prediction by ZEFSAII (Michael W. Deem and Ramdas Pophale) SiO2 
 PCOD8211420
Probable space group: P M M A
;
_chemical_formula_sum "Si O2"
_cell_formula_units_Z 48
_cell_length_a 8.988947
_cell_length_b 8.725959
_cell_length_c 31.170281
_cell_angle_alpha 90.000000
_cell_angle_beta 90.000000
_cell_angle_gamma 90.000000
_cell_volume 2444.909034
_symmetry_space_group_name_H-M "P M M A"
_symmetry_group_IT_number 51
_symmetry_cell_setting 'orthorhombic'
loop_
_space_group_symop_operation_xyz
x,y,z
1/2-x,-y,z
1/2+x,-y,-z
-x,y,-z
-x,-y,-z
1/2+x,y,-z
1/2-x,y,z
x,-y,z
loop_
_atom_site_type_symbol
_atom_site_label
_atom_site_fract_x
_atom_site_fract_y
_atom_site_fract_z
Si Si1 0.924896 0.677396 0.371798
Si Si2 0.417444 0.318287 0.788803
Si Si3 0.582543 0.317678 0.541852
Si Si4 0.582023 0.682725 0.873172
Si Si5 0.578922 0.178656 0.708515
Si Si6 0.582037 0.682752 0.042274
O O1 0.750000 0.702434 0.374839
O O2 0.964879 0.500000 0.363390
O O3 0.996406 0.737781 0.415883
O O4 0.989176 0.778694 0.333823
O O5 0.250000 0.252175 0.785399
O O6 0.412850 0.500000 0.790172
O O7 0.493432 0.253747 0.831975
O O8 0.513433 0.269137 0.748432
O O9 0.500000 0.250399 0.500000
O O10 0.750000 0.252852 0.543081
O O11 0.583339 0.500000 0.539673
O O12 0.750000 0.746056 0.871650
O O13 0.581970 0.500000 0.873317
O O14 0.502820 0.746031 0.915905
O O15 0.750000 0.226716 0.702350
O O16 0.561348 0.000000 0.717580
O O17 0.750000 0.745579 0.042715
O O18 0.581373 0.500000 0.042262
O O19 0.500000 0.746090 0.000000
#
# Coordination Sequence:
#
# PCOD8211420 Si02
#       6
#     8   8   8   8   8   8
#     4  10  20  34  54  80 107 136 172 211 251 298
#     4  10  20  34  53  76 100 128 165 208 253 302
#     4   9  16  27  46  74 107 139 170 207 249 291
#     4   9  16  26  41  62  89 122 159 199 244 293
#     4  11  24  39  54  74 101 133 169 209 254 304
#     4   9  15  22  33  52  82 120 159 197 239 290
#
# _framework density 19.632631
#
# number of rings (size 3 to 8) (size 9 to 14) (size 15 to 20)
#    0.000    2.333    0.000    3.500    0.000   11.333 
#    0.000    0.000    0.000    0.500    0.000    0.000 
#    0.000    0.667    0.000    2.500    0.000    5.500 
#
# Total GULP energy -595283.211369 kJ/mol
# GULP energy per Si atom -12401.733570 kJ/mol
# Density = 1.958795 g / cm^3
# Si number density = 19.632631 Si / 1000 Ang^3
#
#
#
# Elastic Constant Matrix: (Units=GPa)
#
#
# Indices 1 2 3 4 5 6 
#
# 1 145.8079 16.8474 67.4436 0.0000 0.0000 0.0000
# 2 16.8474 6.8926 8.2197 0.0000 0.0000 0.0000
# 3 67.4436 8.2197 169.0902 0.0000 0.0000 0.0000
# 4 0.0000 0.0000 0.0000 -5.3650 0.0000 0.0000
# 5 0.0000 0.0000 0.0000 0.0000 48.7719 0.0000
# 6 0.0000 0.0000 0.0000 0.0000 0.0000 14.4590
#
#
#
# Elastic Compliance Matrix: (Units=1/GPa)
#
#
# Indices 1 2 3 4 5 6 
#
# 1 0.011043 -0.023078 -0.003283 0.000000 0.000000 0.000000
# 2 -0.023078 0.202239 -0.000626 0.000000 0.000000 0.000000
# 3 -0.003283 -0.000626 0.007254 0.000000 0.000000 0.000000
# 4 0.000000 0.000000 0.000000 -0.186392 0.000000 0.000000
# 5 0.000000 0.000000 0.000000 0.000000 0.020504 0.000000
# 6 0.000000 0.000000 0.000000 0.000000 0.000000 0.069161
#
#
# Mechanical properties :
#
#
# Convention : Reuss Voigt Hill
#
# Bulk Modulus (GPa) = 6.00377 56.31246 31.15811
# Shear Modulus (GPa) = 21.43125 26.85849 24.14487
#
# Velocity S-wave (km/s) = 3.30754 3.70273 3.51070
# Velocity P-wave (km/s) = 4.20133 6.85753 5.68669
#
# Compressibility (1/GPa) = 0.16656196
#
# Stress axis : x y z
#
# Youngs Moduli (GPa) = 90.55149 4.94464 137.85720
#
# Poissons Ratio (x) = 0.11411 0.45258
# Poissons Ratio (y) = 2.08976 0.08632
# Poissons Ratio (z) = 0.29728 0.00310
#
# Static dielectric constant tensor:
#      x y z
#    x 3.882790 0.000000 0.000000 
#    y 0.000000 2.919170 0.000000 
#    z 0.000000 0.000000 3.816390 
# 
# 
# High freq. dielectric constant tensor:
#      x y z
#    x 1.787040 0.000000 0.000000 
#    y 0.000000 1.696100 0.000000 
#    z 0.000000 0.000000 1.785130 
# 
# From -- ./inp_files/36988.got.cif
#   From: 2010.03.12/outbox.cif.g09.slc.cpg/sg51_19_cif.got.tgz:36988.got - 2010.04.16 13:43:02.
