data_PCOD8211468
_publ_section_title
;
Structure prediction by ZEFSAII (Michael W. Deem and Ramdas Pophale) SiO2 
 PCOD8211468
Probable space group: P M M A
;
_chemical_formula_sum "Si O2"
_cell_formula_units_Z 48
_cell_length_a 8.971895
_cell_length_b 8.635461
_cell_length_c 30.948750
_cell_angle_alpha 90.000000
_cell_angle_beta 90.000000
_cell_angle_gamma 90.000000
_cell_volume 2397.799262
_symmetry_space_group_name_H-M "P M M A"
_symmetry_group_IT_number 51
_symmetry_cell_setting 'orthorhombic'
loop_
_space_group_symop_operation_xyz
x,y,z
1/2-x,-y,z
1/2+x,-y,-z
-x,y,-z
-x,-y,-z
1/2+x,y,-z
1/2-x,y,z
x,-y,z
loop_
_atom_site_type_symbol
_atom_site_label
_atom_site_fract_x
_atom_site_fract_y
_atom_site_fract_z
Si Si1 0.577647 0.820876 0.125579
Si Si2 0.418164 0.184739 0.372138
Si Si3 0.078805 0.320133 0.206523
Si Si4 0.916844 0.183027 0.287502
Si Si5 0.424296 0.678743 0.044810
Si Si6 0.081859 0.815338 0.542594
O O1 0.750000 0.777012 0.119856
O O2 0.509967 0.716794 0.163198
O O3 0.492883 0.786799 0.081347
O O4 0.557019 0.000000 0.137885
O O5 0.250000 0.248576 0.370909
O O6 0.505221 0.250496 0.330468
O O7 0.497602 0.248534 0.415168
O O8 0.418698 0.000000 0.372048
O O9 0.250000 0.271276 0.199893
O O10 0.062921 0.500000 0.217084
O O11 0.012504 0.225296 0.246028
O O12 0.750000 0.252461 0.283714
O O13 0.908484 0.000000 0.290863
O O14 0.250000 0.712047 0.041056
O O15 0.456746 0.500000 0.056300
O O16 0.500000 0.725818 0.000000
O O17 0.250000 0.751883 0.543000
O O18 0.000000 0.751030 0.500000
O O19 0.080736 0.000000 0.542516
#
# Coordination Sequence:
#
# PCOD8211468 Si02
#       6
#     8   8   8   8   8   8
#     4  11  24  40  59  85 115 147 184 225 270 320
#     4   9  16  26  41  62  90 126 166 208 257 311
#     4  11  24  40  58  81 108 139 177 220 267 320
#     4  10  20  34  53  77 104 135 173 216 263 317
#     4  10  21  38  61  88 117 151 190 229 271 319
#     4   9  15  22  33  52  82 121 164 208 254 307
#
# _framework density 20.018357000000002
#
# number of rings (size 3 to 8) (size 9 to 14) (size 15 to 20)
#    0.000    2.000    0.000    4.000    0.000   13.000 
#    0.000    0.000    0.000    0.000    0.000    0.000 
#    0.000    0.667    0.000    2.500    0.000    5.500 
#
# Total GULP energy -595378.583709 kJ/mol
# GULP energy per Si atom -12403.720494 kJ/mol
# Density = 1.997279 g / cm^3
# Si number density = 20.018357 Si / 1000 Ang^3
#
#
#
# Elastic Constant Matrix: (Units=GPa)
#
#
# Indices 1 2 3 4 5 6 
#
# 1 144.9946 25.9977 66.8358 0.0000 0.0000 0.0000
# 2 25.9977 14.5927 10.1615 0.0000 0.0000 0.0000
# 3 66.8358 10.1615 150.0085 0.0000 0.0000 0.0000
# 4 0.0000 0.0000 0.0000 13.8396 0.0000 0.0000
# 5 0.0000 0.0000 0.0000 0.0000 48.4180 0.0000
# 6 0.0000 0.0000 0.0000 0.0000 0.0000 14.3968
#
#
#
# Elastic Compliance Matrix: (Units=1/GPa)
#
#
# Indices 1 2 3 4 5 6 
#
# 1 0.012186 -0.018816 -0.004155 0.000000 0.000000 0.000000
# 2 -0.018816 0.100975 0.001544 0.000000 0.000000 0.000000
# 3 -0.004155 0.001544 0.008413 0.000000 0.000000 0.000000
# 4 0.000000 0.000000 0.000000 0.072257 0.000000 0.000000
# 5 0.000000 0.000000 0.000000 0.000000 0.020653 0.000000
# 6 0.000000 0.000000 0.000000 0.000000 0.000000 0.069460
#
#
# Mechanical properties :
#
#
# Convention : Reuss Voigt Hill
#
# Bulk Modulus (GPa) = 12.70351 57.28732 34.99541
# Shear Modulus (GPa) = 14.16278 29.10426 21.63352
#
# Velocity S-wave (km/s) = 2.66275 3.81711 3.29094
# Velocity P-wave (km/s) = 3.97660 6.93590 5.65332
#
# Compressibility (1/GPa) = 0.07871840
#
# Stress axis : x y z
#
# Youngs Moduli (GPa) = 82.06306 9.90346 118.86590
#
# Poissons Ratio (x) = 0.18635 0.49385
# Poissons Ratio (y) = 1.54414 -0.18349
# Poissons Ratio (z) = 0.34095 -0.01529
#
# Static dielectric constant tensor:
#      x y z
#    x 3.898020 0.000000 0.000000 
#    y 0.000000 3.165010 0.000000 
#    z 0.000000 0.000000 4.035080 
# 
# 
# High freq. dielectric constant tensor:
#      x y z
#    x 1.802910 0.000000 0.000000 
#    y 0.000000 1.734030 0.000000 
#    z 0.000000 0.000000 1.798450 
# 
# From -- ./inp_files/36888.got.cif
#   From: 2010.03.12/outbox.cif.g09.slc.cpg/sg51_19_cif.got.tgz:36888.got - 2010.04.16 13:43:02.
