data_PCOD8211138
_publ_section_title
;
Structure prediction by ZEFSAII (Michael W. Deem and Ramdas Pophale) SiO2 
 PCOD8211138
Probable space group: P M M A
;
_chemical_formula_sum "Si O2"
_cell_formula_units_Z 48
_cell_length_a 15.029760
_cell_length_b 9.004636
_cell_length_c 18.281442
_cell_angle_alpha 90.000000
_cell_angle_beta 90.000000
_cell_angle_gamma 90.000000
_cell_volume 2474.164985
_symmetry_space_group_name_H-M "P M M A"
_symmetry_group_IT_number 51
_symmetry_cell_setting 'orthorhombic'
loop_
_space_group_symop_operation_xyz
x,y,z
1/2-x,-y,z
1/2+x,-y,-z
-x,y,-z
-x,-y,-z
1/2+x,y,-z
1/2-x,y,z
x,-y,z
loop_
_atom_site_type_symbol
_atom_site_label
_atom_site_fract_x
_atom_site_fract_y
_atom_site_fract_z
Si Si1 0.597509 0.662380 0.532238
Si Si2 0.489873 0.675629 0.323430
Si Si3 0.986439 0.825033 0.827151
Si Si4 0.349862 0.831129 0.601782
Si Si5 0.351485 0.671440 0.897687
Si Si6 0.852396 0.670213 0.932464
O O1 0.500000 0.645703 0.500000
O O2 0.644317 0.500000 0.530212
O O3 0.585420 0.717152 0.616100
O O4 0.652096 0.777716 0.483026
O O5 0.497210 0.500000 0.313064
O O6 0.458316 0.751194 0.249017
O O7 0.587164 0.732896 0.347212
O O8 0.914534 0.779639 0.887423
O O9 0.085019 0.773409 0.849304
O O10 0.986663 0.000000 0.817924
O O11 0.250000 0.818530 0.632959
O O12 0.384169 0.000000 0.603439
O O13 0.250000 0.711312 0.877705
O O14 0.371473 0.500000 0.879805
O O15 0.369594 0.703131 0.982659
O O16 0.750000 0.701283 0.912196
O O17 0.877350 0.500000 0.914381
#
# Coordination Sequence:
#
# PCOD8211138 Si02
#       6
#     8   8   8   8   8   8
#     4   8  16  32  53  74  94 124 169 211 246 293
#     4  10  21  37  55  74 101 140 182 221 261 311
#     4  12  24  35  53  83 117 150 181 223 283 340
#     4  10  20  33  52  80 110 137 167 209 264 322
#     4   9  19  37  60  83 108 144 189 231 271 323
#     4   9  19  38  62  83 105 140 188 235 274 322
#
# _framework density 19.400486000000001
#
# number of rings (size 3 to 8) (size 9 to 14) (size 15 to 20)
#    0.000    2.333    0.000    5.000    0.000    9.000 
#    0.000    2.500    0.000    1.000    0.000    0.000 
#    0.000    0.000    0.000    0.000    0.000    0.000 
#
# Total GULP energy -595161.924959 kJ/mol
# GULP energy per Si atom -12399.206770 kJ/mol
# Density = 1.935633 g / cm^3
# Si number density = 19.400486 Si / 1000 Ang^3
#
#
#
# Elastic Constant Matrix: (Units=GPa)
#
#
# Indices 1 2 3 4 5 6 
#
# 1 40.4073 14.3887 4.8279 0.0000 0.0000 0.0000
# 2 14.3887 98.5713 26.3311 0.0000 0.0000 0.0000
# 3 4.8279 26.3311 67.7212 0.0000 0.0000 0.0000
# 4 0.0000 0.0000 0.0000 10.4556 0.0000 0.0000
# 5 0.0000 0.0000 0.0000 0.0000 16.5935 0.0000
# 6 0.0000 0.0000 0.0000 0.0000 0.0000 23.0844
#
#
#
# Elastic Compliance Matrix: (Units=1/GPa)
#
#
# Indices 1 2 3 4 5 6 
#
# 1 0.026116 -0.003699 -0.000424 0.000000 0.000000 0.000000
# 2 -0.003699 0.011845 -0.004342 0.000000 0.000000 0.000000
# 3 -0.000424 -0.004342 0.016485 0.000000 0.000000 0.000000
# 4 0.000000 0.000000 0.000000 0.095643 0.000000 0.000000
# 5 0.000000 0.000000 0.000000 0.000000 0.060264 0.000000
# 6 0.000000 0.000000 0.000000 0.000000 0.000000 0.043319
#
#
# Mechanical properties :
#
#
# Convention : Reuss Voigt Hill
#
# Bulk Modulus (GPa) = 26.65488 33.08837 29.87163
# Shear Modulus (GPa) = 17.66124 20.77018 19.21571
#
# Velocity S-wave (km/s) = 3.02047 3.27555 3.15060
# Velocity P-wave (km/s) = 5.09249 5.60340 5.35404
#
# Compressibility (1/GPa) = 0.03751658
#
# Stress axis : x y z
#
# Youngs Moduli (GPa) = 38.29104 84.42609 60.66213
#
# Poissons Ratio (x) = 0.31229 0.02570
# Poissons Ratio (y) = 0.14164 0.26338
# Poissons Ratio (z) = 0.01622 0.36655
#
# Static dielectric constant tensor:
#      x y z
#    x 3.400700 0.000000 0.000000 
#    y 0.000000 3.489980 0.000000 
#    z 0.000000 0.000000 3.731640 
# 
# 
# High freq. dielectric constant tensor:
#      x y z
#    x 1.742850 0.000000 0.000000 
#    y 0.000000 1.752420 0.000000 
#    z 0.000000 0.000000 1.754360 
# 
# From -- ./inp_files/29423.got.cif
#   From: 2010.03.12/outbox.cif.g09.slc.cpg/sg51_15_cif.got.tgz:29423.got - 2010.04.16 13:43:02.
