data_PCOD8211179
_publ_section_title
;
Structure prediction by ZEFSAII (Michael W. Deem and Ramdas Pophale) SiO2 
 PCOD8211179
Probable space group: P M M A
;
_chemical_formula_sum "Si O2"
_cell_formula_units_Z 64
_cell_length_a 30.906001
_cell_length_b 8.957658
_cell_length_c 12.052197
_cell_angle_alpha 90.000000
_cell_angle_beta 90.000000
_cell_angle_gamma 90.000000
_cell_volume 3336.595144
_symmetry_space_group_name_H-M "P M M A"
_symmetry_group_IT_number 51
_symmetry_cell_setting 'orthorhombic'
loop_
_space_group_symop_operation_xyz
x,y,z
1/2-x,-y,z
1/2+x,-y,-z
-x,y,-z
-x,-y,-z
1/2+x,y,-z
1/2-x,y,z
x,-y,z
loop_
_atom_site_type_symbol
_atom_site_label
_atom_site_fract_x
_atom_site_fract_y
_atom_site_fract_z
Si Si1 0.451408 0.324113 0.512028
Si Si2 0.884765 0.176067 0.861982
Si Si3 0.200274 0.172775 0.508673
Si Si4 0.443314 0.325075 0.759456
Si Si5 0.134440 0.675552 0.912854
Si Si6 0.699982 0.832435 0.235383
Si Si7 0.371984 0.322935 0.366370
Si Si8 0.483823 0.175089 0.117811
O O1 0.500000 0.254665 0.500000
O O2 0.455028 0.500000 0.496127
O O3 0.431853 0.283489 0.632757
O O4 0.416894 0.262065 0.421881
O O5 0.864505 0.248257 0.752693
O O6 0.934666 0.222299 0.866553
O O7 0.877571 0.000000 0.859143
O O8 0.861498 0.241356 0.970172
O O9 0.250000 0.206590 0.476215
O O10 0.192453 0.210788 0.637123
O O11 0.169156 0.279540 0.439694
O O12 0.189411 0.000000 0.484387
O O13 0.448565 0.500000 0.774105
O O14 0.406747 0.263567 0.842891
O O15 0.489328 0.251622 0.784899
O O16 0.131408 0.500000 0.933460
O O17 0.176602 0.712535 0.841736
O O18 0.750000 0.824614 0.204808
O O19 0.682395 0.000000 0.212805
O O20 0.373389 0.500000 0.353680
O O21 0.491168 0.000000 0.125569
O O22 0.500000 0.237826 0.000000
#
# Coordination Sequence:
#
# PCOD8211179 Si02
#       8
#     8   8   8   8   8   8   8   8
#     4   9  18  33  52  77 112 150 184 224 276 334
#     4  11  23  39  57  77 110 152 194 237 283 338
#     4   9  19  38  63  89 117 150 188 229 280 345
#     4  10  20  33  53  80 109 143 184 227 275 331
#     4  11  22  35  54  83 114 144 185 231 280 333
#     4   9  19  37  61  87 115 148 183 222 274 335
#     4  11  22  37  59  85 116 151 192 241 291 340
#     4  10  20  35  53  76 107 145 190 235 278 323
#
# _framework density 19.181228999999998
#
# number of rings (size 3 to 8) (size 9 to 14) (size 15 to 20)
#    0.000    2.000    1.250    3.375    0.000    4.750 
#    0.000    3.125    0.000    7.125    0.000    0.000 
#    0.000    0.000    0.000    0.000    0.000    0.000 
#
# Total GULP energy -793718.650261 kJ/mol
# GULP energy per Si atom -12401.853910 kJ/mol
# Density = 1.913757 g / cm^3
# Si number density = 19.181229 Si / 1000 Ang^3
#
#
#
# Elastic Constant Matrix: (Units=GPa)
#
#
# Indices 1 2 3 4 5 6 
#
# 1 88.3554 33.3749 51.7578 0.0000 0.0000 0.0000
# 2 33.3749 52.6482 35.9213 0.0000 0.0000 0.0000
# 3 51.7578 35.9213 107.7013 0.0000 0.0000 0.0000
# 4 0.0000 0.0000 0.0000 27.6249 0.0000 0.0000
# 5 0.0000 0.0000 0.0000 0.0000 32.9927 0.0000
# 6 0.0000 0.0000 0.0000 0.0000 0.0000 30.9789
#
#
#
# Elastic Compliance Matrix: (Units=1/GPa)
#
#
# Indices 1 2 3 4 5 6 
#
# 1 0.017514 -0.006939 -0.006102 0.000000 0.000000 0.000000
# 2 -0.006939 0.027339 -0.005784 0.000000 0.000000 0.000000
# 3 -0.006102 -0.005784 0.014146 0.000000 0.000000 0.000000
# 4 0.000000 0.000000 0.000000 0.036199 0.000000 0.000000
# 5 0.000000 0.000000 0.000000 0.000000 0.030310 0.000000
# 6 0.000000 0.000000 0.000000 0.000000 0.000000 0.032280
#
#
# Mechanical properties :
#
#
# Convention : Reuss Voigt Hill
#
# Bulk Modulus (GPa) = 46.83941 54.53475 50.68708
# Shear Modulus (GPa) = 24.68484 26.82937 25.75711
#
# Velocity S-wave (km/s) = 3.59127 3.74402 3.66844
# Velocity P-wave (km/s) = 6.45513 6.86901 6.66528
#
# Compressibility (1/GPa) = 0.02134954
#
# Stress axis : x y z
#
# Youngs Moduli (GPa) = 57.09866 36.57811 70.68913
#
# Poissons Ratio (x) = 0.25381 0.43136
# Poissons Ratio (y) = 0.39619 0.40884
# Poissons Ratio (z) = 0.34843 0.21155
#
# Static dielectric constant tensor:
#      x y z
#    x 3.461960 0.000000 0.000000 
#    y 0.000000 3.308390 0.000000 
#    z 0.000000 0.000000 3.570610 
# 
# 
# High freq. dielectric constant tensor:
#      x y z
#    x 1.741050 0.000000 0.000000 
#    y 0.000000 1.731530 0.000000 
#    z 0.000000 0.000000 1.753140 
# 
# From -- ./inp_files/19536.got.cif
#   From: 2010.03.12/outbox.cif.g09.slc.cpg/sg51_10_cif.got.tgz:19536.got - 2010.04.16 13:43:02.
