data_PCOD8211941
_publ_section_title
;
Structure prediction by ZEFSAII (Michael W. Deem and Ramdas Pophale) SiO2 
 PCOD8211941
Probable space group: P M M A
;
_chemical_formula_sum "Si O2"
_cell_formula_units_Z 48
_cell_length_a 8.681885
_cell_length_b 29.196581
_cell_length_c 10.219998
_cell_angle_alpha 90.000000
_cell_angle_beta 90.000000
_cell_angle_gamma 90.000000
_cell_volume 2590.578978
_symmetry_space_group_name_H-M "P M M A"
_symmetry_group_IT_number 51
_symmetry_cell_setting 'orthorhombic'
loop_
_space_group_symop_operation_xyz
x,y,z
1/2-x,-y,z
1/2+x,-y,-z
-x,y,-z
-x,-y,-z
1/2+x,y,-z
1/2-x,y,z
x,-y,z
loop_
_atom_site_type_symbol
_atom_site_label
_atom_site_fract_x
_atom_site_fract_y
_atom_site_fract_z
Si Si1 0.433161 0.788859 0.138933
Si Si2 0.932327 0.113065 0.138842
Si Si3 0.932312 0.617132 0.636046
Si Si4 0.068283 0.720820 0.363967
Si Si5 0.927158 0.054078 0.636440
Si Si6 0.567826 0.448113 0.863701
O O1 0.250000 0.791452 0.130059
O O2 0.498166 0.838123 0.179862
O O3 0.491013 0.752567 0.246328
O O4 0.500000 0.772807 0.000000
O O5 0.750000 0.117128 0.126871
O O6 0.977145 0.076063 0.246543
O O7 0.000000 0.096785 0.000000
O O8 0.750000 0.614332 0.628623
O O9 0.988560 0.669007 0.663341
O O10 0.997485 0.584597 0.750120
O O11 0.000000 0.598832 0.500000
O O12 0.250000 0.723021 0.375144
O O13 0.000000 0.739415 0.500000
O O14 0.750000 0.069958 0.641975
O O15 0.000000 0.070765 0.500000
O O16 0.942983 0.000000 0.651635
O O17 0.750000 0.445110 0.871788
O O18 0.512738 0.500000 0.835224
O O19 0.500000 0.430162 0.000000
#
# Coordination Sequence:
#
# PCOD8211941 Si02
#       6
#     8   8   8   8   8   8
#     4  10  20  35  53  75 103 133 169 211 256 305
#     4  11  22  37  57  80 108 141 177 217 261 308
#     4   9  18  33  50  71  99 129 164 205 250 298
#     4   9  19  34  52  73  99 131 166 207 251 300
#     4  10  21  38  59  83 111 142 177 217 260 307
#     4   9  18  32  49  70  98 130 164 204 248 296
#
# _framework density 18.528676999999998
#
# number of rings (size 3 to 8) (size 9 to 14) (size 15 to 20)
#    0.000    2.333    0.000    3.500    0.000    5.000 
#    0.000    1.667    0.000    0.000    0.000    0.000 
#    0.000    0.000    0.000    0.000    0.000    0.000 
#
# Total GULP energy -595315.180030 kJ/mol
# GULP energy per Si atom -12402.399584 kJ/mol
# Density = 1.848650 g / cm^3
# Si number density = 18.528677 Si / 1000 Ang^3
#
#
#
# Elastic Constant Matrix: (Units=GPa)
#
#
# Indices 1 2 3 4 5 6 
#
# 1 66.6496 28.7126 42.2631 0.0000 0.0000 0.0000
# 2 28.7126 68.5439 75.8239 0.0000 0.0000 0.0000
# 3 42.2631 75.8239 158.5319 0.0000 0.0000 0.0000
# 4 0.0000 0.0000 0.0000 38.9588 0.0000 0.0000
# 5 0.0000 0.0000 0.0000 0.0000 35.7050 0.0000
# 6 0.0000 0.0000 0.0000 0.0000 0.0000 13.7762
#
#
#
# Elastic Compliance Matrix: (Units=1/GPa)
#
#
# Indices 1 2 3 4 5 6 
#
# 1 0.018816 -0.004954 -0.002647 0.000000 0.000000 0.000000
# 2 -0.004954 0.032285 -0.014121 0.000000 0.000000 0.000000
# 3 -0.002647 -0.014121 0.013767 0.000000 0.000000 0.000000
# 4 0.000000 0.000000 0.000000 0.025668 0.000000 0.000000
# 5 0.000000 0.000000 0.000000 0.000000 0.028007 0.000000
# 6 0.000000 0.000000 0.000000 0.000000 0.000000 0.072589
#
#
# Mechanical properties :
#
#
# Convention : Reuss Voigt Hill
#
# Bulk Modulus (GPa) = 46.67396 65.25831 55.96614
# Shear Modulus (GPa) = 20.68522 27.48305 24.08414
#
# Velocity S-wave (km/s) = 3.34487 3.85550 3.60923
# Velocity P-wave (km/s) = 6.33737 7.42405 6.90213
#
# Compressibility (1/GPa) = 0.02142522
#
# Stress axis : x y z
#
# Youngs Moduli (GPa) = 53.14497 30.97407 72.63600
#
# Poissons Ratio (x) = 0.15345 0.19225
# Poissons Ratio (y) = 0.26329 1.02568
# Poissons Ratio (z) = 0.14066 0.43738
#
# Static dielectric constant tensor:
#      x y z
#    x 3.329060 0.000000 0.000000 
#    y 0.000000 3.507770 0.000000 
#    z 0.000000 0.000000 3.546410 
# 
# 
# High freq. dielectric constant tensor:
#      x y z
#    x 1.720990 0.000000 0.000000 
#    y 0.000000 1.714750 0.000000 
#    z 0.000000 0.000000 1.728030 
# 
# From -- ./inp_files/5938.got.cif
#   From: 2010.03.12/outbox.cif.g09.slc.cpg/sg51_3_cif.got.tgz:5938.got - 2010.04.16 13:43:02.
