data_PCOD8211252
_publ_section_title
;
Structure prediction by ZEFSAII (Michael W. Deem and Ramdas Pophale) SiO2 
 PCOD8211252
Probable space group: P M M A
;
_chemical_formula_sum "Si O2"
_cell_formula_units_Z 56
_cell_length_a 17.714952
_cell_length_b 9.094927
_cell_length_c 19.279508
_cell_angle_alpha 90.000000
_cell_angle_beta 90.000000
_cell_angle_gamma 90.000000
_cell_volume 3106.240975
_symmetry_space_group_name_H-M "P M M A"
_symmetry_group_IT_number 51
_symmetry_cell_setting 'orthorhombic'
loop_
_space_group_symop_operation_xyz
x,y,z
1/2-x,-y,z
1/2+x,-y,-z
-x,y,-z
-x,-y,-z
1/2+x,y,-z
1/2-x,y,z
x,-y,z
loop_
_atom_site_type_symbol
_atom_site_label
_atom_site_fract_x
_atom_site_fract_y
_atom_site_fract_z
Si Si1 0.164259 0.326695 0.164340
Si Si2 0.528639 0.673308 0.343181
Si Si3 0.046441 0.173016 0.934238
Si Si4 0.430426 0.164947 0.448487
Si Si5 0.837009 0.662110 0.992394
Si Si6 0.022309 0.825153 0.210393
Si Si7 0.836524 0.329376 0.444729
O O1 0.250000 0.289735 0.186907
O O2 0.149304 0.500000 0.171360
O O3 0.150382 0.273773 0.085140
O O4 0.107800 0.236844 0.214234
O O5 0.518241 0.500000 0.333849
O O6 0.455668 0.735343 0.383905
O O7 0.530102 0.753769 0.269301
O O8 0.607891 0.711379 0.381065
O O9 0.013026 0.229863 0.862069
O O10 0.048923 0.000000 0.933819
O O11 0.129861 0.234801 0.947256
O O12 0.000000 0.234780 0.000000
O O13 0.500000 0.158492 0.500000
O O14 0.358735 0.237201 0.486926
O O15 0.408973 0.000000 0.423634
O O16 0.750000 0.651852 0.009115
O O17 0.873464 0.500000 0.997026
O O18 0.023060 0.000000 0.218737
O O19 0.750000 0.292398 0.423877
O O20 0.846180 0.500000 0.463766
#
# Coordination Sequence:
#
# PCOD8211252 Si02
#       7
#     8   8   8   8   8   8   8
#     4   9  18  33  52  74  99 127 164 212 267 325
#     4  10  20  35  55  78 108 146 182 216 262 314
#     4  10  20  34  50  73 102 135 176 221 269 324
#     4   9  17  31  53  80 108 136 169 209 251 298
#     4   9  18  32  51  75  99 125 164 217 271 320
#     4  11  22  35  52  75 106 141 180 223 268 320
#     4   9  18  34  57  84 111 141 178 217 257 305
#
# _framework density 18.028220999999998
#
# number of rings (size 3 to 8) (size 9 to 14) (size 15 to 20)
#    0.000    2.429    1.429    2.143    0.000    4.571 
#    0.000    2.857    0.000    6.857    0.000    0.000 
#    0.000    0.000    0.000    0.000    0.000    0.000 
#
# Total GULP energy -694269.761608 kJ/mol
# GULP energy per Si atom -12397.674314 kJ/mol
# Density = 1.798719 g / cm^3
# Si number density = 18.028221 Si / 1000 Ang^3
#
#
#
# Elastic Constant Matrix: (Units=GPa)
#
#
# Indices 1 2 3 4 5 6 
#
# 1 95.6556 41.6827 49.0758 0.0000 0.0000 0.0000
# 2 41.6827 67.6642 47.3502 0.0000 0.0000 0.0000
# 3 49.0758 47.3502 100.2169 0.0000 0.0000 0.0000
# 4 0.0000 0.0000 0.0000 32.2114 0.0000 0.0000
# 5 0.0000 0.0000 0.0000 0.0000 24.4641 0.0000
# 6 0.0000 0.0000 0.0000 0.0000 0.0000 25.8410
#
#
#
# Elastic Compliance Matrix: (Units=1/GPa)
#
#
# Indices 1 2 3 4 5 6 
#
# 1 0.015608 -0.006374 -0.004632 0.000000 0.000000 0.000000
# 2 -0.006374 0.024681 -0.008540 0.000000 0.000000 0.000000
# 3 -0.004632 -0.008540 0.016282 0.000000 0.000000 0.000000
# 4 0.000000 0.000000 0.000000 0.031045 0.000000 0.000000
# 5 0.000000 0.000000 0.000000 0.000000 0.040876 0.000000
# 6 0.000000 0.000000 0.000000 0.000000 0.000000 0.038698
#
#
# Mechanical properties :
#
#
# Convention : Reuss Voigt Hill
#
# Bulk Modulus (GPa) = 57.20933 59.97268 58.59101
# Shear Modulus (GPa) = 23.57289 24.86516 24.21903
#
# Velocity S-wave (km/s) = 3.61994 3.71783 3.66921
# Velocity P-wave (km/s) = 7.01955 7.19499 7.10781
#
# Compressibility (1/GPa) = 0.01747967
#
# Stress axis : x y z
#
# Youngs Moduli (GPa) = 64.07058 40.51618 61.41908
#
# Poissons Ratio (x) = 0.25823 0.28447
# Poissons Ratio (y) = 0.40836 0.52454
# Poissons Ratio (z) = 0.29676 0.34602
#
# Static dielectric constant tensor:
#      x y z
#    x 3.287460 0.000000 0.000000 
#    y 0.000000 3.340620 0.000000 
#    z 0.000000 0.000000 3.279340 
# 
# 
# High freq. dielectric constant tensor:
#      x y z
#    x 1.689100 0.000000 0.000000 
#    y 0.000000 1.701910 0.000000 
#    z 0.000000 0.000000 1.679880 
# 
# From -- ./inp_files/33715.got.cif
#   From: 2010.03.12/outbox.cif.g09.slc.cpg/sg51_17_cif.got.tgz:33715.got - 2010.04.16 13:43:02.
