data_PCOD8211492
_publ_section_title
;
Structure prediction by ZEFSAII (Michael W. Deem and Ramdas Pophale) SiO2 
 PCOD8211492
Probable space group: P M M A
;
_chemical_formula_sum "Si O2"
_cell_formula_units_Z 64
_cell_length_a 9.256981
_cell_length_b 15.040077
_cell_length_c 23.501195
_cell_angle_alpha 90.000000
_cell_angle_beta 90.000000
_cell_angle_gamma 90.000000
_cell_volume 3271.970490
_symmetry_space_group_name_H-M "P M M A"
_symmetry_group_IT_number 51
_symmetry_cell_setting 'orthorhombic'
loop_
_space_group_symop_operation_xyz
x,y,z
1/2-x,-y,z
1/2+x,-y,-z
-x,y,-z
-x,-y,-z
1/2+x,y,-z
1/2-x,y,z
x,-y,z
loop_
_atom_site_type_symbol
_atom_site_label
_atom_site_fract_x
_atom_site_fract_y
_atom_site_fract_z
Si Si1 0.579918 0.600880 0.059512
Si Si2 0.910505 0.896155 0.446911
Si Si3 0.589882 0.404023 0.754766
Si Si4 0.418778 0.726702 0.145753
Si Si5 0.914641 0.602369 0.556796
Si Si6 0.587800 0.857668 0.321468
Si Si7 0.410445 0.658014 0.658253
Si Si8 0.416587 0.099418 0.209461
O O1 0.750000 0.618223 0.051690
O O2 0.554269 0.500000 0.084050
O O3 0.515815 0.680770 0.097602
O O4 0.500000 0.608861 0.000000
O O5 0.750000 0.852636 0.447588
O O6 0.980078 0.879211 0.384132
O O7 0.000000 0.853420 0.500000
O O8 0.899111 0.000000 0.458102
O O9 0.750000 0.385500 0.729858
O O10 0.585227 0.500000 0.785879
O O11 0.547289 0.328061 0.797958
O O12 0.478295 0.409554 0.703173
O O13 0.250000 0.721977 0.127862
O O14 0.467791 0.828130 0.161729
O O15 0.750000 0.631870 0.548608
O O16 0.926665 0.500000 0.576061
O O17 0.000000 0.620217 0.500000
O O18 0.990092 0.664290 0.603025
O O19 0.750000 0.897973 0.318888
O O20 0.592200 0.752971 0.311767
O O21 0.497022 0.898357 0.269949
O O22 0.250000 0.625185 0.641716
O O23 0.250000 0.119850 0.223091
O O24 0.437825 0.000000 0.183712
#
# Coordination Sequence:
#
# PCOD8211492 Si02
#       8
#     8   8   8   8   8   8   8   8
#     4  10  21  37  60  92 129 167 205 242 283 333
#     4   9  18  33  51  70  93 123 162 211 270 335
#     4  10  20  34  53  77 107 147 188 224 274 337
#     4  10  20  36  58  85 120 157 196 241 287 336
#     4  10  21  37  55  72  93 127 173 223 277 339
#     4  10  21  36  53  75 105 140 180 227 282 346
#     4  11  22  34  50  74 104 135 174 224 277 334
#     4  10  21  37  59  86 114 149 195 244 294 346
#
# _framework density 19.560079000000002
#
# number of rings (size 3 to 8) (size 9 to 14) (size 15 to 20)
#    0.000    2.000    1.250    2.250    0.000    7.000 
#    0.000    2.500    0.000    0.375    0.000    0.000 
#    0.000    0.000    0.000    0.000    0.000    0.000 
#
# Total GULP energy -793230.039054 kJ/mol
# GULP energy per Si atom -12394.219360 kJ/mol
# Density = 1.951556 g / cm^3
# Si number density = 19.560079 Si / 1000 Ang^3
#
#
#
# Elastic Constant Matrix: (Units=GPa)
#
#
# Indices 1 2 3 4 5 6 
#
# 1 113.0970 38.7993 61.0980 0.0000 0.0000 0.0000
# 2 38.7993 100.7060 48.4658 0.0000 0.0000 0.0000
# 3 61.0980 48.4658 91.1432 0.0000 0.0000 0.0000
# 4 0.0000 0.0000 0.0000 29.2146 0.0000 0.0000
# 5 0.0000 0.0000 0.0000 0.0000 33.3614 0.0000
# 6 0.0000 0.0000 0.0000 0.0000 0.0000 23.1523
#
#
#
# Elastic Compliance Matrix: (Units=1/GPa)
#
#
# Indices 1 2 3 4 5 6 
#
# 1 0.013965 -0.001176 -0.008736 0.000000 0.000000 0.000000
# 2 -0.001176 0.013444 -0.006361 0.000000 0.000000 0.000000
# 3 -0.008736 -0.006361 0.020210 0.000000 0.000000 0.000000
# 4 0.000000 0.000000 0.000000 0.034229 0.000000 0.000000
# 5 0.000000 0.000000 0.000000 0.000000 0.029975 0.000000
# 6 0.000000 0.000000 0.000000 0.000000 0.000000 0.043192
#
#
# Mechanical properties :
#
#
# Convention : Reuss Voigt Hill
#
# Bulk Modulus (GPa) = 66.33982 66.85251 66.59617
# Shear Modulus (GPa) = 25.96248 27.58453 26.77350
#
# Velocity S-wave (km/s) = 3.64719 3.75940 3.70372
# Velocity P-wave (km/s) = 7.19205 7.28672 7.23954
#
# Compressibility (1/GPa) = 0.01507390
#
# Stress axis : x y z
#
# Youngs Moduli (GPa) = 71.60846 74.38213 49.47985
#
# Poissons Ratio (x) = 0.08747 0.43226
# Poissons Ratio (y) = 0.08421 0.31472
# Poissons Ratio (z) = 0.62557 0.47312
#
# Static dielectric constant tensor:
#      x y z
#    x 3.649870 0.000000 0.000000 
#    y 0.000000 3.686370 0.000000 
#    z 0.000000 0.000000 3.381640 
# 
# 
# High freq. dielectric constant tensor:
#      x y z
#    x 1.761020 0.000000 0.000000 
#    y 0.000000 1.763020 0.000000 
#    z 0.000000 0.000000 1.737970 
# 
# From -- ./inp_files/34902.got.cif
#   From: 2010.03.12/outbox.cif.g09.slc.cpg/sg51_18_cif.got.tgz:34902.got - 2010.04.16 13:43:02.
