data_PCOD8211117
_publ_section_title
;
Structure prediction by ZEFSAII (Michael W. Deem and Ramdas Pophale) SiO2 
 PCOD8211117
Probable space group: P M M A
;
_chemical_formula_sum "Si O2"
_cell_formula_units_Z 52
_cell_length_a 9.302637
_cell_length_b 19.811991
_cell_length_c 14.650607
_cell_angle_alpha 90.000000
_cell_angle_beta 90.000000
_cell_angle_gamma 90.000000
_cell_volume 2700.161964
_symmetry_space_group_name_H-M "P M M A"
_symmetry_group_IT_number 51
_symmetry_cell_setting 'orthorhombic'
loop_
_space_group_symop_operation_xyz
x,y,z
1/2-x,-y,z
1/2+x,-y,-z
-x,y,-z
-x,-y,-z
1/2+x,y,-z
1/2-x,y,z
x,-y,z
loop_
_atom_site_type_symbol
_atom_site_label
_atom_site_fract_x
_atom_site_fract_y
_atom_site_fract_z
Si Si1 0.417603 0.130407 0.787129
Si Si2 0.417744 0.679017 0.588889
Si Si3 0.584598 0.615276 0.911176
Si Si4 0.415806 0.773748 0.089501
Si Si5 0.413538 0.575207 0.740782
Si Si6 0.415588 0.166228 0.588521
Si Si7 0.082115 0.000000 0.904000
O O1 0.250000 0.148591 0.800559
O O2 0.513929 0.191690 0.822769
O O3 0.450586 0.121816 0.678805
O O4 0.461549 0.063820 0.842536
O O5 0.500000 0.653815 0.500000
O O6 0.250000 0.669786 0.570944
O O7 0.470450 0.630866 0.670084
O O8 0.457915 0.756437 0.611440
O O9 0.750000 0.594653 0.921950
O O10 0.565768 0.694714 0.896116
O O11 0.517054 0.576100 0.827099
O O12 0.500000 0.590913 0.000000
O O13 0.250000 0.795220 0.079166
O O14 0.500000 0.799328 0.000000
O O15 0.250000 0.592521 0.770500
O O16 0.421186 0.500000 0.697692
O O17 0.500000 0.138573 0.500000
O O18 0.250000 0.160669 0.561904
O O19 0.250000 0.000000 0.926824
O O20 0.000000 0.000000 0.000000
#
# Coordination Sequence:
#
# PCOD8211117 Si02
#       7
#     8   8   8   8   8   8   4
#     4  10  20  35  55  78 107 144 180 216 260 308
#     4   9  18  33  53  77 104 134 169 212 262 312
#     4  10  21  36  54  76 102 133 171 217 267 317
#     4  10  20  33  52  79 106 133 170 217 266 316
#     4  10  21  36  53  74 102 137 176 216 259 311
#     4   9  18  33  54  78 104 135 172 216 264 310
#     4  10  22  38  55  78 110 146 183 218 255 306
#
# _framework density 19.258105
#
# number of rings (size 3 to 8) (size 9 to 14) (size 15 to 20)
#    0.000    2.308    0.000    2.308    0.000    7.077 
#    0.000    3.462    0.000    0.000    0.000    0.000 
#    0.000    0.000    0.000    0.000    0.000    0.000 
#
# Total GULP energy -644891.903757 kJ/mol
# GULP energy per Si atom -12401.767380 kJ/mol
# Density = 1.921427 g / cm^3
# Si number density = 19.258105 Si / 1000 Ang^3
#
#
#
# Elastic Constant Matrix: (Units=GPa)
#
#
# Indices 1 2 3 4 5 6 
#
# 1 78.0006 29.3473 56.1514 0.0000 0.0000 0.0000
# 2 29.3473 54.8013 48.7165 0.0000 0.0000 0.0000
# 3 56.1514 48.7165 145.7009 0.0000 0.0000 0.0000
# 4 0.0000 0.0000 0.0000 23.3842 0.0000 0.0000
# 5 0.0000 0.0000 0.0000 0.0000 40.0108 0.0000
# 6 0.0000 0.0000 0.0000 0.0000 0.0000 -5.9147
#
#
#
# Elastic Compliance Matrix: (Units=1/GPa)
#
#
# Indices 1 2 3 4 5 6 
#
# 1 0.018706 -0.005135 -0.005492 0.000000 0.000000 0.000000
# 2 -0.005135 0.027375 -0.007174 0.000000 0.000000 0.000000
# 3 -0.005492 -0.007174 0.011379 0.000000 0.000000 0.000000
# 4 0.000000 0.000000 0.000000 0.042764 0.000000 0.000000
# 5 0.000000 0.000000 0.000000 0.000000 0.024993 0.000000
# 6 0.000000 0.000000 0.000000 0.000000 0.000000 -0.169069
#
#
# Mechanical properties :
#
#
# Convention : Reuss Voigt Hill
#
# Bulk Modulus (GPa) = 45.75148 60.77036 53.26092
# Shear Modulus (GPa) = -5191.90284 21.11522 -2585.39381
#
# Velocity S-wave (km/s) = -51.97894 3.31484 -36.67984
# Velocity P-wave (km/s) = 59.82144 6.80258 42.02576
#
# Compressibility (1/GPa) = 0.02185721
#
# Stress axis : x y z
#
# Youngs Moduli (GPa) = 53.45814 36.52918 87.88340
#
# Poissons Ratio (x) = 0.18759 0.48267
# Poissons Ratio (y) = 0.27452 0.63049
# Poissons Ratio (z) = 0.29360 0.26207
#
# Static dielectric constant tensor:
#      x y z
#    x 3.373520 0.000000 0.000000 
#    y 0.000000 3.416800 0.000000 
#    z 0.000000 0.000000 3.555360 
# 
# 
# High freq. dielectric constant tensor:
#      x y z
#    x 1.746890 0.000000 0.000000 
#    y 0.000000 1.737260 0.000000 
#    z 0.000000 0.000000 1.751570 
# 
# From -- ./inp_files/21529.got.cif
#   From: 2010.03.12/outbox.cif.g09.slc.cpg/sg51_11_cif.got.tgz:21529.got - 2010.04.16 13:43:02.
