data_PCOD8211737
_publ_section_title
;
Structure prediction by ZEFSAII (Michael W. Deem and Ramdas Pophale) SiO2 
 PCOD8211737
Probable space group: P M M A
;
_chemical_formula_sum "Si O2"
_cell_formula_units_Z 64
_cell_length_a 16.524612
_cell_length_b 9.208222
_cell_length_c 22.062165
_cell_angle_alpha 90.000000
_cell_angle_beta 90.000000
_cell_angle_gamma 90.000000
_cell_volume 3357.029676
_symmetry_space_group_name_H-M "P M M A"
_symmetry_group_IT_number 51
_symmetry_cell_setting 'orthorhombic'
loop_
_space_group_symop_operation_xyz
x,y,z
1/2-x,-y,z
1/2+x,-y,-z
-x,y,-z
-x,-y,-z
1/2+x,y,-z
1/2-x,y,z
x,-y,z
loop_
_atom_site_type_symbol
_atom_site_label
_atom_site_fract_x
_atom_site_fract_y
_atom_site_fract_z
Si Si1 0.840037 0.827497 0.634718
Si Si2 0.657743 0.172449 0.356921
Si Si3 0.160643 0.172259 0.779061
Si Si4 0.097529 0.671455 0.116740
Si Si5 0.343102 0.161968 0.227999
Si Si6 0.064101 0.827750 0.894486
Si Si7 0.340103 0.841154 0.011531
Si Si8 0.998466 0.827167 0.430906
O O1 0.750000 0.771097 0.612526
O O2 0.853673 0.779668 0.703963
O O3 0.917331 0.765154 0.597770
O O4 0.838371 0.000000 0.630189
O O5 0.750000 0.227757 0.374176
O O6 0.634454 0.222263 0.288578
O O7 0.584836 0.233277 0.399790
O O8 0.659332 0.000000 0.361515
O O9 0.250000 0.233463 0.792616
O O10 0.101522 0.231286 0.831191
O O11 0.162190 0.000000 0.781541
O O12 0.097798 0.500000 0.117253
O O13 0.112367 0.726116 0.184676
O O14 0.161586 0.730702 0.068065
O O15 0.015294 0.737838 0.092627
O O16 0.250000 0.155004 0.209372
O O17 0.381187 0.000000 0.221274
O O18 0.049127 0.000000 0.891477
O O19 0.116163 0.781122 0.952138
O O20 0.250000 0.861776 0.988880
O O21 0.375503 0.000000 0.031359
O O22 0.000000 0.774383 0.500000
O O23 0.998622 0.000000 0.425456
#
# Coordination Sequence:
#
# PCOD8211737 Si02
#       8
#     8   8   8   8   8   8   8   8
#     4   8  15  27  43  64  91 125 169 215 253 296
#     4   8  14  23  35  56  88 123 159 202 248 295
#     4   8  14  26  46  72  95 117 156 209 257 296
#     4  12  25  36  49  74 106 136 166 203 253 310
#     4   9  18  34  55  75  94 125 173 220 258 299
#     4  10  20  34  55  78  99 128 164 207 255 299
#     4  10  21  38  58  77  98 127 168 213 253 300
#     4   9  16  23  34  57  92 134 172 199 238 302
#
# _framework density 19.064471999999999
#
# number of rings (size 3 to 8) (size 9 to 14) (size 15 to 20)
#    0.000    2.750    0.000    3.750    1.750    6.000 
#    0.000    2.500    0.000    1.125    0.000    0.000 
#    0.000    0.500    0.000    0.000    0.000    0.000 
#
# Total GULP energy -792929.522616 kJ/mol
# GULP energy per Si atom -12389.523791 kJ/mol
# Density = 1.902108 g / cm^3
# Si number density = 19.064472 Si / 1000 Ang^3
#
#
#
# Elastic Constant Matrix: (Units=GPa)
#
#
# Indices 1 2 3 4 5 6 
#
# 1 120.3767 18.2410 62.6399 0.0000 0.0000 0.0000
# 2 18.2410 44.4112 25.0571 0.0000 0.0000 0.0000
# 3 62.6399 25.0571 119.6785 0.0000 0.0000 0.0000
# 4 0.0000 0.0000 0.0000 2.2301 0.0000 0.0000
# 5 0.0000 0.0000 0.0000 0.0000 37.8526 0.0000
# 6 0.0000 0.0000 0.0000 0.0000 0.0000 -6.3536
#
#
#
# Elastic Compliance Matrix: (Units=1/GPa)
#
#
# Indices 1 2 3 4 5 6 
#
# 1 0.011505 -0.001506 -0.005706 0.000000 0.000000 0.000000
# 2 -0.001506 0.025730 -0.004599 0.000000 0.000000 0.000000
# 3 -0.005706 -0.004599 0.012305 0.000000 0.000000 0.000000
# 4 0.000000 0.000000 0.000000 0.448406 0.000000 0.000000
# 5 0.000000 0.000000 0.000000 0.000000 0.026418 0.000000
# 6 0.000000 0.000000 0.000000 0.000000 0.000000 -0.157391
#
#
# Mechanical properties :
#
#
# Convention : Reuss Voigt Hill
#
# Bulk Modulus (GPa) = 38.58329 55.14915 46.86622
# Shear Modulus (GPa) = 12.52397 18.64773 15.58585
#
# Velocity S-wave (km/s) = 2.56584 3.13092 2.86236
# Velocity P-wave (km/s) = 5.39076 6.48542 5.96326
#
# Compressibility (1/GPa) = 0.02591796
#
# Stress axis : x y z
#
# Youngs Moduli (GPa) = 86.92000 38.86501 81.26552
#
# Poissons Ratio (x) = 0.05852 0.46373
# Poissons Ratio (y) = 0.13088 0.37374
# Poissons Ratio (z) = 0.49600 0.17874
#
# Static dielectric constant tensor:
#      x y z
#    x 3.847880 0.000000 0.000000 
#    y 0.000000 2.803720 0.000000 
#    z 0.000000 0.000000 3.639230 
# 
# 
# High freq. dielectric constant tensor:
#      x y z
#    x 1.756350 0.000000 0.000000 
#    y 0.000000 1.659610 0.000000 
#    z 0.000000 0.000000 1.747340 
# 
# From -- ./inp_files/35750.got.cif
#   From: 2010.03.12/outbox.cif.g09.slc.cpg/sg51_18_cif.got.tgz:35750.got - 2010.04.16 13:43:02.
