data_PCOD8211203
_publ_section_title
;
Structure prediction by ZEFSAII (Michael W. Deem and Ramdas Pophale) SiO2 
 PCOD8211203
Probable space group: P M M A
;
_chemical_formula_sum "Si O2"
_cell_formula_units_Z 56
_cell_length_a 15.480230
_cell_length_b 9.178572
_cell_length_c 20.971441
_cell_angle_alpha 90.000000
_cell_angle_beta 90.000000
_cell_angle_gamma 90.000000
_cell_volume 2979.756673
_symmetry_space_group_name_H-M "P M M A"
_symmetry_group_IT_number 51
_symmetry_cell_setting 'orthorhombic'
loop_
_space_group_symop_operation_xyz
x,y,z
1/2-x,-y,z
1/2+x,-y,-z
-x,y,-z
-x,-y,-z
1/2+x,y,-z
1/2-x,y,z
x,-y,z
loop_
_atom_site_type_symbol
_atom_site_label
_atom_site_fract_x
_atom_site_fract_y
_atom_site_fract_z
Si Si1 0.400805 0.171863 0.996086
Si Si2 0.407942 0.159505 0.466970
Si Si3 0.505718 0.329595 0.784025
Si Si4 0.152660 0.666510 0.871300
Si Si5 0.346525 0.333808 0.118660
Si Si6 0.993112 0.172225 0.347095
Si Si7 0.152112 0.665341 0.578651
O O1 0.350642 0.235479 0.056179
O O2 0.389844 0.000000 0.996242
O O3 0.500000 0.220777 0.000000
O O4 0.358603 0.232168 0.932168
O O5 0.500000 0.146747 0.500000
O O6 0.426407 0.209852 0.394203
O O7 0.350525 0.274267 0.505938
O O8 0.362791 0.000000 0.468051
O O9 0.510415 0.500000 0.767178
O O10 0.414381 0.288178 0.816258
O O11 0.583928 0.280598 0.829724
O O12 0.517179 0.236452 0.720844
O O13 0.250000 0.685612 0.844496
O O14 0.135048 0.500000 0.892205
O O15 0.250000 0.319542 0.147663
O O16 0.366885 0.500000 0.098960
O O17 0.904438 0.241527 0.372591
O O18 0.978571 0.000000 0.342645
O O19 0.250000 0.672502 0.603349
O O20 0.117709 0.500000 0.577935
#
# Coordination Sequence:
#
# PCOD8211203 Si02
#       7
#     8   8   8   8   8   8   8
#     4  11  22  35  55  83 112 141 177 226 281 332
#     4   8  16  32  52  75 103 136 172 212 257 309
#     4  10  21  37  56  79 110 146 184 230 275 319
#     4  10  21  37  57  80 107 143 184 224 274 334
#     4  10  21  38  60  82 105 140 185 228 276 333
#     4  10  21  36  55  78 107 144 183 219 265 324
#     4  10  20  33  53  83 113 140 176 222 268 316
#
# _framework density 18.793479999999999
#
# number of rings (size 3 to 8) (size 9 to 14) (size 15 to 20)
#    0.000    2.143    1.429    2.571    0.000    8.857 
#    0.000    2.143    0.000    2.571    0.000    0.000 
#    0.000    0.000    0.000    0.000    0.000    0.000 
#
# Total GULP energy -694416.434222 kJ/mol
# GULP energy per Si atom -12400.293468 kJ/mol
# Density = 1.875071 g / cm^3
# Si number density = 18.793480 Si / 1000 Ang^3
#
#
#
# Elastic Constant Matrix: (Units=GPa)
#
#
# Indices 1 2 3 4 5 6 
#
# 1 76.1995 19.5527 21.9898 0.0000 0.0000 0.0000
# 2 19.5527 75.7321 40.9394 0.0000 0.0000 0.0000
# 3 21.9898 40.9394 109.8588 0.0000 0.0000 0.0000
# 4 0.0000 0.0000 0.0000 1593.9320 0.0000 0.0000
# 5 0.0000 0.0000 0.0000 0.0000 15.4452 0.0000
# 6 0.0000 0.0000 0.0000 0.0000 0.0000 19.8131
#
#
#
# Elastic Compliance Matrix: (Units=1/GPa)
#
#
# Indices 1 2 3 4 5 6 
#
# 1 0.014354 -0.002696 -0.001869 0.000000 0.000000 0.000000
# 2 -0.002696 0.017042 -0.005811 0.000000 0.000000 0.000000
# 3 -0.001869 -0.005811 0.011642 0.000000 0.000000 0.000000
# 4 0.000000 0.000000 0.000000 0.000627 0.000000 0.000000
# 5 0.000000 0.000000 0.000000 0.000000 0.064745 0.000000
# 6 0.000000 0.000000 0.000000 0.000000 0.000000 0.050472
#
#
# Mechanical properties :
#
#
# Convention : Reuss Voigt Hill
#
# Bulk Modulus (GPa) = 44.86878 47.41712 46.14295
# Shear Modulus (GPa) = 26.72894 337.79195 182.26044
#
# Velocity S-wave (km/s) = 3.77536 13.42122 9.85856
# Velocity P-wave (km/s) = 6.55217 16.29287 12.41750
#
# Compressibility (1/GPa) = 0.02228721
#
# Stress axis : x y z
#
# Youngs Moduli (GPa) = 69.66470 58.67902 85.89484
#
# Poissons Ratio (x) = 0.15820 0.16050
# Poissons Ratio (y) = 0.18781 0.49914
# Poissons Ratio (z) = 0.13017 0.34099
#
# Static dielectric constant tensor:
#      x y z
#    x 3.493390 0.000000 0.000000 
#    y 0.000000 3.471070 0.000000 
#    z 0.000000 0.000000 3.479250 
# 
# 
# High freq. dielectric constant tensor:
#      x y z
#    x 1.726340 0.000000 0.000000 
#    y 0.000000 1.731920 0.000000 
#    z 0.000000 0.000000 1.720260 
# 
# From -- ./inp_files/33305.got.cif
#   From: 2010.03.12/outbox.cif.g09.slc.cpg/sg51_17_cif.got.tgz:33305.got - 2010.04.16 13:43:02.
