data_PCOD8211090
_publ_section_title
;
Structure prediction by ZEFSAII (Michael W. Deem and Ramdas Pophale) SiO2 
 PCOD8211090
Probable space group: P M M A
;
_chemical_formula_sum "Si O2"
_cell_formula_units_Z 64
_cell_length_a 14.563129
_cell_length_b 9.237103
_cell_length_c 23.934980
_cell_angle_alpha 90.000000
_cell_angle_beta 90.000000
_cell_angle_gamma 90.000000
_cell_volume 3219.760378
_symmetry_space_group_name_H-M "P M M A"
_symmetry_group_IT_number 51
_symmetry_cell_setting 'orthorhombic'
loop_
_space_group_symop_operation_xyz
x,y,z
1/2-x,-y,z
1/2+x,-y,-z
-x,y,-z
-x,-y,-z
1/2+x,y,-z
1/2-x,y,z
x,-y,z
loop_
_atom_site_type_symbol
_atom_site_label
_atom_site_fract_x
_atom_site_fract_y
_atom_site_fract_z
Si Si1 0.848397 0.169911 0.873025
Si Si2 0.101603 0.338674 0.522600
Si Si3 0.544242 0.170539 0.372737
Si Si4 0.349799 0.835294 0.419535
Si Si5 0.020906 0.172218 0.936956
Si Si6 0.049417 0.665266 0.734920
Si Si7 0.348792 0.340025 0.236344
Si Si8 0.642853 0.669298 0.148828
O O1 0.750000 0.215731 0.899687
O O2 0.853210 0.217617 0.809704
O O3 0.931597 0.237978 0.906766
O O4 0.859859 0.000000 0.874362
O O5 0.140630 0.500000 0.534663
O O6 0.104342 0.243662 0.578737
O O7 0.160400 0.261345 0.474888
O O8 0.000000 0.350054 0.500000
O O9 0.435423 0.210412 0.380169
O O10 0.585508 0.233175 0.314753
O O11 0.560803 0.000000 0.373365
O O12 0.250000 0.821236 0.388317
O O13 0.367197 0.000000 0.438958
O O14 0.107877 0.246421 0.906566
O O15 0.034731 0.000000 0.932727
O O16 0.000000 0.220368 0.000000
O O17 0.082035 0.500000 0.725557
O O18 0.086888 0.719158 0.795369
O O19 0.939133 0.678897 0.726689
O O20 0.250000 0.323969 0.269000
O O21 0.352676 0.500000 0.208317
O O22 0.750000 0.706084 0.157588
O O23 0.627276 0.500000 0.138332
#
# Coordination Sequence:
#
# PCOD8211090 Si02
#       8
#     8   8   8   8   8   8   8   8
#     4   9  17  30  49  74 105 138 172 212 260 319
#     4   9  17  31  51  74 101 136 179 223 267 317
#     4  10  20  33  52  77 105 141 183 225 272 329
#     4   9  18  33  52  76 108 142 175 217 271 330
#     4  10  21  36  57  86 116 146 181 225 277 333
#     4  10  20  35  54  77 108 145 183 232 285 332
#     4   9  17  30  50  75 101 133 174 218 269 327
#     4  10  22  41  62  83 110 148 193 238 284 332
#
# _framework density 19.877255999999999
#
# number of rings (size 3 to 8) (size 9 to 14) (size 15 to 20)
#    0.000    2.500    1.250    0.750    0.000    4.750 
#    0.000    1.875    0.000    3.750    0.000    0.000 
#    0.000    0.000    0.000    0.000    0.000    0.000 
#
# Total GULP energy -792859.521418 kJ/mol
# GULP energy per Si atom -12388.430022 kJ/mol
# Density = 1.983201 g / cm^3
# Si number density = 19.877256 Si / 1000 Ang^3
#
#
#
# Elastic Constant Matrix: (Units=GPa)
#
#
# Indices 1 2 3 4 5 6 
#
# 1 69.6194 25.7907 20.4558 0.0000 0.0000 0.0000
# 2 25.7907 59.1839 46.3189 0.0000 0.0000 0.0000
# 3 20.4558 46.3189 107.6712 0.0000 0.0000 0.0000
# 4 0.0000 0.0000 0.0000 7.5608 0.0000 0.0000
# 5 0.0000 0.0000 0.0000 0.0000 13.3977 0.0000
# 6 0.0000 0.0000 0.0000 0.0000 0.0000 19.2285
#
#
#
# Elastic Compliance Matrix: (Units=1/GPa)
#
#
# Indices 1 2 3 4 5 6 
#
# 1 0.017129 -0.007414 -0.000065 0.000000 0.000000 0.000000
# 2 -0.007414 0.028681 -0.010930 0.000000 0.000000 0.000000
# 3 -0.000065 -0.010930 0.014002 0.000000 0.000000 0.000000
# 4 0.000000 0.000000 0.000000 0.132260 0.000000 0.000000
# 5 0.000000 0.000000 0.000000 0.000000 0.074639 0.000000
# 6 0.000000 0.000000 0.000000 0.000000 0.000000 0.052006
#
#
# Mechanical properties :
#
#
# Convention : Reuss Voigt Hill
#
# Bulk Modulus (GPa) = 43.48717 46.84504 45.16610
# Shear Modulus (GPa) = 13.76652 17.63136 15.69894
#
# Velocity S-wave (km/s) = 2.63454 2.98151 2.81338
# Velocity P-wave (km/s) = 5.58388 5.95574 5.77281
#
# Compressibility (1/GPa) = 0.02299529
#
# Stress axis : x y z
#
# Youngs Moduli (GPa) = 58.37959 34.86628 71.41959
#
# Poissons Ratio (x) = 0.25848 0.00465
# Poissons Ratio (y) = 0.43280 0.78060
# Poissons Ratio (z) = 0.00380 0.38108
#
# Static dielectric constant tensor:
#      x y z
#    x 3.792570 0.000000 0.000000 
#    y 0.000000 3.606410 0.000000 
#    z 0.000000 0.000000 3.383740 
# 
# 
# High freq. dielectric constant tensor:
#      x y z
#    x 1.775050 0.000000 0.000000 
#    y 0.000000 1.770970 0.000000 
#    z 0.000000 0.000000 1.751960 
# 
# From -- ./inp_files/35660.got.cif
#   From: 2010.03.12/outbox.cif.g09.slc.cpg/sg51_18_cif.got.tgz:35660.got - 2010.04.16 13:43:02.
