data_PCOD8211109
_publ_section_title
;
Structure prediction by ZEFSAII (Michael W. Deem and Ramdas Pophale) SiO2 
 PCOD8211109
Probable space group: P M M A
;
_chemical_formula_sum "Si O2"
_cell_formula_units_Z 64
_cell_length_a 18.341816
_cell_length_b 9.067895
_cell_length_c 21.356406
_cell_angle_alpha 90.000000
_cell_angle_beta 90.000000
_cell_angle_gamma 90.000000
_cell_volume 3552.032932
_symmetry_space_group_name_H-M "P M M A"
_symmetry_group_IT_number 51
_symmetry_cell_setting 'orthorhombic'
loop_
_space_group_symop_operation_xyz
x,y,z
1/2-x,-y,z
1/2+x,-y,-z
-x,y,-z
-x,-y,-z
1/2+x,y,-z
1/2-x,y,z
x,-y,z
loop_
_atom_site_type_symbol
_atom_site_label
_atom_site_fract_x
_atom_site_fract_y
_atom_site_fract_z
Si Si1 0.828802 0.673046 0.874324
Si Si2 0.665016 0.828693 0.628641
Si Si3 0.831968 0.169573 0.267399
Si Si4 0.585854 0.168583 0.500630
Si Si5 0.832782 0.326921 0.391937
Si Si6 0.975635 0.324793 0.931597
Si Si7 0.903552 0.326244 0.746865
Si Si8 0.467689 0.827920 0.812717
O O1 0.750000 0.745882 0.890683
O O2 0.822388 0.500000 0.882504
O O3 0.892269 0.730005 0.920773
O O4 0.848168 0.712148 0.802932
O O5 0.750000 0.790800 0.618554
O O6 0.620556 0.784966 0.566708
O O7 0.632266 0.730498 0.683587
O O8 0.654084 0.000000 0.645422
O O9 0.750000 0.217595 0.247827
O O10 0.860801 0.260900 0.326630
O O11 0.884726 0.198798 0.208847
O O12 0.834334 0.000000 0.287816
O O13 0.500000 0.193483 0.500000
O O14 0.617655 0.272336 0.447838
O O15 0.606204 0.000000 0.485360
O O16 0.750000 0.275743 0.404511
O O17 0.839903 0.500000 0.387121
O O18 0.982729 0.500000 0.922824
O O19 0.026681 0.248204 0.880366
O O20 0.000000 0.272678 0.000000
O O21 0.918518 0.500000 0.741941
O O22 0.979588 0.245194 0.761113
O O23 0.487015 0.000000 0.818221
#
# Coordination Sequence:
#
# PCOD8211109 Si02
#       8
#     8   8   8   8   8   8   8   8
#     4   8  14  27  48  72  98 132 174 211 244 294
#     4  10  21  36  53  75 105 139 176 220 265 311
#     4   9  19  36  57  78 102 137 178 217 261 317
#     4  10  22  38  55  75 102 140 182 220 262 317
#     4  10  21  36  55  79 105 133 170 221 275 321
#     4   9  18  33  52  76 108 143 177 214 259 310
#     4  10  20  33  52  78 107 138 171 214 268 322
#     4  10  20  34  55  80 106 137 175 217 260 310
#
# _framework density 18.017852000000001
#
# number of rings (size 3 to 8) (size 9 to 14) (size 15 to 20)
#    0.000    2.500    0.000    2.625    1.750    4.000 
#    0.000    0.625    0.000    4.125    0.000    0.000 
#    0.000    0.000    0.000    0.000    0.000    0.000 
#
# Total GULP energy -793576.362358 kJ/mol
# GULP energy per Si atom -12399.630662 kJ/mol
# Density = 1.797684 g / cm^3
# Si number density = 18.017852 Si / 1000 Ang^3
#
#
#
# Elastic Constant Matrix: (Units=GPa)
#
#
# Indices 1 2 3 4 5 6 
#
# 1 114.3491 42.4896 81.8852 0.0000 0.0000 0.0000
# 2 42.4896 61.0923 48.3139 0.0000 0.0000 0.0000
# 3 81.8852 48.3139 133.8393 0.0000 0.0000 0.0000
# 4 0.0000 0.0000 0.0000 30.0509 0.0000 0.0000
# 5 0.0000 0.0000 0.0000 0.0000 23.7729 0.0000
# 6 0.0000 0.0000 0.0000 0.0000 0.0000 18.8762
#
#
#
# Elastic Compliance Matrix: (Units=1/GPa)
#
#
# Indices 1 2 3 4 5 6 
#
# 1 0.016551 -0.004903 -0.008356 0.000000 0.000000 0.000000
# 2 -0.004903 0.024361 -0.005794 0.000000 0.000000 0.000000
# 3 -0.008356 -0.005794 0.014676 0.000000 0.000000 0.000000
# 4 0.000000 0.000000 0.000000 0.033277 0.000000 0.000000
# 5 0.000000 0.000000 0.000000 0.000000 0.042065 0.000000
# 6 0.000000 0.000000 0.000000 0.000000 0.000000 0.052977
#
#
# Mechanical properties :
#
#
# Convention : Reuss Voigt Hill
#
# Bulk Modulus (GPa) = 57.20523 72.73977 64.97250
# Shear Modulus (GPa) = 21.94529 23.64613 22.79571
#
# Velocity S-wave (km/s) = 3.49374 3.62660 3.56079
# Velocity P-wave (km/s) = 6.93491 7.61544 7.28313
#
# Compressibility (1/GPa) = 0.01748092
#
# Stress axis : x y z
#
# Youngs Moduli (GPa) = 60.42018 41.04950 68.13918
#
# Poissons Ratio (x) = 0.20125 0.56939
# Poissons Ratio (y) = 0.29622 0.39482
# Poissons Ratio (z) = 0.50489 0.23786
#
# Static dielectric constant tensor:
#      x y z
#    x 3.583550 0.000000 0.000000 
#    y 0.000000 3.236830 0.000000 
#    z 0.000000 0.000000 3.250040 
# 
# 
# High freq. dielectric constant tensor:
#      x y z
#    x 1.706420 0.000000 0.000000 
#    y 0.000000 1.688610 0.000000 
#    z 0.000000 0.000000 1.689410 
# 
# From -- ./inp_files/33846.got.cif
#   From: 2010.03.12/outbox.cif.g09.slc.cpg/sg51_17_cif.got.tgz:33846.got - 2010.04.16 13:43:02.
