data_PCOD8211691
_publ_section_title
;
Structure prediction by ZEFSAII (Michael W. Deem and Ramdas Pophale) SiO2 
 PCOD8211691
Probable space group: P M M A
;
_chemical_formula_sum "Si O2"
_cell_formula_units_Z 40
_cell_length_a 8.844127
_cell_length_b 8.923178
_cell_length_c 25.714757
_cell_angle_alpha 90.000000
_cell_angle_beta 90.000000
_cell_angle_gamma 90.000000
_cell_volume 2029.349979
_symmetry_space_group_name_H-M "P M M A"
_symmetry_group_IT_number 51
_symmetry_cell_setting 'orthorhombic'
loop_
_space_group_symop_operation_xyz
x,y,z
1/2-x,-y,z
1/2+x,-y,-z
-x,y,-z
-x,-y,-z
1/2+x,y,-z
1/2-x,y,z
x,-y,z
loop_
_atom_site_type_symbol
_atom_site_label
_atom_site_fract_x
_atom_site_fract_y
_atom_site_fract_z
Si Si1 0.572214 0.829130 0.553753
Si Si2 0.424204 0.175278 0.253614
Si Si3 0.574804 0.673266 0.350376
Si Si4 0.922261 0.677747 0.156584
Si Si5 0.079529 0.321581 0.051747
O O1 0.500000 0.773324 0.500000
O O2 0.750000 0.815082 0.548401
O O3 0.517386 0.721908 0.599252
O O4 0.522912 0.000000 0.566024
O O5 0.250000 0.214109 0.265044
O O6 0.524603 0.232230 0.300921
O O7 0.473803 0.254139 0.200926
O O8 0.450455 0.000000 0.247262
O O9 0.750000 0.704094 0.361010
O O10 0.542045 0.500000 0.338726
O O11 0.750000 0.733187 0.162819
O O12 0.931952 0.500000 0.160612
O O13 0.985437 0.735118 0.101408
O O14 0.250000 0.258756 0.054928
O O15 0.081362 0.500000 0.050032
O O16 0.000000 0.257458 0.000000
#
# Coordination Sequence:
#
# PCOD8211691 Si02
#       5
#     8   8   8   8   8
#     4  10  21  38  61  88 117 151 190 229 272 324
#     4  11  24  40  58  81 109 143 184 228 276 332
#     4  11  24  40  59  85 115 147 185 229 277 328
#     4  10  20  34  54  81 111 143 182 227 274 326
#     4   9  16  27  46  74 108 144 181 223 271 322
#
# _framework density 19.710743999999998
#
# number of rings (size 3 to 8) (size 9 to 14) (size 15 to 20)
#    0.000    1.800    0.000    4.200    0.000   13.200 
#    0.000    0.000    0.000    0.600    0.000    0.000 
#    0.000    0.000    0.000    0.000    0.000    0.000 
#
# Total GULP energy -496194.460196 kJ/mol
# GULP energy per Si atom -12404.861505 kJ/mol
# Density = 1.966588 g / cm^3
# Si number density = 19.710744 Si / 1000 Ang^3
#
#
#
# Elastic Constant Matrix: (Units=GPa)
#
#
# Indices 1 2 3 4 5 6 
#
# 1 77.9363 32.6129 28.1937 0.0000 0.0000 0.0000
# 2 32.6129 14.8590 20.9878 0.0000 0.0000 0.0000
# 3 28.1937 20.9878 130.0439 0.0000 0.0000 0.0000
# 4 0.0000 0.0000 0.0000 28.1410 0.0000 0.0000
# 5 0.0000 0.0000 0.0000 0.0000 45.5291 0.0000
# 6 0.0000 0.0000 0.0000 0.0000 0.0000 27.3362
#
#
#
# Elastic Compliance Matrix: (Units=1/GPa)
#
#
# Indices 1 2 3 4 5 6 
#
# 1 0.314918 -0.770368 0.056055 0.000000 0.000000 0.000000
# 2 -0.770368 1.971684 -0.151193 0.000000 0.000000 0.000000
# 3 0.056055 -0.151193 0.019938 0.000000 0.000000 0.000000
# 4 0.000000 0.000000 0.000000 0.035535 0.000000 0.000000
# 5 0.000000 0.000000 0.000000 0.000000 0.021964 0.000000
# 6 0.000000 0.000000 0.000000 0.000000 0.000000 0.036581
#
#
# Mechanical properties :
#
#
# Convention : Reuss Voigt Hill
#
# Bulk Modulus (GPa) = 1.73754 42.93643 22.33699
# Shear Modulus (GPa) = 1.15648 29.60426 15.38037
#
# Velocity S-wave (km/s) = 0.76681 3.87969 2.79642
# Velocity P-wave (km/s) = 1.29129 6.47301 4.66729
#
# Compressibility (1/GPa) = 0.57552703
#
# Stress axis : x y z
#
# Youngs Moduli (GPa) = 3.17543 0.50718 50.15553
#
# Poissons Ratio (x) = 0.39072 -2.81147
# Poissons Ratio (y) = 2.44625 7.58318
# Poissons Ratio (z) = -0.17800 0.07668
#
# Static dielectric constant tensor:
#      x y z
#    x 3.780950 0.000000 0.000000 
#    y 0.000000 3.377110 0.000000 
#    z 0.000000 0.000000 4.804230 
# 
# 
# High freq. dielectric constant tensor:
#      x y z
#    x 1.787140 0.000000 0.000000 
#    y 0.000000 1.740870 0.000000 
#    z 0.000000 0.000000 1.785630 
# 
# From -- ./inp_files/34301.got.cif
#   From: 2010.03.12/outbox.cif.g09.slc.cpg/sg51_18_cif.got.tgz:34301.got - 2010.04.16 13:43:02.
