data_PCOD8211204
_publ_section_title
;
Structure prediction by ZEFSAII (Michael W. Deem and Ramdas Pophale) SiO2 
 PCOD8211204
Probable space group: P M M A
;
_chemical_formula_sum "Si O2"
_cell_formula_units_Z 56
_cell_length_a 18.504026
_cell_length_b 8.979312
_cell_length_c 17.648875
_cell_angle_alpha 90.000000
_cell_angle_beta 90.000000
_cell_angle_gamma 90.000000
_cell_volume 2932.420988
_symmetry_space_group_name_H-M "P M M A"
_symmetry_group_IT_number 51
_symmetry_cell_setting 'orthorhombic'
loop_
_space_group_symop_operation_xyz
x,y,z
1/2-x,-y,z
1/2+x,-y,-z
-x,y,-z
-x,-y,-z
1/2+x,y,-z
1/2-x,y,z
x,-y,z
loop_
_atom_site_type_symbol
_atom_site_label
_atom_site_fract_x
_atom_site_fract_y
_atom_site_fract_z
Si Si1 0.164058 0.667893 0.475087
Si Si2 0.833912 0.328001 0.084110
Si Si3 0.335829 0.169720 0.325264
Si Si4 0.574676 0.824226 0.962198
Si Si5 0.666814 0.825422 0.373411
Si Si6 0.575044 0.327236 0.801018
Si Si7 0.588634 0.671708 0.237451
O O1 0.250000 0.669669 0.474084
O O2 0.133812 0.500000 0.471874
O O3 0.134248 0.757386 0.402683
O O4 0.136090 0.745400 0.551628
O O5 0.750000 0.299089 0.098868
O O6 0.850464 0.500000 0.065865
O O7 0.858952 0.229491 0.013548
O O8 0.876895 0.275847 0.158418
O O9 0.250000 0.178927 0.321817
O O10 0.365709 0.259802 0.254415
O O11 0.363000 0.000000 0.322183
O O12 0.577811 0.000000 0.953365
O O13 0.500000 0.770454 0.000000
O O14 0.582345 0.752833 0.880650
O O15 0.750000 0.781041 0.358535
O O16 0.619786 0.774721 0.302764
O O17 0.658253 0.000000 0.385781
O O18 0.591599 0.500000 0.813361
O O19 0.496569 0.301791 0.765218
O O20 0.608585 0.500000 0.253906
#
# Coordination Sequence:
#
# PCOD8211204 Si02
#       7
#     8   8   8   8   8   8   8
#     4   9  17  32  56  83 112 149 192 236 283 336
#     4  10  21  38  61  87 115 149 190 237 286 336
#     4  10  21  38  60  86 117 149 185 235 290 342
#     4  11  23  39  60  84 113 150 189 232 285 342
#     4  10  20  33  53  83 117 153 192 234 282 336
#     4  11  23  39  62  86 112 149 192 235 282 339
#     4  10  21  37  57  82 114 151 190 234 282 334
#
# _framework density 19.09685
#
# number of rings (size 3 to 8) (size 9 to 14) (size 15 to 20)
#    0.000    1.857    1.429    2.571    0.000    7.143 
#    0.000    0.714    0.000    4.286    0.000    0.000 
#    0.000    0.000    0.000    0.000    0.000    0.000 
#
# Total GULP energy -694692.612861 kJ/mol
# GULP energy per Si atom -12405.225230 kJ/mol
# Density = 1.905338 g / cm^3
# Si number density = 19.096850 Si / 1000 Ang^3
#
#
#
# Elastic Constant Matrix: (Units=GPa)
#
#
# Indices 1 2 3 4 5 6 
#
# 1 36.5790 26.9706 22.3990 0.0000 0.0000 0.0000
# 2 26.9706 74.7892 43.9508 0.0000 0.0000 0.0000
# 3 22.3990 43.9508 127.7130 0.0000 0.0000 0.0000
# 4 0.0000 0.0000 0.0000 36.9886 0.0000 0.0000
# 5 0.0000 0.0000 0.0000 0.0000 20.8861 0.0000
# 6 0.0000 0.0000 0.0000 0.0000 0.0000 24.7541
#
#
#
# Elastic Compliance Matrix: (Units=1/GPa)
#
#
# Indices 1 2 3 4 5 6 
#
# 1 0.037833 -0.012214 -0.002432 0.000000 0.000000 0.000000
# 2 -0.012214 0.020704 -0.004983 0.000000 0.000000 0.000000
# 3 -0.002432 -0.004983 0.009971 0.000000 0.000000 0.000000
# 4 0.000000 0.000000 0.000000 0.027035 0.000000 0.000000
# 5 0.000000 0.000000 0.000000 0.000000 0.047879 0.000000
# 6 0.000000 0.000000 0.000000 0.000000 0.000000 0.040397
#
#
# Mechanical properties :
#
#
# Convention : Reuss Voigt Hill
#
# Bulk Modulus (GPa) = 34.18769 47.30245 40.74507
# Shear Modulus (GPa) = 21.47507 26.24313 23.85910
#
# Velocity S-wave (km/s) = 3.35705 3.71106 3.53848
# Velocity P-wave (km/s) = 5.74173 6.57162 6.17064
#
# Compressibility (1/GPa) = 0.02925030
#
# Stress axis : x y z
#
# Youngs Moduli (GPa) = 26.43181 48.30022 100.28732
#
# Poissons Ratio (x) = 0.58995 0.24390
# Poissons Ratio (y) = 0.32285 0.49971
# Poissons Ratio (z) = 0.06428 0.24067
#
# Static dielectric constant tensor:
#      x y z
#    x 3.332770 0.000000 0.000000 
#    y 0.000000 3.597550 0.000000 
#    z 0.000000 0.000000 3.610030 
# 
# 
# High freq. dielectric constant tensor:
#      x y z
#    x 1.723770 0.000000 0.000000 
#    y 0.000000 1.752680 0.000000 
#    z 0.000000 0.000000 1.756130 
# 
# From -- ./inp_files/25674.got.cif
#   From: 2010.03.12/outbox.cif.g09.slc.cpg/sg51_13_cif.got.tgz:25674.got - 2010.04.16 13:43:02.
