data_PCOD8211307
_publ_section_title
;
Structure prediction by ZEFSAII (Michael W. Deem and Ramdas Pophale) SiO2 
 PCOD8211307
Probable space group: P M M A
;
_chemical_formula_sum "Si O2"
_cell_formula_units_Z 56
_cell_length_a 8.919443
_cell_length_b 13.704953
_cell_length_c 29.157851
_cell_angle_alpha 90.000000
_cell_angle_beta 90.000000
_cell_angle_gamma 90.000000
_cell_volume 3564.271659
_symmetry_space_group_name_H-M "P M M A"
_symmetry_group_IT_number 51
_symmetry_cell_setting 'orthorhombic'
loop_
_space_group_symop_operation_xyz
x,y,z
1/2-x,-y,z
1/2+x,-y,-z
-x,y,-z
-x,-y,-z
1/2+x,y,-z
1/2-x,y,z
x,-y,z
loop_
_atom_site_type_symbol
_atom_site_label
_atom_site_fract_x
_atom_site_fract_y
_atom_site_fract_z
Si Si1 0.074003 0.886841 0.863182
Si Si2 0.426626 0.111387 0.678434
Si Si3 0.924765 0.387084 0.451929
Si Si4 0.418798 0.116219 0.045029
Si Si5 0.425282 0.794405 0.771454
Si Si6 0.575525 0.389996 0.282429
Si Si7 0.427706 0.288467 0.366450
O O1 0.250000 0.870649 0.868929
O O2 0.003832 0.827690 0.819865
O O3 0.998196 0.844801 0.909054
O O4 0.035174 0.000000 0.855430
O O5 0.250000 0.132419 0.673860
O O6 0.482433 0.137486 0.729821
O O7 0.514693 0.178880 0.642691
O O8 0.466673 0.000000 0.667403
O O9 0.750000 0.361107 0.454224
O O10 0.950202 0.500000 0.439329
O O11 0.000000 0.360916 0.500000
O O12 0.004917 0.321411 0.414401
O O13 0.250000 0.155059 0.044664
O O14 0.426146 0.000000 0.044180
O O15 0.500000 0.158993 0.000000
O O16 0.250000 0.811050 0.776773
O O17 0.465011 0.681589 0.759975
O O18 0.750000 0.377924 0.295691
O O19 0.537408 0.500000 0.267135
O O20 0.480669 0.362437 0.326950
O O21 0.250000 0.289787 0.369081
#
# Coordination Sequence:
#
# PCOD8211307 Si02
#       7
#     8   8   8   8   8   8   8
#     4   9  15  23  37  56  79 108 139 171 208 251
#     4   9  17  31  50  68  88 118 155 190 220 253
#     4  10  20  34  52  73  96 120 147 181 221 265
#     4   9  16  25  36  51  73 102 136 171 206 246
#     4   8  14  25  42  64  86 110 144 181 216 255
#     4   9  17  30  47  65  87 117 152 187 219 254
#     4  11  21  31  46  69  96 123 150 181 218 262
#
# _framework density 15.711484
#
# number of rings (size 3 to 8) (size 9 to 14) (size 15 to 20)
#    0.000    2.714    0.000    3.857    0.000    6.571 
#    0.000    2.857    0.000    3.857    0.000    0.000 
#    0.000    0.571    0.000    1.000    0.000    1.429 
#
# Total GULP energy -694272.521872 kJ/mol
# GULP energy per Si atom -12397.723605 kJ/mol
# Density = 1.567572 g / cm^3
# Si number density = 15.711484 Si / 1000 Ang^3
#
#
#
# Elastic Constant Matrix: (Units=GPa)
#
#
# Indices 1 2 3 4 5 6 
#
# 1 83.4842 42.7550 63.1654 0.0000 0.0000 0.0000
# 2 42.7550 93.6536 63.0525 0.0000 0.0000 0.0000
# 3 63.1654 63.0525 145.4924 0.0000 0.0000 0.0000
# 4 0.0000 0.0000 0.0000 20.3184 0.0000 0.0000
# 5 0.0000 0.0000 0.0000 0.0000 24.0259 0.0000
# 6 0.0000 0.0000 0.0000 0.0000 0.0000 13.4541
#
#
#
# Elastic Compliance Matrix: (Units=1/GPa)
#
#
# Indices 1 2 3 4 5 6 
#
# 1 0.019050 -0.004417 -0.006356 0.000000 0.000000 0.000000
# 2 -0.004417 0.016101 -0.005060 0.000000 0.000000 0.000000
# 3 -0.006356 -0.005060 0.011825 0.000000 0.000000 0.000000
# 4 0.000000 0.000000 0.000000 0.049217 0.000000 0.000000
# 5 0.000000 0.000000 0.000000 0.000000 0.041622 0.000000
# 6 0.000000 0.000000 0.000000 0.000000 0.000000 0.074327
#
#
# Mechanical properties :
#
#
# Convention : Reuss Voigt Hill
#
# Bulk Modulus (GPa) = 65.31922 73.39736 69.35829
# Shear Modulus (GPa) = 20.08752 21.80349 20.94550
#
# Velocity S-wave (km/s) = 3.57953 3.72928 3.65517
# Velocity P-wave (km/s) = 7.66475 8.08459 7.87747
#
# Compressibility (1/GPa) = 0.01530943
#
# Stress axis : x y z
#
# Youngs Moduli (GPa) = 52.49436 62.10846 84.56324
#
# Poissons Ratio (x) = 0.27436 0.53748
# Poissons Ratio (y) = 0.23189 0.42788
# Poissons Ratio (z) = 0.33365 0.31426
#
# Static dielectric constant tensor:
#      x y z
#    x 2.918730 0.000000 0.000000 
#    y 0.000000 2.889660 0.000000 
#    z 0.000000 0.000000 3.143100 
# 
# 
# High freq. dielectric constant tensor:
#      x y z
#    x 1.595130 0.000000 0.000000 
#    y 0.000000 1.573460 0.000000 
#    z 0.000000 0.000000 1.602000 
# 
# From -- ./inp_files/37463.got.cif
#   From: 2010.03.12/outbox.cif.g09.slc.cpg/sg51_19_cif.got.tgz:37463.got - 2010.04.16 13:43:02.
