data_PCOD8211943
_publ_section_title
;
Structure prediction by ZEFSAII (Michael W. Deem and Ramdas Pophale) SiO2 
 PCOD8211943
Probable space group: P M M A
;
_chemical_formula_sum "Si O2"
_cell_formula_units_Z 56
_cell_length_a 15.728843
_cell_length_b 8.695645
_cell_length_c 20.106048
_cell_angle_alpha 90.000000
_cell_angle_beta 90.000000
_cell_angle_gamma 90.000000
_cell_volume 2749.953143
_symmetry_space_group_name_H-M "P M M A"
_symmetry_group_IT_number 51
_symmetry_cell_setting 'orthorhombic'
loop_
_space_group_symop_operation_xyz
x,y,z
1/2-x,-y,z
1/2+x,-y,-z
-x,y,-z
-x,-y,-z
1/2+x,y,-z
1/2-x,y,z
x,-y,z
loop_
_atom_site_type_symbol
_atom_site_label
_atom_site_fract_x
_atom_site_fract_y
_atom_site_fract_z
Si Si1 0.347632 0.818360 0.331697
Si Si2 0.594865 0.680568 0.063232
Si Si3 0.499333 0.183048 0.425296
Si Si4 0.848481 0.669319 0.803754
Si Si5 0.846050 0.181327 0.337316
Si Si6 0.087209 0.820199 0.067793
Si Si7 0.848648 0.668737 0.203807
O O1 0.250000 0.767747 0.348504
O O2 0.412083 0.762065 0.389471
O O3 0.384145 0.745565 0.263486
O O4 0.351522 0.000000 0.322676
O O5 0.613667 0.500000 0.054902
O O6 0.495486 0.714354 0.067587
O O7 0.633459 0.745371 0.132147
O O8 0.636715 0.771032 0.000218
O O9 0.500000 0.249330 0.500000
O O10 0.584985 0.246840 0.389663
O O11 0.501977 0.000000 0.425611
O O12 0.750000 0.648815 0.792573
O O13 0.890182 0.500000 0.815084
O O14 0.860689 0.781132 0.866407
O O15 0.750000 0.245955 0.351821
O O16 0.881445 0.226510 0.264259
O O17 0.842954 0.000000 0.341031
O O18 0.065080 0.000000 0.066137
O O19 0.750000 0.648393 0.213142
O O20 0.892816 0.500000 0.207233
#
# Coordination Sequence:
#
# PCOD8211943 Si02
#       7
#     8   8   8   8   8   8   8
#     4   9  18  33  53  79 109 141 179 226 274 321
#     4  10  20  35  53  75 105 142 184 224 267 323
#     4   9  18  32  52  81 111 140 177 218 266 324
#     4  10  21  37  56  77 103 138 179 224 275 330
#     4   9  18  32  51  77 108 140 177 221 267 316
#     4  11  22  35  52  76 107 141 178 224 275 323
#     4   9  19  35  54  76 102 135 175 219 267 316
#
# _framework density 20.363983000000001
#
# number of rings (size 3 to 8) (size 9 to 14) (size 15 to 20)
#    0.000    2.429    0.000    3.000    2.000    3.143 
#    0.000    4.286    0.000    1.714    0.000    4.000 
#    0.000    0.000    0.000    0.000    0.000    0.000 
#
# Total GULP energy -693969.167091 kJ/mol
# GULP energy per Si atom -12392.306555 kJ/mol
# Density = 2.031763 g / cm^3
# Si number density = 20.363983 Si / 1000 Ang^3
#
#
#
# Elastic Constant Matrix: (Units=GPa)
#
#
# Indices 1 2 3 4 5 6 
#
# 1 79.4557 19.9868 67.0952 0.0000 0.0000 0.0000
# 2 19.9868 42.5442 33.8407 0.0000 0.0000 0.0000
# 3 67.0952 33.8407 201.1780 0.0000 0.0000 0.0000
# 4 0.0000 0.0000 0.0000 33.4103 0.0000 0.0000
# 5 0.0000 0.0000 0.0000 0.0000 31.8033 0.0000
# 6 0.0000 0.0000 0.0000 0.0000 0.0000 14.3917
#
#
#
# Elastic Compliance Matrix: (Units=1/GPa)
#
#
# Indices 1 2 3 4 5 6 
#
# 1 0.018174 -0.004291 -0.005339 0.000000 0.000000 0.000000
# 2 -0.004291 0.028149 -0.003304 0.000000 0.000000 0.000000
# 3 -0.005339 -0.003304 0.007307 0.000000 0.000000 0.000000
# 4 0.000000 0.000000 0.000000 0.029931 0.000000 0.000000
# 5 0.000000 0.000000 0.000000 0.000000 0.031443 0.000000
# 6 0.000000 0.000000 0.000000 0.000000 0.000000 0.069485
#
#
# Mechanical properties :
#
#
# Convention : Reuss Voigt Hill
#
# Bulk Modulus (GPa) = 36.02105 62.78038 49.40071
# Shear Modulus (GPa) = 22.76757 29.40474 26.08615
#
# Velocity S-wave (km/s) = 3.34733 3.80407 3.58298
# Velocity P-wave (km/s) = 5.71546 7.08453 6.43650
#
# Compressibility (1/GPa) = 0.02776155
#
# Stress axis : x y z
#
# Youngs Moduli (GPa) = 55.02449 35.52551 136.85048
#
# Poissons Ratio (x) = 0.15243 0.73070
# Poissons Ratio (y) = 0.23610 0.45215
# Poissons Ratio (z) = 0.29380 0.11738
#
# Static dielectric constant tensor:
#      x y z
#    x 3.686300 0.000000 0.000000 
#    y 0.000000 3.661440 0.000000 
#    z 0.000000 0.000000 4.240490 
# 
# 
# High freq. dielectric constant tensor:
#      x y z
#    x 1.783440 0.000000 0.000000 
#    y 0.000000 1.770950 0.000000 
#    z 0.000000 0.000000 1.804920 
# 
# From -- ./inp_files/33327.got.cif
#   From: 2010.03.12/outbox.cif.g09.slc.cpg/sg51_17_cif.got.tgz:33327.got - 2010.04.16 13:43:02.
