data_PCOD8211619
_publ_section_title
;
Structure prediction by ZEFSAII (Michael W. Deem and Ramdas Pophale) SiO2 
 PCOD8211619
Probable space group: P M M A
;
_chemical_formula_sum "Si O2"
_cell_formula_units_Z 32
_cell_length_a 19.296393
_cell_length_b 8.950118
_cell_length_c 10.391141
_cell_angle_alpha 90.000000
_cell_angle_beta 90.000000
_cell_angle_gamma 90.000000
_cell_volume 1794.601947
_symmetry_space_group_name_H-M "P M M A"
_symmetry_group_IT_number 51
_symmetry_cell_setting 'orthorhombic'
loop_
_space_group_symop_operation_xyz
x,y,z
1/2-x,-y,z
1/2+x,-y,-z
-x,y,-z
-x,-y,-z
1/2+x,y,-z
1/2-x,y,z
x,-y,z
loop_
_atom_site_type_symbol
_atom_site_label
_atom_site_fract_x
_atom_site_fract_y
_atom_site_fract_z
Si Si1 0.969306 0.822701 0.865430
Si Si2 0.171148 0.172816 0.521917
Si Si3 0.042738 0.324040 0.625319
Si Si4 0.175045 0.822940 0.230842
O O1 0.888663 0.769636 0.858304
O O2 0.011834 0.750913 0.751017
O O3 0.975399 0.000000 0.852695
O O4 0.000000 0.765097 0.000000
O O5 0.250000 0.194443 0.569242
O O6 0.121960 0.270628 0.612725
O O7 0.162708 0.233265 0.376285
O O8 0.149007 0.000000 0.531635
O O9 0.039948 0.500000 0.642897
O O10 0.000000 0.271190 0.500000
O O11 0.250000 0.761641 0.179853
O O12 0.178746 0.000000 0.234827
#
# Coordination Sequence:
#
# PCOD8211619 Si02
#       4
#     8   8   8   8
#     4  10  20  34  54  79 105 138 181 225 270 315
#     4   9  17  31  54  80 102 132 176 224 270 309
#     4  11  22  34  51  77 108 142 175 210 264 322
#     4   8  14  27  49  75 101 130 168 217 267 310
#
# _framework density 17.831251000000002
#
# number of rings (size 3 to 8) (size 9 to 14) (size 15 to 20)
#    0.000    2.500    2.500    2.250    0.000    2.000 
#    0.000    1.250    0.000    5.250    0.000    0.000 
#    0.000    0.000    0.000    0.000    0.000    0.000 
#
# Total GULP energy -396678.084099 kJ/mol
# GULP energy per Si atom -12396.190128 kJ/mol
# Density = 1.779067 g / cm^3
# Si number density = 17.831251 Si / 1000 Ang^3
#
#
#
# Elastic Constant Matrix: (Units=GPa)
#
#
# Indices 1 2 3 4 5 6 
#
# 1 162.7658 27.3778 81.0639 0.0000 0.0000 0.0000
# 2 27.3778 23.0331 30.1227 0.0000 0.0000 0.0000
# 3 81.0639 30.1227 121.8978 0.0000 0.0000 0.0000
# 4 0.0000 0.0000 0.0000 16.1467 0.0000 0.0000
# 5 0.0000 0.0000 0.0000 0.0000 26.2677 0.0000
# 6 0.0000 0.0000 0.0000 0.0000 0.0000 5.3250
#
#
#
# Elastic Compliance Matrix: (Units=1/GPa)
#
#
# Indices 1 2 3 4 5 6 
#
# 1 0.009488 -0.004471 -0.005205 0.000000 0.000000 0.000000
# 2 -0.004471 0.066253 -0.013399 0.000000 0.000000 0.000000
# 3 -0.005205 -0.013399 0.014976 0.000000 0.000000 0.000000
# 4 0.000000 0.000000 0.000000 0.061932 0.000000 0.000000
# 5 0.000000 0.000000 0.000000 0.000000 0.038070 0.000000
# 6 0.000000 0.000000 0.000000 0.000000 0.000000 0.187795
#
#
# Mechanical properties :
#
#
# Convention : Reuss Voigt Hill
#
# Bulk Modulus (GPa) = 22.43772 64.98060 43.70916
# Shear Modulus (GPa) = 11.37609 20.82337 16.09973
#
# Velocity S-wave (km/s) = 2.52858 3.42102 3.00808
# Velocity P-wave (km/s) = 4.59735 7.21981 6.05232
#
# Compressibility (1/GPa) = 0.04456781
#
# Stress axis : x y z
#
# Youngs Moduli (GPa) = 105.39580 15.09366 66.77354
#
# Poissons Ratio (x) = 0.06748 0.34755
# Poissons Ratio (y) = 0.47120 0.89469
# Poissons Ratio (z) = 0.54857 0.20224
#
# Static dielectric constant tensor:
#      x y z
#    x 4.047330 0.000000 0.000000 
#    y 0.000000 2.960850 0.000000 
#    z 0.000000 0.000000 3.137440 
# 
# 
# High freq. dielectric constant tensor:
#      x y z
#    x 1.710770 0.000000 0.000000 
#    y 0.000000 1.658920 0.000000 
#    z 0.000000 0.000000 1.661160 
# 
# From -- ./inp_files/10274.got.cif
#   From: 2010.03.12/outbox.cif.g09.slc.cpg/sg51_6_cif.got.tgz:10274.got - 2010.04.16 13:43:02.
