data_PCOD8211681
_publ_section_title
;
Structure prediction by ZEFSAII (Michael W. Deem and Ramdas Pophale) SiO2 
 PCOD8211681
Probable space group: P M M A
;
_chemical_formula_sum "Si O2"
_cell_formula_units_Z 56
_cell_length_a 19.246034
_cell_length_b 9.157630
_cell_length_c 16.227998
_cell_angle_alpha 90.000000
_cell_angle_beta 90.000000
_cell_angle_gamma 90.000000
_cell_volume 2860.153138
_symmetry_space_group_name_H-M "P M M A"
_symmetry_group_IT_number 51
_symmetry_cell_setting 'orthorhombic'
loop_
_space_group_symop_operation_xyz
x,y,z
1/2-x,-y,z
1/2+x,-y,-z
-x,y,-z
-x,-y,-z
1/2+x,y,-z
1/2-x,y,z
x,-y,z
loop_
_atom_site_type_symbol
_atom_site_label
_atom_site_fract_x
_atom_site_fract_y
_atom_site_fract_z
Si Si1 0.831805 0.334922 0.821731
Si Si2 0.589126 0.172621 0.679433
Si Si3 0.329105 0.170100 0.482030
Si Si4 0.172395 0.329962 0.647122
Si Si5 0.169919 0.169899 0.013340
Si Si6 0.538753 0.331483 0.256824
Si Si7 0.054901 0.330857 0.930079
O O1 0.750000 0.335237 0.810654
O O2 0.861630 0.500000 0.823849
O O3 0.862887 0.247205 0.746690
O O4 0.853770 0.256134 0.905513
O O5 0.619216 0.217650 0.590723
O O6 0.510879 0.231197 0.687613
O O7 0.591072 0.000000 0.692645
O O8 0.250000 0.211983 0.457608
O O9 0.352982 0.252005 0.564137
O O10 0.335479 0.000000 0.500273
O O11 0.250000 0.276713 0.673246
O O12 0.173199 0.500000 0.627535
O O13 0.118516 0.292848 0.720305
O O14 0.250000 0.199243 0.991408
O O15 0.155155 0.000000 0.027337
O O16 0.123856 0.232819 0.939105
O O17 0.522654 0.500000 0.276892
O O18 0.524464 0.298396 0.160560
O O19 0.075906 0.500000 0.938634
O O20 0.000000 0.284356 0.000000
#
# Coordination Sequence:
#
# PCOD8211681 Si02
#       7
#     8   8   8   8   8   8   8
#     4  10  20  34  54  80 111 148 187 226 272 326
#     4  11  22  35  54  81 114 148 183 224 270 326
#     4   9  19  36  57  81 110 145 182 221 268 321
#     4   9  19  37  59  81 106 140 184 231 278 328
#     4  10  21  36  55  81 111 142 180 228 279 330
#     4  10  22  38  56  81 112 144 181 229 281 330
#     4  10  21  37  57  80 108 145 188 231 276 330
#
# _framework density 19.579370999999998
#
# number of rings (size 3 to 8) (size 9 to 14) (size 15 to 20)
#    0.000    2.143    0.000    2.571    0.000    7.143 
#    0.000    5.714    0.000    1.714    0.000    0.000 
#    0.000    0.000    0.000    0.000    0.000    0.000 
#
# Total GULP energy -694550.281266 kJ/mol
# GULP energy per Si atom -12402.683594 kJ/mol
# Density = 1.953481 g / cm^3
# Si number density = 19.579371 Si / 1000 Ang^3
#
#
#
# Elastic Constant Matrix: (Units=GPa)
#
#
# Indices 1 2 3 4 5 6 
#
# 1 83.7929 40.6286 56.7657 0.0000 0.0000 0.0000
# 2 40.6286 74.6974 39.8265 0.0000 0.0000 0.0000
# 3 56.7657 39.8265 94.5609 0.0000 0.0000 0.0000
# 4 0.0000 0.0000 0.0000 24.7145 0.0000 0.0000
# 5 0.0000 0.0000 0.0000 0.0000 36.2920 0.0000
# 6 0.0000 0.0000 0.0000 0.0000 0.0000 33.7039
#
#
#
# Elastic Compliance Matrix: (Units=1/GPa)
#
#
# Indices 1 2 3 4 5 6 
#
# 1 0.022277 -0.006431 -0.010665 0.000000 0.000000 0.000000
# 2 -0.006431 0.019120 -0.004193 0.000000 0.000000 0.000000
# 3 -0.010665 -0.004193 0.018743 0.000000 0.000000 0.000000
# 4 0.000000 0.000000 0.000000 0.040462 0.000000 0.000000
# 5 0.000000 0.000000 0.000000 0.000000 0.027554 0.000000
# 6 0.000000 0.000000 0.000000 0.000000 0.000000 0.029670
#
#
# Mechanical properties :
#
#
# Convention : Reuss Voigt Hill
#
# Bulk Modulus (GPa) = 56.93241 58.61030 57.77136
# Shear Modulus (GPa) = 24.24150 26.66410 25.45280
#
# Velocity S-wave (km/s) = 3.52250 3.69432 3.60944
# Velocity P-wave (km/s) = 6.75906 6.94241 6.85135
#
# Compressibility (1/GPa) = 0.01756469
#
# Stress axis : x y z
#
# Youngs Moduli (GPa) = 44.88933 52.30016 53.35286
#
# Poissons Ratio (x) = 0.33632 0.56899
# Poissons Ratio (y) = 0.28866 0.22369
# Poissons Ratio (z) = 0.47873 0.21928
#
# Static dielectric constant tensor:
#      x y z
#    x 3.695070 0.000000 0.000000 
#    y 0.000000 3.571740 0.000000 
#    z 0.000000 0.000000 3.518800 
# 
# 
# High freq. dielectric constant tensor:
#      x y z
#    x 1.769500 0.000000 0.000000 
#    y 0.000000 1.762380 0.000000 
#    z 0.000000 0.000000 1.756130 
# 
# From -- ./inp_files/25619.got.cif
#   From: 2010.03.12/outbox.cif.g09.slc.cpg/sg51_13_cif.got.tgz:25619.got - 2010.04.16 13:43:02.
