data_PCOD8211998
_publ_section_title
;
Structure prediction by ZEFSAII (Michael W. Deem and Ramdas Pophale) SiO2 
 PCOD8211998
Probable space group: P M M A
;
_chemical_formula_sum "Si O2"
_cell_formula_units_Z 64
_cell_length_a 8.778319
_cell_length_b 19.487560
_cell_length_c 20.398499
_cell_angle_alpha 90.000000
_cell_angle_beta 90.000000
_cell_angle_gamma 90.000000
_cell_volume 3489.530798
_symmetry_space_group_name_H-M "P M M A"
_symmetry_group_IT_number 51
_symmetry_cell_setting 'orthorhombic'
loop_
_space_group_symop_operation_xyz
x,y,z
1/2-x,-y,z
1/2+x,-y,-z
-x,y,-z
-x,-y,-z
1/2+x,y,-z
1/2-x,y,z
x,-y,z
loop_
_atom_site_type_symbol
_atom_site_label
_atom_site_fract_x
_atom_site_fract_y
_atom_site_fract_z
Si Si1 0.925116 0.419475 0.676191
Si Si2 0.068880 0.818686 0.430825
Si Si3 0.429092 0.077779 0.318789
Si Si4 0.072712 0.420729 0.811945
Si Si5 0.929498 0.329622 0.067666
Si Si6 0.569746 0.673452 0.430819
Si Si7 0.570014 0.173435 0.067681
Si Si8 0.430126 0.077822 0.816370
O O1 0.750000 0.397724 0.666802
O O2 0.948982 0.500000 0.666202
O O3 0.978710 0.397351 0.748420
O O4 0.030077 0.382772 0.623109
O O5 0.250000 0.813062 0.436448
O O6 0.015633 0.874793 0.378196
O O7 0.000000 0.842146 0.500000
O O8 0.001370 0.745797 0.408875
O O9 0.250000 0.082357 0.309405
O O10 0.504964 0.105209 0.252265
O O11 0.481783 0.000000 0.333935
O O12 0.250000 0.406303 0.798141
O O13 0.043238 0.500000 0.828865
O O14 0.010876 0.376387 0.872827
O O15 0.750000 0.335525 0.061125
O O16 0.981844 0.251543 0.081241
O O17 0.000000 0.357213 0.000000
O O18 0.500000 0.649528 0.500000
O O19 0.750000 0.680841 0.438105
O O20 0.750000 0.167453 0.062495
O O21 0.505601 0.126070 0.125998
O O22 0.500000 0.146079 0.000000
O O23 0.250000 0.082350 0.812906
O O24 0.485323 0.000000 0.829657
#
# Coordination Sequence:
#
# PCOD8211998 Si02
#       8
#     8   8   8   8   8   8   8   8
#     4  10  21  37  56  79 107 137 171 212 257 306
#     4  10  20  35  54  77 106 137 172 213 255 302
#     4   9  19  35  53  75 104 136 170 210 255 303
#     4   9  18  33  51  72 100 133 168 206 250 300
#     4   9  18  32  49  70  97 129 164 205 251 300
#     4  11  22  37  57  79 106 138 173 213 256 304
#     4   9  18  32  48  68  95 125 160 201 246 296
#     4   9  18  32  49  70  97 128 163 204 248 297
#
# _framework density 18.340575000000001
#
# number of rings (size 3 to 8) (size 9 to 14) (size 15 to 20)
#    0.000    2.500    0.000    2.625    0.000    4.750 
#    0.000    1.250    0.000    0.000    0.000    0.000 
#    0.000    0.000    0.000    0.000    0.000    0.000 
#
# Total GULP energy -793751.921511 kJ/mol
# GULP energy per Si atom -12402.373774 kJ/mol
# Density = 1.829883 g / cm^3
# Si number density = 18.340575 Si / 1000 Ang^3
#
#
#
# Elastic Constant Matrix: (Units=GPa)
#
#
# Indices 1 2 3 4 5 6 
#
# 1 56.2242 31.6773 45.7319 0.0000 0.0000 0.0000
# 2 31.6773 82.2337 87.0389 0.0000 0.0000 0.0000
# 3 45.7319 87.0389 161.0825 0.0000 0.0000 0.0000
# 4 0.0000 0.0000 0.0000 42.5642 0.0000 0.0000
# 5 0.0000 0.0000 0.0000 0.0000 35.8751 0.0000
# 6 0.0000 0.0000 0.0000 0.0000 0.0000 15.0701
#
#
#
# Elastic Compliance Matrix: (Units=1/GPa)
#
#
# Indices 1 2 3 4 5 6 
#
# 1 0.023888 -0.004727 -0.004228 0.000000 0.000000 0.000000
# 2 -0.004727 0.029342 -0.014512 0.000000 0.000000 0.000000
# 3 -0.004228 -0.014512 0.015250 0.000000 0.000000 0.000000
# 4 0.000000 0.000000 0.000000 0.023494 0.000000 0.000000
# 5 0.000000 0.000000 0.000000 0.000000 0.027875 0.000000
# 6 0.000000 0.000000 0.000000 0.000000 0.000000 0.066357
#
#
# Mechanical properties :
#
#
# Convention : Reuss Voigt Hill
#
# Bulk Modulus (GPa) = 46.41422 69.82629 58.12026
# Shear Modulus (GPa) = 20.80551 27.70803 24.25677
#
# Velocity S-wave (km/s) = 3.37174 3.89105 3.64067
# Velocity P-wave (km/s) = 6.36553 7.63818 7.03071
#
# Compressibility (1/GPa) = 0.02154512
#
# Stress axis : x y z
#
# Youngs Moduli (GPa) = 41.86211 34.08096 65.57462
#
# Poissons Ratio (x) = 0.16111 0.27722
# Poissons Ratio (y) = 0.19790 0.95165
# Poissons Ratio (z) = 0.17697 0.49460
#
# Static dielectric constant tensor:
#      x y z
#    x 3.304890 0.000000 0.000000 
#    y 0.000000 3.464390 0.000000 
#    z 0.000000 0.000000 3.496990 
# 
# 
# High freq. dielectric constant tensor:
#      x y z
#    x 1.708850 0.000000 0.000000 
#    y 0.000000 1.707490 0.000000 
#    z 0.000000 0.000000 1.718740 
# 
# From -- ./inp_files/32597.got.cif
#   From: 2010.03.12/outbox.cif.g09.slc.cpg/sg51_17_cif.got.tgz:32597.got - 2010.04.16 13:43:02.
