data_PCOD8211514
_publ_section_title
;
Structure prediction by ZEFSAII (Michael W. Deem and Ramdas Pophale) SiO2 
 PCOD8211514
Probable space group: P M M A
;
_chemical_formula_sum "Si O2"
_cell_formula_units_Z 64
_cell_length_a 15.503921
_cell_length_b 9.032316
_cell_length_c 23.195121
_cell_angle_alpha 90.000000
_cell_angle_beta 90.000000
_cell_angle_gamma 90.000000
_cell_volume 3248.159241
_symmetry_space_group_name_H-M "P M M A"
_symmetry_group_IT_number 51
_symmetry_cell_setting 'orthorhombic'
loop_
_space_group_symop_operation_xyz
x,y,z
1/2-x,-y,z
1/2+x,-y,-z
-x,y,-z
-x,-y,-z
1/2+x,y,-z
1/2-x,y,z
x,-y,z
loop_
_atom_site_type_symbol
_atom_site_label
_atom_site_fract_x
_atom_site_fract_y
_atom_site_fract_z
Si Si1 0.015370 0.826226 0.135648
Si Si2 0.098930 0.665239 0.576126
Si Si3 0.086861 0.336504 0.368916
Si Si4 0.348082 0.835550 0.468537
Si Si5 0.847251 0.169788 0.065625
Si Si6 0.153083 0.168354 0.684438
Si Si7 0.150913 0.327467 0.053298
Si Si8 0.998142 0.324573 0.254658
O O1 0.918352 0.790804 0.113767
O O2 0.031192 0.743850 0.195533
O O3 0.087467 0.767934 0.092270
O O4 0.028610 0.000000 0.144420
O O5 0.138593 0.500000 0.574453
O O6 0.099581 0.732655 0.512256
O O7 0.153312 0.765044 0.620163
O O8 0.001570 0.659223 0.596351
O O9 0.128848 0.500000 0.367728
O O10 0.149004 0.225303 0.402902
O O11 0.068460 0.282205 0.303678
O O12 0.250000 0.838587 0.489192
O O13 0.388050 0.000000 0.469351
O O14 0.750000 0.193653 0.090521
O O15 0.859054 0.000000 0.044963
O O16 0.863512 0.277627 0.012220
O O17 0.250000 0.174175 0.708747
O O18 0.094890 0.260072 0.728669
O O19 0.119029 0.000000 0.681545
O O20 0.250000 0.298105 0.072053
O O21 0.127458 0.500000 0.058500
O O22 0.988500 0.500000 0.249349
#
# Coordination Sequence:
#
# PCOD8211514 Si02
#       8
#     8   8   8   8   8   8   8   8
#     4  11  22  36  58  86 115 151 192 233 280 333
#     4  10  20  34  54  79 105 134 171 213 260 320
#     4   9  20  38  56  74  98 132 173 214 260 314
#     4  11  23  35  50  77 107 132 165 211 262 318
#     4   9  19  36  57  84 120 156 187 223 272 331
#     4  10  20  34  53  78 109 143 179 221 269 323
#     4  10  21  37  58  85 116 150 190 236 284 332
#     4  10  22  39  57  78 106 141 184 230 272 322
#
# _framework density 19.703468000000001
#
# number of rings (size 3 to 8) (size 9 to 14) (size 15 to 20)
#    0.000    2.000    0.000    4.125    0.000   11.750 
#    0.000    1.875    0.000    0.750    0.000    0.000 
#    0.000    0.000    0.000    0.000    0.000    0.000 
#
# Total GULP energy -793645.408508 kJ/mol
# GULP energy per Si atom -12400.709508 kJ/mol
# Density = 1.965862 g / cm^3
# Si number density = 19.703468 Si / 1000 Ang^3
#
#
#
# Elastic Constant Matrix: (Units=GPa)
#
#
# Indices 1 2 3 4 5 6 
#
# 1 49.3382 25.9078 24.1252 0.0000 0.0000 0.0000
# 2 25.9078 115.1863 42.2158 0.0000 0.0000 0.0000
# 3 24.1252 42.2158 96.5871 0.0000 0.0000 0.0000
# 4 0.0000 0.0000 0.0000 36.7021 0.0000 0.0000
# 5 0.0000 0.0000 0.0000 0.0000 16.4251 0.0000
# 6 0.0000 0.0000 0.0000 0.0000 0.0000 44.3660
#
#
#
# Elastic Compliance Matrix: (Units=1/GPa)
#
#
# Indices 1 2 3 4 5 6 
#
# 1 0.024466 -0.003886 -0.004413 0.000000 0.000000 0.000000
# 2 -0.003886 0.010955 -0.003817 0.000000 0.000000 0.000000
# 3 -0.004413 -0.003817 0.013124 0.000000 0.000000 0.000000
# 4 0.000000 0.000000 0.000000 0.027246 0.000000 0.000000
# 5 0.000000 0.000000 0.000000 0.000000 0.060882 0.000000
# 6 0.000000 0.000000 0.000000 0.000000 0.000000 0.022540
#
#
# Mechanical properties :
#
#
# Convention : Reuss Voigt Hill
#
# Bulk Modulus (GPa) = 41.12983 49.51214 45.32098
# Shear Modulus (GPa) = 26.10285 30.75617 28.42951
#
# Velocity S-wave (km/s) = 3.64371 3.95518 3.80263
# Velocity P-wave (km/s) = 6.21465 6.78536 6.50626
#
# Compressibility (1/GPa) = 0.02431325
#
# Stress axis : x y z
#
# Youngs Moduli (GPa) = 40.87230 91.28529 76.19589
#
# Poissons Ratio (x) = 0.35471 0.33624
# Poissons Ratio (y) = 0.15882 0.29087
# Poissons Ratio (z) = 0.18036 0.34848
#
# Static dielectric constant tensor:
#      x y z
#    x 3.498650 0.000000 0.000000 
#    y 0.000000 3.791530 0.000000 
#    z 0.000000 0.000000 3.568600 
# 
# 
# High freq. dielectric constant tensor:
#      x y z
#    x 1.758420 0.000000 0.000000 
#    y 0.000000 1.780580 0.000000 
#    z 0.000000 0.000000 1.758380 
# 
# From -- ./inp_files/33925.got.cif
#   From: 2010.03.12/outbox.cif.g09.slc.cpg/sg51_17_cif.got.tgz:33925.got - 2010.04.16 13:43:02.
