data_PCOD8211833
_publ_section_title
;
Structure prediction by ZEFSAII (Michael W. Deem and Ramdas Pophale) SiO2 
 PCOD8211833
Probable space group: P M M A
;
_chemical_formula_sum "Si O2"
_cell_formula_units_Z 48
_cell_length_a 27.807214
_cell_length_b 8.930079
_cell_length_c 10.160926
_cell_angle_alpha 90.000000
_cell_angle_beta 90.000000
_cell_angle_gamma 90.000000
_cell_volume 2523.167422
_symmetry_space_group_name_H-M "P M M A"
_symmetry_group_IT_number 51
_symmetry_cell_setting 'orthorhombic'
loop_
_space_group_symop_operation_xyz
x,y,z
1/2-x,-y,z
1/2+x,-y,-z
-x,y,-z
-x,-y,-z
1/2+x,y,-z
1/2-x,y,z
x,-y,z
loop_
_atom_site_type_symbol
_atom_site_label
_atom_site_fract_x
_atom_site_fract_y
_atom_site_fract_z
Si Si1 0.195387 0.672829 0.634543
Si Si2 0.555392 0.172390 0.495852
Si Si3 0.893984 0.323862 0.733534
Si Si4 0.554627 0.175878 0.974927
Si Si5 0.804441 0.824396 0.641814
Si Si6 0.388022 0.172642 0.766967
O O1 0.250000 0.697503 0.683126
O O2 0.185590 0.500000 0.601066
O O3 0.184456 0.768941 0.505106
O O4 0.159967 0.728716 0.749199
O O5 0.500000 0.218648 0.500000
O O6 0.584297 0.278580 0.593394
O O7 0.574034 0.201028 0.349093
O O8 0.562524 0.000000 0.539415
O O9 0.890320 0.500000 0.744985
O O10 0.840188 0.255359 0.744496
O O11 0.927345 0.262644 0.848122
O O12 0.586770 0.224018 0.098880
O O13 0.557935 0.000000 0.946898
O O14 0.500000 0.224804 0.000000
O O15 0.750000 0.784157 0.683194
O O16 0.814046 0.000000 0.644816
O O17 0.372486 0.000000 0.773319
#
# Coordination Sequence:
#
# PCOD8211833 Si02
#       6
#     8   8   8   8   8   8
#     4  10  20  34  55  85 120 154 186 230 294 355
#     4  10  20  36  59  85 113 148 194 245 290 341
#     4  12  24  37  57  88 122 156 191 238 301 358
#     4  10  22  42  64  84 112 157 205 245 290 346
#     4  10  20  36  60  87 115 151 197 245 289 342
#     4  10  20  35  59  87 112 148 196 242 288 340
#
# _framework density 19.023707000000002
#
# number of rings (size 3 to 8) (size 9 to 14) (size 15 to 20)
#    0.000    1.667    1.667    3.500    0.000    6.000 
#    0.000    2.500    0.000    1.000    0.000    0.000 
#    0.000    0.000    0.000    0.000    0.000    0.000 
#
# Total GULP energy -595432.881295 kJ/mol
# GULP energy per Si atom -12404.851694 kJ/mol
# Density = 1.898041 g / cm^3
# Si number density = 19.023707 Si / 1000 Ang^3
#
#
#
# Elastic Constant Matrix: (Units=GPa)
#
#
# Indices 1 2 3 4 5 6 
#
# 1 123.5094 46.2032 20.7985 0.0000 0.0000 0.0000
# 2 46.2032 75.7275 24.7199 0.0000 0.0000 0.0000
# 3 20.7985 24.7199 51.8653 0.0000 0.0000 0.0000
# 4 0.0000 0.0000 0.0000 14.7473 0.0000 0.0000
# 5 0.0000 0.0000 0.0000 0.0000 33.3619 0.0000
# 6 0.0000 0.0000 0.0000 0.0000 0.0000 23.8012
#
#
#
# Elastic Compliance Matrix: (Units=1/GPa)
#
#
# Indices 1 2 3 4 5 6 
#
# 1 0.010574 -0.006001 -0.001380 0.000000 0.000000 0.000000
# 2 -0.006001 0.019044 -0.006670 0.000000 0.000000 0.000000
# 3 -0.001380 -0.006670 0.023013 0.000000 0.000000 0.000000
# 4 0.000000 0.000000 0.000000 0.067809 0.000000 0.000000
# 5 0.000000 0.000000 0.000000 0.000000 0.029974 0.000000
# 6 0.000000 0.000000 0.000000 0.000000 0.000000 0.042015
#
#
# Mechanical properties :
#
#
# Convention : Reuss Voigt Hill
#
# Bulk Modulus (GPa) = 40.76871 48.28283 44.52577
# Shear Modulus (GPa) = 21.86201 25.00746 23.43473
#
# Velocity S-wave (km/s) = 3.39366 3.62959 3.51361
# Velocity P-wave (km/s) = 6.06901 6.55749 6.31798
#
# Compressibility (1/GPa) = 0.02452862
#
# Stress axis : x y z
#
# Youngs Moduli (GPa) = 94.57352 52.51036 43.45318
#
# Poissons Ratio (x) = 0.31511 0.05997
# Poissons Ratio (y) = 0.56752 0.28984
# Poissons Ratio (z) = 0.13052 0.35026
#
# Static dielectric constant tensor:
#      x y z
#    x 3.814190 0.000000 0.000000 
#    y 0.000000 3.443780 0.000000 
#    z 0.000000 0.000000 3.290140 
# 
# 
# High freq. dielectric constant tensor:
#      x y z
#    x 1.759110 0.000000 0.000000 
#    y 0.000000 1.736940 0.000000 
#    z 0.000000 0.000000 1.719320 
# 
# From -- ./inp_files/12826.got.cif
#   From: 2010.03.12/outbox.cif.g09.slc.cpg/sg51_7_cif.got.tgz:12826.got - 2010.04.16 13:43:02.
