data_PCOD8211335
_publ_section_title
;
Structure prediction by ZEFSAII (Michael W. Deem and Ramdas Pophale) SiO2 
 PCOD8211335
Probable space group: P M M A
;
_chemical_formula_sum "Si O2"
_cell_formula_units_Z 64
_cell_length_a 9.096895
_cell_length_b 19.237301
_cell_length_c 20.185003
_cell_angle_alpha 90.000000
_cell_angle_beta 90.000000
_cell_angle_gamma 90.000000
_cell_volume 3532.369616
_symmetry_space_group_name_H-M "P M M A"
_symmetry_group_IT_number 51
_symmetry_cell_setting 'orthorhombic'
loop_
_space_group_symop_operation_xyz
x,y,z
1/2-x,-y,z
1/2+x,-y,-z
-x,y,-z
-x,-y,-z
1/2+x,y,-z
1/2-x,y,z
x,-y,z
loop_
_atom_site_type_symbol
_atom_site_label
_atom_site_fract_x
_atom_site_fract_y
_atom_site_fract_z
Si Si1 0.422100 0.331462 0.433006
Si Si2 0.080106 0.419041 0.677712
Si Si3 0.580792 0.419944 0.811946
Si Si4 0.921217 0.829376 0.566801
Si Si5 0.918120 0.919457 0.174205
Si Si6 0.077914 0.168446 0.066554
Si Si7 0.580976 0.080284 0.326750
Si Si8 0.921656 0.328123 0.934172
O O1 0.500000 0.356563 0.500000
O O2 0.250000 0.345822 0.440037
O O3 0.485448 0.375726 0.373455
O O4 0.456958 0.250974 0.419057
O O5 0.250000 0.397254 0.673238
O O6 0.057678 0.500000 0.661878
O O7 0.021017 0.400665 0.750251
O O8 0.750000 0.402806 0.794003
O O9 0.562740 0.500000 0.832403
O O10 0.523232 0.373585 0.872553
O O11 0.750000 0.842685 0.557075
O O12 0.000000 0.855155 0.500000
O O13 0.976379 0.872779 0.629048
O O14 0.750000 0.899110 0.158842
O O15 0.955733 0.903535 0.250466
O O16 0.026143 0.874790 0.129523
O O17 0.944728 0.000000 0.158430
O O18 0.250000 0.157852 0.057019
O O19 0.035647 0.248386 0.079753
O O20 0.000000 0.140862 0.000000
O O21 0.750000 0.098404 0.342158
O O22 0.549320 0.000000 0.342817
O O23 0.750000 0.337780 0.945371
O O24 0.000000 0.356054 0.000000
#
# Coordination Sequence:
#
# PCOD8211335 Si02
#       8
#     8   8   8   8   8   8   8   8
#     4  10  21  37  56  78 105 137 173 213 258 307
#     4  10  21  36  54  78 106 136 173 214 255 304
#     4   9  18  34  54  75 103 138 172 209 255 303
#     4  10  21  36  55  79 106 137 174 215 257 304
#     4   9  19  36  55  75 101 132 167 208 253 302
#     4  10  20  34  52  74 102 134 169 210 253 301
#     4   9  19  36  56  78 106 139 173 211 257 308
#     4   9  19  34  51  74 103 134 170 211 254 301
#
# _framework density 18.118148999999999
#
# number of rings (size 3 to 8) (size 9 to 14) (size 15 to 20)
#    0.000    2.500    0.000    2.250    0.000    6.250 
#    0.000    5.000    0.000    0.000    0.000    0.000 
#    0.000    0.000    0.000    0.000    0.000    0.000 
#
# Total GULP energy -793828.465369 kJ/mol
# GULP energy per Si atom -12403.569771 kJ/mol
# Density = 1.807691 g / cm^3
# Si number density = 18.118149 Si / 1000 Ang^3
#
#
#
# Elastic Constant Matrix: (Units=GPa)
#
#
# Indices 1 2 3 4 5 6 
#
# 1 89.3750 47.2420 64.9854 0.0000 0.0000 0.0000
# 2 47.2420 68.3862 69.4177 0.0000 0.0000 0.0000
# 3 64.9854 69.4177 129.8009 0.0000 0.0000 0.0000
# 4 0.0000 0.0000 0.0000 40.8052 0.0000 0.0000
# 5 0.0000 0.0000 0.0000 0.0000 40.4700 0.0000
# 6 0.0000 0.0000 0.0000 0.0000 0.0000 28.9878
#
#
#
# Elastic Compliance Matrix: (Units=1/GPa)
#
#
# Indices 1 2 3 4 5 6 
#
# 1 0.019286 -0.007704 -0.005535 0.000000 0.000000 0.000000
# 2 -0.007704 0.035066 -0.014896 0.000000 0.000000 0.000000
# 3 -0.005535 -0.014896 0.018442 0.000000 0.000000 0.000000
# 4 0.000000 0.000000 0.000000 0.024507 0.000000 0.000000
# 5 0.000000 0.000000 0.000000 0.000000 0.024710 0.000000
# 6 0.000000 0.000000 0.000000 0.000000 0.000000 0.034497
#
#
# Mechanical properties :
#
#
# Convention : Reuss Voigt Hill
#
# Bulk Modulus (GPa) = 60.52411 72.31689 66.42050
# Shear Modulus (GPa) = 22.90579 29.11374 26.00976
#
# Velocity S-wave (km/s) = 3.55948 4.01294 3.79299
# Velocity P-wave (km/s) = 7.09725 7.84043 7.47808
#
# Compressibility (1/GPa) = 0.01652234
#
# Stress axis : x y z
#
# Youngs Moduli (GPa) = 51.85145 28.51801 54.22426
#
# Poissons Ratio (x) = 0.21970 0.30016
# Poissons Ratio (y) = 0.39946 0.80773
# Poissons Ratio (z) = 0.28702 0.42481
#
# Static dielectric constant tensor:
#      x y z
#    x 3.360010 0.000000 0.000000 
#    y 0.000000 3.305940 0.000000 
#    z 0.000000 0.000000 3.388630 
# 
# 
# High freq. dielectric constant tensor:
#      x y z
#    x 1.707520 0.000000 0.000000 
#    y 0.000000 1.697260 0.000000 
#    z 0.000000 0.000000 1.708830 
# 
# From -- ./inp_files/28356.got.cif
#   From: 2010.03.12/outbox.cif.g09.slc.cpg/sg51_15_cif.got.tgz:28356.got - 2010.04.16 13:43:02.
