data_PCOD8211442
_publ_section_title
;
Structure prediction by ZEFSAII (Michael W. Deem and Ramdas Pophale) SiO2 
 PCOD8211442
Probable space group: P M M A
;
_chemical_formula_sum "Si O2"
_cell_formula_units_Z 64
_cell_length_a 22.403648
_cell_length_b 9.395101
_cell_length_c 16.175280
_cell_angle_alpha 90.000000
_cell_angle_beta 90.000000
_cell_angle_gamma 90.000000
_cell_volume 3404.646301
_symmetry_space_group_name_H-M "P M M A"
_symmetry_group_IT_number 51
_symmetry_cell_setting 'orthorhombic'
loop_
_space_group_symop_operation_xyz
x,y,z
1/2-x,-y,z
1/2+x,-y,-z
-x,y,-z
-x,-y,-z
1/2+x,y,-z
1/2-x,y,z
x,-y,z
loop_
_atom_site_type_symbol
_atom_site_label
_atom_site_fract_x
_atom_site_fract_y
_atom_site_fract_z
Si Si1 0.820553 0.169312 0.835128
Si Si2 0.535578 0.663109 0.119733
Si Si3 0.184009 0.839364 0.633268
Si Si4 0.318931 0.655022 0.486100
Si Si5 0.498998 0.663856 0.403149
Si Si6 0.929083 0.837931 0.276905
Si Si7 0.628415 0.334811 0.679986
Si Si8 0.594160 0.663945 0.948142
O O1 0.750000 0.208221 0.834617
O O2 0.855248 0.236504 0.757359
O O3 0.852139 0.235167 0.916740
O O4 0.829628 0.000000 0.834779
O O5 0.546770 0.500000 0.144615
O O6 0.553112 0.763783 0.193333
O O7 0.465552 0.687407 0.104981
O O8 0.576994 0.703817 0.041985
O O9 0.250000 0.783240 0.657599
O O10 0.153900 0.754307 0.556909
O O11 0.142707 0.827219 0.714123
O O12 0.187531 0.000000 0.601113
O O13 0.250000 0.640155 0.504904
O O14 0.351142 0.500000 0.491825
O O15 0.327200 0.712906 0.393463
O O16 0.500000 0.705064 0.500000
O O17 0.517561 0.500000 0.392024
O O18 0.545717 0.764077 0.358253
O O19 0.436809 0.693824 0.356737
O O20 0.951418 0.000000 0.273688
O O21 0.636765 0.500000 0.706372
O O22 0.614967 0.500000 0.941735
#
# Coordination Sequence:
#
# PCOD8211442 Si02
#       8
#     8   8   8   8   8   8   8   8
#     4  11  24  38  53  79 115 151 185 224 272 325
#     4   9  19  37  61  86 109 134 169 216 268 321
#     4   9  19  35  51  68  96 134 171 207 251 303
#     4   9  17  30  50  74  96 124 171 224 262 296
#     4  10  21  36  54  77 108 146 184 226 277 325
#     4  11  22  34  52  79 107 137 173 212 259 314
#     4  10  20  34  53  76 103 140 183 222 266 321
#     4   9  19  38  62  84 106 136 174 216 265 320
#
# _framework density 18.797840999999998
#
# number of rings (size 3 to 8) (size 9 to 14) (size 15 to 20)
#    0.000    2.250    0.000    3.375    0.000    8.750 
#    0.000    3.125    0.000    2.250    0.000    0.000 
#    0.000    0.000    0.000    0.000    0.000    0.000 
#
# Total GULP energy -793296.443789 kJ/mol
# GULP energy per Si atom -12395.256934 kJ/mol
# Density = 1.875506 g / cm^3
# Si number density = 18.797841 Si / 1000 Ang^3
#
#
#
# Elastic Constant Matrix: (Units=GPa)
#
#
# Indices 1 2 3 4 5 6 
#
# 1 85.3261 53.2227 51.9255 0.0000 0.0000 0.0000
# 2 53.2227 98.3032 66.2943 0.0000 0.0000 0.0000
# 3 51.9255 66.2943 113.6124 0.0000 0.0000 0.0000
# 4 0.0000 0.0000 0.0000 -35.3555 0.0000 0.0000
# 5 0.0000 0.0000 0.0000 0.0000 30.2978 0.0000
# 6 0.0000 0.0000 0.0000 0.0000 0.0000 26.4232
#
#
#
# Elastic Compliance Matrix: (Units=1/GPa)
#
#
# Indices 1 2 3 4 5 6 
#
# 1 0.018947 -0.007285 -0.004409 0.000000 0.000000 0.000000
# 2 -0.007285 0.019574 -0.008092 0.000000 0.000000 0.000000
# 3 -0.004409 -0.008092 0.015539 0.000000 0.000000 0.000000
# 4 0.000000 0.000000 0.000000 -0.028284 0.000000 0.000000
# 5 0.000000 0.000000 0.000000 0.000000 0.033006 0.000000
# 6 0.000000 0.000000 0.000000 0.000000 0.000000 0.037846
#
#
# Mechanical properties :
#
#
# Convention : Reuss Voigt Hill
#
# Bulk Modulus (GPa) = 69.02269 71.12518 70.07393
# Shear Modulus (GPa) = 35.45424 12.65971 24.05697
#
# Velocity S-wave (km/s) = 4.34761 2.59794 3.58127
# Velocity P-wave (km/s) = 7.87404 6.84968 7.37965
#
# Compressibility (1/GPa) = 0.01448799
#
# Stress axis : x y z
#
# Youngs Moduli (GPa) = 52.78010 51.08813 64.35564
#
# Poissons Ratio (x) = 0.37217 0.28371
# Poissons Ratio (y) = 0.38450 0.52078
# Poissons Ratio (z) = 0.23268 0.41342
#
# Static dielectric constant tensor:
#      x y z
#    x 3.586170 0.000000 0.000000 
#    y 0.000000 3.546290 0.000000 
#    z 0.000000 0.000000 3.379940 
# 
# 
# High freq. dielectric constant tensor:
#      x y z
#    x 1.733010 0.000000 0.000000 
#    y 0.000000 1.726390 0.000000 
#    z 0.000000 0.000000 1.726400 
# 
# From -- ./inp_files/26322.got.cif
#   From: 2010.03.12/outbox.cif.g09.slc.cpg/sg51_14_cif.got.tgz:26322.got - 2010.04.16 13:43:02.
