data_PCOD8211294
_publ_section_title
;
Structure prediction by ZEFSAII (Michael W. Deem and Ramdas Pophale) SiO2 
 PCOD8211294
Probable space group: P M M A
;
_chemical_formula_sum "Si O2"
_cell_formula_units_Z 48
_cell_length_a 13.845265
_cell_length_b 9.227586
_cell_length_c 20.835257
_cell_angle_alpha 90.000000
_cell_angle_beta 90.000000
_cell_angle_gamma 90.000000
_cell_volume 2661.878545
_symmetry_space_group_name_H-M "P M M A"
_symmetry_group_IT_number 51
_symmetry_cell_setting 'orthorhombic'
loop_
_space_group_symop_operation_xyz
x,y,z
1/2-x,-y,z
1/2+x,-y,-z
-x,y,-z
-x,-y,-z
1/2+x,y,-z
1/2-x,y,z
x,-y,z
loop_
_atom_site_type_symbol
_atom_site_label
_atom_site_fract_x
_atom_site_fract_y
_atom_site_fract_z
Si Si1 0.861548 0.165431 0.028650
Si Si2 0.025704 0.169558 0.844314
Si Si3 0.545720 0.328408 0.400822
Si Si4 0.361416 0.669707 0.098861
Si Si5 0.360830 0.170881 0.717661
Si Si6 0.356430 0.671718 0.468994
O O1 0.750000 0.186058 0.044764
O O2 0.917148 0.214579 0.091917
O O3 0.885575 0.000000 0.009884
O O4 0.894095 0.264048 0.969309
O O5 0.090086 0.217834 0.784203
O O6 0.924787 0.257363 0.844730
O O7 0.002675 0.000000 0.841654
O O8 0.553184 0.500000 0.390097
O O9 0.580102 0.247758 0.337981
O O10 0.612084 0.276644 0.460165
O O11 0.435013 0.279901 0.415922
O O12 0.250000 0.706290 0.113300
O O13 0.380791 0.500000 0.097138
O O14 0.250000 0.224042 0.718110
O O15 0.366478 0.000000 0.707194
O O16 0.250000 0.735836 0.452597
O O17 0.353347 0.500000 0.469999
#
# Coordination Sequence:
#
# PCOD8211294 Si02
#       6
#     8   8   8   8   8   8
#     4   9  17  31  52  75  97 124 161 202 243 291
#     4  10  20  34  52  72  95 128 168 202 235 286
#     4   9  17  30  51  77 101 130 169 205 238 284
#     4  10  21  35  50  71  99 127 157 200 253 298
#     4  10  21  36  52  72 101 132 159 195 246 295
#     4   8  14  27  49  76 104 132 164 204 245 283
#
# _framework density 18.032378000000001
#
# number of rings (size 3 to 8) (size 9 to 14) (size 15 to 20)
#    0.000    2.667    0.000    3.000    0.000    7.333 
#    0.000    2.500    0.000    7.500    0.000    0.000 
#    0.000    0.000    0.000    0.000    0.000    0.000 
#
# Total GULP energy -595129.375989 kJ/mol
# GULP energy per Si atom -12398.528666 kJ/mol
# Density = 1.799134 g / cm^3
# Si number density = 18.032378 Si / 1000 Ang^3
#
#
#
# Elastic Constant Matrix: (Units=GPa)
#
#
# Indices 1 2 3 4 5 6 
#
# 1 151.9042 44.1018 86.8005 0.0000 0.0000 0.0000
# 2 44.1018 41.3977 42.5543 0.0000 0.0000 0.0000
# 3 86.8005 42.5543 100.7583 0.0000 0.0000 0.0000
# 4 0.0000 0.0000 0.0000 39.3273 0.0000 0.0000
# 5 0.0000 0.0000 0.0000 0.0000 29.3758 0.0000
# 6 0.0000 0.0000 0.0000 0.0000 0.0000 25.1044
#
#
#
# Elastic Compliance Matrix: (Units=1/GPa)
#
#
# Indices 1 2 3 4 5 6 
#
# 1 0.013376 -0.004250 -0.009728 0.000000 0.000000 0.000000
# 2 -0.004250 0.044039 -0.014939 0.000000 0.000000 0.000000
# 3 -0.009728 -0.014939 0.024614 0.000000 0.000000 0.000000
# 4 0.000000 0.000000 0.000000 0.025428 0.000000 0.000000
# 5 0.000000 0.000000 0.000000 0.000000 0.034042 0.000000
# 6 0.000000 0.000000 0.000000 0.000000 0.000000 0.039834
#
#
# Mechanical properties :
#
#
# Convention : Reuss Voigt Hill
#
# Bulk Modulus (GPa) = 41.32792 71.21926 56.27359
# Shear Modulus (GPa) = 20.22414 26.80174 23.51294
#
# Velocity S-wave (km/s) = 3.35258 3.85945 3.61491
# Velocity P-wave (km/s) = 6.16075 7.70983 6.97841
#
# Compressibility (1/GPa) = 0.02419672
#
# Stress axis : x y z
#
# Youngs Moduli (GPa) = 74.76351 22.70714 40.62695
#
# Poissons Ratio (x) = 0.09649 0.39521
# Poissons Ratio (y) = 0.31771 0.60691
# Poissons Ratio (z) = 0.72729 0.33921
#
# Static dielectric constant tensor:
#      x y z
#    x 3.810830 0.000000 0.000000 
#    y 0.000000 3.074500 0.000000 
#    z 0.000000 0.000000 3.218340 
# 
# 
# High freq. dielectric constant tensor:
#      x y z
#    x 1.717050 0.000000 0.000000 
#    y 0.000000 1.672930 0.000000 
#    z 0.000000 0.000000 1.683220 
# 
# From -- ./inp_files/29460.got.cif
#   From: 2010.03.12/outbox.cif.g09.slc.cpg/sg51_15_cif.got.tgz:29460.got - 2010.04.16 13:43:02.
