data_PCOD8211141
_publ_section_title
;
Structure prediction by ZEFSAII (Michael W. Deem and Ramdas Pophale) SiO2 
 PCOD8211141
Probable space group: P M M A
;
_chemical_formula_sum "Si O2"
_cell_formula_units_Z 64
_cell_length_a 18.074403
_cell_length_b 9.439406
_cell_length_c 19.712817
_cell_angle_alpha 90.000000
_cell_angle_beta 90.000000
_cell_angle_gamma 90.000000
_cell_volume 3363.235803
_symmetry_space_group_name_H-M "P M M A"
_symmetry_group_IT_number 51
_symmetry_cell_setting 'orthorhombic'
loop_
_space_group_symop_operation_xyz
x,y,z
1/2-x,-y,z
1/2+x,-y,-z
-x,y,-z
-x,-y,-z
1/2+x,y,-z
1/2-x,y,z
x,-y,z
loop_
_atom_site_type_symbol
_atom_site_label
_atom_site_fract_x
_atom_site_fract_y
_atom_site_fract_z
Si Si1 0.834420 0.665442 0.888436
Si Si2 0.167269 0.841474 0.347998
Si Si3 0.443475 0.336335 0.601617
Si Si4 0.085828 0.834516 0.735398
Si Si5 0.335594 0.334779 0.846766
Si Si6 0.603924 0.661866 0.544471
Si Si7 0.079787 0.665918 0.978823
Si Si8 0.921576 0.164134 0.778584
O O1 0.750000 0.716354 0.878339
O O2 0.842345 0.500000 0.872036
O O3 0.890334 0.748621 0.840883
O O4 0.858675 0.699578 0.964872
O O5 0.250000 0.838095 0.318997
O O6 0.165037 0.754909 0.417846
O O7 0.114615 0.775206 0.290390
O O8 0.140853 0.000000 0.364649
O O9 0.438459 0.500000 0.625244
O O10 0.416543 0.233830 0.660953
O O11 0.391928 0.309335 0.535928
O O12 0.525534 0.297197 0.577574
O O13 0.148055 0.755891 0.779429
O O14 0.008852 0.812353 0.774576
O O15 0.105294 0.000000 0.727567
O O16 0.250000 0.313276 0.867020
O O17 0.351840 0.500000 0.831975
O O18 0.387644 0.275594 0.907795
O O19 0.622021 0.500000 0.559431
O O20 0.068096 0.500000 0.970044
O O21 0.000000 0.734243 0.000000
O O22 0.900143 0.000000 0.788157
#
# Coordination Sequence:
#
# PCOD8211141 Si02
#       8
#     8   8   8   8   8   8   8   8
#     4  10  20  33  52  80 110 140 180 228 271 317
#     4  10  20  34  51  73 108 151 188 223 269 328
#     4   9  18  34  56  81 108 138 175 224 279 331
#     4  11  22  36  57  84 110 142 185 232 274 318
#     4  10  21  38  60  84 113 150 185 222 279 341
#     4   9  18  33  54  80 107 136 177 228 277 327
#     4   9  17  32  56  84 111 141 179 226 277 328
#     4  10  21  36  52  75 109 148 185 221 269 326
#
# _framework density 19.029294
#
# number of rings (size 3 to 8) (size 9 to 14) (size 15 to 20)
#    0.000    2.250    1.250    2.625    0.000    5.750 
#    0.000    2.500    0.000    4.500    0.000    0.000 
#    0.000    0.000    0.000    0.000    0.000    0.000 
#
# Total GULP energy -793558.207009 kJ/mol
# GULP energy per Si atom -12399.346985 kJ/mol
# Density = 1.898598 g / cm^3
# Si number density = 19.029294 Si / 1000 Ang^3
#
#
#
# Elastic Constant Matrix: (Units=GPa)
#
#
# Indices 1 2 3 4 5 6 
#
# 1 65.6348 26.4569 30.0399 0.0000 0.0000 0.0000
# 2 26.4569 66.2171 53.4175 0.0000 0.0000 0.0000
# 3 30.0399 53.4175 114.4776 0.0000 0.0000 0.0000
# 4 0.0000 0.0000 0.0000 -1.3219 0.0000 0.0000
# 5 0.0000 0.0000 0.0000 0.0000 25.9419 0.0000
# 6 0.0000 0.0000 0.0000 0.0000 0.0000 23.4297
#
#
#
# Elastic Compliance Matrix: (Units=1/GPa)
#
#
# Indices 1 2 3 4 5 6 
#
# 1 0.018517 -0.005579 -0.002256 0.000000 0.000000 0.000000
# 2 -0.005579 0.025899 -0.010621 0.000000 0.000000 0.000000
# 3 -0.002256 -0.010621 0.014283 0.000000 0.000000 0.000000
# 4 0.000000 0.000000 0.000000 -0.756515 0.000000 0.000000
# 5 0.000000 0.000000 0.000000 0.000000 0.038548 0.000000
# 6 0.000000 0.000000 0.000000 0.000000 0.000000 0.042681
#
#
# Mechanical properties :
#
#
# Convention : Reuss Voigt Hill
#
# Bulk Modulus (GPa) = 45.89680 51.79534 48.84607
# Shear Modulus (GPa) = -8.73494 18.70430 4.98468
#
# Velocity S-wave (km/s) = -2.14481 3.13856 1.62024
# Velocity P-wave (km/s) = 4.24709 6.35704 5.40600
#
# Compressibility (1/GPa) = 0.02178801
#
# Stress axis : x y z
#
# Youngs Moduli (GPa) = 54.00448 38.61197 70.01188
#
# Poissons Ratio (x) = 0.21540 0.15794
# Poissons Ratio (y) = 0.30127 0.74360
# Poissons Ratio (z) = 0.12183 0.41010
#
# Static dielectric constant tensor:
#      x y z
#    x 3.421370 0.000000 0.000000 
#    y 0.000000 3.285470 0.000000 
#    z 0.000000 0.000000 3.502990 
# 
# 
# High freq. dielectric constant tensor:
#      x y z
#    x 1.733550 0.000000 0.000000 
#    y 0.000000 1.718670 0.000000 
#    z 0.000000 0.000000 1.745330 
# 
# From -- ./inp_files/30536.got.cif
#   From: 2010.03.12/outbox.cif.g09.slc.cpg/sg51_16_cif.got.tgz:30536.got - 2010.04.16 13:43:02.
