data_PCOD8211422
_publ_section_title
;
Structure prediction by ZEFSAII (Michael W. Deem and Ramdas Pophale) SiO2 
 PCOD8211422
Probable space group: P M M A
;
_chemical_formula_sum "Si O2"
_cell_formula_units_Z 64
_cell_length_a 9.680542
_cell_length_b 8.993507
_cell_length_c 41.457281
_cell_angle_alpha 90.000000
_cell_angle_beta 90.000000
_cell_angle_gamma 90.000000
_cell_volume 3609.354720
_symmetry_space_group_name_H-M "P M M A"
_symmetry_group_IT_number 51
_symmetry_cell_setting 'orthorhombic'
loop_
_space_group_symop_operation_xyz
x,y,z
1/2-x,-y,z
1/2+x,-y,-z
-x,y,-z
-x,-y,-z
1/2+x,y,-z
1/2-x,y,z
x,-y,z
loop_
_atom_site_type_symbol
_atom_site_label
_atom_site_fract_x
_atom_site_fract_y
_atom_site_fract_z
Si Si1 0.588619 0.674283 0.158893
Si Si2 0.090371 0.174808 0.342817
Si Si3 0.095086 0.823014 0.528001
Si Si4 0.409436 0.326112 0.969825
Si Si5 0.089341 0.825148 0.213955
Si Si6 0.905025 0.176728 0.400767
Si Si7 0.085996 0.667361 0.278705
Si Si8 0.413902 0.832965 0.905721
O O1 0.750000 0.709888 0.164339
O O2 0.559181 0.500000 0.159620
O O3 0.500895 0.753423 0.186168
O O4 0.535404 0.737529 0.124751
O O5 0.250000 0.213795 0.348547
O O6 0.030012 0.254467 0.311041
O O7 0.007852 0.239326 0.373578
O O8 0.068039 0.000000 0.338135
O O9 0.250000 0.766656 0.521705
O O10 0.045788 0.769747 0.563618
O O11 0.000000 0.752490 0.500000
O O12 0.089603 0.000000 0.526484
O O13 0.250000 0.286005 0.976787
O O14 0.427813 0.500000 0.963243
O O15 0.468485 0.241466 0.938555
O O16 0.500000 0.272441 0.000000
O O17 0.250000 0.786005 0.208166
O O18 0.034993 0.758712 0.247695
O O19 0.064439 0.000000 0.214577
O O20 0.750000 0.234807 0.393849
O O21 0.906554 0.000000 0.399876
O O22 0.250000 0.668062 0.279692
O O23 0.027531 0.500000 0.276694
O O24 0.250000 0.833670 0.906575
O O25 0.473047 0.000000 0.902929
#
# Coordination Sequence:
#
# PCOD8211422 Si02
#       8
#     8   8   8   8   8   8   8   8
#     4  10  20  34  53  76 101 130 165 203 241 284
#     4   9  16  26  42  63  83 106 143 186 219 254
#     4   8  13  20  30  46  71 104 139 172 208 254
#     4   9  17  30  48  69  93 122 157 196 239 288
#     4  10  20  34  53  76 101 129 161 197 239 287
#     4   8  14  24  36  52  78 111 142 173 216 267
#     4   9  17  30  48  68  91 120 152 186 227 274
#     4   9  17  30  49  71  95 126 163 200 239 285
#
# _framework density 17.731701999999999
#
# number of rings (size 3 to 8) (size 9 to 14) (size 15 to 20)
#    0.000    3.000    0.000    2.250    0.000    5.250 
#    0.000    3.750    0.000    4.875    0.000    0.000 
#    0.000    0.500    0.000    1.125    0.000    2.250 
#
# Total GULP energy -793409.483072 kJ/mol
# GULP energy per Si atom -12397.023173 kJ/mol
# Density = 1.769134 g / cm^3
# Si number density = 17.731702 Si / 1000 Ang^3
#
#
#
# Elastic Constant Matrix: (Units=GPa)
#
#
# Indices 1 2 3 4 5 6 
#
# 1 57.8260 33.8001 73.0429 0.0000 0.0000 0.0000
# 2 33.8001 73.9220 64.0459 0.0000 0.0000 0.0000
# 3 73.0429 64.0459 198.9469 0.0000 0.0000 0.0000
# 4 0.0000 0.0000 0.0000 6.6399 0.0000 0.0000
# 5 0.0000 0.0000 0.0000 0.0000 34.5326 0.0000
# 6 0.0000 0.0000 0.0000 0.0000 0.0000 14.9433
#
#
#
# Elastic Compliance Matrix: (Units=1/GPa)
#
#
# Indices 1 2 3 4 5 6 
#
# 1 0.034455 -0.006649 -0.010510 0.000000 0.000000 0.000000
# 2 -0.006649 0.020043 -0.004011 0.000000 0.000000 0.000000
# 3 -0.010510 -0.004011 0.010176 0.000000 0.000000 0.000000
# 4 0.000000 0.000000 0.000000 0.150604 0.000000 0.000000
# 5 0.000000 0.000000 0.000000 0.000000 0.028958 0.000000
# 6 0.000000 0.000000 0.000000 0.000000 0.000000 0.066920
#
#
# Mechanical properties :
#
#
# Convention : Reuss Voigt Hill
#
# Bulk Modulus (GPa) = 44.77242 74.71919 59.74581
# Shear Modulus (GPa) = 13.85271 21.87689 17.86480
#
# Velocity S-wave (km/s) = 2.79810 3.51632 3.17757
# Velocity P-wave (km/s) = 5.97862 7.66265 6.87241
#
# Compressibility (1/GPa) = 0.02233518
#
# Stress axis : x y z
#
# Youngs Moduli (GPa) = 29.02368 49.89210 98.26628
#
# Poissons Ratio (x) = 0.33171 1.03274
# Poissons Ratio (y) = 0.19296 0.39419
# Poissons Ratio (z) = 0.30503 0.20014
#
# Static dielectric constant tensor:
#      x y z
#    x 3.156270 0.000000 0.000000 
#    y 0.000000 3.153380 0.000000 
#    z 0.000000 0.000000 3.646450 
# 
# 
# High freq. dielectric constant tensor:
#      x y z
#    x 1.653290 0.000000 0.000000 
#    y 0.000000 1.664410 0.000000 
#    z 0.000000 0.000000 1.703460 
# 
# From -- ./inp_files/37766.got.cif
#   From: 2010.03.12/outbox.cif.g09.slc.cpg/sg51_19_cif.got.tgz:37766.got - 2010.04.16 13:43:02.
