data_PCOD8211533
_publ_section_title
;
Structure prediction by ZEFSAII (Michael W. Deem and Ramdas Pophale) SiO2 
 PCOD8211533
Probable space group: P M M A
;
_chemical_formula_sum "Si O2"
_cell_formula_units_Z 48
_cell_length_a 18.408498
_cell_length_b 9.204462
_cell_length_c 14.482065
_cell_angle_alpha 90.000000
_cell_angle_beta 90.000000
_cell_angle_gamma 90.000000
_cell_volume 2453.845732
_symmetry_space_group_name_H-M "P M M A"
_symmetry_group_IT_number 51
_symmetry_cell_setting 'orthorhombic'
loop_
_space_group_symop_operation_xyz
x,y,z
1/2-x,-y,z
1/2+x,-y,-z
-x,y,-z
-x,-y,-z
1/2+x,y,-z
1/2-x,y,z
x,-y,z
loop_
_atom_site_type_symbol
_atom_site_label
_atom_site_fract_x
_atom_site_fract_y
_atom_site_fract_z
Si Si1 0.750000 0.327280 0.206979
Si Si2 0.857328 0.834745 0.868125
Si Si3 0.827167 0.833714 0.661411
Si Si4 0.250000 0.673268 0.003457
Si Si5 0.982689 0.829995 0.605630
Si Si6 0.904531 0.665874 0.266119
Si Si7 0.007824 0.663977 0.105023
O O1 0.750000 0.500000 0.201984
O O2 0.750000 0.269712 0.101773
O O3 0.678241 0.273557 0.262428
O O4 0.817040 0.822980 0.771169
O O5 0.937825 0.776805 0.847648
O O6 0.858248 0.000000 0.904050
O O7 0.821028 0.734978 0.945913
O O8 0.750000 0.767130 0.621625
O O9 0.902403 0.759853 0.626348
O O10 0.831507 0.000000 0.629118
O O11 0.250000 0.500000 0.010214
O O12 0.000000 0.798948 0.500000
O O13 0.045822 0.758112 0.665717
O O14 0.982752 0.000000 0.630178
O O15 0.906399 0.500000 0.301307
O O16 0.932502 0.675151 0.160379
O O17 0.038896 0.500000 0.110171
O O18 0.000000 0.713677 0.000000
#
# Coordination Sequence:
#
# PCOD8211533 Si02
#       7
#     4   8   8   4   8   8   8
#     4   9  20  39  59  80 111 158 200 238 290 346
#     4  11  20  32  52  79 112 149 191 234 288 344
#     4   9  17  33  56  79 110 148 181 223 281 344
#     4  11  21  35  55  80 117 158 200 242 280 336
#     4  10  21  39  62  88 116 148 190 239 298 358
#     4  10  20  37  61  83 111 152 198 242 292 347
#     4  10  20  34  53  79 110 149 196 238 285 351
#
# _framework density 19.561131
#
# number of rings (size 3 to 8) (size 9 to 14) (size 15 to 20)
#    0.000    2.000    2.500    1.750    0.000    3.333 
#    1.500    3.750    0.000    0.000    0.000    0.000 
#    0.000    0.000    0.000    0.000    0.000    0.000 
#
# Total GULP energy -594863.167536 kJ/mol
# GULP energy per Si atom -12392.982657 kJ/mol
# Density = 1.951661 g / cm^3
# Si number density = 19.561131 Si / 1000 Ang^3
#
#
#
# Elastic Constant Matrix: (Units=GPa)
#
#
# Indices 1 2 3 4 5 6 
#
# 1 189.8559 42.3209 60.0138 0.0000 0.0000 0.0000
# 2 42.3209 56.4667 29.7265 0.0000 0.0000 0.0000
# 3 60.0138 29.7265 85.3089 0.0000 0.0000 0.0000
# 4 0.0000 0.0000 0.0000 23.2487 0.0000 0.0000
# 5 0.0000 0.0000 0.0000 0.0000 22.4376 0.0000
# 6 0.0000 0.0000 0.0000 0.0000 0.0000 24.7058
#
#
#
# Elastic Compliance Matrix: (Units=1/GPa)
#
#
# Indices 1 2 3 4 5 6 
#
# 1 0.007262 -0.003372 -0.003934 0.000000 0.000000 0.000000
# 2 -0.003372 0.023254 -0.005731 0.000000 0.000000 0.000000
# 3 -0.003934 -0.005731 0.016487 0.000000 0.000000 0.000000
# 4 0.000000 0.000000 0.000000 0.043013 0.000000 0.000000
# 5 0.000000 0.000000 0.000000 0.000000 0.044568 0.000000
# 6 0.000000 0.000000 0.000000 0.000000 0.000000 0.040476
#
#
# Mechanical properties :
#
#
# Convention : Reuss Voigt Hill
#
# Bulk Modulus (GPa) = 47.78030 66.19488 56.98759
# Shear Modulus (GPa) = 24.02576 27.38311 25.70444
#
# Velocity S-wave (km/s) = 3.50843 3.74555 3.62892
# Velocity P-wave (km/s) = 6.39463 7.25389 6.83777
#
# Compressibility (1/GPa) = 0.02092913
#
# Stress axis : x y z
#
# Youngs Moduli (GPa) = 137.69660 43.00381 60.65553
#
# Poissons Ratio (x) = 0.14501 0.23862
# Poissons Ratio (y) = 0.46431 0.34760
# Poissons Ratio (z) = 0.54169 0.24645
#
# Static dielectric constant tensor:
#      x y z
#    x 4.033110 0.000000 0.000000 
#    y 0.000000 3.286630 0.000000 
#    z 0.000000 0.000000 3.366430 
# 
# 
# High freq. dielectric constant tensor:
#      x y z
#    x 1.784800 0.000000 0.000000 
#    y 0.000000 1.728440 0.000000 
#    z 0.000000 0.000000 1.743420 
# 
# From -- ./inp_files/24958.got.cif
#   From: 2010.03.12/outbox.cif.g09.slc.cpg/sg51_13_cif.got.tgz:24958.got - 2010.04.16 13:43:02.
