data_PCOD8211494
_publ_section_title
;
Structure prediction by ZEFSAII (Michael W. Deem and Ramdas Pophale) SiO2 
 PCOD8211494
Probable space group: P M M A
;
_chemical_formula_sum "Si O2"
_cell_formula_units_Z 56
_cell_length_a 21.012090
_cell_length_b 9.257773
_cell_length_c 14.570545
_cell_angle_alpha 90.000000
_cell_angle_beta 90.000000
_cell_angle_gamma 90.000000
_cell_volume 2834.337590
_symmetry_space_group_name_H-M "P M M A"
_symmetry_group_IT_number 51
_symmetry_cell_setting 'orthorhombic'
loop_
_space_group_symop_operation_xyz
x,y,z
1/2-x,-y,z
1/2+x,-y,-z
-x,y,-z
-x,-y,-z
1/2+x,y,-z
1/2-x,y,z
x,-y,z
loop_
_atom_site_type_symbol
_atom_site_label
_atom_site_fract_x
_atom_site_fract_y
_atom_site_fract_z
Si Si1 0.571885 0.329335 0.104124
Si Si2 0.002205 0.660771 0.391536
Si Si3 0.373306 0.170162 0.395160
Si Si4 0.117947 0.836567 0.602847
Si Si5 0.570233 0.329354 0.897240
Si Si6 0.320654 0.666766 0.236866
Si Si7 0.679353 0.164961 0.213083
O O1 0.581103 0.500000 0.108466
O O2 0.500547 0.286628 0.139364
O O3 0.625649 0.259379 0.166107
O O4 0.580072 0.270462 0.000359
O O5 0.008256 0.500000 0.347789
O O6 0.937491 0.734348 0.357825
O O7 0.000000 0.650001 0.500000
O O8 0.060718 0.759511 0.360776
O O9 0.358221 0.209434 0.501392
O O10 0.319931 0.242403 0.331421
O O11 0.375497 0.000000 0.378816
O O12 0.174724 0.823845 0.675961
O O13 0.091056 0.000000 0.596543
O O14 0.575904 0.500000 0.901607
O O15 0.626351 0.267544 0.832488
O O16 0.250000 0.682189 0.193124
O O17 0.335689 0.500000 0.259766
O O18 0.750000 0.219610 0.185691
O O19 0.669745 0.000000 0.181895
#
# Coordination Sequence:
#
# PCOD8211494 Si02
#       7
#     8   8   8   8   8   8   8
#     4   9  18  36  62  87 109 138 181 228 273 330
#     4   9  17  30  50  76 104 135 176 227 279 323
#     4  10  20  34  53  77 108 146 189 232 271 322
#     4   9  19  35  53  74 106 149 191 227 270 324
#     4   8  17  36  60  85 112 141 176 224 279 332
#     4  10  21  36  54  79 112 149 186 226 278 333
#     4  10  22  38  54  78 114 151 185 225 276 327
#
# _framework density 19.757704
#
# number of rings (size 3 to 8) (size 9 to 14) (size 15 to 20)
#    0.000    2.714    0.000    1.714    2.000    4.571 
#    0.000    5.000    0.000    0.000    0.000    0.000 
#    0.000    0.000    0.000    0.000    0.000    0.000 
#
# Total GULP energy -694142.497876 kJ/mol
# GULP energy per Si atom -12395.401748 kJ/mol
# Density = 1.971273 g / cm^3
# Si number density = 19.757704 Si / 1000 Ang^3
#
#
#
# Elastic Constant Matrix: (Units=GPa)
#
#
# Indices 1 2 3 4 5 6 
#
# 1 141.1070 44.6495 66.3342 0.0000 0.0000 0.0000
# 2 44.6495 70.1896 32.8474 0.0000 0.0000 0.0000
# 3 66.3342 32.8474 86.7491 0.0000 0.0000 0.0000
# 4 0.0000 0.0000 0.0000 23.0105 0.0000 0.0000
# 5 0.0000 0.0000 0.0000 0.0000 25.6747 0.0000
# 6 0.0000 0.0000 0.0000 0.0000 0.0000 22.9322
#
#
#
# Elastic Compliance Matrix: (Units=1/GPa)
#
#
# Indices 1 2 3 4 5 6 
#
# 1 0.011936 -0.004037 -0.007599 0.000000 0.000000 0.000000
# 2 -0.004037 0.018681 -0.003987 0.000000 0.000000 0.000000
# 3 -0.007599 -0.003987 0.018848 0.000000 0.000000 0.000000
# 4 0.000000 0.000000 0.000000 0.043458 0.000000 0.000000
# 5 0.000000 0.000000 0.000000 0.000000 0.038949 0.000000
# 6 0.000000 0.000000 0.000000 0.000000 0.000000 0.043607
#
#
# Mechanical properties :
#
#
# Convention : Reuss Voigt Hill
#
# Bulk Modulus (GPa) = 54.88423 65.07866 59.98145
# Shear Modulus (GPa) = 23.49662 24.60446 24.05054
#
# Velocity S-wave (km/s) = 3.45227 3.53272 3.49273
# Velocity P-wave (km/s) = 6.61286 7.04628 6.83301
#
# Compressibility (1/GPa) = 0.01822017
#
# Stress axis : x y z
#
# Youngs Moduli (GPa) = 83.77743 53.53099 53.05734
#
# Poissons Ratio (x) = 0.21610 0.40317
# Poissons Ratio (y) = 0.33821 0.21151
# Poissons Ratio (z) = 0.63661 0.21340
#
# Static dielectric constant tensor:
#      x y z
#    x 3.628650 0.000000 0.000000 
#    y 0.000000 3.433050 0.000000 
#    z 0.000000 0.000000 3.670960 
# 
# 
# High freq. dielectric constant tensor:
#      x y z
#    x 1.766740 0.000000 0.000000 
#    y 0.000000 1.748190 0.000000 
#    z 0.000000 0.000000 1.766540 
# 
# From -- ./inp_files/25728.got.cif
#   From: 2010.03.12/outbox.cif.g09.slc.cpg/sg51_13_cif.got.tgz:25728.got - 2010.04.16 13:43:02.
