data_PCOD8211229
_publ_section_title
;
Structure prediction by ZEFSAII (Michael W. Deem and Ramdas Pophale) SiO2 
 PCOD8211229
Probable space group: P M M A
;
_chemical_formula_sum "Si O2"
_cell_formula_units_Z 64
_cell_length_a 22.642198
_cell_length_b 9.115676
_cell_length_c 20.468227
_cell_angle_alpha 90.000000
_cell_angle_beta 90.000000
_cell_angle_gamma 90.000000
_cell_volume 4224.620375
_symmetry_space_group_name_H-M "P M M A"
_symmetry_group_IT_number 51
_symmetry_cell_setting 'orthorhombic'
loop_
_space_group_symop_operation_xyz
x,y,z
1/2-x,-y,z
1/2+x,-y,-z
-x,y,-z
-x,-y,-z
1/2+x,y,-z
1/2-x,y,z
x,-y,z
loop_
_atom_site_type_symbol
_atom_site_label
_atom_site_fract_x
_atom_site_fract_y
_atom_site_fract_z
Si Si1 0.432606 0.334097 0.522081
Si Si2 0.015801 0.825514 0.785644
Si Si3 0.818922 0.169545 0.717174
Si Si4 0.468039 0.831173 0.641573
Si Si5 0.605321 0.325500 0.819827
Si Si6 0.946129 0.836491 0.081995
Si Si7 0.099417 0.830212 0.400484
Si Si8 0.915756 0.166684 0.946309
O O1 0.500000 0.318520 0.500000
O O2 0.411451 0.500000 0.528075
O O3 0.425962 0.260817 0.593433
O O4 0.391418 0.256179 0.468385
O O5 0.047427 0.791972 0.716739
O O6 0.060141 0.769997 0.844359
O O7 0.954011 0.740871 0.789054
O O8 0.002477 0.000000 0.792529
O O9 0.750000 0.193861 0.706990
O O10 0.839923 0.270980 0.776664
O O11 0.850521 0.219588 0.650292
O O12 0.834562 0.000000 0.732741
O O13 0.536596 0.792038 0.631597
O O14 0.455979 0.000000 0.625733
O O15 0.601660 0.500000 0.819822
O O16 0.617140 0.269606 0.894084
O O17 0.015713 0.837171 0.070421
O O18 0.920926 0.000000 0.082487
O O19 0.911243 0.762667 0.020518
O O20 0.104561 0.000000 0.417984
O O21 0.890435 0.000000 0.943095
#
# Coordination Sequence:
#
# PCOD8211229 Si02
#       8
#     8   8   8   8   8   8   8   8
#     4   9  17  26  37  55  78 102 127 157 192 234
#     4   9  15  26  41  56  77 105 137 165 196 232
#     4  10  20  34  49  61  74  98 134 173 209 244
#     4   9  15  24  40  58  77 102 131 164 195 230
#     4  11  20  27  38  56  78 103 130 164 204 239
#     4   7  11  20  37  56  71  95 131 167 191 219
#     4   9  16  28  43  58  73  95 128 164 200 237
#     4   8  13  24  39  52  70  98 133 164 192 226
#
# _framework density 15.149289
#
# number of rings (size 3 to 8) (size 9 to 14) (size 15 to 20)
#    0.000    3.000    1.250    3.000    0.000    2.750 
#    0.000    5.000    0.000    0.000    0.000    0.000 
#    0.000    0.000    0.000    1.125    0.000   23.250 
#
# Total GULP energy -792857.734859 kJ/mol
# GULP energy per Si atom -12388.402107 kJ/mol
# Density = 1.511481 g / cm^3
# Si number density = 15.149289 Si / 1000 Ang^3
#
#
#
# Elastic Constant Matrix: (Units=GPa)
#
#
# Indices 1 2 3 4 5 6 
#
# 1 29.9852 21.4403 35.8146 0.0000 0.0000 0.0000
# 2 21.4403 69.4963 57.9046 0.0000 0.0000 0.0000
# 3 35.8146 57.9046 166.9323 0.0000 0.0000 0.0000
# 4 0.0000 0.0000 0.0000 9.0708 0.0000 0.0000
# 5 0.0000 0.0000 0.0000 0.0000 12.7653 0.0000
# 6 0.0000 0.0000 0.0000 0.0000 0.0000 7.3290
#
#
#
# Elastic Compliance Matrix: (Units=1/GPa)
#
#
# Indices 1 2 3 4 5 6 
#
# 1 0.048413 -0.008835 -0.007322 0.000000 0.000000 0.000000
# 2 -0.008835 0.021851 -0.005684 0.000000 0.000000 0.000000
# 3 -0.007322 -0.005684 0.009533 0.000000 0.000000 0.000000
# 4 0.000000 0.000000 0.000000 0.110244 0.000000 0.000000
# 5 0.000000 0.000000 0.000000 0.000000 0.078337 0.000000
# 6 0.000000 0.000000 0.000000 0.000000 0.000000 0.136444
#
#
# Mechanical properties :
#
#
# Convention : Reuss Voigt Hill
#
# Bulk Modulus (GPa) = 27.68982 55.19252 41.44117
# Shear Modulus (GPa) = 10.85679 15.91666 13.38672
#
# Velocity S-wave (km/s) = 2.67994 3.24490 2.97586
# Velocity P-wave (km/s) = 5.28145 7.10990 6.26276
#
# Compressibility (1/GPa) = 0.03611435
#
# Stress axis : x y z
#
# Youngs Moduli (GPa) = 20.65579 45.76480 104.89871
#
# Poissons Ratio (x) = 0.40433 0.76808
# Poissons Ratio (y) = 0.18249 0.59625
# Poissons Ratio (z) = 0.15124 0.26013
#
# Static dielectric constant tensor:
#      x y z
#    x 2.331390 0.000000 0.000000 
#    y 0.000000 2.789700 0.000000 
#    z 0.000000 0.000000 3.526320 
# 
# 
# High freq. dielectric constant tensor:
#      x y z
#    x 1.497620 0.000000 0.000000 
#    y 0.000000 1.565060 0.000000 
#    z 0.000000 0.000000 1.604950 
# 
# From -- ./inp_files/34217.got.cif
#   From: 2010.03.12/outbox.cif.g09.slc.cpg/sg51_18_cif.got.tgz:34217.got - 2010.04.16 13:43:02.
