data_PCOD8211519
_publ_section_title
;
Structure prediction by ZEFSAII (Michael W. Deem and Ramdas Pophale) SiO2 
 PCOD8211519
Probable space group: P M M A
;
_chemical_formula_sum "Si O2"
_cell_formula_units_Z 40
_cell_length_a 14.928578
_cell_length_b 8.835657
_cell_length_c 15.063575
_cell_angle_alpha 90.000000
_cell_angle_beta 90.000000
_cell_angle_gamma 90.000000
_cell_volume 1986.942704
_symmetry_space_group_name_H-M "P M M A"
_symmetry_group_IT_number 51
_symmetry_cell_setting 'orthorhombic'
loop_
_space_group_symop_operation_xyz
x,y,z
1/2-x,-y,z
1/2+x,-y,-z
-x,y,-z
-x,-y,-z
1/2+x,y,-z
1/2-x,y,z
x,-y,z
loop_
_atom_site_type_symbol
_atom_site_label
_atom_site_fract_x
_atom_site_fract_y
_atom_site_fract_z
Si Si1 0.750000 0.177615 0.197015
Si Si2 0.750000 0.178254 0.657282
Si Si3 0.064043 0.178881 0.264711
Si Si4 0.750000 0.673671 0.469975
Si Si5 0.564718 0.325024 0.921446
Si Si6 0.250000 0.672391 0.987943
Si Si7 0.109515 0.322800 0.678584
O O1 0.750000 0.212121 0.093061
O O2 0.839166 0.247835 0.239100
O O3 0.750000 0.000000 0.213638
O O4 0.838915 0.242920 0.705225
O O5 0.750000 0.219982 0.554459
O O6 0.750000 0.000000 0.665845
O O7 0.043408 0.225168 0.164114
O O8 0.989568 0.253075 0.328869
O O9 0.058522 0.000000 0.274898
O O10 0.750000 0.500000 0.500928
O O11 0.661616 0.710634 0.412678
O O12 0.546364 0.500000 0.898045
O O13 0.500000 0.270104 0.000000
O O14 0.665918 0.295552 0.949906
O O15 0.250000 0.500000 0.951592
O O16 0.104281 0.500000 0.697779
#
# Coordination Sequence:
#
# PCOD8211519 Si02
#       7
#     4   4   8   4   8   4   8
#     4  11  21  34  57  89 119 151 191 236 291 350
#     4  10  24  42  59  84 122 157 188 235 290 345
#     4  11  23  39  59  85 116 155 197 237 289 346
#     4   9  21  40  63  89 113 145 189 234 285 348
#     4  10  21  36  55  80 111 150 194 238 285 336
#     4  10  20  34  53  78 112 153 194 237 288 343
#     4  10  21  39  61  86 117 150 189 240 291 341
#
# _framework density 20.131432
#
# number of rings (size 3 to 8) (size 9 to 14) (size 15 to 20)
#    0.000    1.800    0.000    4.500    0.000    7.600 
#    0.000    4.000    0.000    0.000    0.000    0.000 
#    0.000    0.000    0.000    0.000    0.000    0.000 
#
# Total GULP energy -496216.937396 kJ/mol
# GULP energy per Si atom -12405.423435 kJ/mol
# Density = 2.008561 g / cm^3
# Si number density = 20.131432 Si / 1000 Ang^3
#
#
#
# Elastic Constant Matrix: (Units=GPa)
#
#
# Indices 1 2 3 4 5 6 
#
# 1 164.4298 43.7932 44.8567 0.0000 0.0000 0.0000
# 2 43.7932 80.7873 30.1334 0.0000 0.0000 0.0000
# 3 44.8567 30.1334 92.3761 0.0000 0.0000 0.0000
# 4 0.0000 0.0000 0.0000 35.7163 0.0000 0.0000
# 5 0.0000 0.0000 0.0000 0.0000 20.8604 0.0000
# 6 0.0000 0.0000 0.0000 0.0000 0.0000 60.8510
#
#
#
# Elastic Compliance Matrix: (Units=1/GPa)
#
#
# Indices 1 2 3 4 5 6 
#
# 1 0.007653 -0.003145 -0.002690 0.000000 0.000000 0.000000
# 2 -0.003145 0.015385 -0.003492 0.000000 0.000000 0.000000
# 3 -0.002690 -0.003492 0.013271 0.000000 0.000000 0.000000
# 4 0.000000 0.000000 0.000000 0.027998 0.000000 0.000000
# 5 0.000000 0.000000 0.000000 0.000000 0.047938 0.000000
# 6 0.000000 0.000000 0.000000 0.000000 0.000000 0.016434
#
#
# Mechanical properties :
#
#
# Convention : Reuss Voigt Hill
#
# Bulk Modulus (GPa) = 56.64042 63.90666 60.27354
# Shear Modulus (GPa) = 32.63322 38.07288 35.35305
#
# Velocity S-wave (km/s) = 4.03054 4.35353 4.19515
# Velocity P-wave (km/s) = 7.06093 7.55543 7.31236
#
# Compressibility (1/GPa) = 0.01765524
#
# Stress axis : x y z
#
# Youngs Moduli (GPa) = 130.66401 64.99653 75.35421
#
# Poissons Ratio (x) = 0.20443 0.20273
# Poissons Ratio (y) = 0.41096 0.26310
# Poissons Ratio (z) = 0.35153 0.22694
#
# Static dielectric constant tensor:
#      x y z
#    x 4.072570 0.000000 0.000000 
#    y 0.000000 3.531550 0.000000 
#    z 0.000000 0.000000 3.428310 
# 
# 
# High freq. dielectric constant tensor:
#      x y z
#    x 1.804500 0.000000 0.000000 
#    y 0.000000 1.780320 0.000000 
#    z 0.000000 0.000000 1.779290 
# 
# From -- ./inp_files/23854.got.cif
#   From: 2010.03.12/outbox.cif.g09.slc.cpg/sg51_12_cif.got.tgz:23854.got - 2010.04.16 13:43:02.
