data_PCOD8211253
_publ_section_title
;
Structure prediction by ZEFSAII (Michael W. Deem and Ramdas Pophale) SiO2 
 PCOD8211253
Probable space group: P M M A
;
_chemical_formula_sum "Si O2"
_cell_formula_units_Z 64
_cell_length_a 22.579572
_cell_length_b 8.976594
_cell_length_c 17.311311
_cell_angle_alpha 90.000000
_cell_angle_beta 90.000000
_cell_angle_gamma 90.000000
_cell_volume 3508.788954
_symmetry_space_group_name_H-M "P M M A"
_symmetry_group_IT_number 51
_symmetry_cell_setting 'orthorhombic'
loop_
_space_group_symop_operation_xyz
x,y,z
1/2-x,-y,z
1/2+x,-y,-z
-x,y,-z
-x,-y,-z
1/2+x,y,-z
1/2-x,y,z
x,-y,z
loop_
_atom_site_type_symbol
_atom_site_label
_atom_site_fract_x
_atom_site_fract_y
_atom_site_fract_z
Si Si1 0.068390 0.662962 0.517915
Si Si2 0.094028 0.325431 0.811695
Si Si3 0.364213 0.171760 0.091004
Si Si4 0.483307 0.326358 0.083271
Si Si5 0.455373 0.824165 0.667143
Si Si6 0.581654 0.323997 0.651195
Si Si7 0.180866 0.827329 0.925921
Si Si8 0.816527 0.171566 0.746474
O O1 0.093500 0.500000 0.543064
O O2 0.076341 0.782330 0.586044
O O3 0.098559 0.717138 0.437731
O O4 0.000000 0.644031 0.500000
O O5 0.101234 0.500000 0.795656
O O6 0.089292 0.237619 0.731589
O O7 0.150013 0.268818 0.859726
O O8 0.035061 0.287343 0.858381
O O9 0.424203 0.253072 0.115249
O O10 0.318847 0.198225 0.161194
O O11 0.379104 0.000000 0.080246
O O12 0.337538 0.233876 0.010719
O O13 0.471291 0.500000 0.075640
O O14 0.500000 0.258165 0.000000
O O15 0.520602 0.753931 0.677000
O O16 0.461364 0.000000 0.673438
O O17 0.571546 0.500000 0.660756
O O18 0.636335 0.274117 0.703323
O O19 0.250000 0.803006 0.915500
O O20 0.163345 0.000000 0.916628
O O21 0.750000 0.213228 0.719544
O O22 0.831041 0.000000 0.727023
#
# Coordination Sequence:
#
# PCOD8211253 Si02
#       8
#     8   8   8   8   8   8   8   8
#     4   8  16  32  53  78 109 140 169 205 254 312
#     4  11  22  36  54  76 107 142 176 218 267 317
#     4  10  20  34  54  77 103 138 179 221 266 317
#     4  10  20  34  50  73 104 136 172 217 267 315
#     4  11  21  33  54  84 113 139 174 218 268 323
#     4  10  20  35  55  80 111 145 178 215 264 320
#     4  10  21  37  55  74  99 134 178 225 268 312
#     4  10  21  36  53  76 108 146 187 228 268 315
#
# _framework density 18.239910999999999
#
# number of rings (size 3 to 8) (size 9 to 14) (size 15 to 20)
#    0.000    2.000    1.250    3.750    0.000    8.500 
#    0.000    0.000    0.000    3.000    0.000    3.500 
#    0.000    0.000    0.000    0.000    0.000    0.000 
#
# Total GULP energy -793577.353686 kJ/mol
# GULP energy per Si atom -12399.646151 kJ/mol
# Density = 1.819840 g / cm^3
# Si number density = 18.239911 Si / 1000 Ang^3
#
#
#
# Elastic Constant Matrix: (Units=GPa)
#
#
# Indices 1 2 3 4 5 6 
#
# 1 73.8273 37.1733 38.5052 0.0000 0.0000 0.0000
# 2 37.1733 71.9732 48.4491 0.0000 0.0000 0.0000
# 3 38.5052 48.4491 117.7268 0.0000 0.0000 0.0000
# 4 0.0000 0.0000 0.0000 28.4917 0.0000 0.0000
# 5 0.0000 0.0000 0.0000 0.0000 20.0754 0.0000
# 6 0.0000 0.0000 0.0000 0.0000 0.0000 4.7765
#
#
#
# Elastic Compliance Matrix: (Units=1/GPa)
#
#
# Indices 1 2 3 4 5 6 
#
# 1 0.019050 -0.007808 -0.003018 0.000000 0.000000 0.000000
# 2 -0.007808 0.022418 -0.006672 0.000000 0.000000 0.000000
# 3 -0.003018 -0.006672 0.012227 0.000000 0.000000 0.000000
# 4 0.000000 0.000000 0.000000 0.035098 0.000000 0.000000
# 5 0.000000 0.000000 0.000000 0.000000 0.049812 0.000000
# 6 0.000000 0.000000 0.000000 0.000000 0.000000 0.209356
#
#
# Mechanical properties :
#
#
# Convention : Reuss Voigt Hill
#
# Bulk Modulus (GPa) = 53.47543 56.86472 55.17008
# Shear Modulus (GPa) = 12.84716 19.96205 16.40461
#
# Velocity S-wave (km/s) = 2.65683 3.31178 3.00222
# Velocity P-wave (km/s) = 6.22841 6.77256 6.50618
#
# Compressibility (1/GPa) = 0.01870018
#
# Stress axis : x y z
#
# Youngs Moduli (GPa) = 52.49224 44.60659 81.78588
#
# Poissons Ratio (x) = 0.34829 0.24679
# Poissons Ratio (y) = 0.40986 0.54569
# Poissons Ratio (z) = 0.15840 0.29762
#
# Static dielectric constant tensor:
#      x y z
#    x 3.126580 0.000000 0.000000 
#    y 0.000000 3.324240 0.000000 
#    z 0.000000 0.000000 3.725270 
# 
# 
# High freq. dielectric constant tensor:
#      x y z
#    x 1.680500 0.000000 0.000000 
#    y 0.000000 1.705310 0.000000 
#    z 0.000000 0.000000 1.715440 
# 
# From -- ./inp_files/30678.got.cif
#   From: 2010.03.12/outbox.cif.g09.slc.cpg/sg51_16_cif.got.tgz:30678.got - 2010.04.16 13:43:02.
