data_PCOD8211256
_publ_section_title
;
Structure prediction by ZEFSAII (Michael W. Deem and Ramdas Pophale) SiO2 
 PCOD8211256
Probable space group: P M M A
;
_chemical_formula_sum "Si O2"
_cell_formula_units_Z 40
_cell_length_a 9.687936
_cell_length_b 13.787733
_cell_length_c 15.321392
_cell_angle_alpha 90.000000
_cell_angle_beta 90.000000
_cell_angle_gamma 90.000000
_cell_volume 2046.549955
_symmetry_space_group_name_H-M "P M M A"
_symmetry_group_IT_number 51
_symmetry_cell_setting 'orthorhombic'
loop_
_space_group_symop_operation_xyz
x,y,z
1/2-x,-y,z
1/2+x,-y,-z
-x,y,-z
-x,-y,-z
1/2+x,y,-z
1/2-x,y,z
x,-y,z
loop_
_atom_site_type_symbol
_atom_site_label
_atom_site_fract_x
_atom_site_fract_y
_atom_site_fract_z
Si Si1 0.905487 0.194819 0.268189
Si Si2 0.091671 0.115022 0.419389
Si Si3 0.039642 0.387480 0.798386
Si Si4 0.092644 0.114270 0.919448
Si Si5 0.750000 0.612914 0.867227
Si Si6 0.250000 0.387629 0.943771
O O1 0.750000 0.156446 0.289686
O O2 0.904593 0.313030 0.274868
O O3 0.952394 0.164659 0.170861
O O4 0.018315 0.151055 0.332150
O O5 0.250000 0.154085 0.425496
O O6 0.000000 0.154392 0.500000
O O7 0.093308 0.000000 0.418790
O O8 0.067020 0.500000 0.771216
O O9 0.113790 0.360608 0.889469
O O10 0.880667 0.360304 0.809307
O O11 0.250000 0.142759 0.941365
O O12 0.074529 0.000000 0.906074
O O13 0.000000 0.151653 0.000000
O O14 0.750000 0.500000 0.886820
O O15 0.750000 0.665986 0.962163
O O16 0.250000 0.500000 0.962064
#
# Coordination Sequence:
#
# PCOD8211256 Si02
#       6
#     8   8   8   8   4   4
#     4  11  22  36  56  85 115 154 195 236 286 339
#     4  10  22  41  67  96 121 144 175 226 289 349
#     4  10  20  34  50  75 110 151 196 242 294 341
#     4   9  19  35  52  73 106 149 193 235 280 333
#     4   9  18  30  48  70  98 143 198 254 298 331
#     4   9  16  30  48  68 100 145 198 248 294 337
#
# _framework density 19.545089000000001
#
# number of rings (size 3 to 8) (size 9 to 14) (size 15 to 20)
#    0.000    2.200    1.000    1.800    1.400    6.800 
#    0.000    2.000    0.000    0.600    0.000    0.000 
#    0.000    0.000    0.000    0.000    0.000    0.000 
#
# Total GULP energy -495781.030237 kJ/mol
# GULP energy per Si atom -12394.525756 kJ/mol
# Density = 1.950060 g / cm^3
# Si number density = 19.545089 Si / 1000 Ang^3
#
#
#
# Elastic Constant Matrix: (Units=GPa)
#
#
# Indices 1 2 3 4 5 6 
#
# 1 149.7202 26.3310 65.9916 0.0000 0.0000 0.0000
# 2 26.3310 19.8336 28.1137 0.0000 0.0000 0.0000
# 3 65.9916 28.1137 96.4195 0.0000 0.0000 0.0000
# 4 0.0000 0.0000 0.0000 11.1893 0.0000 0.0000
# 5 0.0000 0.0000 0.0000 0.0000 33.2398 0.0000
# 6 0.0000 0.0000 0.0000 0.0000 0.0000 22.2576
#
#
#
# Elastic Compliance Matrix: (Units=1/GPa)
#
#
# Indices 1 2 3 4 5 6 
#
# 1 0.009977 -0.006078 -0.005056 0.000000 0.000000 0.000000
# 2 -0.006078 0.089641 -0.021977 0.000000 0.000000 0.000000
# 3 -0.005056 -0.021977 0.020240 0.000000 0.000000 0.000000
# 4 0.000000 0.000000 0.000000 0.089371 0.000000 0.000000
# 5 0.000000 0.000000 0.000000 0.000000 0.030084 0.000000
# 6 0.000000 0.000000 0.000000 0.000000 0.000000 0.044928
#
#
# Mechanical properties :
#
#
# Convention : Reuss Voigt Hill
#
# Bulk Modulus (GPa) = 18.64456 56.31622 37.48039
# Shear Modulus (GPa) = 13.57431 23.03981 18.30706
#
# Velocity S-wave (km/s) = 2.63822 3.43709 3.06381
# Velocity P-wave (km/s) = 4.34053 6.68038 5.63328
#
# Compressibility (1/GPa) = 0.05363494
#
# Stress axis : x y z
#
# Youngs Moduli (GPa) = 100.23482 11.15555 49.40763
#
# Poissons Ratio (x) = 0.06781 0.24980
# Poissons Ratio (y) = 0.60925 1.08584
# Poissons Ratio (z) = 0.50678 0.24517
#
# Static dielectric constant tensor:
#      x y z
#    x 3.532060 0.000000 0.000000 
#    y 0.000000 3.566070 0.000000 
#    z 0.000000 0.000000 3.318590 
# 
# 
# High freq. dielectric constant tensor:
#      x y z
#    x 1.776770 0.000000 0.000000 
#    y 0.000000 1.756080 0.000000 
#    z 0.000000 0.000000 1.722030 
# 
# From -- ./inp_files/20532.got.cif
#   From: 2010.03.12/outbox.cif.g09.slc.cpg/sg51_11_cif.got.tgz:20532.got - 2010.04.16 13:43:02.
