data_PCOD8211515
_publ_section_title
;
Structure prediction by ZEFSAII (Michael W. Deem and Ramdas Pophale) SiO2 
 PCOD8211515
Probable space group: P M M A
;
_chemical_formula_sum "Si O2"
_cell_formula_units_Z 64
_cell_length_a 18.714144
_cell_length_b 8.833245
_cell_length_c 20.324415
_cell_angle_alpha 90.000000
_cell_angle_beta 90.000000
_cell_angle_gamma 90.000000
_cell_volume 3359.760325
_symmetry_space_group_name_H-M "P M M A"
_symmetry_group_IT_number 51
_symmetry_cell_setting 'orthorhombic'
loop_
_space_group_symop_operation_xyz
x,y,z
1/2-x,-y,z
1/2+x,-y,-z
-x,y,-z
-x,-y,-z
1/2+x,y,-z
1/2-x,y,z
x,-y,z
loop_
_atom_site_type_symbol
_atom_site_label
_atom_site_fract_x
_atom_site_fract_y
_atom_site_fract_z
Si Si1 0.665271 0.672770 0.318748
Si Si2 0.334321 0.174076 0.284668
Si Si3 0.565675 0.320275 0.818610
Si Si4 0.584364 0.178319 0.201051
Si Si5 0.335086 0.329348 0.417727
Si Si6 0.668106 0.677185 0.082859
Si Si7 0.335083 0.829452 0.548613
Si Si8 0.929831 0.677555 0.965730
O O1 0.750000 0.685190 0.313447
O O2 0.639749 0.500000 0.310586
O O3 0.633207 0.775733 0.261976
O O4 0.637783 0.734284 0.388843
O O5 0.250000 0.195218 0.278341
O O6 0.368795 0.265012 0.225080
O O7 0.362624 0.240459 0.353701
O O8 0.357358 0.000000 0.281208
O O9 0.562319 0.500000 0.816756
O O10 0.492131 0.255713 0.790367
O O11 0.579416 0.256399 0.892425
O O12 0.621522 0.229835 0.133989
O O13 0.574399 0.000000 0.199936
O O14 0.250000 0.328924 0.419947
O O15 0.364750 0.500000 0.415336
O O16 0.365886 0.247572 0.482624
O O17 0.750000 0.729162 0.086868
O O18 0.659590 0.500000 0.099389
O O19 0.639849 0.713796 0.009522
O O20 0.250000 0.830180 0.546388
O O21 0.364789 0.000000 0.553416
O O22 0.942270 0.500000 0.959037
O O23 0.000000 0.750067 0.000000
#
# Coordination Sequence:
#
# PCOD8211515 Si02
#       8
#     8   8   8   8   8   8   8   8
#     4  10  20  34  53  78 109 146 190 238 282 327
#     4  10  21  37  56  82 117 150 182 228 285 337
#     4  11  22  38  62  85 109 144 189 233 275 331
#     4  12  24  37  54  78 112 150 187 227 280 340
#     4   9  16  28  49  77 108 144 188 233 275 325
#     4  10  20  36  59  85 111 143 186 234 282 332
#     4   9  16  27  46  75 110 146 183 227 283 337
#     4   9  17  34  59  83 107 138 181 231 280 330
#
# _framework density 19.048978999999999
#
# number of rings (size 3 to 8) (size 9 to 14) (size 15 to 20)
#    0.000    2.000    1.250    3.375    0.000    6.750 
#    0.000    3.125    0.000    0.750    0.000    5.250 
#    0.000    0.000    0.000    0.000    0.000    0.000 
#
# Total GULP energy -793719.022012 kJ/mol
# GULP energy per Si atom -12401.859719 kJ/mol
# Density = 1.900562 g / cm^3
# Si number density = 19.048979 Si / 1000 Ang^3
#
#
#
# Elastic Constant Matrix: (Units=GPa)
#
#
# Indices 1 2 3 4 5 6 
#
# 1 38.4620 30.3260 21.0090 0.0000 0.0000 0.0000
# 2 30.3260 113.3799 51.4472 0.0000 0.0000 0.0000
# 3 21.0090 51.4472 140.0969 0.0000 0.0000 0.0000
# 4 0.0000 0.0000 0.0000 12.0834 0.0000 0.0000
# 5 0.0000 0.0000 0.0000 0.0000 10.2222 0.0000
# 6 0.0000 0.0000 0.0000 0.0000 0.0000 22.4008
#
#
#
# Elastic Compliance Matrix: (Units=1/GPa)
#
#
# Indices 1 2 3 4 5 6 
#
# 1 0.033444 -0.008003 -0.002076 0.000000 0.000000 0.000000
# 2 -0.008003 0.012499 -0.003390 0.000000 0.000000 0.000000
# 3 -0.002076 -0.003390 0.008694 0.000000 0.000000 0.000000
# 4 0.000000 0.000000 0.000000 0.082758 0.000000 0.000000
# 5 0.000000 0.000000 0.000000 0.000000 0.097827 0.000000
# 6 0.000000 0.000000 0.000000 0.000000 0.000000 0.044641
#
#
# Mechanical properties :
#
#
# Convention : Reuss Voigt Hill
#
# Bulk Modulus (GPa) = 36.10312 55.27813 45.69062
# Shear Modulus (GPa) = 15.82108 21.55171 18.68639
#
# Velocity S-wave (km/s) = 2.88505 3.36725 3.13543
# Velocity P-wave (km/s) = 5.48561 6.64829 6.09474
#
# Compressibility (1/GPa) = 0.02769844
#
# Stress axis : x y z
#
# Youngs Moduli (GPa) = 29.90062 80.00874 115.02123
#
# Poissons Ratio (x) = 0.64033 0.23882
# Poissons Ratio (y) = 0.23930 0.38988
# Poissons Ratio (z) = 0.06208 0.27120
#
# Static dielectric constant tensor:
#      x y z
#    x 3.193650 0.000000 0.000000 
#    y 0.000000 3.511490 0.000000 
#    z 0.000000 0.000000 3.736750 
# 
# 
# High freq. dielectric constant tensor:
#      x y z
#    x 1.707530 0.000000 0.000000 
#    y 0.000000 1.738650 0.000000 
#    z 0.000000 0.000000 1.757690 
# 
# From -- ./inp_files/33971.got.cif
#   From: 2010.03.12/outbox.cif.g09.slc.cpg/sg51_17_cif.got.tgz:33971.got - 2010.04.16 13:43:02.
