data_PCOD8211539
_publ_section_title
;
Structure prediction by ZEFSAII (Michael W. Deem and Ramdas Pophale) SiO2 
 PCOD8211539
Probable space group: P M M A
;
_chemical_formula_sum "Si O2"
_cell_formula_units_Z 48
_cell_length_a 8.814170
_cell_length_b 18.373947
_cell_length_c 14.359294
_cell_angle_alpha 90.000000
_cell_angle_beta 90.000000
_cell_angle_gamma 90.000000
_cell_volume 2325.503350
_symmetry_space_group_name_H-M "P M M A"
_symmetry_group_IT_number 51
_symmetry_cell_setting 'orthorhombic'
loop_
_space_group_symop_operation_xyz
x,y,z
1/2-x,-y,z
1/2+x,-y,-z
-x,y,-z
-x,-y,-z
1/2+x,y,-z
1/2-x,y,z
x,-y,z
loop_
_atom_site_type_symbol
_atom_site_label
_atom_site_fract_x
_atom_site_fract_y
_atom_site_fract_z
Si Si1 0.070888 0.215185 0.101067
Si Si2 0.427663 0.081534 0.220382
Si Si3 0.583026 0.416624 0.912952
Si Si4 0.428877 0.416806 0.399514
Si Si5 0.928880 0.336525 0.234019
Si Si6 0.919696 0.086647 0.408382
O O1 0.250000 0.225570 0.093871
O O2 0.028800 0.133498 0.134439
O O3 0.006708 0.269612 0.179660
O O4 0.000000 0.228771 0.000000
O O5 0.250000 0.079838 0.238456
O O6 0.499779 0.113965 0.314688
O O7 0.488644 0.000000 0.198121
O O8 0.750000 0.380621 0.897432
O O9 0.607201 0.500000 0.936123
O O10 0.474260 0.408225 0.824448
O O11 0.500000 0.377296 0.000000
O O12 0.500000 0.404868 0.500000
O O13 0.250000 0.403065 0.402843
O O14 0.462545 0.500000 0.365354
O O15 0.504209 0.354056 0.335600
O O16 0.750000 0.324155 0.240165
O O17 0.750000 0.117159 0.407212
O O18 0.000000 0.119364 0.500000
O O19 0.924309 0.000000 0.412200
#
# Coordination Sequence:
#
# PCOD8211539 Si02
#       6
#     8   8   8   8   8   8
#     4  11  24  42  62  84 114 151 193 243 301 364
#     4   9  19  37  60  85 113 147 190 242 300 362
#     4  10  20  34  53  79 111 146 186 232 280 331
#     4  10  21  39  64  94 127 162 201 244 290 341
#     4  12  24  38  58  83 115 154 195 238 286 342
#     4   9  16  27  48  79 113 146 178 217 268 328
#
# _framework density 20.640692000000001
#
# number of rings (size 3 to 8) (size 9 to 14) (size 15 to 20)
#    0.000    1.833    0.000    4.500    0.000    7.667 
#    0.000    0.833    0.000    4.000    0.000    0.000 
#    0.000    0.000    0.000    0.000    0.000    0.000 
#
# Total GULP energy -594926.218598 kJ/mol
# GULP energy per Si atom -12394.296221 kJ/mol
# Density = 2.059371 g / cm^3
# Si number density = 20.640692 Si / 1000 Ang^3
#
#
#
# Elastic Constant Matrix: (Units=GPa)
#
#
# Indices 1 2 3 4 5 6 
#
# 1 128.0323 45.7371 63.8505 0.0000 0.0000 0.0000
# 2 45.7371 89.0850 63.4072 0.0000 0.0000 0.0000
# 3 63.8505 63.4072 132.1026 0.0000 0.0000 0.0000
# 4 0.0000 0.0000 0.0000 20.1172 0.0000 0.0000
# 5 0.0000 0.0000 0.0000 0.0000 41.9660 0.0000
# 6 0.0000 0.0000 0.0000 0.0000 0.0000 19.9196
#
#
#
# Elastic Compliance Matrix: (Units=1/GPa)
#
#
# Indices 1 2 3 4 5 6 
#
# 1 0.010719 -0.002758 -0.003857 0.000000 0.000000 0.000000
# 2 -0.002758 0.017760 -0.007191 0.000000 0.000000 0.000000
# 3 -0.003857 -0.007191 0.012886 0.000000 0.000000 0.000000
# 4 0.000000 0.000000 0.000000 0.049709 0.000000 0.000000
# 5 0.000000 0.000000 0.000000 0.000000 0.023829 0.000000
# 6 0.000000 0.000000 0.000000 0.000000 0.000000 0.050202
#
#
# Mechanical properties :
#
#
# Convention : Reuss Voigt Hill
#
# Bulk Modulus (GPa) = 72.71752 77.24551 74.98151
# Shear Modulus (GPa) = 25.34189 28.14891 26.74540
#
# Velocity S-wave (km/s) = 3.50775 3.69692 3.60357
# Velocity P-wave (km/s) = 7.19113 7.46512 7.32941
#
# Compressibility (1/GPa) = 0.01375184
#
# Stress axis : x y z
#
# Youngs Moduli (GPa) = 93.28839 56.30720 77.60333
#
# Poissons Ratio (x) = 0.15529 0.29934
# Poissons Ratio (y) = 0.25728 0.55807
# Poissons Ratio (z) = 0.35985 0.40493
#
# Static dielectric constant tensor:
#      x y z
#    x 4.022590 0.000000 0.000000 
#    y 0.000000 3.694130 0.000000 
#    z 0.000000 0.000000 3.851370 
# 
# 
# High freq. dielectric constant tensor:
#      x y z
#    x 1.818150 0.000000 0.000000 
#    y 0.000000 1.787300 0.000000 
#    z 0.000000 0.000000 1.811870 
# 
# From -- ./inp_files/21402.got.cif
#   From: 2010.03.12/outbox.cif.g09.slc.cpg/sg51_11_cif.got.tgz:21402.got - 2010.04.16 13:43:02.
