data_PCOD8211085
_publ_section_title
;
Structure prediction by ZEFSAII (Michael W. Deem and Ramdas Pophale) SiO2 
 PCOD8211085
Probable space group: P M M A
;
_chemical_formula_sum "Si O2"
_cell_formula_units_Z 44
_cell_length_a 8.835593
_cell_length_b 28.095049
_cell_length_c 9.456617
_cell_angle_alpha 90.000000
_cell_angle_beta 90.000000
_cell_angle_gamma 90.000000
_cell_volume 2347.476733
_symmetry_space_group_name_H-M "P M M A"
_symmetry_group_IT_number 51
_symmetry_cell_setting 'orthorhombic'
loop_
_space_group_symop_operation_xyz
x,y,z
1/2-x,-y,z
1/2+x,-y,-z
-x,y,-z
-x,-y,-z
1/2+x,y,-z
1/2-x,y,z
x,-y,z
loop_
_atom_site_type_symbol
_atom_site_label
_atom_site_fract_x
_atom_site_fract_y
_atom_site_fract_z
Si Si1 0.928884 0.809238 0.648704
Si Si2 0.428724 0.266446 0.847443
Si Si3 0.072089 0.644731 0.653707
Si Si4 0.071275 0.000000 0.151584
Si Si5 0.572841 0.082056 0.645063
Si Si6 0.072648 0.448441 0.346589
O O1 0.750000 0.801019 0.641445
O O2 0.973014 0.863829 0.680655
O O3 0.000000 0.792377 0.500000
O O4 0.999889 0.780028 0.776738
O O5 0.250000 0.259619 0.860930
O O6 0.472725 0.311768 0.753342
O O7 0.500000 0.274155 0.000000
O O8 0.250000 0.639561 0.635378
O O9 0.000000 0.653275 0.500000
O O10 0.006437 0.596642 0.729610
O O11 0.014144 0.047420 0.231635
O O12 0.250000 0.000000 0.136922
O O13 0.000000 0.000000 0.000000
O O14 0.500000 0.064654 0.500000
O O15 0.750000 0.077083 0.624960
O O16 0.250000 0.438438 0.359865
O O17 0.043501 0.500000 0.270630
O O18 0.000000 0.450791 0.500000
#
# Coordination Sequence:
#
# PCOD8211085 Si02
#       6
#     8   8   8   4   8   8
#     4  10  20  36  58  83 109 138 175 219 265 316
#     4  11  24  39  55  77 105 140 178 218 267 318
#     4  10  20  33  52  77 103 134 172 212 257 308
#     4  10  21  36  52  76 110 144 179 218 260 308
#     4   9  19  35  56  81 107 137 175 217 261 310
#     4   9  16  26  44  72 103 133 166 207 255 303
#
# _framework density 18.74353
#
# number of rings (size 3 to 8) (size 9 to 14) (size 15 to 20)
#    0.000    2.182    0.000    4.091    0.000    7.636 
#    0.000    1.818    0.000    0.545    0.000    0.000 
#    0.000    0.000    0.000    0.000    0.000    0.000 
#
# Total GULP energy -545496.750915 kJ/mol
# GULP energy per Si atom -12397.653430 kJ/mol
# Density = 1.870087 g / cm^3
# Si number density = 18.743530 Si / 1000 Ang^3
#
#
#
# Elastic Constant Matrix: (Units=GPa)
#
#
# Indices 1 2 3 4 5 6 
#
# 1 80.0442 57.0480 50.4168 0.0000 0.0000 0.0000
# 2 57.0480 142.7412 80.6306 0.0000 0.0000 0.0000
# 3 50.4168 80.6306 122.0647 0.0000 0.0000 0.0000
# 4 0.0000 0.0000 0.0000 7.0282 0.0000 0.0000
# 5 0.0000 0.0000 0.0000 0.0000 31.5786 0.0000
# 6 0.0000 0.0000 0.0000 0.0000 0.0000 27.0125
#
#
#
# Elastic Compliance Matrix: (Units=1/GPa)
#
#
# Indices 1 2 3 4 5 6 
#
# 1 0.018897 -0.005015 -0.004493 0.000000 0.000000 0.000000
# 2 -0.005015 0.012506 -0.006190 0.000000 0.000000 0.000000
# 3 -0.004493 -0.006190 0.014137 0.000000 0.000000 0.000000
# 4 0.000000 0.000000 0.000000 0.142284 0.000000 0.000000
# 5 0.000000 0.000000 0.000000 0.000000 0.031667 0.000000
# 6 0.000000 0.000000 0.000000 0.000000 0.000000 0.037020
#
#
# Mechanical properties :
#
#
# Convention : Reuss Voigt Hill
#
# Bulk Modulus (GPa) = 70.69311 80.11566 75.40439
# Shear Modulus (GPa) = 17.08697 23.57416 20.33057
#
# Velocity S-wave (km/s) = 3.02258 3.55029 3.29701
# Velocity P-wave (km/s) = 7.06960 7.72282 7.40342
#
# Compressibility (1/GPa) = 0.01414565
#
# Stress axis : x y z
#
# Youngs Moduli (GPa) = 52.91929 79.95942 70.73737
#
# Poissons Ratio (x) = 0.40096 0.31779
# Poissons Ratio (y) = 0.26536 0.43786
# Poissons Ratio (z) = 0.23775 0.49495
#
# Static dielectric constant tensor:
#      x y z
#    x 3.528010 0.000000 0.000000 
#    y 0.000000 4.136730 0.000000 
#    z 0.000000 0.000000 3.086350 
# 
# 
# High freq. dielectric constant tensor:
#      x y z
#    x 1.738550 0.000000 0.000000 
#    y 0.000000 1.751840 0.000000 
#    z 0.000000 0.000000 1.694290 
# 
# From -- ./inp_files/5757.got.cif
#   From: 2010.03.12/outbox.cif.g09.slc.cpg/sg51_3_cif.got.tgz:5757.got - 2010.04.16 13:43:02.
