data_PCOD8211658
_publ_section_title
;
Structure prediction by ZEFSAII (Michael W. Deem and Ramdas Pophale) SiO2 
 PCOD8211658
Probable space group: P M M A
;
_chemical_formula_sum "Si O2"
_cell_formula_units_Z 48
_cell_length_a 9.007465
_cell_length_b 8.949051
_cell_length_c 30.774684
_cell_angle_alpha 90.000000
_cell_angle_beta 90.000000
_cell_angle_gamma 90.000000
_cell_volume 2480.693842
_symmetry_space_group_name_H-M "P M M A"
_symmetry_group_IT_number 51
_symmetry_cell_setting 'orthorhombic'
loop_
_space_group_symop_operation_xyz
x,y,z
1/2-x,-y,z
1/2+x,-y,-z
-x,y,-z
-x,-y,-z
1/2+x,y,-z
1/2-x,y,z
x,-y,z
loop_
_atom_site_type_symbol
_atom_site_label
_atom_site_fract_x
_atom_site_fract_y
_atom_site_fract_z
Si Si1 0.420139 0.823890 0.211724
Si Si2 0.079799 0.674056 0.122344
Si Si3 0.421398 0.325481 0.709084
Si Si4 0.424430 0.172549 0.370576
Si Si5 0.924091 0.171000 0.044195
Si Si6 0.582866 0.822150 0.457690
O O1 0.250000 0.778178 0.221895
O O2 0.470973 0.760649 0.165390
O O3 0.527444 0.757052 0.247675
O O4 0.439855 0.000000 0.211109
O O5 0.250000 0.712021 0.110868
O O6 0.056035 0.500000 0.130884
O O7 0.977252 0.725105 0.083065
O O8 0.250000 0.287281 0.700206
O O9 0.448129 0.500000 0.715598
O O10 0.517871 0.270563 0.668856
O O11 0.250000 0.193792 0.375471
O O12 0.499195 0.233000 0.414596
O O13 0.466021 0.000000 0.361852
O O14 0.750000 0.189534 0.038337
O O15 0.969372 0.000000 0.054162
O O16 0.000000 0.227120 0.000000
O O17 0.500000 0.756637 0.500000
O O18 0.750000 0.759436 0.456980
O O19 0.582257 0.000000 0.459630
#
# Coordination Sequence:
#
# PCOD8211658 Si02
#       6
#     8   8   8   8   8   8
#     4  10  21  38  61  86 110 140 180 224 270 322
#     4  10  21  37  58  84 114 148 184 223 271 326
#     4  11  24  39  55  78 109 144 181 222 270 324
#     4  10  20  34  54  80 108 140 181 226 272 324
#     4  10  21  37  58  83 111 146 188 232 277 324
#     4   9  16  27  46  74 108 143 179 222 270 318
#
# _framework density 19.349425
#
# number of rings (size 3 to 8) (size 9 to 14) (size 15 to 20)
#    0.000    2.000    0.000    3.500    0.000   10.333 
#    0.000    0.000    0.000    0.500    0.000    0.000 
#    0.000    0.000    0.000    0.000    0.000    0.000 
#
# Total GULP energy -595441.793821 kJ/mol
# GULP energy per Si atom -12405.037371 kJ/mol
# Density = 1.930538 g / cm^3
# Si number density = 19.349425 Si / 1000 Ang^3
#
#
#
# Elastic Constant Matrix: (Units=GPa)
#
#
# Indices 1 2 3 4 5 6 
#
# 1 95.5943 33.8728 59.3909 0.0000 0.0000 0.0000
# 2 33.8728 60.1557 41.3799 0.0000 0.0000 0.0000
# 3 59.3909 41.3799 141.9166 0.0000 0.0000 0.0000
# 4 0.0000 0.0000 0.0000 -34.8479 0.0000 0.0000
# 5 0.0000 0.0000 0.0000 0.0000 41.2117 0.0000
# 6 0.0000 0.0000 0.0000 0.0000 0.0000 26.1477
#
#
#
# Elastic Compliance Matrix: (Units=1/GPa)
#
#
# Indices 1 2 3 4 5 6 
#
# 1 0.015375 -0.005293 -0.004891 0.000000 0.000000 0.000000
# 2 -0.005293 0.022616 -0.004379 0.000000 0.000000 0.000000
# 3 -0.004891 -0.004379 0.010370 0.000000 0.000000 0.000000
# 4 0.000000 0.000000 0.000000 -0.028696 0.000000 0.000000
# 5 0.000000 0.000000 0.000000 0.000000 0.024265 0.000000
# 6 0.000000 0.000000 0.000000 0.000000 0.000000 0.038244
#
#
# Mechanical properties :
#
#
# Convention : Reuss Voigt Hill
#
# Bulk Modulus (GPa) = 51.98899 62.99486 57.49192
# Shear Modulus (GPa) = 42.47608 17.37050 29.92329
#
# Velocity S-wave (km/s) = 4.69039 2.99946 3.93678
# Velocity P-wave (km/s) = 7.50066 6.68003 7.10221
#
# Compressibility (1/GPa) = 0.01923484
#
# Stress axis : x y z
#
# Youngs Moduli (GPa) = 65.04022 44.21558 96.43040
#
# Poissons Ratio (x) = 0.23404 0.47164
# Poissons Ratio (y) = 0.34426 0.42230
# Poissons Ratio (z) = 0.31811 0.19364
#
# Static dielectric constant tensor:
#      x y z
#    x 3.775140 0.000000 0.000000 
#    y 0.000000 3.366780 0.000000 
#    z 0.000000 0.000000 3.720240 
# 
# 
# High freq. dielectric constant tensor:
#      x y z
#    x 1.760700 0.000000 0.000000 
#    y 0.000000 1.734900 0.000000 
#    z 0.000000 0.000000 1.768270 
# 
# From -- ./inp_files/36975.got.cif
#   From: 2010.03.12/outbox.cif.g09.slc.cpg/sg51_19_cif.got.tgz:36975.got - 2010.04.16 13:43:02.
