data_PCOD8211017
_publ_section_title
;
Structure prediction by ZEFSAII (Michael W. Deem and Ramdas Pophale) SiO2 
 PCOD8211017
Probable space group: P M M A
;
_chemical_formula_sum "Si O2"
_cell_formula_units_Z 48
_cell_length_a 9.059452
_cell_length_b 9.281582
_cell_length_c 30.811027
_cell_angle_alpha 90.000000
_cell_angle_beta 90.000000
_cell_angle_gamma 90.000000
_cell_volume 2590.777453
_symmetry_space_group_name_H-M "P M M A"
_symmetry_group_IT_number 51
_symmetry_cell_setting 'orthorhombic'
loop_
_space_group_symop_operation_xyz
x,y,z
1/2-x,-y,z
1/2+x,-y,-z
-x,y,-z
-x,-y,-z
1/2+x,y,-z
1/2-x,y,z
x,-y,z
loop_
_atom_site_type_symbol
_atom_site_label
_atom_site_fract_x
_atom_site_fract_y
_atom_site_fract_z
Si Si1 0.917377 0.670385 0.117702
Si Si2 0.074640 0.340058 0.785656
Si Si3 0.423119 0.834984 0.455187
Si Si4 0.421618 0.331125 0.620567
Si Si5 0.074415 0.161538 0.705252
Si Si6 0.577591 0.165551 0.956698
O O1 0.750000 0.722682 0.108966
O O2 0.927934 0.500000 0.112215
O O3 0.968683 0.715023 0.166273
O O4 0.027129 0.744873 0.084608
O O5 0.250000 0.348300 0.782389
O O6 0.009760 0.500000 0.777367
O O7 0.010035 0.232653 0.749264
O O8 0.500000 0.792212 0.500000
O O9 0.250000 0.810577 0.460659
O O10 0.483885 0.729036 0.418869
O O11 0.460263 0.000000 0.442547
O O12 0.250000 0.297155 0.612010
O O13 0.450350 0.500000 0.625650
O O14 0.478570 0.254355 0.664234
O O15 0.250000 0.159021 0.707292
O O16 0.010801 0.000000 0.701196
O O17 0.750000 0.186534 0.963146
O O18 0.533449 0.000000 0.948971
O O19 0.500000 0.225722 0.000000
#
# Coordination Sequence:
#
# PCOD8211017 Si02
#       6
#     8   8   8   8   8   8
#     4   9  18  32  51  76 104 134 168 206 250 300
#     4   8  14  26  44  68 100 133 164 202 248 297
#     4  10  21  37  57  79 103 133 169 210 257 307
#     4  10  20  33  51  76 106 140 175 211 253 300
#     4   9  16  26  44  72 103 134 170 211 252 294
#     4  10  21  36  53  73  98 130 168 209 254 303
#
# _framework density 18.527258
#
# number of rings (size 3 to 8) (size 9 to 14) (size 15 to 20)
#    0.000    2.667    0.000    3.000    0.000    6.667 
#    0.000    1.667    0.000    1.000    0.000    4.667 
#    0.000    0.000    0.000    0.000    0.000    0.000 
#
# Total GULP energy -595204.531515 kJ/mol
# GULP energy per Si atom -12400.094407 kJ/mol
# Density = 1.848509 g / cm^3
# Si number density = 18.527258 Si / 1000 Ang^3
#
#
#
# Elastic Constant Matrix: (Units=GPa)
#
#
# Indices 1 2 3 4 5 6 
#
# 1 51.2645 33.1905 47.0396 0.0000 0.0000 0.0000
# 2 33.1905 96.8801 78.7483 0.0000 0.0000 0.0000
# 3 47.0396 78.7483 164.4926 0.0000 0.0000 0.0000
# 4 0.0000 0.0000 0.0000 37.9247 0.0000 0.0000
# 5 0.0000 0.0000 0.0000 0.0000 24.1736 0.0000
# 6 0.0000 0.0000 0.0000 0.0000 0.0000 23.1234
#
#
#
# Elastic Compliance Matrix: (Units=1/GPa)
#
#
# Indices 1 2 3 4 5 6 
#
# 1 0.027864 -0.005024 -0.005563 0.000000 0.000000 0.000000
# 2 -0.005024 0.017803 -0.007086 0.000000 0.000000 0.000000
# 3 -0.005563 -0.007086 0.011063 0.000000 0.000000 0.000000
# 4 0.000000 0.000000 0.000000 0.026368 0.000000 0.000000
# 5 0.000000 0.000000 0.000000 0.000000 0.041367 0.000000
# 6 0.000000 0.000000 0.000000 0.000000 0.000000 0.043246
#
#
# Mechanical properties :
#
#
# Convention : Reuss Voigt Hill
#
# Bulk Modulus (GPa) = 46.76615 70.06599 58.41607
# Shear Modulus (GPa) = 23.78841 27.28825 25.53833
#
# Velocity S-wave (km/s) = 3.58714 3.84196 3.71673
# Velocity P-wave (km/s) = 6.51562 7.58820 7.07227
#
# Compressibility (1/GPa) = 0.02138299
#
# Stress axis : x y z
#
# Youngs Moduli (GPa) = 35.88856 56.16910 90.39478
#
# Poissons Ratio (x) = 0.28221 0.50286
# Poissons Ratio (y) = 0.18031 0.64057
# Poissons Ratio (z) = 0.19965 0.39803
#
# Static dielectric constant tensor:
#      x y z
#    x 3.030690 0.000000 0.000000 
#    y 0.000000 3.491840 0.000000 
#    z 0.000000 0.000000 3.614930 
# 
# 
# High freq. dielectric constant tensor:
#      x y z
#    x 1.679720 0.000000 0.000000 
#    y 0.000000 1.718620 0.000000 
#    z 0.000000 0.000000 1.734110 
# 
# From -- ./inp_files/37035.got.cif
#   From: 2010.03.12/outbox.cif.g09.slc.cpg/sg51_19_cif.got.tgz:37035.got - 2010.04.16 13:43:02.
