data_PCOD8211595
_publ_section_title
;
Structure prediction by ZEFSAII (Michael W. Deem and Ramdas Pophale) SiO2 
 PCOD8211595
Probable space group: P M M A
;
_chemical_formula_sum "Si O2"
_cell_formula_units_Z 52
_cell_length_a 14.474349
_cell_length_b 28.172663
_cell_length_c 5.433200
_cell_angle_alpha 90.000000
_cell_angle_beta 90.000000
_cell_angle_gamma 90.000000
_cell_volume 2215.555493
_symmetry_space_group_name_H-M "P M M A"
_symmetry_group_IT_number 51
_symmetry_cell_setting 'orthorhombic'
loop_
_space_group_symop_operation_xyz
x,y,z
1/2-x,-y,z
1/2+x,-y,-z
-x,y,-z
-x,-y,-z
1/2+x,y,-z
1/2-x,y,z
x,-y,z
loop_
_atom_site_type_symbol
_atom_site_label
_atom_site_fract_x
_atom_site_fract_y
_atom_site_fract_z
Si Si1 0.597338 0.860226 0.372904
Si Si2 0.640281 0.602604 0.864758
Si Si3 0.860032 0.554264 0.364639
Si Si4 0.000000 0.914689 0.000000
Si Si5 0.650943 0.948607 0.664444
Si Si6 0.639922 0.711600 0.868366
Si Si7 0.646476 0.245141 0.368725
O O1 0.500000 0.850222 0.500000
O O2 0.578080 0.879330 0.101758
O O3 0.654896 0.902665 0.493110
O O4 0.653612 0.811712 0.364628
O O5 0.750000 0.597132 0.864569
O O6 0.600285 0.579354 0.116856
O O7 0.600298 0.577858 0.616456
O O8 0.609595 0.657101 0.862079
O O9 0.750000 0.558631 0.364613
O O10 0.892604 0.500000 0.360922
O O11 0.943824 0.948279 0.817606
O O12 0.750000 0.947248 0.810589
O O13 0.646230 0.000000 0.523958
O O14 0.750000 0.718349 0.870391
O O15 0.597974 0.736927 0.622371
O O16 0.597572 0.735130 0.118904
O O17 0.750000 0.266036 0.369793
#
# Coordination Sequence:
#
# PCOD8211595 Si02
#       7
#     8   8   8   4   8   8   8
#     4  10  23  39  57  81 114 152 192 244 300 365
#     4   9  15  24  36  53  84 120 166 223 274 326
#     4   9  15  21  32  51  79 121 171 219 266 325
#     4  10  23  40  62  90 122 160 204 252 309 378
#     4  10  22  40  63  92 125 161 203 251 309 372
#     4   9  18  30  47  71  97 133 179 235 291 342
#     4  10  20  34  54  78 105 138 187 239 289 350
#
# _framework density 23.470412
#
# number of rings (size 3 to 8) (size 9 to 14) (size 15 to 20)
#    0.000    2.462    0.000    2.077    4.308   10.154 
#    0.000    1.538    0.000    0.000    0.000    0.000 
#    0.000    0.000    0.000    0.000    0.000   53.846 
#
# Total GULP energy -644233.690687 kJ/mol
# GULP energy per Si atom -12389.109436 kJ/mol
# Density = 2.341699 g / cm^3
# Si number density = 23.470412 Si / 1000 Ang^3
#
#
#
# Elastic Constant Matrix: (Units=GPa)
#
#
# Indices 1 2 3 4 5 6 
#
# 1 25.6995 9.5110 19.7894 0.0000 0.0000 0.0000
# 2 9.5110 216.4206 107.1733 0.0000 0.0000 0.0000
# 3 19.7894 107.1733 202.1881 0.0000 0.0000 0.0000
# 4 0.0000 0.0000 0.0000 37.6250 0.0000 0.0000
# 5 0.0000 0.0000 0.0000 0.0000 20.2890 0.0000
# 6 0.0000 0.0000 0.0000 0.0000 0.0000 15.9635
#
#
#
# Elastic Compliance Matrix: (Units=1/GPa)
#
#
# Indices 1 2 3 4 5 6 
#
# 1 0.042094 0.000258 -0.004257 0.000000 0.000000 0.000000
# 2 0.000258 0.006267 -0.003347 0.000000 0.000000 0.000000
# 3 -0.004257 -0.003347 0.007137 0.000000 0.000000 0.000000
# 4 0.000000 0.000000 0.000000 0.026578 0.000000 0.000000
# 5 0.000000 0.000000 0.000000 0.000000 0.049288 0.000000
# 6 0.000000 0.000000 0.000000 0.000000 0.000000 0.062643
#
#
# Mechanical properties :
#
#
# Convention : Reuss Voigt Hill
#
# Bulk Modulus (GPa) = 24.50648 79.69505 52.10076
# Shear Modulus (GPa) = 22.49222 35.29781 28.89502
#
# Velocity S-wave (km/s) = 3.09904 3.88226 3.51255
# Velocity P-wave (km/s) = 4.82384 7.35698 6.22072
#
# Compressibility (1/GPa) = 0.04080553
#
# Stress axis : x y z
#
# Youngs Moduli (GPa) = 23.75663 159.57123 140.12072
#
# Poissons Ratio (x) = -0.04119 0.59646
# Poissons Ratio (y) = -0.00613 0.46900
# Poissons Ratio (z) = 0.10113 0.53410
#
# Static dielectric constant tensor:
#      x y z
#    x 3.758950 0.000000 0.000000 
#    y 0.000000 4.144520 0.000000 
#    z 0.000000 0.000000 4.538770 
# 
# 
# High freq. dielectric constant tensor:
#      x y z
#    x 1.904560 0.000000 0.000000 
#    y 0.000000 1.936310 0.000000 
#    z 0.000000 0.000000 1.924470 
# 
# From -- ./inp_files/2069.got.cif
#   From: 2010.03.12/outbox.cif.g09.slc.cpg/sg51_2_cif.got.tgz:2069.got - 2010.04.16 13:43:02.
