data_PCOD8211596
_publ_section_title
;
Structure prediction by ZEFSAII (Michael W. Deem and Ramdas Pophale) SiO2 
 PCOD8211596
Probable space group: P M M A
;
_chemical_formula_sum "Si O2"
_cell_formula_units_Z 44
_cell_length_a 9.463371
_cell_length_b 8.124477
_cell_length_c 29.542947
_cell_angle_alpha 90.000000
_cell_angle_beta 90.000000
_cell_angle_gamma 90.000000
_cell_volume 2271.407708
_symmetry_space_group_name_H-M "P M M A"
_symmetry_group_IT_number 51
_symmetry_cell_setting 'orthorhombic'
loop_
_space_group_symop_operation_xyz
x,y,z
1/2-x,-y,z
1/2+x,-y,-z
-x,y,-z
-x,-y,-z
1/2+x,y,-z
1/2-x,y,z
x,-y,z
loop_
_atom_site_type_symbol
_atom_site_label
_atom_site_fract_x
_atom_site_fract_y
_atom_site_fract_z
Si Si1 0.407349 0.687955 0.284750
Si Si2 0.417764 0.816849 0.896188
Si Si3 0.088680 0.811344 0.379632
Si Si4 0.081303 0.500000 0.953282
Si Si5 0.092845 0.309016 0.540403
Si Si6 0.590154 0.810030 0.205085
O O1 0.250000 0.748320 0.271934
O O2 0.407861 0.500000 0.300121
O O3 0.463797 0.790499 0.327828
O O4 0.502299 0.706530 0.240693
O O5 0.250000 0.820871 0.894684
O O6 0.469563 0.666431 0.927623
O O7 0.473314 0.783541 0.845303
O O8 0.470756 0.000000 0.912835
O O9 0.250000 0.745352 0.384272
O O10 0.985169 0.711126 0.411906
O O11 0.079554 0.000000 0.393840
O O12 0.250000 0.500000 0.960476
O O13 0.000000 0.500000 0.000000
O O14 0.250000 0.227866 0.541679
O O15 0.110703 0.500000 0.530178
O O16 0.000000 0.227240 0.500000
O O17 0.750000 0.744366 0.206745
O O18 0.582796 0.000000 0.218780
#
# Coordination Sequence:
#
# PCOD8211596 Si02
#       6
#     8   8   8   4   8   8
#     4  10  21  35  52  77 108 142 176 213 262 317
#     4   8  16  32  53  77 105 139 180 223 269 324
#     4  10  21  37  56  76 102 139 178 214 256 309
#     4  10  20  34  54  78 106 142 180 224 275 322
#     4  10  21  37  58  82 106 134 170 213 262 313
#     4   9  18  33  54  79 104 134 177 223 263 311
#
# _framework density 19.371248000000001
#
# number of rings (size 3 to 8) (size 9 to 14) (size 15 to 20)
#    0.000    2.545    0.000    2.727    1.273    5.091 
#    0.000    0.909    0.000    1.091    0.000    0.000 
#    0.000    0.000    0.000    0.000    0.000    0.000 
#
# Total GULP energy -545447.841124 kJ/mol
# GULP energy per Si atom -12396.541844 kJ/mol
# Density = 1.932716 g / cm^3
# Si number density = 19.371248 Si / 1000 Ang^3
#
#
#
# Elastic Constant Matrix: (Units=GPa)
#
#
# Indices 1 2 3 4 5 6 
#
# 1 80.4337 27.8641 58.8481 0.0000 0.0000 0.0000
# 2 27.8641 75.6769 45.6708 0.0000 0.0000 0.0000
# 3 58.8481 45.6708 132.3089 0.0000 0.0000 0.0000
# 4 0.0000 0.0000 0.0000 21.7252 0.0000 0.0000
# 5 0.0000 0.0000 0.0000 0.0000 36.1232 0.0000
# 6 0.0000 0.0000 0.0000 0.0000 0.0000 17.4607
#
#
#
# Elastic Compliance Matrix: (Units=1/GPa)
#
#
# Indices 1 2 3 4 5 6 
#
# 1 0.018759 -0.002364 -0.007528 0.000000 0.000000 0.000000
# 2 -0.002364 0.016989 -0.004813 0.000000 0.000000 0.000000
# 3 -0.007528 -0.004813 0.012567 0.000000 0.000000 0.000000
# 4 0.000000 0.000000 0.000000 0.046029 0.000000 0.000000
# 5 0.000000 0.000000 0.000000 0.000000 0.027683 0.000000
# 6 0.000000 0.000000 0.000000 0.000000 0.000000 0.057272
#
#
# Mechanical properties :
#
#
# Convention : Reuss Voigt Hill
#
# Bulk Modulus (GPa) = 52.89186 61.46506 57.17846
# Shear Modulus (GPa) = 23.25465 25.46425 24.35945
#
# Velocity S-wave (km/s) = 3.46854 3.62959 3.54998
# Velocity P-wave (km/s) = 6.58822 7.02596 6.81061
#
# Compressibility (1/GPa) = 0.01890650
#
# Stress axis : x y z
#
# Youngs Moduli (GPa) = 53.30781 58.86139 79.57073
#
# Poissons Ratio (x) = 0.13916 0.59897
# Poissons Ratio (y) = 0.12603 0.38296
# Poissons Ratio (z) = 0.40127 0.28329
#
# Static dielectric constant tensor:
#      x y z
#    x 3.413370 0.000000 0.000000 
#    y 0.000000 3.637280 0.000000 
#    z 0.000000 0.000000 3.466990 
# 
# 
# High freq. dielectric constant tensor:
#      x y z
#    x 1.728100 0.000000 0.000000 
#    y 0.000000 1.754020 0.000000 
#    z 0.000000 0.000000 1.753980 
# 
# From -- ./inp_files/36774.got.cif
#   From: 2010.03.12/outbox.cif.g09.slc.cpg/sg51_19_cif.got.tgz:36774.got - 2010.04.16 13:43:02.
