data_PCOD8211744
_publ_section_title
;
Structure prediction by ZEFSAII (Michael W. Deem and Ramdas Pophale) SiO2 
 PCOD8211744
Probable space group: P M M A
;
_chemical_formula_sum "Si O2"
_cell_formula_units_Z 48
_cell_length_a 16.632365
_cell_length_b 9.317757
_cell_length_c 16.277252
_cell_angle_alpha 90.000000
_cell_angle_beta 90.000000
_cell_angle_gamma 90.000000
_cell_volume 2522.588865
_symmetry_space_group_name_H-M "P M M A"
_symmetry_group_IT_number 51
_symmetry_cell_setting 'orthorhombic'
loop_
_space_group_symop_operation_xyz
x,y,z
1/2-x,-y,z
1/2+x,-y,-z
-x,y,-z
-x,-y,-z
1/2+x,y,-z
1/2-x,y,z
x,-y,z
loop_
_atom_site_type_symbol
_atom_site_label
_atom_site_fract_x
_atom_site_fract_y
_atom_site_fract_z
Si Si1 0.953339 0.168733 0.227568
Si Si2 0.250000 0.342569 0.193575
Si Si3 0.593563 0.663250 0.700792
Si Si4 0.918072 0.831610 0.042358
Si Si5 0.750000 0.170503 0.967158
Si Si6 0.161795 0.830466 0.630361
Si Si7 0.844278 0.166468 0.553140
O O1 0.917354 0.204846 0.138650
O O2 0.894714 0.230147 0.298160
O O3 0.035226 0.253529 0.237930
O O4 0.969757 0.000000 0.237095
O O5 0.250000 0.500000 0.150656
O O6 0.176837 0.325610 0.254045
O O7 0.250000 0.217880 0.126893
O O8 0.565099 0.500000 0.687176
O O9 0.600305 0.739337 0.612489
O O10 0.833196 0.768578 0.007646
O O11 0.918626 0.000000 0.025284
O O12 0.000000 0.766887 0.000000
O O13 0.750000 0.000000 0.972880
O O14 0.250000 0.761926 0.642583
O O15 0.128869 0.792628 0.539614
O O16 0.168785 0.000000 0.639107
O O17 0.750000 0.200022 0.564948
O O18 0.861686 0.000000 0.571596
#
# Coordination Sequence:
#
# PCOD8211744 Si02
#       7
#     8   4   8   8   4   8   8
#     4  10  20  34  55  80 109 144 180 220 269 321
#     4  10  22  38  54  75 104 140 178 221 268 324
#     4  11  22  36  53  76 109 143 181 224 270 319
#     4   9  18  32  51  81 115 139 172 224 274 321
#     4  10  20  34  58  85 108 140 178 223 276 328
#     4   8  16  31  53  80 108 139 179 224 266 319
#     4   9  17  32  54  79 105 137 180 224 267 318
#
# _framework density 19.02807
#
# number of rings (size 3 to 8) (size 9 to 14) (size 15 to 20)
#    0.000    2.500    0.833    2.500    1.167    3.333 
#    0.000    5.000    0.000    4.500    0.000    0.000 
#    0.000    0.000    0.000    0.000    0.000    0.000 
#
# Total GULP energy -594991.341953 kJ/mol
# GULP energy per Si atom -12395.652957 kJ/mol
# Density = 1.898476 g / cm^3
# Si number density = 19.028070 Si / 1000 Ang^3
#
#
#
# Elastic Constant Matrix: (Units=GPa)
#
#
# Indices 1 2 3 4 5 6 
#
# 1 103.3329 24.2757 42.7836 0.0000 0.0000 0.0000
# 2 24.2757 43.1214 33.7724 0.0000 0.0000 0.0000
# 3 42.7836 33.7724 112.1181 0.0000 0.0000 0.0000
# 4 0.0000 0.0000 0.0000 6.9321 0.0000 0.0000
# 5 0.0000 0.0000 0.0000 0.0000 -32.4943 0.0000
# 6 0.0000 0.0000 0.0000 0.0000 0.0000 7.8418
#
#
#
# Elastic Compliance Matrix: (Units=1/GPa)
#
#
# Indices 1 2 3 4 5 6 
#
# 1 0.012038 -0.004161 -0.003340 0.000000 0.000000 0.000000
# 2 -0.004161 0.031789 -0.007988 0.000000 0.000000 0.000000
# 3 -0.003340 -0.007988 0.012600 0.000000 0.000000 0.000000
# 4 0.000000 0.000000 0.000000 0.144257 0.000000 0.000000
# 5 0.000000 0.000000 0.000000 0.000000 -0.030775 0.000000
# 6 0.000000 0.000000 0.000000 0.000000 0.000000 0.127522
#
#
# Mechanical properties :
#
#
# Convention : Reuss Voigt Hill
#
# Bulk Modulus (GPa) = 39.29444 51.13731 45.21587
# Shear Modulus (GPa) = 14.84159 6.97196 10.90677
#
# Velocity S-wave (km/s) = 2.79585 1.91624 2.39674
# Velocity P-wave (km/s) = 5.57835 5.64172 5.61012
#
# Compressibility (1/GPa) = 0.02544890
#
# Stress axis : x y z
#
# Youngs Moduli (GPa) = 83.07065 31.45778 79.36598
#
# Poissons Ratio (x) = 0.13089 0.26511
# Poissons Ratio (y) = 0.34564 0.63395
# Poissons Ratio (z) = 0.27748 0.25127
#
# Static dielectric constant tensor:
#      x y z
#    x 3.896280 0.000000 0.000000 
#    y 0.000000 3.149420 0.000000 
#    z 0.000000 0.000000 3.550220 
# 
# 
# High freq. dielectric constant tensor:
#      x y z
#    x 1.746320 0.000000 0.000000 
#    y 0.000000 1.692350 0.000000 
#    z 0.000000 0.000000 1.750410 
# 
# From -- ./inp_files/24979.got.cif
#   From: 2010.03.12/outbox.cif.g09.slc.cpg/sg51_13_cif.got.tgz:24979.got - 2010.04.16 13:43:02.
