data_PCOD8211270
_publ_section_title
;
Structure prediction by ZEFSAII (Michael W. Deem and Ramdas Pophale) SiO2 
 PCOD8211270
Probable space group: P M M A
;
_chemical_formula_sum "Si O2"
_cell_formula_units_Z 48
_cell_length_a 19.291457
_cell_length_b 8.921379
_cell_length_c 15.753762
_cell_angle_alpha 90.000000
_cell_angle_beta 90.000000
_cell_angle_gamma 90.000000
_cell_volume 2711.323254
_symmetry_space_group_name_H-M "P M M A"
_symmetry_group_IT_number 51
_symmetry_cell_setting 'orthorhombic'
loop_
_space_group_symop_operation_xyz
x,y,z
1/2-x,-y,z
1/2+x,-y,-z
-x,y,-z
-x,-y,-z
1/2+x,y,-z
1/2-x,y,z
x,-y,z
loop_
_atom_site_type_symbol
_atom_site_label
_atom_site_fract_x
_atom_site_fract_y
_atom_site_fract_z
Si Si1 0.478490 0.174335 0.634168
Si Si2 0.750000 0.322806 0.775988
Si Si3 0.016892 0.675563 0.806710
Si Si4 0.377420 0.176664 0.132194
Si Si5 0.925754 0.833964 0.044200
Si Si6 0.388861 0.173662 0.471216
Si Si7 0.250000 0.323103 0.416490
O O1 0.457486 0.277284 0.713621
O O2 0.421967 0.208751 0.562388
O O3 0.555414 0.217994 0.601252
O O4 0.476695 0.000000 0.659687
O O5 0.750000 0.500000 0.778944
O O6 0.683223 0.263021 0.822714
O O7 0.750000 0.263005 0.679794
O O8 0.002084 0.500000 0.811030
O O9 0.075518 0.718770 0.876818
O O10 0.948280 0.768461 0.826279
O O11 0.371028 0.000000 0.148075
O O12 0.373059 0.213857 0.031091
O O13 0.907427 0.000000 0.078674
O O14 0.000000 0.836837 0.000000
O O15 0.318851 0.267244 0.463326
O O16 0.369938 0.000000 0.462948
O O17 0.250000 0.500000 0.419670
#
# Coordination Sequence:
#
# PCOD8211270 Si02
#       7
#     8   4   8   8   8   8   4
#     4   9  18  34  54  76 100 129 170 216 257 300
#     4  11  23  35  49  74 105 134 163 197 244 299
#     4  11  20  29  48  77 104 130 161 201 251 299
#     4  10  20  34  51  71  98 134 171 204 241 287
#     4   8  16  31  49  69  94 126 163 200 237 279
#     4   9  19  35  55  75  97 131 173 213 253 299
#     4  11  23  35  49  74 107 138 165 199 250 309
#
# _framework density 17.703533
#
# number of rings (size 3 to 8) (size 9 to 14) (size 15 to 20)
#    0.000    2.333    0.000    5.500    0.000    9.000 
#    0.000    1.667    0.000    1.000    0.000    7.000 
#    0.000    0.000    0.000    0.000    0.000    0.000 
#
# Total GULP energy -595109.238664 kJ/mol
# GULP energy per Si atom -12398.109139 kJ/mol
# Density = 1.766324 g / cm^3
# Si number density = 17.703533 Si / 1000 Ang^3
#
#
#
# Elastic Constant Matrix: (Units=GPa)
#
#
# Indices 1 2 3 4 5 6 
#
# 1 79.2483 26.0668 34.4915 0.0000 0.0000 0.0000
# 2 26.0668 65.7044 43.1322 0.0000 0.0000 0.0000
# 3 34.4915 43.1322 110.8137 0.0000 0.0000 0.0000
# 4 0.0000 0.0000 0.0000 24.8963 0.0000 0.0000
# 5 0.0000 0.0000 0.0000 0.0000 20.7624 0.0000
# 6 0.0000 0.0000 0.0000 0.0000 0.0000 23.7695
#
#
#
# Elastic Compliance Matrix: (Units=1/GPa)
#
#
# Indices 1 2 3 4 5 6 
#
# 1 0.015327 -0.003961 -0.003229 0.000000 0.000000 0.000000
# 2 -0.003961 0.021467 -0.007123 0.000000 0.000000 0.000000
# 3 -0.003229 -0.007123 0.012802 0.000000 0.000000 0.000000
# 4 0.000000 0.000000 0.000000 0.040167 0.000000 0.000000
# 5 0.000000 0.000000 0.000000 0.000000 0.048164 0.000000
# 6 0.000000 0.000000 0.000000 0.000000 0.000000 0.042071
#
#
# Mechanical properties :
#
#
# Convention : Reuss Voigt Hill
#
# Bulk Modulus (GPa) = 47.68686 51.46084 49.57385
# Shear Modulus (GPa) = 23.18987 24.02403 23.60695
#
# Velocity S-wave (km/s) = 3.62318 3.68777 3.65562
# Velocity P-wave (km/s) = 6.67069 6.87489 6.77356
#
# Compressibility (1/GPa) = 0.02097014
#
# Stress axis : x y z
#
# Youngs Moduli (GPa) = 65.24556 46.58343 78.11574
#
# Poissons Ratio (x) = 0.18452 0.25222
# Poissons Ratio (y) = 0.25844 0.55639
# Poissons Ratio (z) = 0.21067 0.33180
#
# Static dielectric constant tensor:
#      x y z
#    x 3.038840 0.000000 0.000000 
#    y 0.000000 3.222340 0.000000 
#    z 0.000000 0.000000 3.579870 
# 
# 
# High freq. dielectric constant tensor:
#      x y z
#    x 1.653060 0.000000 0.000000 
#    y 0.000000 1.685190 0.000000 
#    z 0.000000 0.000000 1.694690 
# 
# From -- ./inp_files/24999.got.cif
#   From: 2010.03.12/outbox.cif.g09.slc.cpg/sg51_13_cif.got.tgz:24999.got - 2010.04.16 13:43:02.
