data_PCOD8211380
_publ_section_title
;
Structure prediction by ZEFSAII (Michael W. Deem and Ramdas Pophale) SiO2 
 PCOD8211380
Probable space group: P M M A
;
_chemical_formula_sum "Si O2"
_cell_formula_units_Z 48
_cell_length_a 8.833089
_cell_length_b 18.953265
_cell_length_c 15.504316
_cell_angle_alpha 90.000000
_cell_angle_beta 90.000000
_cell_angle_gamma 90.000000
_cell_volume 2595.668654
_symmetry_space_group_name_H-M "P M M A"
_symmetry_group_IT_number 51
_symmetry_cell_setting 'orthorhombic'
loop_
_space_group_symop_operation_xyz
x,y,z
1/2-x,-y,z
1/2+x,-y,-z
-x,y,-z
-x,-y,-z
1/2+x,y,-z
1/2-x,y,z
x,-y,z
loop_
_atom_site_type_symbol
_atom_site_label
_atom_site_fract_x
_atom_site_fract_y
_atom_site_fract_z
Si Si1 0.084898 0.169609 0.081579
Si Si2 0.923523 0.583580 0.588316
Si Si3 0.570409 0.328827 0.263471
Si Si4 0.430922 0.178606 0.269240
Si Si5 0.575519 0.082912 0.410845
Si Si6 0.081218 0.663588 0.084321
O O1 0.250000 0.135268 0.079163
O O2 0.009917 0.153128 0.174662
O O3 0.093611 0.253217 0.071372
O O4 0.000000 0.135392 0.000000
O O5 0.750000 0.609990 0.591030
O O6 0.932701 0.500000 0.594900
O O7 0.000000 0.610531 0.500000
O O8 0.017549 0.613959 0.667710
O O9 0.750000 0.323317 0.261581
O O10 0.502185 0.253852 0.292190
O O11 0.513299 0.354280 0.169902
O O12 0.250000 0.186859 0.268868
O O13 0.483640 0.120251 0.335743
O O14 0.500000 0.106632 0.500000
O O15 0.750000 0.106702 0.410653
O O16 0.558712 0.000000 0.396336
O O17 0.250000 0.631303 0.093039
O O18 0.000000 0.630271 0.000000
#
# Coordination Sequence:
#
# PCOD8211380 Si02
#       6
#     8   8   8   8   8   8
#     4   8  15  26  43  68  98 131 164 202 245 292
#     4  10  21  38  58  78 102 134 172 213 258 311
#     4  11  21  33  52  79 109 139 173 214 259 305
#     4  10  20  34  52  77 107 136 171 214 258 302
#     4  10  21  37  56  77 101 132 170 210 256 312
#     4   9  16  28  46  71 103 137 173 211 254 303
#
# _framework density 18.492346000000001
#
# number of rings (size 3 to 8) (size 9 to 14) (size 15 to 20)
#    0.000    2.333    0.000    4.500    0.000    7.333 
#    0.000    3.333    0.000    1.000    0.000    0.000 
#    0.000    0.000    0.000    0.000    0.000    0.000 
#
# Total GULP energy -595100.413346 kJ/mol
# GULP energy per Si atom -12397.925278 kJ/mol
# Density = 1.845026 g / cm^3
# Si number density = 18.492346 Si / 1000 Ang^3
#
#
#
# Elastic Constant Matrix: (Units=GPa)
#
#
# Indices 1 2 3 4 5 6 
#
# 1 139.6687 25.1031 64.6192 0.0000 0.0000 0.0000
# 2 25.1031 21.7177 34.1563 0.0000 0.0000 0.0000
# 3 64.6192 34.1563 151.3352 0.0000 0.0000 0.0000
# 4 0.0000 0.0000 0.0000 -11.1930 0.0000 0.0000
# 5 0.0000 0.0000 0.0000 0.0000 38.5814 0.0000
# 6 0.0000 0.0000 0.0000 0.0000 0.0000 22.7640
#
#
#
# Elastic Compliance Matrix: (Units=1/GPa)
#
#
# Indices 1 2 3 4 5 6 
#
# 1 0.009599 -0.007207 -0.002472 0.000000 0.000000 0.000000
# 2 -0.007207 0.076796 -0.014255 0.000000 0.000000 0.000000
# 3 -0.002472 -0.014255 0.010881 0.000000 0.000000 0.000000
# 4 0.000000 0.000000 0.000000 -0.089341 0.000000 0.000000
# 5 0.000000 0.000000 0.000000 0.000000 0.025919 0.000000
# 6 0.000000 0.000000 0.000000 0.000000 0.000000 0.043929
#
#
# Mechanical properties :
#
#
# Convention : Reuss Voigt Hill
#
# Bulk Modulus (GPa) = 20.24028 62.27543 41.25786
# Shear Modulus (GPa) = 35.18124 22.62000 28.90062
#
# Velocity S-wave (km/s) = 4.36647 3.50123 3.95757
# Velocity P-wave (km/s) = 6.03244 7.07773 6.57589
#
# Compressibility (1/GPa) = 0.04940643
#
# Stress axis : x y z
#
# Youngs Moduli (GPa) = 104.17870 13.02148 91.90513
#
# Poissons Ratio (x) = 0.09385 0.22719
# Poissons Ratio (y) = 0.75086 1.31014
# Poissons Ratio (z) = 0.25753 0.18563
#
# Static dielectric constant tensor:
#      x y z
#    x 3.684720 0.000000 0.000000 
#    y 0.000000 2.919700 0.000000 
#    z 0.000000 0.000000 3.678710 
# 
# 
# High freq. dielectric constant tensor:
#      x y z
#    x 1.733150 0.000000 0.000000 
#    y 0.000000 1.666370 0.000000 
#    z 0.000000 0.000000 1.736890 
# 
# From -- ./inp_files/21083.got.cif
#   From: 2010.03.12/outbox.cif.g09.slc.cpg/sg51_11_cif.got.tgz:21083.got - 2010.04.16 13:43:02.
