data_PCOD8211937
_publ_section_title
;
Structure prediction by ZEFSAII (Michael W. Deem and Ramdas Pophale) SiO2 
 PCOD8211937
Probable space group: P M M A
;
_chemical_formula_sum "Si O2"
_cell_formula_units_Z 64
_cell_length_a 8.960471
_cell_length_b 23.625089
_cell_length_c 15.190983
_cell_angle_alpha 90.000000
_cell_angle_beta 90.000000
_cell_angle_gamma 90.000000
_cell_volume 3215.808432
_symmetry_space_group_name_H-M "P M M A"
_symmetry_group_IT_number 51
_symmetry_cell_setting 'orthorhombic'
loop_
_space_group_symop_operation_xyz
x,y,z
1/2-x,-y,z
1/2+x,-y,-z
-x,y,-z
-x,-y,-z
1/2+x,y,-z
1/2-x,y,z
x,-y,z
loop_
_atom_site_type_symbol
_atom_site_label
_atom_site_fract_x
_atom_site_fract_y
_atom_site_fract_z
Si Si1 0.582387 0.181414 0.850757
Si Si2 0.073226 0.939069 0.093423
Si Si3 0.569761 0.697877 0.908024
Si Si4 0.572865 0.656385 0.267719
Si Si5 0.922818 0.937775 0.410505
Si Si6 0.424760 0.564378 0.590212
Si Si7 0.587292 0.840746 0.658314
Si Si8 0.077974 0.725629 0.412812
O O1 0.750000 0.177335 0.886713
O O2 0.506110 0.119208 0.864805
O O3 0.510473 0.236759 0.897047
O O4 0.575766 0.194640 0.747858
O O5 0.250000 0.933784 0.085990
O O6 0.035005 0.000000 0.142488
O O7 0.000000 0.943452 0.000000
O O8 0.750000 0.694015 0.908541
O O9 0.507383 0.658983 0.827887
O O10 0.500000 0.675322 0.000000
O O11 0.750000 0.661042 0.253313
O O12 0.528206 0.599748 0.322734
O O13 0.514436 0.707498 0.327381
O O14 0.750000 0.937628 0.427625
O O15 0.000000 0.918504 0.500000
O O16 0.966432 0.890877 0.339309
O O17 0.977947 0.000000 0.380442
O O18 0.500000 0.587377 0.500000
O O19 0.250000 0.569563 0.574433
O O20 0.475461 0.500000 0.608184
O O21 0.750000 0.870090 0.650733
O O22 0.567422 0.794060 0.582289
O O23 0.250000 0.705183 0.407888
O O24 0.000000 0.700644 0.500000
#
# Coordination Sequence:
#
# PCOD8211937 Si02
#       8
#     8   8   8   8   8   8   8   8
#     4   9  18  34  53  75 103 136 177 226 280 339
#     4   9  17  30  49  71  95 124 162 210 267 333
#     4  11  22  39  60  84 116 153 197 249 300 354
#     4  11  22  37  59  88 119 156 200 241 289 343
#     4  10  21  36  52  71  95 127 171 223 277 335
#     4   9  19  36  59  90 128 166 203 242 284 336
#     4  10  20  35  53  74 101 135 175 222 277 335
#     4  11  22  36  54  80 115 152 188 233 285 339
#
# _framework density 19.901682000000001
#
# number of rings (size 3 to 8) (size 9 to 14) (size 15 to 20)
#    0.000    2.000    1.250    2.625    0.000    5.250 
#    0.000    2.500    0.000    1.875    0.000    0.000 
#    0.000    0.000    0.000    0.000    0.000    0.000 
#
# Total GULP energy -792849.038890 kJ/mol
# GULP energy per Si atom -12388.266233 kJ/mol
# Density = 1.985638 g / cm^3
# Si number density = 19.901682 Si / 1000 Ang^3
#
#
#
# Elastic Constant Matrix: (Units=GPa)
#
#
# Indices 1 2 3 4 5 6 
#
# 1 68.5420 35.5914 41.5486 0.0000 0.0000 0.0000
# 2 35.5914 100.7565 45.6820 0.0000 0.0000 0.0000
# 3 41.5486 45.6820 118.2224 0.0000 0.0000 0.0000
# 4 0.0000 0.0000 0.0000 28.7133 0.0000 0.0000
# 5 0.0000 0.0000 0.0000 0.0000 32.2244 0.0000
# 6 0.0000 0.0000 0.0000 0.0000 0.0000 23.4015
#
#
#
# Elastic Compliance Matrix: (Units=1/GPa)
#
#
# Indices 1 2 3 4 5 6 
#
# 1 0.020265 -0.004764 -0.005281 0.000000 0.000000 0.000000
# 2 -0.004764 0.013153 -0.003408 0.000000 0.000000 0.000000
# 3 -0.005281 -0.003408 0.011632 0.000000 0.000000 0.000000
# 4 0.000000 0.000000 0.000000 0.034827 0.000000 0.000000
# 5 0.000000 0.000000 0.000000 0.000000 0.031032 0.000000
# 6 0.000000 0.000000 0.000000 0.000000 0.000000 0.042732
#
#
# Mechanical properties :
#
#
# Convention : Reuss Voigt Hill
#
# Bulk Modulus (GPa) = 55.11814 59.24056 57.17935
# Shear Modulus (GPa) = 26.79607 27.84779 27.32193
#
# Velocity S-wave (km/s) = 3.67334 3.74474 3.70921
# Velocity P-wave (km/s) = 6.76362 6.96625 6.86568
#
# Compressibility (1/GPa) = 0.01814285
#
# Stress axis : x y z
#
# Youngs Moduli (GPa) = 49.34722 76.02858 85.97297
#
# Poissons Ratio (x) = 0.36219 0.45403
# Poissons Ratio (y) = 0.23509 0.29301
# Poissons Ratio (z) = 0.26061 0.25912
#
# Static dielectric constant tensor:
#      x y z
#    x 3.647190 0.000000 0.000000 
#    y 0.000000 3.860060 0.000000 
#    z 0.000000 0.000000 1.882730 
# 
# 
# High freq. dielectric constant tensor:
#      x y z
#    x 1.763480 0.000000 0.000000 
#    y 0.000000 1.772730 0.000000 
#    z 0.000000 0.000000 1.763800 
# 
# From -- ./inp_files/22196.got.cif
#   From: 2010.03.12/outbox.cif.g09.slc.cpg/sg51_12_cif.got.tgz:22196.got - 2010.04.16 13:43:02.
