data_PCOD8211682
_publ_section_title
;
Structure prediction by ZEFSAII (Michael W. Deem and Ramdas Pophale) SiO2 
 PCOD8211682
Probable space group: P M M A
;
_chemical_formula_sum "Si O2"
_cell_formula_units_Z 56
_cell_length_a 14.496461
_cell_length_b 9.373827
_cell_length_c 22.274561
_cell_angle_alpha 90.000000
_cell_angle_beta 90.000000
_cell_angle_gamma 90.000000
_cell_volume 3026.830343
_symmetry_space_group_name_H-M "P M M A"
_symmetry_group_IT_number 51
_symmetry_cell_setting 'orthorhombic'
loop_
_space_group_symop_operation_xyz
x,y,z
1/2-x,-y,z
1/2+x,-y,-z
-x,y,-z
-x,-y,-z
1/2+x,y,-z
1/2-x,y,z
x,-y,z
loop_
_atom_site_type_symbol
_atom_site_label
_atom_site_fract_x
_atom_site_fract_y
_atom_site_fract_z
Si Si1 0.974278 0.831910 0.295645
Si Si2 0.944973 0.166909 0.158751
Si Si3 0.750000 0.336812 0.985918
Si Si4 0.250000 0.167194 0.891959
Si Si5 0.640975 0.841605 0.498420
Si Si6 0.140369 0.338195 0.612680
Si Si7 0.351672 0.169111 0.369271
Si Si8 0.051724 0.334551 0.059920
O O1 0.969208 0.789714 0.226299
O O2 0.894324 0.747396 0.329549
O O3 0.074114 0.780939 0.320119
O O4 0.958178 0.000000 0.305581
O O5 0.840035 0.214451 0.145294
O O6 0.016329 0.247275 0.116406
O O7 0.958263 0.000000 0.147642
O O8 0.750000 0.500000 0.008288
O O9 0.839449 0.304513 0.945747
O O10 0.750000 0.240157 0.044007
O O11 0.250000 0.000000 0.903837
O O12 0.750000 0.851693 0.493262
O O13 0.600983 0.736432 0.447689
O O14 0.615366 0.780320 0.564404
O O15 0.598596 0.000000 0.488134
O O16 0.250000 0.333936 0.613901
O O17 0.103635 0.500000 0.614315
O O18 0.250000 0.232500 0.353211
O O19 0.343955 0.000000 0.371044
O O20 0.029685 0.500000 0.070937
O O21 0.000000 0.280928 0.000000
#
# Coordination Sequence:
#
# PCOD8211682 Si02
#       8
#     8   8   4   4   8   8   8   8
#     4  10  21  36  55  78 105 142 181 217 259 312
#     4  10  22  37  54  81 113 144 178 217 264 315
#     4  10  20  36  58  86 110 138 179 218 263 312
#     4  10  20  34  54  80 112 144 173 214 265 316
#     4   8  14  28  52  77  99 130 172 219 269 317
#     4  10  21  35  50  74 108 141 174 218 269 319
#     4   8  15  31  55  79 102 131 175 225 266 311
#     4  10  20  36  59  83 110 142 178 221 262 308
#
# _framework density 18.501201999999999
#
# number of rings (size 3 to 8) (size 9 to 14) (size 15 to 20)
#    0.000    2.571    1.429    1.286    1.000    2.857 
#    1.286    3.571    0.000    1.286    0.000    0.000 
#    0.000    0.000    0.000    0.000    0.000    0.000 
#
# Total GULP energy -694354.814425 kJ/mol
# GULP energy per Si atom -12399.193115 kJ/mol
# Density = 1.845909 g / cm^3
# Si number density = 18.501202 Si / 1000 Ang^3
#
#
#
# Elastic Constant Matrix: (Units=GPa)
#
#
# Indices 1 2 3 4 5 6 
#
# 1 100.7193 34.4201 61.3429 0.0000 0.0000 0.0000
# 2 34.4201 52.5203 53.1456 0.0000 0.0000 0.0000
# 3 61.3429 53.1456 151.4735 0.0000 0.0000 0.0000
# 4 0.0000 0.0000 0.0000 -9.1509 0.0000 0.0000
# 5 0.0000 0.0000 0.0000 0.0000 19.6179 0.0000
# 6 0.0000 0.0000 0.0000 0.0000 0.0000 19.5578
#
#
#
# Elastic Compliance Matrix: (Units=1/GPa)
#
#
# Indices 1 2 3 4 5 6 
#
# 1 0.014091 -0.005365 -0.003824 0.000000 0.000000 0.000000
# 2 -0.005365 0.031564 -0.008902 0.000000 0.000000 0.000000
# 3 -0.003824 -0.008902 0.011274 0.000000 0.000000 0.000000
# 4 0.000000 0.000000 0.000000 -0.109279 0.000000 0.000000
# 5 0.000000 0.000000 0.000000 0.000000 0.050974 0.000000
# 6 0.000000 0.000000 0.000000 0.000000 0.000000 0.051130
#
#
# Mechanical properties :
#
#
# Convention : Reuss Voigt Hill
#
# Bulk Modulus (GPa) = 48.20004 66.94781 57.57392
# Shear Modulus (GPa) = 53.84906 16.39194 35.12050
#
# Velocity S-wave (km/s) = 5.40082 2.97979 4.36165
# Velocity P-wave (km/s) = 8.06231 6.93564 7.52010
#
# Compressibility (1/GPa) = 0.02074687
#
# Stress axis : x y z
#
# Youngs Moduli (GPa) = 70.96627 31.68146 88.70167
#
# Poissons Ratio (x) = 0.16998 0.33921
# Poissons Ratio (y) = 0.38075 0.78960
# Poissons Ratio (z) = 0.27138 0.28202
#
# Static dielectric constant tensor:
#      x y z
#    x 3.637010 0.000000 0.000000 
#    y 0.000000 3.313670 0.000000 
#    z 0.000000 0.000000 3.392930 
# 
# 
# High freq. dielectric constant tensor:
#      x y z
#    x 1.724250 0.000000 0.000000 
#    y 0.000000 1.695150 0.000000 
#    z 0.000000 0.000000 1.713100 
# 
# From -- ./inp_files/33556.got.cif
#   From: 2010.03.12/outbox.cif.g09.slc.cpg/sg51_17_cif.got.tgz:33556.got - 2010.04.16 13:43:02.
