data_PCOD8211784
_publ_section_title
;
Structure prediction by ZEFSAII (Michael W. Deem and Ramdas Pophale) SiO2 
 PCOD8211784
Probable space group: P M M A
;
_chemical_formula_sum "Si O2"
_cell_formula_units_Z 56
_cell_length_a 9.366413
_cell_length_b 13.937553
_cell_length_c 20.679502
_cell_angle_alpha 90.000000
_cell_angle_beta 90.000000
_cell_angle_gamma 90.000000
_cell_volume 2699.603058
_symmetry_space_group_name_H-M "P M M A"
_symmetry_group_IT_number 51
_symmetry_cell_setting 'orthorhombic'
loop_
_space_group_symop_operation_xyz
x,y,z
1/2-x,-y,z
1/2+x,-y,-z
-x,y,-z
-x,-y,-z
1/2+x,y,-z
1/2-x,y,z
x,-y,z
loop_
_atom_site_type_symbol
_atom_site_label
_atom_site_fract_x
_atom_site_fract_y
_atom_site_fract_z
Si Si1 0.587254 0.614186 0.937876
Si Si2 0.909676 0.895508 0.298546
Si Si3 0.414528 0.388760 0.812179
Si Si4 0.091308 0.885582 0.939923
Si Si5 0.593564 0.110043 0.825626
Si Si6 0.091248 0.387426 0.441007
Si Si7 0.411968 0.310272 0.672892
O O1 0.750000 0.652683 0.939891
O O2 0.585256 0.500000 0.940070
O O3 0.511980 0.648593 0.871285
O O4 0.500000 0.654511 0.000000
O O5 0.750000 0.892897 0.267609
O O6 0.926087 0.803456 0.345188
O O7 0.028152 0.882602 0.244733
O O8 0.931674 0.000000 0.333562
O O9 0.250000 0.373449 0.831913
O O10 0.444889 0.500000 0.796421
O O11 0.453942 0.327971 0.747863
O O12 0.250000 0.841967 0.943787
O O13 0.012794 0.841300 0.877129
O O14 0.100351 0.000000 0.937759
O O15 0.000000 0.848636 0.000000
O O16 0.750000 0.159591 0.826408
O O17 0.611610 0.000000 0.846500
O O18 0.250000 0.341746 0.441618
O O19 0.103392 0.500000 0.451051
O O20 0.000000 0.341964 0.500000
O O21 0.017250 0.368225 0.372681
O O22 0.250000 0.346375 0.660818
#
# Coordination Sequence:
#
# PCOD8211784 Si02
#       7
#     8   8   8   8   8   8   8
#     4   9  16  26  42  65  95 133 175 216 260 315
#     4   9  18  33  52  74 101 135 176 222 271 319
#     4   9  17  29  46  71 104 139 174 214 262 318
#     4   9  15  22  34  54  80 109 144 191 250 317
#     4   9  16  26  41  61  85 115 154 202 257 315
#     4  10  21  37  59  88 122 157 188 218 256 309
#     4  10  20  34  55  82 112 147 185 227 274 322
#
# _framework density 20.743790000000001
#
# number of rings (size 3 to 8) (size 9 to 14) (size 15 to 20)
#    0.000    2.714    0.000    2.143    0.000    7.714 
#    0.000    1.429    0.000    1.286    0.000    4.000 
#    0.000    0.000    0.000    0.000    0.000    0.000 
#
# Total GULP energy -694113.165360 kJ/mol
# GULP energy per Si atom -12394.877953 kJ/mol
# Density = 2.069658 g / cm^3
# Si number density = 20.743790 Si / 1000 Ang^3
#
#
#
# Elastic Constant Matrix: (Units=GPa)
#
#
# Indices 1 2 3 4 5 6 
#
# 1 166.4995 14.4434 60.1015 0.0000 0.0000 0.0000
# 2 14.4434 45.8955 6.1737 0.0000 0.0000 0.0000
# 3 60.1015 6.1737 94.7653 0.0000 0.0000 0.0000
# 4 0.0000 0.0000 0.0000 0.3488 0.0000 0.0000
# 5 0.0000 0.0000 0.0000 0.0000 32.0411 0.0000
# 6 0.0000 0.0000 0.0000 0.0000 0.0000 12.6768
#
#
#
# Elastic Compliance Matrix: (Units=1/GPa)
#
#
# Indices 1 2 3 4 5 6 
#
# 1 0.007940 -0.001837 -0.004916 0.000000 0.000000 0.000000
# 2 -0.001837 0.022406 -0.000294 0.000000 0.000000 0.000000
# 3 -0.004916 -0.000294 0.013689 0.000000 0.000000 0.000000
# 4 0.000000 0.000000 0.000000 2.866614 0.000000 0.000000
# 5 0.000000 0.000000 0.000000 0.000000 0.031210 0.000000
# 6 0.000000 0.000000 0.000000 0.000000 0.000000 0.078884
#
#
# Mechanical properties :
#
#
# Convention : Reuss Voigt Hill
#
# Bulk Modulus (GPa) = 33.39987 52.06639 42.73313
# Shear Modulus (GPa) = 1.64213 24.10944 12.87579
#
# Velocity S-wave (km/s) = 0.89070 3.41288 2.49410
# Velocity P-wave (km/s) = 4.14655 6.37844 5.37952
#
# Compressibility (1/GPa) = 0.02994024
#
# Stress axis : x y z
#
# Youngs Moduli (GPa) = 125.94586 44.62994 73.04971
#
# Poissons Ratio (x) = 0.08200 0.35911
# Poissons Ratio (y) = 0.23142 0.02151
# Poissons Ratio (z) = 0.61914 0.01314
#
# Static dielectric constant tensor:
#      x y z
#    x 4.008490 0.000000 0.000000 
#    y 0.000000 3.632570 0.000000 
#    z 0.000000 0.000000 3.378300 
# 
# 
# High freq. dielectric constant tensor:
#      x y z
#    x 1.822620 0.000000 0.000000 
#    y 0.000000 1.799040 0.000000 
#    z 0.000000 0.000000 1.773370 
# 
# From -- ./inp_files/32040.got.cif
#   From: 2010.03.12/outbox.cif.g09.slc.cpg/sg51_17_cif.got.tgz:32040.got - 2010.04.16 13:43:02.
