data_PCOD8211172
_publ_section_title
;
Structure prediction by ZEFSAII (Michael W. Deem and Ramdas Pophale) SiO2 
 PCOD8211172
Probable space group: P M M A
;
_chemical_formula_sum "Si O2"
_cell_formula_units_Z 56
_cell_length_a 21.395768
_cell_length_b 9.924157
_cell_length_c 14.278269
_cell_angle_alpha 90.000000
_cell_angle_beta 90.000000
_cell_angle_gamma 90.000000
_cell_volume 3031.775688
_symmetry_space_group_name_H-M "P M M A"
_symmetry_group_IT_number 51
_symmetry_cell_setting 'orthorhombic'
loop_
_space_group_symop_operation_xyz
x,y,z
1/2-x,-y,z
1/2+x,-y,-z
-x,y,-z
-x,-y,-z
1/2+x,y,-z
1/2-x,y,z
x,-y,z
loop_
_atom_site_type_symbol
_atom_site_label
_atom_site_fract_x
_atom_site_fract_y
_atom_site_fract_z
Si Si1 0.589767 0.342088 0.257780
Si Si2 0.179708 0.855305 0.235753
Si Si3 0.936829 0.341142 0.048125
Si Si4 0.676406 0.155308 0.369521
Si Si5 0.629464 0.154031 0.571481
Si Si6 0.177271 0.343309 0.080347
Si Si7 0.021920 0.352413 0.394851
O O1 0.608912 0.500000 0.259217
O O2 0.567431 0.293932 0.155592
O O3 0.648181 0.251444 0.289830
O O4 0.534535 0.309007 0.328925
O O5 0.250000 0.869523 0.202102
O O6 0.180771 0.827193 0.347238
O O7 0.152396 0.734474 0.173054
O O8 0.145433 0.000000 0.216013
O O9 0.942883 0.500000 0.043150
O O10 0.871263 0.296792 0.000086
O O11 0.000000 0.278997 0.000000
O O12 0.750000 0.169572 0.363185
O O13 0.655103 0.207375 0.472440
O O14 0.655934 0.000000 0.353581
O O15 0.572859 0.238208 0.613596
O O16 0.607923 0.000000 0.559699
O O17 0.250000 0.312337 0.051753
O O18 0.169785 0.500000 0.103559
O O19 0.047727 0.500000 0.364153
O O20 0.000000 0.360515 0.500000
#
# Coordination Sequence:
#
# PCOD8211172 Si02
#       7
#     8   8   8   8   8   8   8
#     4  10  21  37  56  80 108 141 179 219 267 322
#     4   9  18  33  52  76 107 140 173 211 260 316
#     4   9  19  35  56  80 106 139 179 222 273 327
#     4  10  21  37  56  79 109 144 181 221 264 313
#     4  10  20  33  53  78 106 142 181 215 254 310
#     4   9  18  33  54  79 104 133 177 228 272 320
#     4  10  20  34  52  77 109 138 170 215 266 313
#
# _framework density 18.471022000000001
#
# number of rings (size 3 to 8) (size 9 to 14) (size 15 to 20)
#    0.000    2.429    1.429    0.429    2.000    4.000 
#    0.000    2.143    0.000    5.143    0.000    0.000 
#    0.000    0.000    0.000    0.000    0.000    0.000 
#
# Total GULP energy -693922.255777 kJ/mol
# GULP energy per Si atom -12391.468853 kJ/mol
# Density = 1.842898 g / cm^3
# Si number density = 18.471022 Si / 1000 Ang^3
#
#
#
# Elastic Constant Matrix: (Units=GPa)
#
#
# Indices 1 2 3 4 5 6 
#
# 1 90.5917 42.3671 49.8296 0.0000 0.0000 0.0000
# 2 42.3671 60.2589 38.5970 0.0000 0.0000 0.0000
# 3 49.8296 38.5970 129.3153 0.0000 0.0000 0.0000
# 4 0.0000 0.0000 0.0000 30.6890 0.0000 0.0000
# 5 0.0000 0.0000 0.0000 0.0000 31.0514 0.0000
# 6 0.0000 0.0000 0.0000 0.0000 0.0000 30.6870
#
#
#
# Elastic Compliance Matrix: (Units=1/GPa)
#
#
# Indices 1 2 3 4 5 6 
#
# 1 0.017895 -0.010095 -0.003883 0.000000 0.000000 0.000000
# 2 -0.010095 0.026212 -0.003934 0.000000 0.000000 0.000000
# 3 -0.003883 -0.003934 0.010403 0.000000 0.000000 0.000000
# 4 0.000000 0.000000 0.000000 0.032585 0.000000 0.000000
# 5 0.000000 0.000000 0.000000 0.000000 0.032205 0.000000
# 6 0.000000 0.000000 0.000000 0.000000 0.000000 0.032587
#
#
# Mechanical properties :
#
#
# Convention : Reuss Voigt Hill
#
# Bulk Modulus (GPa) = 53.50960 60.19481 56.85221
# Shear Modulus (GPa) = 25.78123 28.44364 27.11244
#
# Velocity S-wave (km/s) = 3.74005 3.92842 3.83539
# Velocity P-wave (km/s) = 6.90529 7.29631 7.10349
#
# Compressibility (1/GPa) = 0.01868823
#
# Stress axis : x y z
#
# Youngs Moduli (GPa) = 55.88061 38.15000 96.12408
#
# Poissons Ratio (x) = 0.38513 0.37321
# Poissons Ratio (y) = 0.56412 0.37812
# Poissons Ratio (z) = 0.21696 0.15007
#
# Static dielectric constant tensor:
#      x y z
#    x 3.331830 0.000000 0.000000 
#    y 0.000000 3.583200 0.000000 
#    z 0.000000 0.000000 3.492310 
# 
# 
# High freq. dielectric constant tensor:
#      x y z
#    x 1.707720 0.000000 0.000000 
#    y 0.000000 1.702370 0.000000 
#    z 0.000000 0.000000 1.718960 
# 
# From -- ./inp_files/25703.got.cif
#   From: 2010.03.12/outbox.cif.g09.slc.cpg/sg51_13_cif.got.tgz:25703.got - 2010.04.16 13:43:02.
