data_PCOD8211466
_publ_section_title
;
Structure prediction by ZEFSAII (Michael W. Deem and Ramdas Pophale) SiO2 
 PCOD8211466
Probable space group: P M M A
;
_chemical_formula_sum "Si O2"
_cell_formula_units_Z 44
_cell_length_a 8.820318
_cell_length_b 28.501395
_cell_length_c 9.231842
_cell_angle_alpha 90.000000
_cell_angle_beta 90.000000
_cell_angle_gamma 90.000000
_cell_volume 2320.805383
_symmetry_space_group_name_H-M "P M M A"
_symmetry_group_IT_number 51
_symmetry_cell_setting 'orthorhombic'
loop_
_space_group_symop_operation_xyz
x,y,z
1/2-x,-y,z
1/2+x,-y,-z
-x,y,-z
-x,-y,-z
1/2+x,y,-z
1/2-x,y,z
x,-y,z
loop_
_atom_site_type_symbol
_atom_site_label
_atom_site_fract_x
_atom_site_fract_y
_atom_site_fract_z
Si Si1 0.929051 0.000000 0.841750
Si Si2 0.428324 0.822232 0.157212
Si Si3 0.571854 0.448051 0.152905
Si Si4 0.569529 0.637774 0.343892
Si Si5 0.429883 0.267131 0.342864
Si Si6 0.070630 0.089386 0.341803
O O1 0.984779 0.045229 0.752565
O O2 0.750000 0.000000 0.861125
O O3 0.000000 0.000000 0.000000
O O4 0.250000 0.825761 0.137359
O O5 0.476641 0.773886 0.233312
O O6 0.487510 0.864317 0.258722
O O7 0.500000 0.825901 0.000000
O O8 0.750000 0.444782 0.134646
O O9 0.524169 0.500000 0.209926
O O10 0.511963 0.407995 0.259356
O O11 0.500000 0.437334 0.000000
O O12 0.500000 0.631750 0.500000
O O13 0.750000 0.641695 0.349623
O O14 0.500297 0.685238 0.274862
O O15 0.500000 0.256416 0.500000
O O16 0.250000 0.272060 0.359805
O O17 0.250000 0.089588 0.360453
O O18 0.000000 0.087066 0.500000
#
# Coordination Sequence:
#
# PCOD8211466 Si02
#       6
#     4   8   8   8   8   8
#     4  10  21  36  56  82 112 142 177 220 264 312
#     4  10  22  37  54  78 107 138 175 216 259 309
#     4   9  19  35  53  74 101 133 169 208 252 303
#     4  10  20  34  53  77 104 134 169 210 255 304
#     4  10  20  35  54  76 102 134 172 212 255 306
#     4  10  21  37  56  81 109 140 179 219 261 312
#
# _framework density 18.958936000000001
#
# number of rings (size 3 to 8) (size 9 to 14) (size 15 to 20)
#    0.000    2.182    0.000    3.545    0.000    5.455 
#    0.000    3.636    0.000    0.000    0.000    0.000 
#    0.000    0.000    0.000    0.000    0.000    0.000 
#
# Total GULP energy -545592.205489 kJ/mol
# GULP energy per Si atom -12399.822852 kJ/mol
# Density = 1.891578 g / cm^3
# Si number density = 18.958936 Si / 1000 Ang^3
#
#
#
# Elastic Constant Matrix: (Units=GPa)
#
#
# Indices 1 2 3 4 5 6 
#
# 1 47.5023 49.0269 40.2571 0.0000 0.0000 0.0000
# 2 49.0269 201.9986 107.7671 0.0000 0.0000 0.0000
# 3 40.2571 107.7671 141.2167 0.0000 0.0000 0.0000
# 4 0.0000 0.0000 0.0000 29.9559 0.0000 0.0000
# 5 0.0000 0.0000 0.0000 0.0000 36.5223 0.0000
# 6 0.0000 0.0000 0.0000 0.0000 0.0000 5.7320
#
#
#
# Elastic Compliance Matrix: (Units=1/GPa)
#
#
# Indices 1 2 3 4 5 6 
#
# 1 0.030095 -0.004600 -0.005069 0.000000 0.000000 0.000000
# 2 -0.004600 0.009053 -0.005598 0.000000 0.000000 0.000000
# 3 -0.005069 -0.005598 0.012798 0.000000 0.000000 0.000000
# 4 0.000000 0.000000 0.000000 0.033382 0.000000 0.000000
# 5 0.000000 0.000000 0.000000 0.000000 0.027381 0.000000
# 6 0.000000 0.000000 0.000000 0.000000 0.000000 0.174460
#
#
# Mechanical properties :
#
#
# Convention : Reuss Voigt Hill
#
# Bulk Modulus (GPa) = 46.69961 87.20222 66.95091
# Shear Modulus (GPa) = 15.39221 27.35314 21.37268
#
# Velocity S-wave (km/s) = 2.85243 3.80249 3.36119
# Velocity P-wave (km/s) = 5.96103 8.08540 7.10308
#
# Compressibility (1/GPa) = 0.02141345
#
# Stress axis : x y z
#
# Youngs Moduli (GPa) = 33.22806 110.45680 78.13760
#
# Poissons Ratio (x) = 0.50811 0.39606
# Poissons Ratio (y) = 0.15285 0.43738
# Poissons Ratio (z) = 0.16843 0.61828
#
# Static dielectric constant tensor:
#      x y z
#    x 3.402270 0.000000 0.000000 
#    y 0.000000 4.083530 0.000000 
#    z 0.000000 0.000000 3.383750 
# 
# 
# High freq. dielectric constant tensor:
#      x y z
#    x 1.733220 0.000000 0.000000 
#    y 0.000000 1.760000 0.000000 
#    z 0.000000 0.000000 1.734710 
# 
# From -- ./inp_files/5789.got.cif
#   From: 2010.03.12/outbox.cif.g09.slc.cpg/sg51_3_cif.got.tgz:5789.got - 2010.04.16 13:43:02.
