data_PCOD8211368
_publ_section_title
;
Structure prediction by ZEFSAII (Michael W. Deem and Ramdas Pophale) SiO2 
 PCOD8211368
Probable space group: P M M A
;
_chemical_formula_sum "Si O2"
_cell_formula_units_Z 40
_cell_length_a 8.800708
_cell_length_b 25.368172
_cell_length_c 9.681331
_cell_angle_alpha 90.000000
_cell_angle_beta 90.000000
_cell_angle_gamma 90.000000
_cell_volume 2161.433379
_symmetry_space_group_name_H-M "P M M A"
_symmetry_group_IT_number 51
_symmetry_cell_setting 'orthorhombic'
loop_
_space_group_symop_operation_xyz
x,y,z
1/2-x,-y,z
1/2+x,-y,-z
-x,y,-z
-x,-y,-z
1/2+x,y,-z
1/2-x,y,z
x,-y,z
loop_
_atom_site_type_symbol
_atom_site_label
_atom_site_fract_x
_atom_site_fract_y
_atom_site_fract_z
Si Si1 0.570680 0.410384 0.144413
Si Si2 0.429561 0.500000 0.650243
Si Si3 0.069229 0.906413 0.351259
Si Si4 0.428490 0.000000 0.150981
Si Si5 0.569275 0.796665 0.353333
Si Si6 0.071401 0.291810 0.857621
O O1 0.750000 0.414225 0.127516
O O2 0.513843 0.448338 0.266938
O O3 0.517137 0.350951 0.181169
O O4 0.500000 0.429259 0.000000
O O5 0.250000 0.500000 0.634441
O O6 0.500000 0.500000 0.500000
O O7 0.250000 0.902871 0.367215
O O8 0.000000 0.921826 0.500000
O O9 0.002001 0.851069 0.297905
O O10 0.019103 0.949024 0.237596
O O11 0.250000 0.000000 0.130725
O O12 0.500000 0.000000 0.000000
O O13 0.500000 0.782519 0.500000
O O14 0.750000 0.802482 0.362226
O O15 0.515720 0.748879 0.257278
O O16 0.250000 0.290166 0.874723
O O17 0.000000 0.272754 0.000000
#
# Coordination Sequence:
#
# PCOD8211368 Si02
#       6
#     8   4   8   4   8   8
#     4   9  18  34  53  74  99 131 169 209 249 298
#     4  10  21  34  50  74 104 132 165 208 254 300
#     4  10  20  36  56  78 102 133 171 208 247 298
#     4  10  23  38  54  78 106 134 167 206 252 300
#     4  10  20  34  52  76 103 134 169 207 249 296
#     4   9  19  34  52  74 102 133 168 207 251 298
#
# _framework density 18.506238
#
# number of rings (size 3 to 8) (size 9 to 14) (size 15 to 20)
#    0.000    2.400    0.000    3.000    0.000    5.600 
#    0.000    4.000    0.000    0.000    0.000    0.000 
#    0.000    0.000    0.000    0.000    0.000    0.000 
#
# Total GULP energy -495998.286910 kJ/mol
# GULP energy per Si atom -12399.957173 kJ/mol
# Density = 1.846412 g / cm^3
# Si number density = 18.506238 Si / 1000 Ang^3
#
#
#
# Elastic Constant Matrix: (Units=GPa)
#
#
# Indices 1 2 3 4 5 6 
#
# 1 48.6862 43.8414 43.8889 0.0000 0.0000 0.0000
# 2 43.8414 157.5786 117.2682 0.0000 0.0000 0.0000
# 3 43.8889 117.2682 158.0694 0.0000 0.0000 0.0000
# 4 0.0000 0.0000 0.0000 32.9858 0.0000 0.0000
# 5 0.0000 0.0000 0.0000 0.0000 35.0562 0.0000
# 6 0.0000 0.0000 0.0000 0.0000 0.0000 28.2575
#
#
#
# Elastic Compliance Matrix: (Units=1/GPa)
#
#
# Indices 1 2 3 4 5 6 
#
# 1 0.028821 -0.004607 -0.004585 0.000000 0.000000 0.000000
# 2 -0.004607 0.014905 -0.009778 0.000000 0.000000 0.000000
# 3 -0.004585 -0.009778 0.014854 0.000000 0.000000 0.000000
# 4 0.000000 0.000000 0.000000 0.030316 0.000000 0.000000
# 5 0.000000 0.000000 0.000000 0.000000 0.028526 0.000000
# 6 0.000000 0.000000 0.000000 0.000000 0.000000 0.035389
#
#
# Mechanical properties :
#
#
# Convention : Reuss Voigt Hill
#
# Bulk Modulus (GPa) = 48.45021 86.03682 67.24352
# Shear Modulus (GPa) = 25.29992 29.88229 27.59110
#
# Velocity S-wave (km/s) = 3.70145 4.02271 3.86542
# Velocity P-wave (km/s) = 6.67120 8.25639 7.50576
#
# Compressibility (1/GPa) = 0.02063975
#
# Stress axis : x y z
#
# Youngs Moduli (GPa) = 34.69706 67.09327 67.32339
#
# Poissons Ratio (x) = 0.30907 0.30866
# Poissons Ratio (y) = 0.15983 0.65831
# Poissons Ratio (z) = 0.15908 0.65606
#
# Static dielectric constant tensor:
#      x y z
#    x 3.335000 0.000000 0.000000 
#    y 0.000000 3.784740 0.000000 
#    z 0.000000 0.000000 3.407280 
# 
# 
# High freq. dielectric constant tensor:
#      x y z
#    x 1.716660 0.000000 0.000000 
#    y 0.000000 1.732130 0.000000 
#    z 0.000000 0.000000 1.714250 
# 
# From -- ./inp_files/5523.got.cif
#   From: 2010.03.12/outbox.cif.g09.slc.cpg/sg51_3_cif.got.tgz:5523.got - 2010.04.16 13:43:02.
