data_PCOD8211577
_publ_section_title
;
Structure prediction by ZEFSAII (Michael W. Deem and Ramdas Pophale) SiO2 
 PCOD8211577
Probable space group: P M M A
;
_chemical_formula_sum "Si O2"
_cell_formula_units_Z 40
_cell_length_a 9.466949
_cell_length_b 9.074543
_cell_length_c 25.701681
_cell_angle_alpha 90.000000
_cell_angle_beta 90.000000
_cell_angle_gamma 90.000000
_cell_volume 2207.986071
_symmetry_space_group_name_H-M "P M M A"
_symmetry_group_IT_number 51
_symmetry_cell_setting 'orthorhombic'
loop_
_space_group_symop_operation_xyz
x,y,z
1/2-x,-y,z
1/2+x,-y,-z
-x,y,-z
-x,-y,-z
1/2+x,y,-z
1/2-x,y,z
x,-y,z
loop_
_atom_site_type_symbol
_atom_site_label
_atom_site_fract_x
_atom_site_fract_y
_atom_site_fract_z
Si Si1 0.586377 0.830649 0.049862
Si Si2 0.584606 0.828105 0.755317
Si Si3 0.585282 0.671329 0.154725
Si Si4 0.917912 0.333891 0.652363
Si Si5 0.913607 0.828167 0.549957
O O1 0.750000 0.810351 0.036512
O O2 0.540589 0.730527 0.098258
O O3 0.550258 0.000000 0.063357
O O4 0.500000 0.775413 0.000000
O O5 0.750000 0.796867 0.762880
O O6 0.503312 0.758963 0.803237
O O7 0.526561 0.754427 0.702449
O O8 0.551307 0.000000 0.752133
O O9 0.750000 0.701096 0.164962
O O10 0.547377 0.500000 0.158091
O O11 0.750000 0.330340 0.651717
O O12 0.976359 0.500000 0.655071
O O13 0.974482 0.257528 0.599930
O O14 0.750000 0.791769 0.540003
O O15 0.000000 0.773267 0.500000
O O16 0.937572 0.000000 0.560510
#
# Coordination Sequence:
#
# PCOD8211577 Si02
#       5
#     8   8   8   8   8
#     4   9  18  33  52  73  99 132 169 207 246 291
#     4  10  20  34  54  78 101 129 169 212 251 297
#     4  10  21  36  53  75 105 138 169 204 251 303
#     4   9  17  30  49  72  98 128 162 202 248 295
#     4   9  17  30  48  69  94 125 161 200 242 290
#
# _framework density 18.116056
#
# number of rings (size 3 to 8) (size 9 to 14) (size 15 to 20)
#    0.000    2.600    0.000    1.800    0.000    6.400 
#    0.000    3.000    0.000    3.600    0.000    0.000 
#    0.000    0.000    0.000    0.000    0.000    0.000 
#
# Total GULP energy -496093.151363 kJ/mol
# GULP energy per Si atom -12402.328784 kJ/mol
# Density = 1.807482 g / cm^3
# Si number density = 18.116056 Si / 1000 Ang^3
#
#
#
# Elastic Constant Matrix: (Units=GPa)
#
#
# Indices 1 2 3 4 5 6 
#
# 1 44.4871 43.2920 62.5656 0.0000 0.0000 0.0000
# 2 43.2920 112.9368 86.1495 0.0000 0.0000 0.0000
# 3 62.5656 86.1495 177.1178 0.0000 0.0000 0.0000
# 4 0.0000 0.0000 0.0000 17.0572 0.0000 0.0000
# 5 0.0000 0.0000 0.0000 0.0000 34.2451 0.0000
# 6 0.0000 0.0000 0.0000 0.0000 0.0000 19.6329
#
#
#
# Elastic Compliance Matrix: (Units=1/GPa)
#
#
# Indices 1 2 3 4 5 6 
#
# 1 0.049855 -0.009026 -0.013221 0.000000 0.000000 0.000000
# 2 -0.009026 0.015712 -0.004454 0.000000 0.000000 0.000000
# 3 -0.013221 -0.004454 0.012482 0.000000 0.000000 0.000000
# 4 0.000000 0.000000 0.000000 0.058626 0.000000 0.000000
# 5 0.000000 0.000000 0.000000 0.000000 0.029201 0.000000
# 6 0.000000 0.000000 0.000000 0.000000 0.000000 0.050935
#
#
# Mechanical properties :
#
#
# Convention : Reuss Voigt Hill
#
# Bulk Modulus (GPa) = 40.57064 79.83953 60.20509
# Shear Modulus (GPa) = 17.95785 23.68935 20.82360
#
# Velocity S-wave (km/s) = 3.15185 3.62006 3.39404
# Velocity P-wave (km/s) = 5.97403 7.85111 6.97599
#
# Compressibility (1/GPa) = 0.02464837
#
# Stress axis : x y z
#
# Youngs Moduli (GPa) = 20.05799 63.64604 80.11253
#
# Poissons Ratio (x) = 0.57447 1.05915
# Poissons Ratio (y) = 0.18104 0.35681
# Poissons Ratio (z) = 0.26518 0.28347
#
# Static dielectric constant tensor:
#      x y z
#    x 3.077030 0.000000 0.000000 
#    y 0.000000 3.460950 0.000000 
#    z 0.000000 0.000000 3.522190 
# 
# 
# High freq. dielectric constant tensor:
#      x y z
#    x 1.672330 0.000000 0.000000 
#    y 0.000000 1.709140 0.000000 
#    z 0.000000 0.000000 1.715550 
# 
# From -- ./inp_files/28792.got.cif
#   From: 2010.03.12/outbox.cif.g09.slc.cpg/sg51_15_cif.got.tgz:28792.got - 2010.04.16 13:43:02.
