data_PCOD8211244
_publ_section_title
;
Structure prediction by ZEFSAII (Michael W. Deem and Ramdas Pophale) SiO2 
 PCOD8211244
Probable space group: P M M A
;
_chemical_formula_sum "Si O2"
_cell_formula_units_Z 48
_cell_length_a 9.216083
_cell_length_b 14.292500
_cell_length_c 20.501644
_cell_angle_alpha 90.000000
_cell_angle_beta 90.000000
_cell_angle_gamma 90.000000
_cell_volume 2700.494308
_symmetry_space_group_name_H-M "P M M A"
_symmetry_group_IT_number 51
_symmetry_cell_setting 'orthorhombic'
loop_
_space_group_symop_operation_xyz
x,y,z
1/2-x,-y,z
1/2+x,-y,-z
-x,y,-z
-x,-y,-z
1/2+x,y,-z
1/2-x,y,z
x,-y,z
loop_
_atom_site_type_symbol
_atom_site_label
_atom_site_fract_x
_atom_site_fract_y
_atom_site_fract_z
Si Si1 0.580550 0.892695 0.563917
Si Si2 0.578075 0.219366 0.691038
Si Si3 0.418461 0.891473 0.803197
Si Si4 0.577740 0.398425 0.123040
Si Si5 0.079942 0.208280 0.936017
Si Si6 0.918461 0.605757 0.271577
O O1 0.500000 0.853802 0.500000
O O2 0.750000 0.881330 0.551458
O O3 0.528517 0.834192 0.626100
O O4 0.537141 0.000000 0.577239
O O5 0.750000 0.222664 0.698009
O O6 0.514265 0.166817 0.753400
O O7 0.514453 0.323996 0.685323
O O8 0.250000 0.870727 0.788597
O O9 0.457448 0.860199 0.876447
O O10 0.456621 0.000000 0.795691
O O11 0.750000 0.397773 0.123069
O O12 0.521037 0.500000 0.097084
O O13 0.519234 0.313096 0.079331
O O14 0.526749 0.384056 0.197268
O O15 0.250000 0.210068 0.950177
O O16 0.000000 0.169749 0.000000
O O17 0.750000 0.633376 0.277636
O O18 0.944016 0.500000 0.296633
#
# Coordination Sequence:
#
# PCOD8211244 Si02
#       6
#     8   8   8   8   8   8
#     4   9  19  35  53  77 110 145 177 210 254 307
#     4  11  21  33  54  83 114 139 166 214 270 313
#     4  10  21  37  55  74  98 134 181 223 259 312
#     4   8  14  28  50  71  94 126 163 207 257 307
#     4  10  20  34  50  70  98 131 171 215 264 317
#     4   9  17  32  55  79 104 138 178 215 254 307
#
# _framework density 17.774525000000001
#
# number of rings (size 3 to 8) (size 9 to 14) (size 15 to 20)
#    0.000    2.500    1.667    2.000    0.000    4.000 
#    0.000    1.667    0.000    0.500    0.000    0.000 
#    0.000    0.000    0.000    0.000    0.000    0.000 
#
# Total GULP energy -595141.029064 kJ/mol
# GULP energy per Si atom -12398.771439 kJ/mol
# Density = 1.773407 g / cm^3
# Si number density = 17.774525 Si / 1000 Ang^3
#
#
#
# Elastic Constant Matrix: (Units=GPa)
#
#
# Indices 1 2 3 4 5 6 
#
# 1 52.4456 41.3392 47.3730 0.0000 0.0000 0.0000
# 2 41.3392 103.0237 49.5083 0.0000 0.0000 0.0000
# 3 47.3730 49.5083 104.8843 0.0000 0.0000 0.0000
# 4 0.0000 0.0000 0.0000 28.0918 0.0000 0.0000
# 5 0.0000 0.0000 0.0000 0.0000 30.0024 0.0000
# 6 0.0000 0.0000 0.0000 0.0000 0.0000 22.0564
#
#
#
# Elastic Compliance Matrix: (Units=1/GPa)
#
#
# Indices 1 2 3 4 5 6 
#
# 1 0.037697 -0.008981 -0.012787 0.000000 0.000000 0.000000
# 2 -0.008981 0.014694 -0.002879 0.000000 0.000000 0.000000
# 3 -0.012787 -0.002879 0.016669 0.000000 0.000000 0.000000
# 4 0.000000 0.000000 0.000000 0.035598 0.000000 0.000000
# 5 0.000000 0.000000 0.000000 0.000000 0.033331 0.000000
# 6 0.000000 0.000000 0.000000 0.000000 0.000000 0.045338
#
#
# Mechanical properties :
#
#
# Convention : Reuss Voigt Hill
#
# Bulk Modulus (GPa) = 50.59615 59.64385 55.12000
# Shear Modulus (GPa) = 20.90205 24.17232 22.53718
#
# Velocity S-wave (km/s) = 3.43294 3.69174 3.56469
# Velocity P-wave (km/s) = 6.65137 7.19726 6.92970
#
# Compressibility (1/GPa) = 0.01976435
#
# Stress axis : x y z
#
# Youngs Moduli (GPa) = 26.52715 68.05454 59.99153
#
# Poissons Ratio (x) = 0.61123 0.76712
# Poissons Ratio (y) = 0.23825 0.17274
# Poissons Ratio (z) = 0.33921 0.19596
#
# Static dielectric constant tensor:
#      x y z
#    x 3.057500 0.000000 0.000000 
#    y 0.000000 3.616820 0.000000 
#    z 0.000000 0.000000 3.191390 
# 
# 
# High freq. dielectric constant tensor:
#      x y z
#    x 1.666500 0.000000 0.000000 
#    y 0.000000 1.697220 0.000000 
#    z 0.000000 0.000000 1.671400 
# 
# From -- ./inp_files/27571.got.cif
#   From: 2010.03.12/outbox.cif.g09.slc.cpg/sg51_14_cif.got.tgz:27571.got - 2010.04.16 13:43:02.
