data_PCOD8211563
_publ_section_title
;
Structure prediction by ZEFSAII (Michael W. Deem and Ramdas Pophale) SiO2 
 PCOD8211563
Probable space group: P M M A
;
_chemical_formula_sum "Si O2"
_cell_formula_units_Z 48
_cell_length_a 15.916948
_cell_length_b 9.550047
_cell_length_c 16.749681
_cell_angle_alpha 90.000000
_cell_angle_beta 90.000000
_cell_angle_gamma 90.000000
_cell_volume 2546.078835
_symmetry_space_group_name_H-M "P M M A"
_symmetry_group_IT_number 51
_symmetry_cell_setting 'orthorhombic'
loop_
_space_group_symop_operation_xyz
x,y,z
1/2-x,-y,z
1/2+x,-y,-z
-x,y,-z
-x,-y,-z
1/2+x,y,-z
1/2-x,y,z
x,-y,z
loop_
_atom_site_type_symbol
_atom_site_label
_atom_site_fract_x
_atom_site_fract_y
_atom_site_fract_z
Si Si1 0.935967 0.661997 0.366198
Si Si2 0.250000 0.335208 0.907130
Si Si3 0.842816 0.849863 0.485025
Si Si4 0.079520 0.336945 0.815014
Si Si5 0.750000 0.166038 0.930800
Si Si6 0.088519 0.837316 0.171285
Si Si7 0.592284 0.843115 0.649916
O O1 0.944464 0.500000 0.382633
O O2 0.880338 0.722337 0.436694
O O3 0.900423 0.693820 0.277814
O O4 0.025407 0.730193 0.376257
O O5 0.250000 0.500000 0.925885
O O6 0.164933 0.293116 0.860095
O O7 0.250000 0.246909 0.986924
O O8 0.750000 0.862465 0.452547
O O9 0.838090 0.825605 0.581082
O O10 0.889248 0.000000 0.467945
O O11 0.057937 0.500000 0.828852
O O12 0.997801 0.249239 0.844735
O O13 0.664799 0.212201 0.885108
O O14 0.750000 0.000000 0.944692
O O15 0.124566 0.810769 0.260701
O O16 0.066819 0.000000 0.156469
O O17 0.553827 0.000000 0.650121
#
# Coordination Sequence:
#
# PCOD8211563 Si02
#       7
#     8   4   8   8   4   8   8
#     4  10  20  34  54  76 103 139 179 223 270 314
#     4  10  22  40  60  81 108 146 184 221 270 332
#     4  10  21  33  48  75 107 140 180 221 260 310
#     4   9  20  38  59  81 108 145 188 226 268 324
#     4  10  22  38  58  87 116 142 174 221 278 332
#     4   9  19  36  59  84 112 145 181 222 273 325
#     4   9  18  34  55  75 102 141 181 218 260 314
#
# _framework density 18.852519999999998
#
# number of rings (size 3 to 8) (size 9 to 14) (size 15 to 20)
#    0.000    2.500    0.000    1.000    2.333    5.667 
#    0.000    3.333    0.000    0.000    0.000    0.000 
#    0.000    0.000    0.000    0.000    0.000    0.000 
#
# Total GULP energy -594718.347080 kJ/mol
# GULP energy per Si atom -12389.965564 kJ/mol
# Density = 1.880961 g / cm^3
# Si number density = 18.852520 Si / 1000 Ang^3
#
#
#
# Elastic Constant Matrix: (Units=GPa)
#
#
# Indices 1 2 3 4 5 6 
#
# 1 103.4533 54.8853 59.9411 0.0000 0.0000 0.0000
# 2 54.8853 83.2155 47.0672 0.0000 0.0000 0.0000
# 3 59.9411 47.0672 94.5936 0.0000 0.0000 0.0000
# 4 0.0000 0.0000 0.0000 32.2021 0.0000 0.0000
# 5 0.0000 0.0000 0.0000 0.0000 33.8530 0.0000
# 6 0.0000 0.0000 0.0000 0.0000 0.0000 37.7485
#
#
#
# Elastic Compliance Matrix: (Units=1/GPa)
#
#
# Indices 1 2 3 4 5 6 
#
# 1 0.018192 -0.007624 -0.007734 0.000000 0.000000 0.000000
# 2 -0.007624 0.019919 -0.005080 0.000000 0.000000 0.000000
# 3 -0.007734 -0.005080 0.018000 0.000000 0.000000 0.000000
# 4 0.000000 0.000000 0.000000 0.031054 0.000000 0.000000
# 5 0.000000 0.000000 0.000000 0.000000 0.029539 0.000000
# 6 0.000000 0.000000 0.000000 0.000000 0.000000 0.026491
#
#
# Mechanical properties :
#
#
# Convention : Reuss Voigt Hill
#
# Bulk Modulus (GPa) = 65.64047 67.22773 66.43410
# Shear Modulus (GPa) = 26.43393 28.71865 27.57629
#
# Velocity S-wave (km/s) = 3.74858 3.90722 3.82872
# Velocity P-wave (km/s) = 7.32320 7.48949 7.40681
#
# Compressibility (1/GPa) = 0.01523450
#
# Stress axis : x y z
#
# Youngs Moduli (GPa) = 54.96783 50.20380 55.55527
#
# Poissons Ratio (x) = 0.38277 0.42968
# Poissons Ratio (y) = 0.41909 0.28221
# Poissons Ratio (z) = 0.42514 0.25502
#
# Static dielectric constant tensor:
#      x y z
#    x 3.544460 0.000000 0.000000 
#    y 0.000000 3.345520 0.000000 
#    z 0.000000 0.000000 3.568150 
# 
# 
# High freq. dielectric constant tensor:
#      x y z
#    x 1.723790 0.000000 0.000000 
#    y 0.000000 1.731190 0.000000 
#    z 0.000000 0.000000 1.736530 
# 
# From -- ./inp_files/29574.got.cif
#   From: 2010.03.12/outbox.cif.g09.slc.cpg/sg51_15_cif.got.tgz:29574.got - 2010.04.16 13:43:02.
