data_PCOD8211010
_publ_section_title
;
Structure prediction by ZEFSAII (Michael W. Deem and Ramdas Pophale) SiO2 
 PCOD8211010
Probable space group: P M M A
;
_chemical_formula_sum "Si O2"
_cell_formula_units_Z 56
_cell_length_a 8.824604
_cell_length_b 14.117733
_cell_length_c 25.804472
_cell_angle_alpha 90.000000
_cell_angle_beta 90.000000
_cell_angle_gamma 90.000000
_cell_volume 3214.808937
_symmetry_space_group_name_H-M "P M M A"
_symmetry_group_IT_number 51
_symmetry_cell_setting 'orthorhombic'
loop_
_space_group_symop_operation_xyz
x,y,z
1/2-x,-y,z
1/2+x,-y,-z
-x,y,-z
-x,-y,-z
1/2+x,y,-z
1/2-x,y,z
x,-y,z
loop_
_atom_site_type_symbol
_atom_site_label
_atom_site_fract_x
_atom_site_fract_y
_atom_site_fract_z
Si Si1 0.571796 0.892103 0.946328
Si Si2 0.425819 0.795730 0.850255
Si Si3 0.077138 0.394378 0.797660
Si Si4 0.073828 0.110406 0.248112
Si Si5 0.928283 0.107617 0.447519
Si Si6 0.426094 0.607382 0.310003
Si Si7 0.071508 0.786347 0.654992
O O1 0.750000 0.883715 0.951355
O O2 0.516410 0.823899 0.901136
O O3 0.521809 0.000000 0.933994
O O4 0.500000 0.857111 0.000000
O O5 0.250000 0.817883 0.858834
O O6 0.455670 0.683609 0.841565
O O7 0.481586 0.855852 0.801565
O O8 0.250000 0.384128 0.777468
O O9 0.049009 0.500000 0.820567
O O10 0.966410 0.374361 0.749883
O O11 0.250000 0.132798 0.239190
O O12 0.016608 0.163825 0.298678
O O13 0.043787 0.000000 0.256410
O O14 0.750000 0.112968 0.453468
O O15 0.984031 0.168899 0.398909
O O16 0.000000 0.149762 0.500000
O O17 0.983860 0.000000 0.438678
O O18 0.250000 0.629741 0.317764
O O19 0.465845 0.500000 0.325949
O O20 0.525645 0.675856 0.346284
O O21 0.250000 0.799493 0.663320
#
# Coordination Sequence:
#
# PCOD8211010 Si02
#       7
#     8   8   8   8   8   8   8
#     4  10  21  37  56  77 103 137 177 220 262 309
#     4  11  21  33  53  79 106 139 174 214 262 312
#     4   9  18  33  52  75 104 138 175 213 257 311
#     4  11  23  35  48  72 107 143 175 211 258 311
#     4   9  19  35  54  76 102 134 174 216 258 308
#     4  10  20  33  51  76 105 137 174 216 260 310
#     4  11  21  34  53  77 105 138 173 214 262 314
#
# _framework density 17.419387
#
# number of rings (size 3 to 8) (size 9 to 14) (size 15 to 20)
#    0.000    1.857    1.429    3.000    0.000    6.857 
#    0.000    1.429    0.000    0.857    0.000    0.000 
#    0.000    0.000    0.000    0.000    0.000    0.000 
#
# Total GULP energy -694546.352411 kJ/mol
# GULP energy per Si atom -12402.613436 kJ/mol
# Density = 1.737974 g / cm^3
# Si number density = 17.419387 Si / 1000 Ang^3
#
#
#
# Elastic Constant Matrix: (Units=GPa)
#
#
# Indices 1 2 3 4 5 6 
#
# 1 42.5574 28.0832 24.0110 0.0000 0.0000 0.0000
# 2 28.0832 100.3056 54.0517 0.0000 0.0000 0.0000
# 3 24.0110 54.0517 114.9796 0.0000 0.0000 0.0000
# 4 0.0000 0.0000 0.0000 112.9689 0.0000 0.0000
# 5 0.0000 0.0000 0.0000 0.0000 32.3287 0.0000
# 6 0.0000 0.0000 0.0000 0.0000 0.0000 30.6468
#
#
#
# Elastic Compliance Matrix: (Units=1/GPa)
#
#
# Indices 1 2 3 4 5 6 
#
# 1 0.029606 -0.006639 -0.003061 0.000000 0.000000 0.000000
# 2 -0.006639 0.014841 -0.005590 0.000000 0.000000 0.000000
# 3 -0.003061 -0.005590 0.011964 0.000000 0.000000 0.000000
# 4 0.000000 0.000000 0.000000 0.008852 0.000000 0.000000
# 5 0.000000 0.000000 0.000000 0.000000 0.030932 0.000000
# 6 0.000000 0.000000 0.000000 0.000000 0.000000 0.032630
#
#
# Mechanical properties :
#
#
# Convention : Reuss Voigt Hill
#
# Bulk Modulus (GPa) = 38.71536 52.23716 45.47626
# Shear Modulus (GPa) = 29.75887 45.30199 37.53043
#
# Velocity S-wave (km/s) = 4.13773 5.10520 4.64672
# Velocity P-wave (km/s) = 6.71576 8.05008 7.41301
#
# Compressibility (1/GPa) = 0.02582954
#
# Stress axis : x y z
#
# Youngs Moduli (GPa) = 33.77672 67.38217 83.58110
#
# Poissons Ratio (x) = 0.44737 0.25588
# Poissons Ratio (y) = 0.22425 0.46723
# Poissons Ratio (z) = 0.10341 0.37667
#
# Static dielectric constant tensor:
#      x y z
#    x 3.350150 0.000000 0.000000 
#    y 0.000000 3.504720 0.000000 
#    z 0.000000 0.000000 3.505280 
# 
# 
# High freq. dielectric constant tensor:
#      x y z
#    x 1.685040 0.000000 0.000000 
#    y 0.000000 1.676390 0.000000 
#    z 0.000000 0.000000 1.653160 
# 
# From -- ./inp_files/31984.got.cif
#   From: 2010.03.12/outbox.cif.g09.slc.cpg/sg51_16_cif.got.tgz:31984.got - 2010.04.16 13:43:02.
