data_PCOD8211944
_publ_section_title
;
Structure prediction by ZEFSAII (Michael W. Deem and Ramdas Pophale) SiO2 
 PCOD8211944
Probable space group: P M M A
;
_chemical_formula_sum "Si O2"
_cell_formula_units_Z 64
_cell_length_a 9.743560
_cell_length_b 18.753895
_cell_length_c 19.108420
_cell_angle_alpha 90.000000
_cell_angle_beta 90.000000
_cell_angle_gamma 90.000000
_cell_volume 3491.675876
_symmetry_space_group_name_H-M "P M M A"
_symmetry_group_IT_number 51
_symmetry_cell_setting 'orthorhombic'
loop_
_space_group_symop_operation_xyz
x,y,z
1/2-x,-y,z
1/2+x,-y,-z
-x,y,-z
-x,-y,-z
1/2+x,y,-z
1/2-x,y,z
x,-y,z
loop_
_atom_site_type_symbol
_atom_site_label
_atom_site_fract_x
_atom_site_fract_y
_atom_site_fract_z
Si Si1 0.092008 0.918545 0.813693
Si Si2 0.407114 0.150085 0.301181
Si Si3 0.598550 0.916293 0.558038
Si Si4 0.096665 0.580285 0.942175
Si Si5 0.590482 0.417810 0.567575
Si Si6 0.405238 0.309510 0.825704
Si Si7 0.407081 0.686880 0.307269
Si Si8 0.592063 0.186511 0.068811
O O1 0.250000 0.913448 0.789376
O O2 0.076976 0.890125 0.893170
O O3 0.003283 0.867413 0.764132
O O4 0.039043 0.000000 0.810989
O O5 0.250000 0.133955 0.279317
O O6 0.456819 0.100048 0.364623
O O7 0.423715 0.230647 0.328788
O O8 0.500000 0.881166 0.500000
O O9 0.750000 0.882347 0.548974
O O10 0.605202 0.000000 0.546828
O O11 0.250000 0.583754 0.972559
O O12 0.046312 0.500000 0.929094
O O13 0.087635 0.617750 0.868141
O O14 0.000000 0.617890 0.000000
O O15 0.500000 0.398454 0.500000
O O16 0.750000 0.405339 0.548679
O O17 0.564943 0.500000 0.590480
O O18 0.544100 0.365147 0.630215
O O19 0.250000 0.292337 0.800580
O O20 0.500680 0.324756 0.760261
O O21 0.458464 0.245826 0.875576
O O22 0.250000 0.669166 0.287587
O O23 0.750000 0.201536 0.047125
O O24 0.500000 0.188133 0.000000
#
# Coordination Sequence:
#
# PCOD8211944 Si02
#       8
#     8   8   8   8   8   8   8   8
#     4  10  21  37  56  78 105 138 177 221 270 325
#     4  10  20  35  54  77 106 139 176 220 267 319
#     4   9  18  32  49  71 100 132 166 205 251 305
#     4   9  18  32  50  74 103 135 172 213 257 310
#     4   9  19  37  58  81 112 148 186 227 269 315
#     4  10  20  35  53  75 106 141 175 216 265 318
#     4  10  21  35  54  80 108 138 177 221 264 312
#     4  10  21  36  54  77 104 136 175 218 267 320
#
# _framework density 18.329305999999999
#
# number of rings (size 3 to 8) (size 9 to 14) (size 15 to 20)
#    0.000    2.375    1.250    0.750    0.000    4.500 
#    0.000    1.250    0.000    0.000    0.000    0.000 
#    0.000    0.000    0.000    0.000    0.000    0.000 
#
# Total GULP energy -793496.477473 kJ/mol
# GULP energy per Si atom -12398.382461 kJ/mol
# Density = 1.828759 g / cm^3
# Si number density = 18.329306 Si / 1000 Ang^3
#
#
#
# Elastic Constant Matrix: (Units=GPa)
#
#
# Indices 1 2 3 4 5 6 
#
# 1 83.0758 36.1511 74.4933 0.0000 0.0000 0.0000
# 2 36.1511 82.2881 45.9817 0.0000 0.0000 0.0000
# 3 74.4933 45.9817 127.7650 0.0000 0.0000 0.0000
# 4 0.0000 0.0000 0.0000 30.8899 0.0000 0.0000
# 5 0.0000 0.0000 0.0000 0.0000 41.1762 0.0000
# 6 0.0000 0.0000 0.0000 0.0000 0.0000 22.7414
#
#
#
# Elastic Compliance Matrix: (Units=1/GPa)
#
#
# Indices 1 2 3 4 5 6 
#
# 1 0.026099 -0.003709 -0.013882 0.000000 0.000000 0.000000
# 2 -0.003709 0.015739 -0.003502 0.000000 0.000000 0.000000
# 3 -0.013882 -0.003502 0.017181 0.000000 0.000000 0.000000
# 4 0.000000 0.000000 0.000000 0.032373 0.000000 0.000000
# 5 0.000000 0.000000 0.000000 0.000000 0.024286 0.000000
# 6 0.000000 0.000000 0.000000 0.000000 0.000000 0.043973
#
#
# Mechanical properties :
#
#
# Convention : Reuss Voigt Hill
#
# Bulk Modulus (GPa) = 59.40638 67.37566 63.39102
# Shear Modulus (GPa) = 24.10246 28.06170 26.08208
#
# Velocity S-wave (km/s) = 3.63018 3.91701 3.77632
# Velocity P-wave (km/s) = 7.07474 7.56938 7.32624
#
# Compressibility (1/GPa) = 0.01683321
#
# Stress axis : x y z
#
# Youngs Moduli (GPa) = 38.31515 63.53834 58.20278
#
# Poissons Ratio (x) = 0.23564 0.80800
# Poissons Ratio (y) = 0.14210 0.20382
# Poissons Ratio (z) = 0.53191 0.22250
#
# Static dielectric constant tensor:
#      x y z
#    x 3.483230 0.000000 0.000000 
#    y 0.000000 3.491550 0.000000 
#    z 0.000000 0.000000 3.245110 
# 
# 
# High freq. dielectric constant tensor:
#      x y z
#    x 1.709480 0.000000 0.000000 
#    y 0.000000 1.714470 0.000000 
#    z 0.000000 0.000000 1.701300 
# 
# From -- ./inp_files/28398.got.cif
#   From: 2010.03.12/outbox.cif.g09.slc.cpg/sg51_15_cif.got.tgz:28398.got - 2010.04.16 13:43:02.
