data_PCOD8211484
_publ_section_title
;
Structure prediction by ZEFSAII (Michael W. Deem and Ramdas Pophale) SiO2 
 PCOD8211484
Probable space group: P M M A
;
_chemical_formula_sum "Si O2"
_cell_formula_units_Z 56
_cell_length_a 18.843847
_cell_length_b 9.384532
_cell_length_c 17.584559
_cell_angle_alpha 90.000000
_cell_angle_beta 90.000000
_cell_angle_gamma 90.000000
_cell_volume 3109.665462
_symmetry_space_group_name_H-M "P M M A"
_symmetry_group_IT_number 51
_symmetry_cell_setting 'orthorhombic'
loop_
_space_group_symop_operation_xyz
x,y,z
1/2-x,-y,z
1/2+x,-y,-z
-x,y,-z
-x,-y,-z
1/2+x,y,-z
1/2-x,y,z
x,-y,z
loop_
_atom_site_type_symbol
_atom_site_label
_atom_site_fract_x
_atom_site_fract_y
_atom_site_fract_z
Si Si1 0.666556 0.335574 0.579460
Si Si2 0.169268 0.168720 0.136862
Si Si3 0.665671 0.842421 0.031542
Si Si4 0.932260 0.335799 0.309299
Si Si5 0.575289 0.168247 0.463268
Si Si6 0.907180 0.663403 0.734078
Si Si7 0.831485 0.665748 0.173153
O O1 0.750000 0.313398 0.585551
O O2 0.646412 0.500000 0.563032
O O3 0.637787 0.237926 0.512040
O O4 0.631563 0.283221 0.657834
O O5 0.250000 0.219854 0.151274
O O6 0.117452 0.242896 0.195721
O O7 0.164088 0.000000 0.146637
O O8 0.143222 0.213318 0.052124
O O9 0.750000 0.848277 0.033222
O O10 0.636703 0.741281 0.098179
O O11 0.634372 0.000000 0.045755
O O12 0.920648 0.500000 0.334479
O O13 0.920904 0.232642 0.379749
O O14 0.875436 0.287098 0.246650
O O15 0.009392 0.314524 0.274008
O O16 0.500000 0.207919 0.500000
O O17 0.587477 0.000000 0.459150
O O18 0.887069 0.500000 0.750231
O O19 0.750000 0.709201 0.187902
O O20 0.839948 0.500000 0.157504
#
# Coordination Sequence:
#
# PCOD8211484 Si02
#       7
#     8   8   8   8   8   8   8
#     4  10  21  37  58  82 107 140 182 223 265 317
#     4   9  18  32  51  76 106 140 177 218 265 315
#     4   8  15  30  51  74 102 138 176 213 261 318
#     4  10  21  37  57  78 106 143 178 216 267 322
#     4  11  23  38  57  81 108 140 179 220 266 322
#     4  10  20  34  53  77 106 141 180 218 260 315
#     4   9  18  33  54  80 105 131 172 223 268 310
#
# _framework density 18.008368000000001
#
# number of rings (size 3 to 8) (size 9 to 14) (size 15 to 20)
#    0.000    2.429    1.429    1.714    0.000    4.571 
#    0.000    3.571    0.000    4.286    0.000    0.000 
#    0.000    0.000    0.000    0.000    0.000    0.000 
#
# Total GULP energy -694463.372954 kJ/mol
# GULP energy per Si atom -12401.131660 kJ/mol
# Density = 1.796738 g / cm^3
# Si number density = 18.008368 Si / 1000 Ang^3
#
#
#
# Elastic Constant Matrix: (Units=GPa)
#
#
# Indices 1 2 3 4 5 6 
#
# 1 69.7301 34.3096 51.3010 0.0000 0.0000 0.0000
# 2 34.3096 65.3506 68.6144 0.0000 0.0000 0.0000
# 3 51.3010 68.6144 152.7154 0.0000 0.0000 0.0000
# 4 0.0000 0.0000 0.0000 34.5750 0.0000 0.0000
# 5 0.0000 0.0000 0.0000 0.0000 23.9829 0.0000
# 6 0.0000 0.0000 0.0000 0.0000 0.0000 23.0704
#
#
#
# Elastic Compliance Matrix: (Units=1/GPa)
#
#
# Indices 1 2 3 4 5 6 
#
# 1 0.020482 -0.006681 -0.003879 0.000000 0.000000 0.000000
# 2 -0.006681 0.031146 -0.011749 0.000000 0.000000 0.000000
# 3 -0.003879 -0.011749 0.013130 0.000000 0.000000 0.000000
# 4 0.000000 0.000000 0.000000 0.028923 0.000000 0.000000
# 5 0.000000 0.000000 0.000000 0.000000 0.041696 0.000000
# 6 0.000000 0.000000 0.000000 0.000000 0.000000 0.043346
#
#
# Mechanical properties :
#
#
# Convention : Reuss Voigt Hill
#
# Bulk Modulus (GPa) = 49.65268 66.24957 57.95112
# Shear Modulus (GPa) = 21.73413 25.23040 23.48226
#
# Velocity S-wave (km/s) = 3.47780 3.74710 3.61496
# Velocity P-wave (km/s) = 6.61503 7.45581 7.04797
#
# Compressibility (1/GPa) = 0.02013990
#
# Stress axis : x y z
#
# Youngs Moduli (GPa) = 48.82398 32.10722 76.16093
#
# Poissons Ratio (x) = 0.21449 0.29541
# Poissons Ratio (y) = 0.32617 0.89485
# Poissons Ratio (z) = 0.18938 0.37724
#
# Static dielectric constant tensor:
#      x y z
#    x 3.234210 0.000000 0.000000 
#    y 0.000000 3.332420 0.000000 
#    z 0.000000 0.000000 3.469100 
# 
# 
# High freq. dielectric constant tensor:
#      x y z
#    x 1.684250 0.000000 0.000000 
#    y 0.000000 1.692150 0.000000 
#    z 0.000000 0.000000 1.707710 
# 
# From -- ./inp_files/25690.got.cif
#   From: 2010.03.12/outbox.cif.g09.slc.cpg/sg51_13_cif.got.tgz:25690.got - 2010.04.16 13:43:02.
