data_PCOD8211461
_publ_section_title
;
Structure prediction by ZEFSAII (Michael W. Deem and Ramdas Pophale) SiO2 
 PCOD8211461
Probable space group: P M M A
;
_chemical_formula_sum "Si O2"
_cell_formula_units_Z 40
_cell_length_a 8.816233
_cell_length_b 25.362619
_cell_length_c 9.672041
_cell_angle_alpha 90.000000
_cell_angle_beta 90.000000
_cell_angle_gamma 90.000000
_cell_volume 2162.695049
_symmetry_space_group_name_H-M "P M M A"
_symmetry_group_IT_number 51
_symmetry_cell_setting 'orthorhombic'
loop_
_space_group_symop_operation_xyz
x,y,z
1/2-x,-y,z
1/2+x,-y,-z
-x,y,-z
-x,-y,-z
1/2+x,y,-z
1/2-x,y,z
x,-y,z
loop_
_atom_site_type_symbol
_atom_site_label
_atom_site_fract_x
_atom_site_fract_y
_atom_site_fract_z
Si Si1 0.069539 0.148045 0.852920
Si Si2 0.428826 0.559754 0.143860
Si Si3 0.071607 0.648610 0.349765
Si Si4 0.569910 0.742650 0.851612
Si Si5 0.071541 0.059050 0.643306
O O1 0.250000 0.153402 0.862048
O O2 0.015475 0.100232 0.756999
O O3 0.999462 0.202528 0.796466
O O4 0.000000 0.134496 0.000000
O O5 0.250000 0.564699 0.126530
O O6 0.479646 0.500000 0.177759
O O7 0.486728 0.596586 0.268767
O O8 0.500000 0.579285 0.000000
O O9 0.250000 0.646528 0.369376
O O10 0.022698 0.699154 0.260407
O O11 0.000000 0.651337 0.500000
O O12 0.750000 0.747515 0.868292
O O13 0.500000 0.727380 0.000000
O O14 0.250000 0.061046 0.626181
O O15 0.000000 0.077064 0.500000
O O16 0.017608 0.000000 0.684771
#
# Coordination Sequence:
#
# PCOD8211461 Si02
#       5
#     8   8   8   8   8
#     4  10  20  34  53  77 103 131 166 207 251 298
#     4   9  18  34  55  78 103 132 169 210 251 298
#     4  10  22  36  51  75 105 136 169 207 251 299
#     4  10  20  35  54  75 100 131 169 209 250 298
#     4   9  19  35  53  74 101 133 168 205 247 297
#
# _framework density 18.495441
#
# number of rings (size 3 to 8) (size 9 to 14) (size 15 to 20)
#    0.000    2.400    0.000    3.000    0.000    5.600 
#    0.000    4.000    0.000    0.000    0.000    0.000 
#    0.000    0.000    0.000    0.000    0.000    0.000 
#
# Total GULP energy -496003.525011 kJ/mol
# GULP energy per Si atom -12400.088125 kJ/mol
# Density = 1.845334 g / cm^3
# Si number density = 18.495441 Si / 1000 Ang^3
#
#
#
# Elastic Constant Matrix: (Units=GPa)
#
#
# Indices 1 2 3 4 5 6 
#
# 1 49.5409 45.1569 44.3482 0.0000 0.0000 0.0000
# 2 45.1569 156.0382 113.6159 0.0000 0.0000 0.0000
# 3 44.3482 113.6159 151.3436 0.0000 0.0000 0.0000
# 4 0.0000 0.0000 0.0000 28.4134 0.0000 0.0000
# 5 0.0000 0.0000 0.0000 0.0000 35.0424 0.0000
# 6 0.0000 0.0000 0.0000 0.0000 0.0000 21.3721
#
#
#
# Elastic Compliance Matrix: (Units=1/GPa)
#
#
# Indices 1 2 3 4 5 6 
#
# 1 0.028939 -0.004853 -0.004837 0.000000 0.000000 0.000000
# 2 -0.004853 0.014949 -0.009800 0.000000 0.000000 0.000000
# 3 -0.004837 -0.009800 0.015382 0.000000 0.000000 0.000000
# 4 0.000000 0.000000 0.000000 0.035195 0.000000 0.000000
# 5 0.000000 0.000000 0.000000 0.000000 0.028537 0.000000
# 6 0.000000 0.000000 0.000000 0.000000 0.000000 0.046790
#
#
# Mechanical properties :
#
#
# Convention : Reuss Voigt Hill
#
# Bulk Modulus (GPa) = 49.28637 84.79608 67.04123
# Shear Modulus (GPa) = 23.19811 27.21902 25.20857
#
# Velocity S-wave (km/s) = 3.54540 3.84039 3.69584
# Velocity P-wave (km/s) = 6.59284 8.10008 7.38501
#
# Compressibility (1/GPa) = 0.02028959
#
# Stress axis : x y z
#
# Youngs Moduli (GPa) = 34.55595 66.89357 65.01064
#
# Poissons Ratio (x) = 0.32464 0.31443
# Poissons Ratio (y) = 0.16770 0.63713
# Poissons Ratio (z) = 0.16713 0.65559
#
# Static dielectric constant tensor:
#      x y z
#    x 3.340810 0.000000 0.000000 
#    y 0.000000 3.770250 0.000000 
#    z 0.000000 0.000000 3.388540 
# 
# 
# High freq. dielectric constant tensor:
#      x y z
#    x 1.716500 0.000000 0.000000 
#    y 0.000000 1.731770 0.000000 
#    z 0.000000 0.000000 1.713350 
# 
# From -- ./inp_files/5469.got.cif
#   From: 2010.03.12/outbox.cif.g09.slc.cpg/sg51_3_cif.got.tgz:5469.got - 2010.04.16 13:43:02.
