data_PCOD8211332
_publ_section_title
;
Structure prediction by ZEFSAII (Michael W. Deem and Ramdas Pophale) SiO2 
 PCOD8211332
Probable space group: P M M A
;
_chemical_formula_sum "Si O2"
_cell_formula_units_Z 64
_cell_length_a 17.729480
_cell_length_b 9.130219
_cell_length_c 20.835213
_cell_angle_alpha 90.000000
_cell_angle_beta 90.000000
_cell_angle_gamma 90.000000
_cell_volume 3372.680002
_symmetry_space_group_name_H-M "P M M A"
_symmetry_group_IT_number 51
_symmetry_cell_setting 'orthorhombic'
loop_
_space_group_symop_operation_xyz
x,y,z
1/2-x,-y,z
1/2+x,-y,-z
-x,y,-z
-x,-y,-z
1/2+x,y,-z
1/2-x,y,z
x,-y,z
loop_
_atom_site_type_symbol
_atom_site_label
_atom_site_fract_x
_atom_site_fract_y
_atom_site_fract_z
Si Si1 0.839425 0.667002 0.775956
Si Si2 0.663174 0.332665 0.999512
Si Si3 0.422854 0.668531 0.871824
Si Si4 0.664736 0.327334 0.253528
Si Si5 0.167190 0.174209 0.485470
Si Si6 0.577684 0.826260 0.889999
Si Si7 0.659852 0.835635 0.652059
Si Si8 0.340194 0.164472 0.622531
O O1 0.750000 0.680475 0.781693
O O2 0.866538 0.500000 0.782871
O O3 0.874787 0.763536 0.831399
O O4 0.868670 0.726704 0.707408
O O5 0.750000 0.287226 0.992851
O O6 0.650709 0.500000 0.976354
O O7 0.639740 0.314923 0.073264
O O8 0.613430 0.225733 0.956607
O O9 0.449917 0.500000 0.866326
O O10 0.385986 0.724879 0.805810
O O11 0.492525 0.771360 0.887690
O O12 0.750000 0.268723 0.243342
O O13 0.664717 0.500000 0.258840
O O14 0.629560 0.264097 0.319403
O O15 0.250000 0.246844 0.484697
O O16 0.126504 0.217381 0.417788
O O17 0.126816 0.220873 0.552924
O O18 0.175308 0.000000 0.486673
O O19 0.579319 0.000000 0.887029
O O20 0.750000 0.834847 0.647631
O O21 0.631703 0.000000 0.668294
O O22 0.250000 0.170525 0.618052
O O23 0.368061 0.000000 0.636475
#
# Coordination Sequence:
#
# PCOD8211332 Si02
#       8
#     8   8   8   8   8   8   8   8
#     4  10  20  34  52  74 101 134 172 212 255 306
#     4  10  21  39  63  86 106 133 169 205 245 298
#     4  10  21  38  58  78 104 138 172 207 249 298
#     4   9  17  30  49  74 102 132 169 212 255 298
#     4   7  10  18  34  58  90 128 166 202 245 298
#     4  12  25  38  54  78 107 137 170 209 252 298
#     4   8  13  23  41  65  94 128 166 209 254 298
#     4   8  13  22  38  62  94 132 170 206 247 297
#
# _framework density 18.976006999999999
#
# number of rings (size 3 to 8) (size 9 to 14) (size 15 to 20)
#    0.000    2.750    0.000    4.125    0.000    6.500 
#    0.000    0.625    0.000    6.000    0.000    0.875 
#    0.000    7.000    0.000    0.000    0.000    0.000 
#
# Total GULP energy -793131.501225 kJ/mol
# GULP energy per Si atom -12392.679707 kJ/mol
# Density = 1.893282 g / cm^3
# Si number density = 18.976007 Si / 1000 Ang^3
#
#
#
# Elastic Constant Matrix: (Units=GPa)
#
#
# Indices 1 2 3 4 5 6 
#
# 1 30.8784 21.4955 13.9572 0.0000 0.0000 0.0000
# 2 21.4955 78.0156 38.8523 0.0000 0.0000 0.0000
# 3 13.9572 38.8523 128.7202 0.0000 0.0000 0.0000
# 4 0.0000 0.0000 0.0000 33.7307 0.0000 0.0000
# 5 0.0000 0.0000 0.0000 0.0000 17.3023 0.0000
# 6 0.0000 0.0000 0.0000 0.0000 0.0000 14.4725
#
#
#
# Elastic Compliance Matrix: (Units=1/GPa)
#
#
# Indices 1 2 3 4 5 6 
#
# 1 0.040227 -0.010488 -0.001196 0.000000 0.000000 0.000000
# 2 -0.010488 0.017820 -0.004241 0.000000 0.000000 0.000000
# 3 -0.001196 -0.004241 0.009179 0.000000 0.000000 0.000000
# 4 0.000000 0.000000 0.000000 0.029647 0.000000 0.000000
# 5 0.000000 0.000000 0.000000 0.000000 0.057796 0.000000
# 6 0.000000 0.000000 0.000000 0.000000 0.000000 0.069097
#
#
# Mechanical properties :
#
#
# Convention : Reuss Voigt Hill
#
# Bulk Modulus (GPa) = 28.26909 42.91378 35.59143
# Shear Modulus (GPa) = 18.69810 23.98839 21.34324
#
# Velocity S-wave (km/s) = 3.14244 3.55934 3.35737
# Velocity P-wave (km/s) = 5.30059 6.28933 5.81601
#
# Compressibility (1/GPa) = 0.03537433
#
# Stress axis : x y z
#
# Youngs Moduli (GPa) = 24.85907 56.11689 108.94769
#
# Poissons Ratio (x) = 0.58855 0.13032
# Poissons Ratio (y) = 0.26072 0.46210
# Poissons Ratio (z) = 0.02974 0.23802
#
# Static dielectric constant tensor:
#      x y z
#    x 3.074970 0.000000 0.000000 
#    y 0.000000 3.363280 0.000000 
#    z 0.000000 0.000000 4.004480 
# 
# 
# High freq. dielectric constant tensor:
#      x y z
#    x 1.690140 0.000000 0.000000 
#    y 0.000000 1.713850 0.000000 
#    z 0.000000 0.000000 1.765830 
# 
# From -- ./inp_files/33806.got.cif
#   From: 2010.03.12/outbox.cif.g09.slc.cpg/sg51_17_cif.got.tgz:33806.got - 2010.04.16 13:43:02.
