data_PCOD8211423
_publ_section_title
;
Structure prediction by ZEFSAII (Michael W. Deem and Ramdas Pophale) SiO2 
 PCOD8211423
Probable space group: P M M A
;
_chemical_formula_sum "Si O2"
_cell_formula_units_Z 64
_cell_length_a 14.062851
_cell_length_b 9.056618
_cell_length_c 25.819506
_cell_angle_alpha 90.000000
_cell_angle_beta 90.000000
_cell_angle_gamma 90.000000
_cell_volume 3288.420554
_symmetry_space_group_name_H-M "P M M A"
_symmetry_group_IT_number 51
_symmetry_cell_setting 'orthorhombic'
loop_
_space_group_symop_operation_xyz
x,y,z
1/2-x,-y,z
1/2+x,-y,-z
-x,y,-z
-x,-y,-z
1/2+x,y,-z
1/2-x,y,z
x,-y,z
loop_
_atom_site_type_symbol
_atom_site_label
_atom_site_fract_x
_atom_site_fract_y
_atom_site_fract_z
Si Si1 0.045648 0.824784 0.076641
Si Si2 0.138416 0.827758 0.678225
Si Si3 0.971808 0.673868 0.725365
Si Si4 0.144828 0.660042 0.578741
Si Si5 0.894874 0.161563 0.518769
Si Si6 0.144243 0.824341 0.973098
Si Si7 0.361300 0.174141 0.182383
Si Si8 0.141076 0.670556 0.377543
O O1 0.088655 0.765404 0.130201
O O2 0.935340 0.772490 0.068932
O O3 0.049404 0.000000 0.076294
O O4 0.111016 0.766028 0.029494
O O5 0.250000 0.798838 0.688696
O O6 0.100036 0.764700 0.622829
O O7 0.076738 0.747980 0.722988
O O8 0.115635 0.000000 0.678216
O O9 0.983518 0.500000 0.733300
O O10 0.910618 0.739736 0.771457
O O11 0.917022 0.714810 0.672984
O O12 0.250000 0.627750 0.598524
O O13 0.090668 0.500000 0.575663
O O14 0.155885 0.734587 0.522772
O O15 0.896802 0.235768 0.574513
O O16 0.000000 0.139980 0.500000
O O17 0.845043 0.000000 0.521495
O O18 0.250000 0.760889 0.959943
O O19 0.148622 0.000000 0.973900
O O20 0.250000 0.213472 0.180482
O O21 0.377040 0.000000 0.189674
O O22 0.250000 0.710444 0.366508
O O23 0.128370 0.500000 0.391808
#
# Coordination Sequence:
#
# PCOD8211423 Si02
#       8
#     8   8   8   8   8   8   8   8
#     4   8  14  24  40  67 103 141 181 225 275 330
#     4  10  21  38  60  84 109 136 170 217 270 323
#     4  11  23  39  59  80 105 139 180 226 273 326
#     4  10  20  34  53  76 101 130 164 201 246 307
#     4  11  23  35  49  73 103 133 167 210 260 315
#     4   8  12  20  38  66 102 142 181 223 273 327
#     4  10  20  34  53  77 107 143 183 229 279 328
#     4  10  22  39  56  75 101 134 173 218 268 320
#
# _framework density 19.462229000000001
#
# number of rings (size 3 to 8) (size 9 to 14) (size 15 to 20)
#    0.000    2.250    0.000    4.125    0.000    9.500 
#    0.000    0.625    0.000    2.250    0.000    1.750 
#    0.000    1.000    0.000    0.000    0.000    0.000 
#
# Total GULP energy -793204.641306 kJ/mol
# GULP energy per Si atom -12393.822520 kJ/mol
# Density = 1.941793 g / cm^3
# Si number density = 19.462229 Si / 1000 Ang^3
#
#
#
# Elastic Constant Matrix: (Units=GPa)
#
#
# Indices 1 2 3 4 5 6 
#
# 1 131.0866 46.9625 80.2198 0.0000 0.0000 0.0000
# 2 46.9625 89.9828 62.4072 0.0000 0.0000 0.0000
# 3 80.2198 62.4072 124.6730 0.0000 0.0000 0.0000
# 4 0.0000 0.0000 0.0000 3.1499 0.0000 0.0000
# 5 0.0000 0.0000 0.0000 0.0000 32.0303 0.0000
# 6 0.0000 0.0000 0.0000 0.0000 0.0000 41.4403
#
#
#
# Elastic Compliance Matrix: (Units=1/GPa)
#
#
# Indices 1 2 3 4 5 6 
#
# 1 0.012710 -0.001473 -0.007441 0.000000 0.000000 0.000000
# 2 -0.001473 0.017194 -0.007659 0.000000 0.000000 0.000000
# 3 -0.007441 -0.007659 0.016642 0.000000 0.000000 0.000000
# 4 0.000000 0.000000 0.000000 0.317474 0.000000 0.000000
# 5 0.000000 0.000000 0.000000 0.000000 0.031220 0.000000
# 6 0.000000 0.000000 0.000000 0.000000 0.000000 0.024131
#
#
# Mechanical properties :
#
#
# Convention : Reuss Voigt Hill
#
# Bulk Modulus (GPa) = 74.62154 80.54681 77.58418
# Shear Modulus (GPa) = 10.94134 25.73428 18.33781
#
# Velocity S-wave (km/s) = 2.37361 3.64025 3.07290
# Velocity P-wave (km/s) = 6.77768 7.69055 7.24850
#
# Compressibility (1/GPa) = 0.01340096
#
# Stress axis : x y z
#
# Youngs Moduli (GPa) = 78.68109 58.16078 60.08748
#
# Poissons Ratio (x) = 0.08566 0.44709
# Poissons Ratio (y) = 0.11588 0.46021
# Poissons Ratio (z) = 0.58544 0.44545
#
# Static dielectric constant tensor:
#      x y z
#    x 3.834320 0.000000 0.000000 
#    y 0.000000 3.467270 0.000000 
#    z 0.000000 0.000000 3.441270 
# 
# 
# High freq. dielectric constant tensor:
#      x y z
#    x 1.773920 0.000000 0.000000 
#    y 0.000000 1.733520 0.000000 
#    z 0.000000 0.000000 1.739900 
# 
# From -- ./inp_files/35616.got.cif
#   From: 2010.03.12/outbox.cif.g09.slc.cpg/sg51_18_cif.got.tgz:35616.got - 2010.04.16 13:43:02.
