data_PCOD8211381
_publ_section_title
;
Structure prediction by ZEFSAII (Michael W. Deem and Ramdas Pophale) SiO2 
 PCOD8211381
Probable space group: P M M A
;
_chemical_formula_sum "Si O2"
_cell_formula_units_Z 40
_cell_length_a 15.923927
_cell_length_b 9.047399
_cell_length_c 13.724621
_cell_angle_alpha 90.000000
_cell_angle_beta 90.000000
_cell_angle_gamma 90.000000
_cell_volume 1977.307811
_symmetry_space_group_name_H-M "P M M A"
_symmetry_group_IT_number 51
_symmetry_cell_setting 'orthorhombic'
loop_
_space_group_symop_operation_xyz
x,y,z
1/2-x,-y,z
1/2+x,-y,-z
-x,y,-z
-x,-y,-z
1/2+x,y,-z
1/2-x,y,z
x,-y,z
loop_
_atom_site_type_symbol
_atom_site_label
_atom_site_fract_x
_atom_site_fract_y
_atom_site_fract_z
Si Si1 0.095944 0.833641 0.965110
Si Si2 0.750000 0.174889 0.499867
Si Si3 0.871531 0.663405 0.852763
Si Si4 0.429637 0.824855 0.579785
Si Si5 0.442028 0.335066 0.782572
Si Si6 0.250000 0.824730 0.281642
O O1 0.112331 0.761304 0.858668
O O2 0.131484 0.000000 0.960617
O O3 0.148288 0.739083 0.043495
O O4 0.000000 0.836154 0.000000
O O5 0.835901 0.230404 0.449021
O O6 0.750000 0.236559 0.608955
O O7 0.750000 0.000000 0.501425
O O8 0.830858 0.500000 0.853125
O O9 0.833128 0.764150 0.768686
O O10 0.969026 0.650440 0.833631
O O11 0.500000 0.778562 0.500000
O O12 0.451926 0.745970 0.680066
O O13 0.432087 0.000000 0.595534
O O14 0.403736 0.500000 0.768234
O O15 0.250000 0.000000 0.277814
#
# Coordination Sequence:
#
# PCOD8211381 Si02
#       6
#     8   4   8   8   8   4
#     4   9  17  31  53  79 105 136 178 224 269 325
#     4   9  20  37  56  81 110 141 183 234 282 329
#     4  10  20  34  52  78 112 144 176 220 276 333
#     4  10  20  36  58  81 108 145 189 236 283 332
#     4  10  20  34  54  80 110 144 181 224 277 335
#     4  11  21  35  56  79 106 141 183 228 274 327
#
# _framework density 20.229524000000001
#
# number of rings (size 3 to 8) (size 9 to 14) (size 15 to 20)
#    0.000    2.200    0.000    3.300    0.000    6.800 
#    0.000    3.500    0.000    1.200    0.000    0.000 
#    0.000    0.000    0.000    0.000    0.000    0.000 
#
# Total GULP energy -495861.310939 kJ/mol
# GULP energy per Si atom -12396.532773 kJ/mol
# Density = 2.018348 g / cm^3
# Si number density = 20.229524 Si / 1000 Ang^3
#
#
#
# Elastic Constant Matrix: (Units=GPa)
#
#
# Indices 1 2 3 4 5 6 
#
# 1 63.0891 16.6096 17.0441 0.0000 0.0000 0.0000
# 2 16.6096 126.5920 70.1621 0.0000 0.0000 0.0000
# 3 17.0441 70.1621 162.7989 0.0000 0.0000 0.0000
# 4 0.0000 0.0000 0.0000 23.0425 0.0000 0.0000
# 5 0.0000 0.0000 0.0000 0.0000 10.3547 0.0000
# 6 0.0000 0.0000 0.0000 0.0000 0.0000 13.5168
#
#
#
# Elastic Compliance Matrix: (Units=1/GPa)
#
#
# Indices 1 2 3 4 5 6 
#
# 1 0.016552 -0.001591 -0.001047 0.000000 0.000000 0.000000
# 2 -0.001591 0.010531 -0.004372 0.000000 0.000000 0.000000
# 3 -0.001047 -0.004372 0.008136 0.000000 0.000000 0.000000
# 4 0.000000 0.000000 0.000000 0.043398 0.000000 0.000000
# 5 0.000000 0.000000 0.000000 0.000000 0.096575 0.000000
# 6 0.000000 0.000000 0.000000 0.000000 0.000000 0.073982
#
#
# Mechanical properties :
#
#
# Convention : Reuss Voigt Hill
#
# Bulk Modulus (GPa) = 47.17208 62.23459 54.70334
# Shear Modulus (GPa) = 18.50048 25.96040 22.23044
#
# Velocity S-wave (km/s) = 3.02740 3.58619 3.31858
# Velocity P-wave (km/s) = 5.96567 6.92667 6.46405
#
# Compressibility (1/GPa) = 0.02119898
#
# Stress axis : x y z
#
# Youngs Moduli (GPa) = 60.41404 94.95401 122.90369
#
# Poissons Ratio (x) = 0.15111 0.12869
# Poissons Ratio (y) = 0.09615 0.53735
# Poissons Ratio (z) = 0.06326 0.41515
#
# Static dielectric constant tensor:
#      x y z
#    x 3.487390 0.000000 0.000000 
#    y 0.000000 3.834700 0.000000 
#    z 0.000000 0.000000 3.721130 
# 
# 
# High freq. dielectric constant tensor:
#      x y z
#    x 1.767080 0.000000 0.000000 
#    y 0.000000 1.791310 0.000000 
#    z 0.000000 0.000000 1.798600 
# 
# From -- ./inp_files/17971.got.cif
#   From: 2010.03.12/outbox.cif.g09.slc.cpg/sg51_9_cif.got.tgz:17971.got - 2010.04.16 13:43:02.
