data_PCOD8211263
_publ_section_title
;
Structure prediction by ZEFSAII (Michael W. Deem and Ramdas Pophale) SiO2 
 PCOD8211263
Probable space group: P M M A
;
_chemical_formula_sum "Si O2"
_cell_formula_units_Z 64
_cell_length_a 19.581772
_cell_length_b 9.064810
_cell_length_c 20.435064
_cell_angle_alpha 90.000000
_cell_angle_beta 90.000000
_cell_angle_gamma 90.000000
_cell_volume 3627.326907
_symmetry_space_group_name_H-M "P M M A"
_symmetry_group_IT_number 51
_symmetry_cell_setting 'orthorhombic'
loop_
_space_group_symop_operation_xyz
x,y,z
1/2-x,-y,z
1/2+x,-y,-z
-x,y,-z
-x,-y,-z
1/2+x,y,-z
1/2-x,y,z
x,-y,z
loop_
_atom_site_type_symbol
_atom_site_label
_atom_site_fract_x
_atom_site_fract_y
_atom_site_fract_z
Si Si1 0.921886 0.827227 0.312894
Si Si2 0.671559 0.329416 0.062416
Si Si3 0.578723 0.173325 0.687381
Si Si4 0.576679 0.327797 0.180770
Si Si5 0.419574 0.326539 0.179362
Si Si6 0.326728 0.824618 0.572880
Si Si7 0.829213 0.828367 0.928663
Si Si8 0.173440 0.824703 0.428043
O O1 0.897522 0.753446 0.245746
O O2 0.877915 0.759859 0.372693
O O3 0.000321 0.790052 0.328051
O O4 0.909380 0.000000 0.305364
O O5 0.750000 0.305646 0.083404
O O6 0.657135 0.500000 0.045195
O O7 0.623700 0.273938 0.121167
O O8 0.652283 0.231546 0.000182
O O9 0.603789 0.256754 0.752058
O O10 0.621927 0.237225 0.626511
O O11 0.590765 0.000000 0.698314
O O12 0.585573 0.500000 0.193361
O O13 0.498401 0.286995 0.164681
O O14 0.407214 0.500000 0.182198
O O15 0.373970 0.258790 0.122938
O O16 0.250000 0.771856 0.589420
O O17 0.347973 0.767237 0.500411
O O18 0.330422 0.000000 0.573210
O O19 0.750000 0.799509 0.912613
O O20 0.847598 0.000000 0.925700
O O21 0.250000 0.770691 0.411332
O O22 0.170685 0.000000 0.427842
#
# Coordination Sequence:
#
# PCOD8211263 Si02
#       8
#     8   8   8   8   8   8   8   8
#     4   9  17  28  44  67  93 120 152 193 235 275
#     4   9  18  34  54  73  95 125 160 195 231 276
#     4   9  17  29  45  67  93 119 153 196 237 276
#     4   9  19  34  50  70  97 128 160 194 233 278
#     4  10  20  34  51  70  96 129 161 193 232 281
#     4   8  14  25  41  64  93 121 151 189 234 282
#     4  10  21  36  53  74  99 124 153 193 237 279
#     4   8  14  25  42  64  90 119 150 188 235 282
#
# _framework density 17.643847000000001
#
# number of rings (size 3 to 8) (size 9 to 14) (size 15 to 20)
#    0.000    3.000    0.000    1.500    0.000    3.750 
#    0.000    6.250    0.000    0.750    0.000    5.250 
#    0.000    0.000    0.000    0.000    0.000    0.000 
#
# Total GULP energy -793533.423517 kJ/mol
# GULP energy per Si atom -12398.959742 kJ/mol
# Density = 1.760369 g / cm^3
# Si number density = 17.643847 Si / 1000 Ang^3
#
#
#
# Elastic Constant Matrix: (Units=GPa)
#
#
# Indices 1 2 3 4 5 6 
#
# 1 90.5152 31.7824 95.0870 0.0000 0.0000 0.0000
# 2 31.7824 39.8854 45.9402 0.0000 0.0000 0.0000
# 3 95.0870 45.9402 167.8916 0.0000 0.0000 0.0000
# 4 0.0000 0.0000 0.0000 -9.3501 0.0000 0.0000
# 5 0.0000 0.0000 0.0000 0.0000 42.9192 0.0000
# 6 0.0000 0.0000 0.0000 0.0000 0.0000 18.0018
#
#
#
# Elastic Compliance Matrix: (Units=1/GPa)
#
#
# Indices 1 2 3 4 5 6 
#
# 1 0.028212 -0.005953 -0.014349 0.000000 0.000000 0.000000
# 2 -0.005953 0.037866 -0.006990 0.000000 0.000000 0.000000
# 3 -0.014349 -0.006990 0.015996 0.000000 0.000000 0.000000
# 4 0.000000 0.000000 0.000000 -0.106951 0.000000 0.000000
# 5 0.000000 0.000000 0.000000 0.000000 0.023300 0.000000
# 6 0.000000 0.000000 0.000000 0.000000 0.000000 0.055550
#
#
# Mechanical properties :
#
#
# Convention : Reuss Voigt Hill
#
# Bulk Modulus (GPa) = 36.37692 71.54570 53.96131
# Shear Modulus (GPa) = 42.47348 18.67971 30.57659
#
# Velocity S-wave (km/s) = 4.91172 3.25731 4.16743
# Velocity P-wave (km/s) = 7.26833 7.40167 7.33531
#
# Compressibility (1/GPa) = 0.02748996
#
# Stress axis : x y z
#
# Youngs Moduli (GPa) = 35.44554 26.40862 62.51666
#
# Poissons Ratio (x) = 0.15721 0.89707
# Poissons Ratio (y) = 0.21101 0.43698
# Poissons Ratio (z) = 0.50862 0.18459
#
# Static dielectric constant tensor:
#      x y z
#    x 3.380740 0.000000 0.000000 
#    y 0.000000 3.017140 0.000000 
#    z 0.000000 0.000000 3.536590 
# 
# 
# High freq. dielectric constant tensor:
#      x y z
#    x 1.681370 0.000000 0.000000 
#    y 0.000000 1.653970 0.000000 
#    z 0.000000 0.000000 1.691700 
# 
# From -- ./inp_files/33962.got.cif
#   From: 2010.03.12/outbox.cif.g09.slc.cpg/sg51_17_cif.got.tgz:33962.got - 2010.04.16 13:43:02.
