data_PCOD8211907
_publ_section_title
;
Structure prediction by ZEFSAII (Michael W. Deem and Ramdas Pophale) SiO2 
 PCOD8211907
Probable space group: P M M A
;
_chemical_formula_sum "Si O2"
_cell_formula_units_Z 48
_cell_length_a 18.025582
_cell_length_b 7.775348
_cell_length_c 18.359069
_cell_angle_alpha 90.000000
_cell_angle_beta 90.000000
_cell_angle_gamma 90.000000
_cell_volume 2573.118491
_symmetry_space_group_name_H-M "P M M A"
_symmetry_group_IT_number 51
_symmetry_cell_setting 'orthorhombic'
loop_
_space_group_symop_operation_xyz
x,y,z
1/2-x,-y,z
1/2+x,-y,-z
-x,y,-z
-x,-y,-z
1/2+x,y,-z
1/2-x,y,z
x,-y,z
loop_
_atom_site_type_symbol
_atom_site_label
_atom_site_fract_x
_atom_site_fract_y
_atom_site_fract_z
Si Si1 0.834386 0.204954 0.223283
Si Si2 0.666516 0.000000 0.665181
Si Si3 0.161689 0.191038 0.934714
Si Si4 0.668775 0.303270 0.912976
Si Si5 0.609737 0.699860 0.762406
Si Si6 0.983950 0.000000 0.584491
Si Si7 0.535676 0.692535 0.320805
O O1 0.750000 0.261645 0.238577
O O2 0.861351 0.274311 0.143170
O O3 0.883344 0.288417 0.286145
O O4 0.841447 0.000000 0.224235
O O5 0.658582 0.825918 0.712395
O O6 0.750000 0.000000 0.631810
O O7 0.604431 0.000000 0.601274
O O8 0.250000 0.194325 0.936731
O O9 0.129983 0.000000 0.938229
O O10 0.130042 0.282359 0.007590
O O11 0.750000 0.210664 0.911252
O O12 0.682044 0.500000 0.897922
O O13 0.618512 0.235908 0.846182
O O14 0.634321 0.500000 0.750130
O O15 0.523635 0.724983 0.743244
O O16 0.000000 0.000000 0.500000
O O17 0.023180 0.829712 0.615681
O O18 0.527813 0.500000 0.353547
#
# Coordination Sequence:
#
# PCOD8211907 Si02
#       7
#     8   4   8   8   8   4   8
#     4   9  17  32  53  76 105 141 181 230 277 311
#     4  10  20  34  58  85 105 139 183 211 251 314
#     4   8  15  26  41  64  96 134 177 223 269 313
#     4   9  16  26  41  63  95 135 177 222 269 309
#     4   9  19  33  49  75 110 142 176 223 268 309
#     4  10  22  42  62  83 117 145 167 207 262 318
#     4  10  20  36  59  82 106 140 178 214 262 324
#
# _framework density 18.654408
#
# number of rings (size 3 to 8) (size 9 to 14) (size 15 to 20)
#    0.000    2.833    0.833    1.500    1.167    2.333 
#    0.000    3.333    0.000    5.000    0.000    0.000 
#    0.000    0.000    0.000    0.000    0.000    0.000 
#
# Total GULP energy -594657.235579 kJ/mol
# GULP energy per Si atom -12388.692408 kJ/mol
# Density = 1.861195 g / cm^3
# Si number density = 18.654408 Si / 1000 Ang^3
#
#
#
# Elastic Constant Matrix: (Units=GPa)
#
#
# Indices 1 2 3 4 5 6 
#
# 1 82.7852 32.2897 58.2814 0.0000 0.0000 0.0000
# 2 32.2897 81.7316 48.6107 0.0000 0.0000 0.0000
# 3 58.2814 48.6107 139.6124 0.0000 0.0000 0.0000
# 4 0.0000 0.0000 0.0000 9.3022 0.0000 0.0000
# 5 0.0000 0.0000 0.0000 0.0000 20.4457 0.0000
# 6 0.0000 0.0000 0.0000 0.0000 0.0000 16.9246
#
#
#
# Elastic Compliance Matrix: (Units=1/GPa)
#
#
# Indices 1 2 3 4 5 6 
#
# 1 0.017783 -0.003292 -0.006277 0.000000 0.000000 0.000000
# 2 -0.003292 0.016040 -0.004211 0.000000 0.000000 0.000000
# 3 -0.006277 -0.004211 0.011249 0.000000 0.000000 0.000000
# 4 0.000000 0.000000 0.000000 0.107501 0.000000 0.000000
# 5 0.000000 0.000000 0.000000 0.000000 0.048910 0.000000
# 6 0.000000 0.000000 0.000000 0.000000 0.000000 0.059086
#
#
# Mechanical properties :
#
#
# Convention : Reuss Voigt Hill
#
# Bulk Modulus (GPa) = 57.10271 64.72140 60.91205
# Shear Modulus (GPa) = 17.00879 20.33100 18.66989
#
# Velocity S-wave (km/s) = 3.02285 3.30491 3.16702
# Velocity P-wave (km/s) = 6.54682 7.02378 6.78949
#
# Compressibility (1/GPa) = 0.01751230
#
# Stress axis : x y z
#
# Youngs Moduli (GPa) = 56.23460 62.34394 88.89538
#
# Poissons Ratio (x) = 0.20523 0.55801
# Poissons Ratio (y) = 0.18512 0.37431
# Poissons Ratio (z) = 0.35299 0.26251
#
# Static dielectric constant tensor:
#      x y z
#    x 3.355430 0.000000 0.000000 
#    y 0.000000 3.494820 0.000000 
#    z 0.000000 0.000000 3.273430 
# 
# 
# High freq. dielectric constant tensor:
#      x y z
#    x 1.697160 0.000000 0.000000 
#    y 0.000000 1.725510 0.000000 
#    z 0.000000 0.000000 1.700840 
# 
# From -- ./inp_files/25001.got.cif
#   From: 2010.03.12/outbox.cif.g09.slc.cpg/sg51_13_cif.got.tgz:25001.got - 2010.04.16 13:43:02.
