data_PCOD8211708
_publ_section_title
;
Structure prediction by ZEFSAII (Michael W. Deem and Ramdas Pophale) SiO2 
 PCOD8211708
Probable space group: P M M A
;
_chemical_formula_sum "Si O2"
_cell_formula_units_Z 44
_cell_length_a 8.935641
_cell_length_b 17.436786
_cell_length_c 15.042957
_cell_angle_alpha 90.000000
_cell_angle_beta 90.000000
_cell_angle_gamma 90.000000
_cell_volume 2343.825980
_symmetry_space_group_name_H-M "P M M A"
_symmetry_group_IT_number 51
_symmetry_cell_setting 'orthorhombic'
loop_
_space_group_symop_operation_xyz
x,y,z
1/2-x,-y,z
1/2+x,-y,-z
-x,y,-z
-x,-y,-z
1/2+x,y,-z
1/2-x,y,z
x,-y,z
loop_
_atom_site_type_symbol
_atom_site_label
_atom_site_fract_x
_atom_site_fract_y
_atom_site_fract_z
Si Si1 0.917082 0.877167 0.086308
Si Si2 0.586894 0.696014 0.082535
Si Si3 0.577880 0.587353 0.593880
Si Si4 0.929126 0.704802 0.275961
Si Si5 0.072517 0.866461 0.270067
Si Si6 0.575155 0.000000 0.596040
O O1 0.750000 0.912286 0.093515
O O2 0.904773 0.786882 0.072345
O O3 0.007153 0.896510 0.176282
O O4 0.000000 0.913239 0.000000
O O5 0.750000 0.658690 0.078600
O O6 0.513814 0.678078 0.178249
O O7 0.500000 0.658471 0.000000
O O8 0.500000 0.596131 0.500000
O O9 0.750000 0.614626 0.588056
O O10 0.568334 0.500000 0.627776
O O11 0.483390 0.639818 0.658696
O O12 0.750000 0.714245 0.277763
O O13 0.002154 0.785954 0.300628
O O14 0.250000 0.858314 0.259052
O O15 0.027773 0.925454 0.347566
O O16 0.500000 0.000000 0.500000
O O17 0.750000 0.000000 0.578700
#
# Coordination Sequence:
#
# PCOD8211708 Si02
#       6
#     8   8   8   8   8   4
#     4   9  16  28  48  76 106 138 173 213 263 316
#     4   8  15  26  43  70 103 136 171 209 250 298
#     4  10  21  37  57  81 108 139 174 215 267 322
#     4  10  20  34  54  82 111 141 178 218 262 314
#     4  10  20  36  55  78 107 139 179 225 268 316
#     4  10  24  42  59  76  99 136 179 224 276 324
#
# _framework density 18.772725000000001
#
# number of rings (size 3 to 8) (size 9 to 14) (size 15 to 20)
#    0.000    2.545    0.000    3.273    0.000    8.364 
#    0.000    2.273    0.000    0.545    0.000    0.000 
#    0.000    0.000    0.000    0.000    0.000    0.000 
#
# Total GULP energy -545405.851426 kJ/mol
# GULP energy per Si atom -12395.587532 kJ/mol
# Density = 1.873000 g / cm^3
# Si number density = 18.772725 Si / 1000 Ang^3
#
#
#
# Elastic Constant Matrix: (Units=GPa)
#
#
# Indices 1 2 3 4 5 6 
#
# 1 109.0552 39.4639 60.6481 0.0000 0.0000 0.0000
# 2 39.4639 70.6368 65.0574 0.0000 0.0000 0.0000
# 3 60.6481 65.0574 145.2629 0.0000 0.0000 0.0000
# 4 0.0000 0.0000 0.0000 -100.0423 0.0000 0.0000
# 5 0.0000 0.0000 0.0000 0.0000 36.4241 0.0000
# 6 0.0000 0.0000 0.0000 0.0000 0.0000 -7.6795
#
#
#
# Elastic Compliance Matrix: (Units=1/GPa)
#
#
# Indices 1 2 3 4 5 6 
#
# 1 0.012486 -0.003701 -0.003555 0.000000 0.000000 0.000000
# 2 -0.003701 0.025193 -0.009738 0.000000 0.000000 0.000000
# 3 -0.003555 -0.009738 0.012730 0.000000 0.000000 0.000000
# 4 0.000000 0.000000 0.000000 -0.009996 0.000000 0.000000
# 5 0.000000 0.000000 0.000000 0.000000 0.027454 0.000000
# 6 0.000000 0.000000 0.000000 0.000000 0.000000 -0.130217
#
#
# Mechanical properties :
#
#
# Convention : Reuss Voigt Hill
#
# Bulk Modulus (GPa) = 60.90033 72.81041 66.85537
# Shear Modulus (GPa) = -218.46667 -3.60717 -111.03692
#
# Velocity S-wave (km/s) = -10.79941 -1.38768 -7.69912
# Velocity P-wave (km/s) = 11.09016 6.02510 6.58368
#
# Compressibility (1/GPa) = 0.01642027
#
# Stress axis : x y z
#
# Youngs Moduli (GPa) = 80.08749 39.69281 78.55675
#
# Poissons Ratio (x) = 0.14692 0.27930
# Poissons Ratio (y) = 0.29643 0.76497
# Poissons Ratio (z) = 0.28474 0.38652
#
# Static dielectric constant tensor:
#      x y z
#    x 3.690220 0.000000 0.000000 
#    y 0.000000 3.138860 0.000000 
#    z 0.000000 0.000000 3.597600 
# 
# 
# High freq. dielectric constant tensor:
#      x y z
#    x 1.741450 0.000000 0.000000 
#    y 0.000000 1.695390 0.000000 
#    z 0.000000 0.000000 1.738630 
# 
# From -- ./inp_files/20923.got.cif
#   From: 2010.03.12/outbox.cif.g09.slc.cpg/sg51_11_cif.got.tgz:20923.got - 2010.04.16 13:43:02.
