data_PCOD8211412
_publ_section_title
;
Structure prediction by ZEFSAII (Michael W. Deem and Ramdas Pophale) SiO2 
 PCOD8211412
Probable space group: P M M A
;
_chemical_formula_sum "Si O2"
_cell_formula_units_Z 56
_cell_length_a 14.502529
_cell_length_b 9.171753
_cell_length_c 21.519062
_cell_angle_alpha 90.000000
_cell_angle_beta 90.000000
_cell_angle_gamma 90.000000
_cell_volume 2862.328204
_symmetry_space_group_name_H-M "P M M A"
_symmetry_group_IT_number 51
_symmetry_cell_setting 'orthorhombic'
loop_
_space_group_symop_operation_xyz
x,y,z
1/2-x,-y,z
1/2+x,-y,-z
-x,y,-z
-x,-y,-z
1/2+x,y,-z
1/2-x,y,z
x,-y,z
loop_
_atom_site_type_symbol
_atom_site_label
_atom_site_fract_x
_atom_site_fract_y
_atom_site_fract_z
Si Si1 0.902662 0.834379 0.033964
Si Si2 0.646961 0.326385 0.512256
Si Si3 0.642902 0.669719 0.155912
Si Si4 0.517540 0.672760 0.404556
Si Si5 0.493644 0.671019 0.734561
Si Si6 0.141046 0.831882 0.192362
Si Si7 0.351720 0.341909 0.076308
O O1 0.904367 0.764234 0.101874
O O2 0.866463 0.000000 0.038325
O O3 0.838535 0.737772 0.989704
O O4 0.000000 0.825059 0.000000
O O5 0.750000 0.259849 0.519396
O O6 0.652699 0.500000 0.511813
O O7 0.581549 0.272388 0.568889
O O8 0.601371 0.269928 0.447640
O O9 0.750000 0.712630 0.163397
O O10 0.632011 0.500000 0.139256
O O11 0.591170 0.708881 0.219912
O O12 0.517572 0.500000 0.407271
O O13 0.533459 0.726494 0.334201
O O14 0.516187 0.500000 0.735701
O O15 0.587341 0.754824 0.751844
O O16 0.250000 0.812455 0.202775
O O17 0.101678 0.760284 0.128407
O O18 0.113399 0.000000 0.188608
O O19 0.250000 0.372941 0.101282
O O20 0.403357 0.500000 0.070563
#
# Coordination Sequence:
#
# PCOD8211412 Si02
#       7
#     8   8   8   8   8   8   8
#     4  11  23  36  52  75 100 128 167 216 268 319
#     4   8  13  23  41  67 102 138 168 206 256 305
#     4  10  22  38  53  73 104 141 181 223 266 314
#     4   8  15  26  41  68 102 134 171 210 253 307
#     4  10  20  34  53  76 105 141 179 221 265 311
#     4  10  21  36  53  75 105 139 175 218 269 325
#     4  10  20  34  53  75  97 123 159 205 257 311
#
# _framework density 19.564494
#
# number of rings (size 3 to 8) (size 9 to 14) (size 15 to 20)
#    0.000    2.429    0.000    3.429    0.000    8.857 
#    0.000    4.286    0.000    0.000    0.000    2.000 
#    0.000    1.143    0.000    0.000    0.000    0.000 
#
# Total GULP energy -694060.516042 kJ/mol
# GULP energy per Si atom -12393.937786 kJ/mol
# Density = 1.951996 g / cm^3
# Si number density = 19.564494 Si / 1000 Ang^3
#
#
#
# Elastic Constant Matrix: (Units=GPa)
#
#
# Indices 1 2 3 4 5 6 
#
# 1 106.5601 28.4354 52.3202 0.0000 0.0000 0.0000
# 2 28.4354 81.8954 46.3509 0.0000 0.0000 0.0000
# 3 52.3202 46.3509 157.0792 0.0000 0.0000 0.0000
# 4 0.0000 0.0000 0.0000 4.3040 0.0000 0.0000
# 5 0.0000 0.0000 0.0000 0.0000 24.0225 0.0000
# 6 0.0000 0.0000 0.0000 0.0000 0.0000 15.0661
#
#
#
# Elastic Compliance Matrix: (Units=1/GPa)
#
#
# Indices 1 2 3 4 5 6 
#
# 1 0.011540 -0.002199 -0.003195 0.000000 0.000000 0.000000
# 2 -0.002199 0.015078 -0.003717 0.000000 0.000000 0.000000
# 3 -0.003195 -0.003717 0.008527 0.000000 0.000000 0.000000
# 4 0.000000 0.000000 0.000000 0.232344 0.000000 0.000000
# 5 0.000000 0.000000 0.000000 0.000000 0.041628 0.000000
# 6 0.000000 0.000000 0.000000 0.000000 0.000000 0.066374
#
#
# Mechanical properties :
#
#
# Convention : Reuss Voigt Hill
#
# Bulk Modulus (GPa) = 59.08768 66.63864 62.86316
# Shear Modulus (GPa) = 12.52027 23.24039 17.88033
#
# Velocity S-wave (km/s) = 2.53246 3.45031 3.02639
# Velocity P-wave (km/s) = 6.23043 7.07162 6.66431
#
# Compressibility (1/GPa) = 0.01692400
#
# Stress axis : x y z
#
# Youngs Moduli (GPa) = 86.65710 66.32308 117.27237
#
# Poissons Ratio (x) = 0.14581 0.37468
# Poissons Ratio (y) = 0.19052 0.43588
# Poissons Ratio (z) = 0.27686 0.24651
#
# Static dielectric constant tensor:
#      x y z
#    x 3.650920 0.000000 0.000000 
#    y 0.000000 3.379940 0.000000 
#    z 0.000000 0.000000 3.759140 
# 
# 
# High freq. dielectric constant tensor:
#      x y z
#    x 1.765140 0.000000 0.000000 
#    y 0.000000 1.728560 0.000000 
#    z 0.000000 0.000000 1.757670 
# 
# From -- ./inp_files/33386.got.cif
#   From: 2010.03.12/outbox.cif.g09.slc.cpg/sg51_17_cif.got.tgz:33386.got - 2010.04.16 13:43:02.
