data_PCOD8211567
_publ_section_title
;
Structure prediction by ZEFSAII (Michael W. Deem and Ramdas Pophale) SiO2 
 PCOD8211567
Probable space group: P M M A
;
_chemical_formula_sum "Si O2"
_cell_formula_units_Z 48
_cell_length_a 14.168774
_cell_length_b 8.836096
_cell_length_c 21.283254
_cell_angle_alpha 90.000000
_cell_angle_beta 90.000000
_cell_angle_gamma 90.000000
_cell_volume 2664.592044
_symmetry_space_group_name_H-M "P M M A"
_symmetry_group_IT_number 51
_symmetry_cell_setting 'orthorhombic'
loop_
_space_group_symop_operation_xyz
x,y,z
1/2-x,-y,z
1/2+x,-y,-z
-x,y,-z
-x,-y,-z
1/2+x,y,-z
1/2-x,y,z
x,-y,z
loop_
_atom_site_type_symbol
_atom_site_label
_atom_site_fract_x
_atom_site_fract_y
_atom_site_fract_z
Si Si1 0.490666 0.679109 0.070570
Si Si2 0.010079 0.822252 0.736825
Si Si3 0.856371 0.178211 0.835870
Si Si4 0.140303 0.678794 0.501096
Si Si5 0.001825 0.819916 0.406584
Si Si6 0.643976 0.678852 0.169618
O O1 0.481649 0.500000 0.070564
O O2 0.396066 0.745931 0.101014
O O3 0.581758 0.733687 0.110290
O O4 0.500000 0.742329 0.000000
O O5 0.997406 0.768438 0.665582
O O6 0.102682 0.744993 0.765810
O O7 0.917434 0.770955 0.775517
O O8 0.025434 0.000000 0.740731
O O9 0.750000 0.235135 0.824737
O O10 0.860586 0.000000 0.845387
O O11 0.250000 0.720194 0.501317
O O12 0.122574 0.500000 0.502887
O O13 0.092860 0.755104 0.561852
O O14 0.094186 0.747840 0.438413
O O15 0.004793 0.000000 0.414601
O O16 0.750000 0.739861 0.159941
O O17 0.642484 0.500000 0.175255
#
# Coordination Sequence:
#
# PCOD8211567 Si02
#       6
#     8   8   8   8   8   8
#     4   9  18  32  50  72  98 128 162 202 245 287
#     4   9  19  34  51  73  99 127 161 201 244 288
#     4   9  18  33  51  71  98 130 162 198 241 289
#     4  10  21  36  53  74 102 134 165 200 244 293
#     4  10  20  34  54  77 100 129 165 206 247 288
#     4   9  18  32  49  70  97 129 164 201 242 289
#
# _framework density 18.014014
#
# number of rings (size 3 to 8) (size 9 to 14) (size 15 to 20)
#    0.000    2.667    0.000    2.000    0.000    5.667 
#    0.000    6.667    0.000    0.000    0.000    0.000 
#    0.000    0.000    0.000    0.000    0.000    0.000 
#
# Total GULP energy -595243.477867 kJ/mol
# GULP energy per Si atom -12400.905789 kJ/mol
# Density = 1.797301 g / cm^3
# Si number density = 18.014014 Si / 1000 Ang^3
#
#
#
# Elastic Constant Matrix: (Units=GPa)
#
#
# Indices 1 2 3 4 5 6 
#
# 1 155.5068 35.2266 72.3714 0.0000 0.0000 0.0000
# 2 35.2266 39.1528 35.0877 0.0000 0.0000 0.0000
# 3 72.3714 35.0877 165.5287 0.0000 0.0000 0.0000
# 4 0.0000 0.0000 0.0000 26.4472 0.0000 0.0000
# 5 0.0000 0.0000 0.0000 0.0000 14.6488 0.0000
# 6 0.0000 0.0000 0.0000 0.0000 0.0000 27.5878
#
#
#
# Elastic Compliance Matrix: (Units=1/GPa)
#
#
# Indices 1 2 3 4 5 6 
#
# 1 0.008977 -0.005629 -0.002732 0.000000 0.000000 0.000000
# 2 -0.005629 0.035060 -0.004971 0.000000 0.000000 0.000000
# 3 -0.002732 -0.004971 0.008289 0.000000 0.000000 0.000000
# 4 0.000000 0.000000 0.000000 0.037811 0.000000 0.000000
# 5 0.000000 0.000000 0.000000 0.000000 0.068265 0.000000
# 6 0.000000 0.000000 0.000000 0.000000 0.000000 0.036248
#
#
# Mechanical properties :
#
#
# Convention : Reuss Voigt Hill
#
# Bulk Modulus (GPa) = 38.96558 71.72887 55.34723
# Shear Modulus (GPa) = 21.75172 28.23695 24.99434
#
# Velocity S-wave (km/s) = 3.47866 3.96346 3.72895
# Velocity P-wave (km/s) = 6.14918 7.80065 7.02363
#
# Compressibility (1/GPa) = 0.02566367
#
# Stress axis : x y z
#
# Youngs Moduli (GPa) = 111.39634 28.52264 120.63776
#
# Poissons Ratio (x) = 0.16054 0.32955
# Poissons Ratio (y) = 0.62701 0.59967
# Poissons Ratio (z) = 0.30430 0.14178
#
# Static dielectric constant tensor:
#      x y z
#    x 3.496910 0.000000 0.000000 
#    y 0.000000 3.246500 0.000000 
#    z 0.000000 0.000000 3.464960 
# 
# 
# High freq. dielectric constant tensor:
#      x y z
#    x 1.700420 0.000000 0.000000 
#    y 0.000000 1.694400 0.000000 
#    z 0.000000 0.000000 1.699710 
# 
# From -- ./inp_files/33201.got.cif
#   From: 2010.03.12/outbox.cif.g09.slc.cpg/sg51_17_cif.got.tgz:33201.got - 2010.04.16 13:43:02.
