data_PCOD8211959
_publ_section_title
;
Structure prediction by ZEFSAII (Michael W. Deem and Ramdas Pophale) SiO2 
 PCOD8211959
Probable space group: P M M A
;
_chemical_formula_sum "Si O2"
_cell_formula_units_Z 64
_cell_length_a 26.078110
_cell_length_b 13.576302
_cell_length_c 9.805129
_cell_angle_alpha 90.000000
_cell_angle_beta 90.000000
_cell_angle_gamma 90.000000
_cell_volume 3471.450003
_symmetry_space_group_name_H-M "P M M A"
_symmetry_group_IT_number 51
_symmetry_cell_setting 'orthorhombic'
loop_
_space_group_symop_operation_xyz
x,y,z
1/2-x,-y,z
1/2+x,-y,-z
-x,y,-z
-x,-y,-z
1/2+x,y,-z
1/2-x,y,z
x,-y,z
loop_
_atom_site_type_symbol
_atom_site_label
_atom_site_fract_x
_atom_site_fract_y
_atom_site_fract_z
Si Si1 0.190956 0.890042 0.382551
Si Si2 0.690934 0.263482 0.394558
Si Si3 0.622425 0.388649 0.027796
Si Si4 0.895485 0.613015 0.507808
Si Si5 0.460462 0.613054 0.751029
Si Si6 0.190759 0.782764 0.914860
Si Si7 0.431219 0.299128 0.216440
Si Si8 0.623536 0.112838 0.876941
O O1 0.250000 0.872419 0.351702
O O2 0.171741 0.819683 0.501718
O O3 0.163741 0.867119 0.241760
O O4 0.179375 0.000000 0.433626
O O5 0.750000 0.294708 0.414966
O O6 0.656327 0.358818 0.425840
O O7 0.682314 0.216531 0.246721
O O8 0.640052 0.500000 0.051186
O O9 0.584823 0.352954 0.148555
O O10 0.674064 0.323904 0.027742
O O11 0.593563 0.378767 0.884501
O O12 0.890550 0.500000 0.556595
O O13 0.943120 0.624447 0.405115
O O14 0.905301 0.684219 0.636131
O O15 0.476231 0.500000 0.781893
O O16 0.508146 0.684553 0.776081
O O17 0.250000 0.803058 0.952975
O O18 0.153378 0.864567 0.981790
O O19 0.422736 0.188830 0.155148
O O20 0.603179 0.000000 0.880280
#
# Coordination Sequence:
#
# PCOD8211959 Si02
#       8
#     8   8   8   8   8   8   8   8
#     4   9  17  32  55  78 101 134 177 223 271 325
#     4  10  20  35  53  79 112 146 182 223 279 335
#     4  10  20  35  54  81 112 145 186 226 270 328
#     4  11  21  35  54  83 115 147 188 229 274 329
#     4  10  20  35  57  82 110 148 192 233 275 324
#     4  10  21  35  55  81 110 145 183 225 276 332
#     4  11  21  35  57  81 110 145 183 235 280 329
#     4  10  21  37  58  82 109 141 180 231 285 335
#
# _framework density 18.4361
#
# number of rings (size 3 to 8) (size 9 to 14) (size 15 to 20)
#    0.000    1.875    2.500    2.250    0.000    3.750 
#    0.000    2.500    0.000    9.750    0.000    0.000 
#    0.000    0.000    0.000    0.000    0.000    0.000 
#
# Total GULP energy -793569.484079 kJ/mol
# GULP energy per Si atom -12399.523189 kJ/mol
# Density = 1.839414 g / cm^3
# Si number density = 18.436100 Si / 1000 Ang^3
#
#
#
# Elastic Constant Matrix: (Units=GPa)
#
#
# Indices 1 2 3 4 5 6 
#
# 1 58.3594 34.4576 13.2436 0.0000 0.0000 0.0000
# 2 34.4576 89.1967 18.8257 0.0000 0.0000 0.0000
# 3 13.2436 18.8257 80.3369 0.0000 0.0000 0.0000
# 4 0.0000 0.0000 0.0000 24.6029 0.0000 0.0000
# 5 0.0000 0.0000 0.0000 0.0000 24.4323 0.0000
# 6 0.0000 0.0000 0.0000 0.0000 0.0000 24.2256
#
#
#
# Elastic Compliance Matrix: (Units=1/GPa)
#
#
# Indices 1 2 3 4 5 6 
#
# 1 0.022431 -0.008295 -0.001754 0.000000 0.000000 0.000000
# 2 -0.008295 0.014862 -0.002115 0.000000 0.000000 0.000000
# 3 -0.001754 -0.002115 0.013232 0.000000 0.000000 0.000000
# 4 0.000000 0.000000 0.000000 0.040646 0.000000 0.000000
# 5 0.000000 0.000000 0.000000 0.000000 0.040929 0.000000
# 6 0.000000 0.000000 0.000000 0.000000 0.000000 0.041279
#
#
# Mechanical properties :
#
#
# Convention : Reuss Voigt Hill
#
# Bulk Modulus (GPa) = 38.17250 40.10518 39.13884
# Shear Modulus (GPa) = 24.22012 25.40992 24.81502
#
# Velocity S-wave (km/s) = 3.62848 3.71653 3.67277
# Velocity P-wave (km/s) = 6.18908 6.34174 6.26588
#
# Compressibility (1/GPa) = 0.02619687
#
# Stress axis : x y z
#
# Youngs Moduli (GPa) = 44.58124 67.28522 75.57215
#
# Poissons Ratio (x) = 0.55814 0.13255
# Poissons Ratio (y) = 0.36981 0.15985
# Poissons Ratio (z) = 0.07819 0.14232
#
# Static dielectric constant tensor:
#      x y z
#    x 3.284650 0.000000 0.000000 
#    y 0.000000 3.311350 0.000000 
#    z 0.000000 0.000000 3.566790 
# 
# 
# High freq. dielectric constant tensor:
#      x y z
#    x 1.703320 0.000000 0.000000 
#    y 0.000000 1.701880 0.000000 
#    z 0.000000 0.000000 1.730650 
# 
# From -- ./inp_files/13271.got.cif
#   From: 2010.03.12/outbox.cif.g09.slc.cpg/sg51_7_cif.got.tgz:13271.got - 2010.04.16 13:43:02.
