data_PCOD8211077
_publ_section_title
;
Structure prediction by ZEFSAII (Michael W. Deem and Ramdas Pophale) SiO2 
 PCOD8211077
Probable space group: P M M A
;
_chemical_formula_sum "Si O2"
_cell_formula_units_Z 48
_cell_length_a 15.968082
_cell_length_b 9.371543
_cell_length_c 17.884274
_cell_angle_alpha 90.000000
_cell_angle_beta 90.000000
_cell_angle_gamma 90.000000
_cell_volume 2676.302325
_symmetry_space_group_name_H-M "P M M A"
_symmetry_group_IT_number 51
_symmetry_cell_setting 'orthorhombic'
loop_
_space_group_symop_operation_xyz
x,y,z
1/2-x,-y,z
1/2+x,-y,-z
-x,y,-z
-x,-y,-z
1/2+x,y,-z
1/2-x,y,z
x,-y,z
loop_
_atom_site_type_symbol
_atom_site_label
_atom_site_fract_x
_atom_site_fract_y
_atom_site_fract_z
Si Si1 0.417500 0.334307 0.210333
Si Si2 0.921432 0.333162 0.305882
Si Si3 0.250000 0.165827 0.446952
Si Si4 0.998887 0.833325 0.084455
Si Si5 0.086332 0.835440 0.542454
Si Si6 0.156989 0.838377 0.818689
Si Si7 0.250000 0.332229 0.293053
O O1 0.418072 0.500000 0.189002
O O2 0.487415 0.298652 0.272228
O O3 0.432085 0.247308 0.134112
O O4 0.330032 0.285072 0.245113
O O5 0.904253 0.500000 0.312784
O O6 0.912540 0.264792 0.386361
O O7 0.852063 0.265444 0.251839
O O8 0.333681 0.206268 0.492399
O O9 0.250000 0.254245 0.371540
O O10 0.250000 0.000000 0.425902
O O11 0.906665 0.797915 0.115479
O O12 0.020679 0.000000 0.087133
O O13 0.000000 0.775163 0.000000
O O14 0.000000 0.804800 0.500000
O O15 0.091914 0.000000 0.567604
O O16 0.250000 0.820801 0.851821
O O17 0.140491 0.000000 0.791009
O O18 0.250000 0.500000 0.309552
#
# Coordination Sequence:
#
# PCOD8211077 Si02
#       7
#     8   8   4   8   8   8   4
#     4   9  19  35  54  77 104 139 175 211 256 307
#     4  10  20  33  52  76 103 133 172 218 260 306
#     4  10  22  36  52  76 103 134 175 218 263 312
#     4   9  18  34  54  79 108 135 169 211 255 304
#     4  10  21  36  52  73 103 138 174 215 263 314
#     4   9  18  33  53  74 100 138 173 205 252 307
#     4  10  20  36  56  76 103 136 177 218 255 304
#
# _framework density 17.935192000000001
#
# number of rings (size 3 to 8) (size 9 to 14) (size 15 to 20)
#    0.000    2.500    0.000    1.500    1.167    3.000 
#    1.500    0.000    0.000    0.000    0.000    0.000 
#    0.000    0.000    0.000    0.000    0.000    0.000 
#
# Total GULP energy -595300.240005 kJ/mol
# GULP energy per Si atom -12402.088333 kJ/mol
# Density = 1.789437 g / cm^3
# Si number density = 17.935192 Si / 1000 Ang^3
#
#
#
# Elastic Constant Matrix: (Units=GPa)
#
#
# Indices 1 2 3 4 5 6 
#
# 1 129.2294 44.1125 70.1877 0.0000 0.0000 0.0000
# 2 44.1125 73.1712 76.9416 0.0000 0.0000 0.0000
# 3 70.1877 76.9416 161.8967 0.0000 0.0000 0.0000
# 4 0.0000 0.0000 0.0000 20.1271 0.0000 0.0000
# 5 0.0000 0.0000 0.0000 0.0000 17.1713 0.0000
# 6 0.0000 0.0000 0.0000 0.0000 0.0000 18.8749
#
#
#
# Elastic Compliance Matrix: (Units=1/GPa)
#
#
# Indices 1 2 3 4 5 6 
#
# 1 0.010456 -0.003072 -0.003073 0.000000 0.000000 0.000000
# 2 -0.003072 0.028222 -0.012080 0.000000 0.000000 0.000000
# 3 -0.003073 -0.012080 0.013250 0.000000 0.000000 0.000000
# 4 0.000000 0.000000 0.000000 0.049684 0.000000 0.000000
# 5 0.000000 0.000000 0.000000 0.000000 0.058237 0.000000
# 6 0.000000 0.000000 0.000000 0.000000 0.000000 0.052981
#
#
# Mechanical properties :
#
#
# Convention : Reuss Voigt Hill
#
# Bulk Modulus (GPa) = 64.61379 82.97565 73.79472
# Shear Modulus (GPa) = 19.65103 22.77167 21.21135
#
# Velocity S-wave (km/s) = 3.31368 3.56710 3.44272
# Velocity P-wave (km/s) = 7.12356 7.95803 7.55233
#
# Compressibility (1/GPa) = 0.01547657
#
# Stress axis : x y z
#
# Youngs Moduli (GPa) = 95.64027 35.43365 75.47038
#
# Poissons Ratio (x) = 0.10886 0.23191
# Poissons Ratio (y) = 0.29384 0.91172
# Poissons Ratio (z) = 0.29389 0.42806
#
# Static dielectric constant tensor:
#      x y z
#    x 3.648410 0.000000 0.000000 
#    y 0.000000 3.306270 0.000000 
#    z 0.000000 0.000000 3.251060 
# 
# 
# High freq. dielectric constant tensor:
#      x y z
#    x 1.702030 0.000000 0.000000 
#    y 0.000000 1.692680 0.000000 
#    z 0.000000 0.000000 1.689840 
# 
# From -- ./inp_files/29612.got.cif
#   From: 2010.03.12/outbox.cif.g09.slc.cpg/sg51_15_cif.got.tgz:29612.got - 2010.04.16 13:43:02.
