data_PCOD8211491
_publ_section_title
;
Structure prediction by ZEFSAII (Michael W. Deem and Ramdas Pophale) SiO2 
 PCOD8211491
Probable space group: P M M A
;
_chemical_formula_sum "Si O2"
_cell_formula_units_Z 40
_cell_length_a 13.517037
_cell_length_b 8.649401
_cell_length_c 18.482729
_cell_angle_alpha 90.000000
_cell_angle_beta 90.000000
_cell_angle_gamma 90.000000
_cell_volume 2160.894830
_symmetry_space_group_name_H-M "P M M A"
_symmetry_group_IT_number 51
_symmetry_cell_setting 'orthorhombic'
loop_
_space_group_symop_operation_xyz
x,y,z
1/2-x,-y,z
1/2+x,-y,-z
-x,y,-z
-x,-y,-z
1/2+x,y,-z
1/2-x,y,z
x,-y,z
loop_
_atom_site_type_symbol
_atom_site_label
_atom_site_fract_x
_atom_site_fract_y
_atom_site_fract_z
Si Si1 0.135127 0.179920 0.755971
Si Si2 0.638463 0.180048 0.968757
Si Si3 0.862372 0.318937 0.537774
Si Si4 0.047942 0.819111 0.601953
Si Si5 0.040082 0.680522 0.894917
O O1 0.250000 0.223010 0.751336
O O2 0.083712 0.227443 0.681256
O O3 0.083798 0.280271 0.817315
O O4 0.120015 0.000000 0.773587
O O5 0.750000 0.216706 0.943963
O O6 0.565315 0.234971 0.905346
O O7 0.622480 0.000000 0.983858
O O8 0.616648 0.268090 0.043369
O O9 0.750000 0.274230 0.556569
O O10 0.881510 0.500000 0.546977
O O11 0.885646 0.272791 0.455397
O O12 0.932956 0.226936 0.593117
O O13 0.062008 0.000000 0.587362
O O14 0.021392 0.500000 0.901342
#
# Coordination Sequence:
#
# PCOD8211491 Si02
#       5
#     8   8   8   8   8
#     4  10  21  37  55  76 105 139 174 214 260 309
#     4  10  20  36  58  79 103 139 178 215 256 304
#     4  10  20  34  53  77 107 141 173 210 260 314
#     4  10  20  34  55  80 104 134 176 221 259 302
#     4  11  22  34  53  81 110 138 171 214 261 310
#
# _framework density 18.510850000000001
#
# number of rings (size 3 to 8) (size 9 to 14) (size 15 to 20)
#    0.000    1.800    0.000    7.200    0.000    8.400 
#    0.000    1.000    0.000    1.200    0.000    0.000 
#    0.000    0.000    0.000    0.000    0.000    0.000 
#
# Total GULP energy -496138.987110 kJ/mol
# GULP energy per Si atom -12403.474678 kJ/mol
# Density = 1.846872 g / cm^3
# Si number density = 18.510850 Si / 1000 Ang^3
#
#
#
# Elastic Constant Matrix: (Units=GPa)
#
#
# Indices 1 2 3 4 5 6 
#
# 1 136.0483 30.6579 52.4295 0.0000 0.0000 0.0000
# 2 30.6579 48.1762 20.5703 0.0000 0.0000 0.0000
# 3 52.4295 20.5703 101.6763 0.0000 0.0000 0.0000
# 4 0.0000 0.0000 0.0000 11.1397 0.0000 0.0000
# 5 0.0000 0.0000 0.0000 0.0000 21.2522 0.0000
# 6 0.0000 0.0000 0.0000 0.0000 0.0000 18.5566
#
#
#
# Elastic Compliance Matrix: (Units=1/GPa)
#
#
# Indices 1 2 3 4 5 6 
#
# 1 0.010012 -0.004561 -0.004240 0.000000 0.000000 0.000000
# 2 -0.004561 0.024797 -0.002665 0.000000 0.000000 0.000000
# 3 -0.004240 -0.002665 0.012561 0.000000 0.000000 0.000000
# 4 0.000000 0.000000 0.000000 0.089769 0.000000 0.000000
# 5 0.000000 0.000000 0.000000 0.000000 0.047054 0.000000
# 6 0.000000 0.000000 0.000000 0.000000 0.000000 0.053889
#
#
# Mechanical properties :
#
#
# Convention : Reuss Voigt Hill
#
# Bulk Modulus (GPa) = 40.91930 54.80179 47.86055
# Shear Modulus (GPa) = 18.57630 22.33924 20.45777
#
# Velocity S-wave (km/s) = 3.17130 3.47770 3.32803
# Velocity P-wave (km/s) = 5.96348 6.76723 6.37803
#
# Compressibility (1/GPa) = 0.02443835
#
# Stress axis : x y z
#
# Youngs Moduli (GPa) = 99.87885 40.32666 79.61373
#
# Poissons Ratio (x) = 0.18393 0.33756
# Poissons Ratio (y) = 0.45555 0.21217
# Poissons Ratio (z) = 0.42349 0.10747
#
# Static dielectric constant tensor:
#      x y z
#    x 3.585210 0.000000 0.000000 
#    y 0.000000 3.471590 0.000000 
#    z 0.000000 0.000000 3.265410 
# 
# 
# High freq. dielectric constant tensor:
#      x y z
#    x 1.728590 0.000000 0.000000 
#    y 0.000000 1.729620 0.000000 
#    z 0.000000 0.000000 1.702830 
# 
# From -- ./inp_files/29264.got.cif
#   From: 2010.03.12/outbox.cif.g09.slc.cpg/sg51_15_cif.got.tgz:29264.got - 2010.04.16 13:43:02.
