data_PCOD8211337
_publ_section_title
;
Structure prediction by ZEFSAII (Michael W. Deem and Ramdas Pophale) SiO2 
 PCOD8211337
Probable space group: P M M A
;
_chemical_formula_sum "Si O2"
_cell_formula_units_Z 64
_cell_length_a 8.862859
_cell_length_b 19.571296
_cell_length_c 20.238770
_cell_angle_alpha 90.000000
_cell_angle_beta 90.000000
_cell_angle_gamma 90.000000
_cell_volume 3510.569218
_symmetry_space_group_name_H-M "P M M A"
_symmetry_group_IT_number 51
_symmetry_cell_setting 'orthorhombic'
loop_
_space_group_symop_operation_xyz
x,y,z
1/2-x,-y,z
1/2+x,-y,-z
-x,y,-z
-x,-y,-z
1/2+x,y,-z
1/2-x,y,z
x,-y,z
loop_
_atom_site_type_symbol
_atom_site_label
_atom_site_fract_x
_atom_site_fract_y
_atom_site_fract_z
Si Si1 0.926924 0.329695 0.067714
Si Si2 0.428148 0.174141 0.932394
Si Si3 0.928324 0.922601 0.183271
Si Si4 0.426683 0.922507 0.318546
Si Si5 0.422312 0.579813 0.327521
Si Si6 0.071526 0.674612 0.569254
Si Si7 0.429420 0.181701 0.430940
Si Si8 0.424693 0.421380 0.176202
O O1 0.750000 0.334893 0.058654
O O2 0.978928 0.251951 0.081535
O O3 0.974812 0.374959 0.129441
O O4 0.000000 0.357391 0.000000
O O5 0.250000 0.167786 0.938565
O O6 0.491512 0.126628 0.873860
O O7 0.500000 0.146953 0.000000
O O8 0.750000 0.918299 0.187257
O O9 0.993237 0.896061 0.252457
O O10 0.982749 0.000000 0.168852
O O11 0.250000 0.917010 0.306579
O O12 0.479256 0.874829 0.378262
O O13 0.475720 0.000000 0.335343
O O14 0.250000 0.600623 0.343554
O O15 0.446030 0.500000 0.340089
O O16 0.536535 0.619573 0.374598
O O17 0.460896 0.598159 0.251834
O O18 0.250000 0.682679 0.560641
O O19 0.000000 0.650047 0.500000
O O20 0.999028 0.746255 0.591315
O O21 0.500000 0.157903 0.500000
O O22 0.250000 0.188606 0.437402
O O23 0.250000 0.408266 0.160497
O O24 0.466611 0.500000 0.163097
#
# Coordination Sequence:
#
# PCOD8211337 Si02
#       8
#     8   8   8   8   8   8   8   8
#     4  10  20  34  52  74 102 135 170 211 254 300
#     4   9  19  34  50  72 101 131 167 208 250 296
#     4   9  18  33  52  74 102 134 167 206 251 299
#     4   9  19  35  53  75 103 134 170 211 253 301
#     4   9  19  37  58  79 106 138 171 210 257 308
#     4  11  22  36  55  78 106 138 174 215 256 303
#     4  10  20  35  54  76 104 136 171 212 257 305
#     4   9  19  36  56  77 102 132 166 206 252 302
#
# _framework density 18.230661999999999
#
# number of rings (size 3 to 8) (size 9 to 14) (size 15 to 20)
#    0.000    2.500    0.000    3.375    0.000    5.000 
#    0.000    3.750    0.000    0.000    0.000    0.000 
#    0.000    0.000    0.000    0.000    0.000    0.000 
#
# Total GULP energy -793722.294334 kJ/mol
# GULP energy per Si atom -12401.910849 kJ/mol
# Density = 1.818917 g / cm^3
# Si number density = 18.230662 Si / 1000 Ang^3
#
#
#
# Elastic Constant Matrix: (Units=GPa)
#
#
# Indices 1 2 3 4 5 6 
#
# 1 65.0634 37.6420 49.9699 0.0000 0.0000 0.0000
# 2 37.6420 86.5967 83.5966 0.0000 0.0000 0.0000
# 3 49.9699 83.5966 142.2137 0.0000 0.0000 0.0000
# 4 0.0000 0.0000 0.0000 41.7668 0.0000 0.0000
# 5 0.0000 0.0000 0.0000 0.0000 35.9750 0.0000
# 6 0.0000 0.0000 0.0000 0.0000 0.0000 25.8764
#
#
#
# Elastic Compliance Matrix: (Units=1/GPa)
#
#
# Indices 1 2 3 4 5 6 
#
# 1 0.021891 -0.004833 -0.004851 0.000000 0.000000 0.000000
# 2 -0.004833 0.027764 -0.014623 0.000000 0.000000 0.000000
# 3 -0.004851 -0.014623 0.017332 0.000000 0.000000 0.000000
# 4 0.000000 0.000000 0.000000 0.023942 0.000000 0.000000
# 5 0.000000 0.000000 0.000000 0.000000 0.027797 0.000000
# 6 0.000000 0.000000 0.000000 0.000000 0.000000 0.038645
#
#
# Mechanical properties :
#
#
# Convention : Reuss Voigt Hill
#
# Bulk Modulus (GPa) = 54.42270 70.69899 62.56084
# Shear Modulus (GPa) = 23.57271 28.90135 26.23703
#
# Velocity S-wave (km/s) = 3.59977 3.98592 3.79776
# Velocity P-wave (km/s) = 6.86985 7.74906 7.32266
#
# Compressibility (1/GPa) = 0.01837469
#
# Stress axis : x y z
#
# Youngs Moduli (GPa) = 45.68015 36.01748 57.69759
#
# Poissons Ratio (x) = 0.17406 0.27991
# Poissons Ratio (y) = 0.22075 0.84368
# Poissons Ratio (z) = 0.22161 0.52667
#
# Static dielectric constant tensor:
#      x y z
#    x 3.272770 0.000000 0.000000 
#    y 0.000000 3.420000 0.000000 
#    z 0.000000 0.000000 3.415530 
# 
# 
# High freq. dielectric constant tensor:
#      x y z
#    x 1.705190 0.000000 0.000000 
#    y 0.000000 1.704650 0.000000 
#    z 0.000000 0.000000 1.712750 
# 
# From -- ./inp_files/28437.got.cif
#   From: 2010.03.12/outbox.cif.g09.slc.cpg/sg51_15_cif.got.tgz:28437.got - 2010.04.16 13:43:02.
