data_PCOD8211431
_publ_section_title
;
Structure prediction by ZEFSAII (Michael W. Deem and Ramdas Pophale) SiO2 
 PCOD8211431
Probable space group: P M M A
;
_chemical_formula_sum "Si O2"
_cell_formula_units_Z 56
_cell_length_a 8.967615
_cell_length_b 14.146918
_cell_length_c 25.956175
_cell_angle_alpha 90.000000
_cell_angle_beta 90.000000
_cell_angle_gamma 90.000000
_cell_volume 3292.907146
_symmetry_space_group_name_H-M "P M M A"
_symmetry_group_IT_number 51
_symmetry_cell_setting 'orthorhombic'
loop_
_space_group_symop_operation_xyz
x,y,z
1/2-x,-y,z
1/2+x,-y,-z
-x,y,-z
-x,-y,-z
1/2+x,y,-z
1/2-x,y,z
x,-y,z
loop_
_atom_site_type_symbol
_atom_site_label
_atom_site_fract_x
_atom_site_fract_y
_atom_site_fract_z
Si Si1 0.576297 0.892375 0.098324
Si Si2 0.576512 0.106785 0.792641
Si Si3 0.575183 0.608075 0.347327
Si Si4 0.074767 0.720359 0.050962
Si Si5 0.926334 0.280982 0.246240
Si Si6 0.076852 0.390110 0.154031
Si Si7 0.581827 0.387381 0.550384
O O1 0.750000 0.867028 0.102075
O O2 0.503987 0.874995 0.153642
O O3 0.495126 0.824472 0.058055
O O4 0.551201 0.000000 0.080072
O O5 0.750000 0.129500 0.800387
O O6 0.504253 0.178298 0.751692
O O7 0.551228 0.000000 0.772785
O O8 0.750000 0.616238 0.356648
O O9 0.526880 0.500000 0.337796
O O10 0.522062 0.666227 0.297839
O O11 0.496153 0.650742 0.397854
O O12 0.250000 0.730279 0.042625
O O13 0.035178 0.653066 0.098722
O O14 0.000000 0.675268 0.000000
O O15 0.750000 0.268647 0.243861
O O16 0.978107 0.340399 0.197109
O O17 0.250000 0.372930 0.166913
O O18 0.036215 0.500000 0.152778
O O19 0.500000 0.345904 0.500000
O O20 0.750000 0.350138 0.549576
O O21 0.573603 0.500000 0.549576
#
# Coordination Sequence:
#
# PCOD8211431 Si02
#       7
#     8   8   8   8   8   8   8
#     4  10  20  35  56  80 103 126 155 194 242 298
#     4  10  20  34  53  76 102 132 163 197 243 299
#     4   9  18  31  45  67 101 137 173 211 248 289
#     4  11  23  38  56  76 100 129 162 203 247 294
#     4  11  21  33  53  78 104 133 167 207 251 296
#     4  10  22  39  56  74  98 130 167 205 247 296
#     4   9  16  26  42  64  92 131 175 215 254 293
#
# _framework density 17.006249
#
# number of rings (size 3 to 8) (size 9 to 14) (size 15 to 20)
#    0.000    2.000    1.429    2.571    0.000    6.571 
#    0.000    1.429    0.000    0.000    0.000    0.000 
#    0.000    0.571    0.000    1.857    0.000    2.714 
#
# Total GULP energy -694535.669557 kJ/mol
# GULP energy per Si atom -12402.422671 kJ/mol
# Density = 1.696754 g / cm^3
# Si number density = 17.006249 Si / 1000 Ang^3
#
#
#
# Elastic Constant Matrix: (Units=GPa)
#
#
# Indices 1 2 3 4 5 6 
#
# 1 89.8277 38.1896 59.9410 0.0000 0.0000 0.0000
# 2 38.1896 84.0259 47.7915 0.0000 0.0000 0.0000
# 3 59.9410 47.7915 128.0346 0.0000 0.0000 0.0000
# 4 0.0000 0.0000 0.0000 13.1398 0.0000 0.0000
# 5 0.0000 0.0000 0.0000 0.0000 32.1525 0.0000
# 6 0.0000 0.0000 0.0000 0.0000 0.0000 23.7293
#
#
#
# Elastic Compliance Matrix: (Units=1/GPa)
#
#
# Indices 1 2 3 4 5 6 
#
# 1 0.017245 -0.004121 -0.006535 0.000000 0.000000 0.000000
# 2 -0.004121 0.016093 -0.004078 0.000000 0.000000 0.000000
# 3 -0.006535 -0.004078 0.012392 0.000000 0.000000 0.000000
# 4 0.000000 0.000000 0.000000 0.076105 0.000000 0.000000
# 5 0.000000 0.000000 0.000000 0.000000 0.031102 0.000000
# 6 0.000000 0.000000 0.000000 0.000000 0.000000 0.042142
#
#
# Mechanical properties :
#
#
# Convention : Reuss Voigt Hill
#
# Bulk Modulus (GPa) = 61.49106 65.97029 63.73067
# Shear Modulus (GPa) = 21.74206 24.20204 22.97205
#
# Velocity S-wave (km/s) = 3.57946 3.77653 3.67931
# Velocity P-wave (km/s) = 7.30204 7.60869 7.45694
#
# Compressibility (1/GPa) = 0.01626253
#
# Stress axis : x y z
#
# Youngs Moduli (GPa) = 57.98640 62.13712 80.69563
#
# Poissons Ratio (x) = 0.25606 0.52738
# Poissons Ratio (y) = 0.23895 0.32908
# Poissons Ratio (z) = 0.37897 0.25339
#
# Static dielectric constant tensor:
#      x y z
#    x 3.276340 0.000000 0.000000 
#    y 0.000000 3.166250 0.000000 
#    z 0.000000 0.000000 3.184870 
# 
# 
# High freq. dielectric constant tensor:
#      x y z
#    x 1.670140 0.000000 0.000000 
#    y 0.000000 1.633740 0.000000 
#    z 0.000000 0.000000 1.646330 
# 
# From -- ./inp_files/31971.got.cif
#   From: 2010.03.12/outbox.cif.g09.slc.cpg/sg51_16_cif.got.tgz:31971.got - 2010.04.16 13:43:02.
