data_PCOD8211083
_publ_section_title
;
Structure prediction by ZEFSAII (Michael W. Deem and Ramdas Pophale) SiO2 
 PCOD8211083
Probable space group: P M M A
;
_chemical_formula_sum "Si O2"
_cell_formula_units_Z 48
_cell_length_a 8.821786
_cell_length_b 30.652327
_cell_length_c 9.644327
_cell_angle_alpha 90.000000
_cell_angle_beta 90.000000
_cell_angle_gamma 90.000000
_cell_volume 2607.905772
_symmetry_space_group_name_H-M "P M M A"
_symmetry_group_IT_number 51
_symmetry_cell_setting 'orthorhombic'
loop_
_space_group_symop_operation_xyz
x,y,z
1/2-x,-y,z
1/2+x,-y,-z
-x,y,-z
-x,-y,-z
1/2+x,y,-z
1/2-x,y,z
x,-y,z
loop_
_atom_site_type_symbol
_atom_site_label
_atom_site_fract_x
_atom_site_fract_y
_atom_site_fract_z
Si Si1 0.928289 0.548547 0.853689
Si Si2 0.572257 0.380699 0.642146
Si Si3 0.427592 0.952776 0.349690
Si Si4 0.429130 0.281014 0.353043
Si Si5 0.571687 0.133117 0.348628
Si Si6 0.070708 0.212948 0.848575
O O1 0.750000 0.553151 0.868837
O O2 0.972286 0.500000 0.799758
O O3 0.994838 0.585763 0.753964
O O4 0.000000 0.558188 0.000000
O O5 0.500000 0.395661 0.500000
O O6 0.750000 0.385824 0.628058
O O7 0.528331 0.331100 0.679018
O O8 0.500000 0.955349 0.500000
O O9 0.250000 0.943378 0.362382
O O10 0.507591 0.911440 0.276315
O O11 0.456226 0.000000 0.274636
O O12 0.500000 0.265985 0.500000
O O13 0.250000 0.272937 0.360289
O O14 0.500953 0.254970 0.225920
O O15 0.500000 0.141807 0.500000
O O16 0.750000 0.129200 0.368046
O O17 0.526342 0.171428 0.244411
O O18 0.250000 0.218711 0.862451
O O19 0.000000 0.207200 0.000000
#
# Coordination Sequence:
#
# PCOD8211083 Si02
#       6
#     8   8   8   8   8   8
#     4   9  18  33  51  72 101 136 173 212 253 299
#     4   9  19  34  52  77 105 133 167 208 254 303
#     4   9  16  26  44  72 103 133 166 206 250 295
#     4  10  20  36  57  79 105 136 171 212 258 310
#     4  10  20  33  52  77 103 134 170 208 253 303
#     4  11  24  39  55  77 104 136 174 215 261 310
#
# _framework density 18.405571999999999
#
# number of rings (size 3 to 8) (size 9 to 14) (size 15 to 20)
#    0.000    2.333    0.000    3.500    0.000    7.333 
#    0.000    1.667    0.000    0.500    0.000    0.000 
#    0.000    0.000    0.000    0.000    0.000    0.000 
#
# Total GULP energy -594992.633981 kJ/mol
# GULP energy per Si atom -12395.679875 kJ/mol
# Density = 1.836368 g / cm^3
# Si number density = 18.405572 Si / 1000 Ang^3
#
#
#
# Elastic Constant Matrix: (Units=GPa)
#
#
# Indices 1 2 3 4 5 6 
#
# 1 68.9291 52.4737 49.8472 0.0000 0.0000 0.0000
# 2 52.4737 145.5691 89.0512 0.0000 0.0000 0.0000
# 3 49.8472 89.0512 114.8187 0.0000 0.0000 0.0000
# 4 0.0000 0.0000 0.0000 11.7493 0.0000 0.0000
# 5 0.0000 0.0000 0.0000 0.0000 30.4187 0.0000
# 6 0.0000 0.0000 0.0000 0.0000 0.0000 29.7050
#
#
#
# Elastic Compliance Matrix: (Units=1/GPa)
#
#
# Indices 1 2 3 4 5 6 
#
# 1 0.022324 -0.004031 -0.006566 0.000000 0.000000 0.000000
# 2 -0.004031 0.013799 -0.008953 0.000000 0.000000 0.000000
# 3 -0.006566 -0.008953 0.018503 0.000000 0.000000 0.000000
# 4 0.000000 0.000000 0.000000 0.085111 0.000000 0.000000
# 5 0.000000 0.000000 0.000000 0.000000 0.032875 0.000000
# 6 0.000000 0.000000 0.000000 0.000000 0.000000 0.033664
#
#
# Mechanical properties :
#
#
# Convention : Reuss Voigt Hill
#
# Bulk Modulus (GPa) = 64.39643 79.11791 71.75717
# Shear Modulus (GPa) = 19.95602 23.57092 21.76347
#
# Velocity S-wave (km/s) = 3.29635 3.58249 3.44239
# Velocity P-wave (km/s) = 7.03927 7.75831 7.40752
#
# Compressibility (1/GPa) = 0.01552881
#
# Stress axis : x y z
#
# Youngs Moduli (GPa) = 44.79446 72.46772 54.04481
#
# Poissons Ratio (x) = 0.29210 0.35484
# Poissons Ratio (y) = 0.18056 0.48384
# Poissons Ratio (z) = 0.29410 0.64877
#
# Static dielectric constant tensor:
#      x y z
#    x 3.451380 0.000000 0.000000 
#    y 0.000000 4.043110 0.000000 
#    z 0.000000 0.000000 3.204300 
# 
# 
# High freq. dielectric constant tensor:
#      x y z
#    x 1.722830 0.000000 0.000000 
#    y 0.000000 1.735250 0.000000 
#    z 0.000000 0.000000 1.683290 
# 
# From -- ./inp_files/6006.got.cif
#   From: 2010.03.12/outbox.cif.g09.slc.cpg/sg51_4_cif.got.tgz:6006.got - 2010.04.16 13:43:02.
