data_PCOD8211543
_publ_section_title
;
Structure prediction by ZEFSAII (Michael W. Deem and Ramdas Pophale) SiO2 
 PCOD8211543
Probable space group: P M M A
;
_chemical_formula_sum "Si O2"
_cell_formula_units_Z 56
_cell_length_a 9.271245
_cell_length_b 22.619700
_cell_length_c 14.176372
_cell_angle_alpha 90.000000
_cell_angle_beta 90.000000
_cell_angle_gamma 90.000000
_cell_volume 2972.966390
_symmetry_space_group_name_H-M "P M M A"
_symmetry_group_IT_number 51
_symmetry_cell_setting 'orthorhombic'
loop_
_space_group_symop_operation_xyz
x,y,z
1/2-x,-y,z
1/2+x,-y,-z
-x,y,-z
-x,-y,-z
1/2+x,y,-z
1/2-x,y,z
x,-y,z
loop_
_atom_site_type_symbol
_atom_site_label
_atom_site_fract_x
_atom_site_fract_y
_atom_site_fract_z
Si Si1 0.082380 0.932360 0.095708
Si Si2 0.415238 0.871420 0.595454
Si Si3 0.917777 0.567466 0.591159
Si Si4 0.414529 0.000000 0.593894
Si Si5 0.918180 0.382945 0.790697
Si Si6 0.420284 0.282912 0.900428
Si Si7 0.416956 0.837316 0.793775
Si Si8 0.416777 0.500000 0.096552
O O1 0.250000 0.918650 0.079644
O O2 0.019457 0.890473 0.175502
O O3 0.057061 0.000000 0.127214
O O4 0.000000 0.917679 0.000000
O O5 0.500000 0.855524 0.500000
O O6 0.250000 0.867756 0.564378
O O7 0.451755 0.936754 0.642023
O O8 0.447871 0.826327 0.681741
O O9 0.750000 0.569825 0.568385
O O10 0.965727 0.500000 0.612528
O O11 0.954954 0.608285 0.680610
O O12 0.000000 0.592948 0.500000
O O13 0.500000 0.000000 0.500000
O O14 0.250000 0.000000 0.565132
O O15 0.750000 0.366861 0.805332
O O16 0.959231 0.442840 0.843940
O O17 0.019659 0.331969 0.830016
O O18 0.250000 0.292287 0.915613
O O19 0.455992 0.220437 0.853012
O O20 0.500000 0.287339 0.000000
O O21 0.250000 0.855459 0.808336
O O22 0.250000 0.500000 0.071341
O O23 0.500000 0.500000 0.000000
#
# Coordination Sequence:
#
# PCOD8211543 Si02
#       8
#     8   8   8   4   8   8   8   4
#     4  10  21  36  55  82 112 141 178 228 283 339
#     4   9  18  33  53  79 108 142 180 224 275 328
#     4   9  17  32  55  84 118 153 188 229 277 330
#     4   8  14  26  46  72 101 132 167 208 261 320
#     4  10  20  37  59  83 114 151 187 231 282 335
#     4  11  24  41  59  82 111 147 192 238 280 335
#     4  10  22  38  58  81 109 147 189 232 279 333
#     4  10  20  34  53  80 112 142 179 228 283 336
#
# _framework density 18.836404000000002
#
# number of rings (size 3 to 8) (size 9 to 14) (size 15 to 20)
#    0.000    2.286    0.714    1.714    1.000    6.000 
#    0.000    0.714    0.000    3.429    0.000    0.000 
#    0.000    0.000    0.000    0.000    0.000    0.000 
#
# Total GULP energy -694104.441118 kJ/mol
# GULP energy per Si atom -12394.722163 kJ/mol
# Density = 1.879353 g / cm^3
# Si number density = 18.836404 Si / 1000 Ang^3
#
#
#
# Elastic Constant Matrix: (Units=GPa)
#
#
# Indices 1 2 3 4 5 6 
#
# 1 82.1049 53.8027 66.4851 0.0000 0.0000 0.0000
# 2 53.8027 77.5207 58.0976 0.0000 0.0000 0.0000
# 3 66.4851 58.0976 142.9082 0.0000 0.0000 0.0000
# 4 0.0000 0.0000 0.0000 27.6219 0.0000 0.0000
# 5 0.0000 0.0000 0.0000 0.0000 35.1072 0.0000
# 6 0.0000 0.0000 0.0000 0.0000 0.0000 25.3134
#
#
#
# Elastic Compliance Matrix: (Units=1/GPa)
#
#
# Indices 1 2 3 4 5 6 
#
# 1 0.026403 -0.013115 -0.006952 0.000000 0.000000 0.000000
# 2 -0.013115 0.025067 -0.004089 0.000000 0.000000 0.000000
# 3 -0.006952 -0.004089 0.011894 0.000000 0.000000 0.000000
# 4 0.000000 0.000000 0.000000 0.036203 0.000000 0.000000
# 5 0.000000 0.000000 0.000000 0.000000 0.028484 0.000000
# 6 0.000000 0.000000 0.000000 0.000000 0.000000 0.039505
#
#
# Mechanical properties :
#
#
# Convention : Reuss Voigt Hill
#
# Bulk Modulus (GPa) = 66.43558 73.25608 69.84583
# Shear Modulus (GPa) = 22.63635 25.88508 24.26071
#
# Velocity S-wave (km/s) = 3.47036 3.71105 3.59272
# Velocity P-wave (km/s) = 7.16968 7.57216 7.37367
#
# Compressibility (1/GPa) = 0.01505218
#
# Stress axis : x y z
#
# Youngs Moduli (GPa) = 37.87496 39.89382 84.07581
#
# Poissons Ratio (x) = 0.52319 0.58447
# Poissons Ratio (y) = 0.49672 0.34380
# Poissons Ratio (z) = 0.26329 0.16313
#
# Static dielectric constant tensor:
#      x y z
#    x 3.439040 0.000000 0.000000 
#    y 0.000000 3.286080 0.000000 
#    z 0.000000 0.000000 3.401250 
# 
# 
# High freq. dielectric constant tensor:
#      x y z
#    x 1.731550 0.000000 0.000000 
#    y 0.000000 1.717940 0.000000 
#    z 0.000000 0.000000 1.737970 
# 
# From -- ./inp_files/21945.got.cif
#   From: 2010.03.12/outbox.cif.g09.slc.cpg/sg51_11_cif.got.tgz:21945.got - 2010.04.16 13:43:02.
