data_PCOD8211805
_publ_section_title
;
Structure prediction by ZEFSAII (Michael W. Deem and Ramdas Pophale) SiO2 
 PCOD8211805
Probable space group: P M M A
;
_chemical_formula_sum "Si O2"
_cell_formula_units_Z 64
_cell_length_a 24.552007
_cell_length_b 13.533394
_cell_length_c 9.648451
_cell_angle_alpha 90.000000
_cell_angle_beta 90.000000
_cell_angle_gamma 90.000000
_cell_volume 3205.909958
_symmetry_space_group_name_H-M "P M M A"
_symmetry_group_IT_number 51
_symmetry_cell_setting 'orthorhombic'
loop_
_space_group_symop_operation_xyz
x,y,z
1/2-x,-y,z
1/2+x,-y,-z
-x,y,-z
-x,-y,-z
1/2+x,y,-z
1/2-x,y,z
x,-y,z
loop_
_atom_site_type_symbol
_atom_site_label
_atom_site_fract_x
_atom_site_fract_y
_atom_site_fract_z
Si Si1 0.355674 0.110574 0.324694
Si Si2 0.686441 0.609151 0.015120
Si Si3 0.981777 0.113277 0.648956
Si Si4 0.619497 0.611930 0.284118
Si Si5 0.811691 0.893256 0.223764
Si Si6 0.186152 0.749140 0.545628
Si Si7 0.641308 0.194203 0.968098
Si Si8 0.538363 0.751212 0.123836
O O1 0.417678 0.122744 0.364044
O O2 0.320904 0.197046 0.397947
O O3 0.351726 0.123012 0.160624
O O4 0.334077 0.000000 0.362922
O O5 0.750000 0.630426 0.004195
O O6 0.672151 0.500000 0.956066
O O7 0.669115 0.616749 0.175389
O O8 0.653164 0.690972 0.927032
O O9 0.000000 0.154334 0.500000
O O10 0.003946 0.179124 0.774591
O O11 0.000511 0.000000 0.673236
O O12 0.601213 0.500000 0.316097
O O13 0.645355 0.656445 0.427394
O O14 0.566813 0.666562 0.217539
O O15 0.750000 0.908893 0.268122
O O16 0.838325 0.825481 0.341024
O O17 0.841653 0.000000 0.220099
O O18 0.813099 0.839910 0.076346
O O19 0.250000 0.719984 0.563604
O O20 0.583130 0.182424 0.043853
O O21 0.500000 0.706606 0.000000
#
# Coordination Sequence:
#
# PCOD8211805 Si02
#       8
#     8   8   8   8   8   8   8   8
#     4  11  24  40  57  84 123 163 198 241 298 360
#     4   9  17  32  57  86 114 146 191 245 296 349
#     4  10  22  38  59  85 116 161 209 251 301 357
#     4  10  21  38  63  92 118 150 198 252 309 364
#     4  10  20  34  55  83 114 151 196 241 291 355
#     4  11  22  39  61  87 118 156 198 247 304 363
#     4  11  21  36  57  86 120 160 201 246 301 358
#     4  11  21  38  61  91 122 161 203 261 306 362
#
# _framework density 19.963132000000002
#
# number of rings (size 3 to 8) (size 9 to 14) (size 15 to 20)
#    0.000    1.625    3.750    2.250    0.000    4.000 
#    0.000    0.625    0.000    3.375    0.000    0.000 
#    0.000    0.000    0.000    0.000    0.000    0.000 
#
# Total GULP energy -793198.951503 kJ/mol
# GULP energy per Si atom -12393.733617 kJ/mol
# Density = 1.991769 g / cm^3
# Si number density = 19.963132 Si / 1000 Ang^3
#
#
#
# Elastic Constant Matrix: (Units=GPa)
#
#
# Indices 1 2 3 4 5 6 
#
# 1 52.6898 22.1659 10.1511 0.0000 0.0000 0.0000
# 2 22.1659 96.5031 19.4485 0.0000 0.0000 0.0000
# 3 10.1511 19.4485 73.1898 0.0000 0.0000 0.0000
# 4 0.0000 0.0000 0.0000 14.9182 0.0000 0.0000
# 5 0.0000 0.0000 0.0000 0.0000 26.9303 0.0000
# 6 0.0000 0.0000 0.0000 0.0000 0.0000 9.0677
#
#
#
# Elastic Compliance Matrix: (Units=1/GPa)
#
#
# Indices 1 2 3 4 5 6 
#
# 1 0.021217 -0.004522 -0.001741 0.000000 0.000000 0.000000
# 2 -0.004522 0.011913 -0.002538 0.000000 0.000000 0.000000
# 3 -0.001741 -0.002538 0.014579 0.000000 0.000000 0.000000
# 4 0.000000 0.000000 0.000000 0.067032 0.000000 0.000000
# 5 0.000000 0.000000 0.000000 0.000000 0.037133 0.000000
# 6 0.000000 0.000000 0.000000 0.000000 0.000000 0.110281
#
#
# Mechanical properties :
#
#
# Convention : Reuss Voigt Hill
#
# Bulk Modulus (GPa) = 33.21678 36.21264 34.71471
# Shear Modulus (GPa) = 17.25367 21.55773 19.40570
#
# Velocity S-wave (km/s) = 2.94305 3.28971 3.12120
# Velocity P-wave (km/s) = 5.31262 5.71041 5.51510
#
# Compressibility (1/GPa) = 0.03010526
#
# Stress axis : x y z
#
# Youngs Moduli (GPa) = 47.13210 83.94421 68.59156
#
# Poissons Ratio (x) = 0.37964 0.11942
# Poissons Ratio (y) = 0.21315 0.17410
# Poissons Ratio (z) = 0.08206 0.21307
#
# Static dielectric constant tensor:
#      x y z
#    x 3.532050 0.000000 0.000000 
#    y 0.000000 3.987740 0.000000 
#    z 0.000000 0.000000 3.459660 
# 
# 
# High freq. dielectric constant tensor:
#      x y z
#    x 1.773680 0.000000 0.000000 
#    y 0.000000 1.776270 0.000000 
#    z 0.000000 0.000000 1.761380 
# 
# From -- ./inp_files/11894.got.cif
#   From: 2010.03.12/outbox.cif.g09.slc.cpg/sg51_6_cif.got.tgz:11894.got - 2010.04.16 13:43:02.
