data_PCOD8211957
_publ_section_title
;
Structure prediction by ZEFSAII (Michael W. Deem and Ramdas Pophale) SiO2 
 PCOD8211957
Probable space group: P M M A
;
_chemical_formula_sum "Si O2"
_cell_formula_units_Z 48
_cell_length_a 14.748461
_cell_length_b 15.542232
_cell_length_c 10.621666
_cell_angle_alpha 90.000000
_cell_angle_beta 90.000000
_cell_angle_gamma 90.000000
_cell_volume 2434.740794
_symmetry_space_group_name_H-M "P M M A"
_symmetry_group_IT_number 51
_symmetry_cell_setting 'orthorhombic'
loop_
_space_group_symop_operation_xyz
x,y,z
1/2-x,-y,z
1/2+x,-y,-z
-x,y,-z
-x,-y,-z
1/2+x,y,-z
1/2-x,y,z
x,-y,z
loop_
_atom_site_type_symbol
_atom_site_label
_atom_site_fract_x
_atom_site_fract_y
_atom_site_fract_z
Si Si1 0.141959 0.000000 0.583148
Si Si2 0.141759 0.810816 0.231399
Si Si3 0.941052 0.595535 0.125418
Si Si4 0.143479 0.000000 0.304546
Si Si5 0.999526 0.696203 0.640587
Si Si6 0.352507 0.241576 0.965264
Si Si7 0.356910 0.827916 0.710296
O O1 0.106140 0.917303 0.657150
O O2 0.250000 0.000000 0.580484
O O3 0.099568 0.000000 0.443705
O O4 0.250000 0.797027 0.251161
O O5 0.088892 0.757055 0.338409
O O6 0.115071 0.912047 0.234199
O O7 0.098717 0.775264 0.098962
O O8 0.900967 0.500000 0.149091
O O9 0.997128 0.622959 0.250798
O O10 0.862210 0.663378 0.094251
O O11 0.000000 0.595010 0.000000
O O12 0.250000 0.000000 0.321929
O O13 0.091205 0.751613 0.641172
O O14 0.000000 0.654748 0.500000
O O15 0.250000 0.225434 0.001898
O O16 0.382202 0.173100 0.859038
O O17 0.250000 0.813989 0.687931
#
# Coordination Sequence:
#
# PCOD8211957 Si02
#       7
#     4   8   8   4   8   8   8
#     4   9  16  30  48  71 105 147 186 222 268 318
#     4  10  20  35  53  78 111 145 185 229 269 319
#     4  10  20  37  59  80 107 137 173 221 272 327
#     4   9  18  30  48  71 105 149 184 222 272 314
#     4  11  22  35  57  83 109 146 183 221 275 329
#     4   9  18  34  56  80 105 139 180 223 274 324
#     4   9  19  33  52  77 108 143 185 230 268 317
#
# _framework density 19.714625000000002
#
# number of rings (size 3 to 8) (size 9 to 14) (size 15 to 20)
#    0.000    2.333    1.667    1.000    0.000    4.000 
#    0.000    5.000    0.000    3.500    0.000    2.333 
#    0.000    0.000    0.000    0.000    0.000    0.000 
#
# Total GULP energy -594734.406743 kJ/mol
# GULP energy per Si atom -12390.300140 kJ/mol
# Density = 1.966975 g / cm^3
# Si number density = 19.714625 Si / 1000 Ang^3
#
#
#
# Elastic Constant Matrix: (Units=GPa)
#
#
# Indices 1 2 3 4 5 6 
#
# 1 29.8562 9.6952 23.6096 0.0000 0.0000 0.0000
# 2 9.6952 124.5286 63.4478 0.0000 0.0000 0.0000
# 3 23.6096 63.4478 156.0747 0.0000 0.0000 0.0000
# 4 0.0000 0.0000 0.0000 16.8268 0.0000 0.0000
# 5 0.0000 0.0000 0.0000 0.0000 22.6180 0.0000
# 6 0.0000 0.0000 0.0000 0.0000 0.0000 18.1758
#
#
#
# Elastic Compliance Matrix: (Units=1/GPa)
#
#
# Indices 1 2 3 4 5 6 
#
# 1 0.038045 -0.000038 -0.005740 0.000000 0.000000 0.000000
# 2 -0.000038 0.010128 -0.004112 0.000000 0.000000 0.000000
# 3 -0.005740 -0.004112 0.008947 0.000000 0.000000 0.000000
# 4 0.000000 0.000000 0.000000 0.059429 0.000000 0.000000
# 5 0.000000 0.000000 0.000000 0.000000 0.044213 0.000000
# 6 0.000000 0.000000 0.000000 0.000000 0.000000 0.055018
#
#
# Mechanical properties :
#
#
# Convention : Reuss Voigt Hill
#
# Bulk Modulus (GPa) = 26.77945 55.99609 41.38777
# Shear Modulus (GPa) = 20.16086 25.77124 22.96605
#
# Velocity S-wave (km/s) = 3.20134 3.61946 3.41680
# Velocity P-wave (km/s) = 5.22281 6.77734 6.05021
#
# Compressibility (1/GPa) = 0.03734206
#
# Stress axis : x y z
#
# Youngs Moduli (GPa) = 26.28462 98.73528 111.77022
#
# Poissons Ratio (x) = 0.00370 0.64155
# Poissons Ratio (y) = 0.00099 0.45956
# Poissons Ratio (z) = 0.15087 0.40596
#
# Static dielectric constant tensor:
#      x y z
#    x 3.360310 0.000000 0.000000 
#    y 0.000000 3.763870 0.000000 
#    z 0.000000 0.000000 3.858750 
# 
# 
# High freq. dielectric constant tensor:
#      x y z
#    x 1.753650 0.000000 0.000000 
#    y 0.000000 1.750800 0.000000 
#    z 0.000000 0.000000 1.781780 
# 
# From -- ./inp_files/16513.got.cif
#   From: 2010.03.12/outbox.cif.g09.slc.cpg/sg51_9_cif.got.tgz:16513.got - 2010.04.16 13:43:02.
