data_PCOD8211469
_publ_section_title
;
Structure prediction by ZEFSAII (Michael W. Deem and Ramdas Pophale) SiO2 
 PCOD8211469
Probable space group: P M M A
;
_chemical_formula_sum "Si O2"
_cell_formula_units_Z 56
_cell_length_a 20.860763
_cell_length_b 9.674807
_cell_length_c 15.119211
_cell_angle_alpha 90.000000
_cell_angle_beta 90.000000
_cell_angle_gamma 90.000000
_cell_volume 3051.417462
_symmetry_space_group_name_H-M "P M M A"
_symmetry_group_IT_number 51
_symmetry_cell_setting 'orthorhombic'
loop_
_space_group_symop_operation_xyz
x,y,z
1/2-x,-y,z
1/2+x,-y,-z
-x,y,-z
-x,-y,-z
1/2+x,y,-z
1/2-x,y,z
x,-y,z
loop_
_atom_site_type_symbol
_atom_site_label
_atom_site_fract_x
_atom_site_fract_y
_atom_site_fract_z
Si Si1 0.565067 0.343051 0.548785
Si Si2 0.681049 0.660129 0.954033
Si Si3 0.957471 0.664516 0.916576
Si Si4 0.614741 0.842267 0.294437
Si Si5 0.178371 0.651891 0.839418
Si Si6 0.322610 0.841922 0.523814
Si Si7 0.998813 0.656811 0.277080
O O1 0.500000 0.290582 0.500000
O O2 0.578745 0.500000 0.517495
O O3 0.626525 0.251199 0.527107
O O4 0.558774 0.336316 0.655732
O O5 0.750000 0.724927 0.920299
O O6 0.682483 0.500000 0.928639
O O7 0.615339 0.727073 0.916460
O O8 0.677530 0.681622 0.057914
O O9 0.953521 0.500000 0.924521
O O10 0.986286 0.709970 0.822235
O O11 0.000000 0.720642 0.000000
O O12 0.638902 0.773513 0.204642
O O13 0.667486 0.829771 0.370903
O O14 0.552312 0.757380 0.323308
O O15 0.596409 0.000000 0.274569
O O16 0.250000 0.653554 0.801685
O O17 0.147609 0.500000 0.820302
O O18 0.250000 0.793440 0.502435
O O19 0.333067 0.000000 0.493568
O O20 0.972597 0.500000 0.272986
#
# Coordination Sequence:
#
# PCOD8211469 Si02
#       7
#     8   8   8   8   8   8   8
#     4  10  20  36  56  79 108 140 174 216 265 315
#     4   8  14  26  45  70  98 129 169 215 261 309
#     4   9  16  27  47  75 104 134 169 214 261 302
#     4  11  21  32  49  74 105 137 172 215 264 315
#     4   9  17  29  47  71  99 133 171 210 258 317
#     4  10  22  38  55  77 106 140 179 222 266 315
#     4  10  20  34  53  77 104 135 175 216 262 319
#
# _framework density 18.352125999999998
#
# number of rings (size 3 to 8) (size 9 to 14) (size 15 to 20)
#    0.000    2.429    1.429    2.571    0.000    4.857 
#    0.000    0.714    0.000    6.429    0.000    0.000 
#    0.000    0.000    0.000    0.000    0.000    0.000 
#
# Total GULP energy -693847.939854 kJ/mol
# GULP energy per Si atom -12390.141783 kJ/mol
# Density = 1.831036 g / cm^3
# Si number density = 18.352126 Si / 1000 Ang^3
#
#
#
# Elastic Constant Matrix: (Units=GPa)
#
#
# Indices 1 2 3 4 5 6 
#
# 1 136.8643 46.0467 38.0589 0.0000 0.0000 0.0000
# 2 46.0467 74.8736 28.5516 0.0000 0.0000 0.0000
# 3 38.0589 28.5516 72.9657 0.0000 0.0000 0.0000
# 4 0.0000 0.0000 0.0000 11.6271 0.0000 0.0000
# 5 0.0000 0.0000 0.0000 0.0000 39.4127 0.0000
# 6 0.0000 0.0000 0.0000 0.0000 0.0000 20.6133
#
#
#
# Elastic Compliance Matrix: (Units=1/GPa)
#
#
# Indices 1 2 3 4 5 6 
#
# 1 0.009825 -0.004805 -0.003245 0.000000 0.000000 0.000000
# 2 -0.004805 0.018048 -0.004556 0.000000 0.000000 0.000000
# 3 -0.003245 -0.004556 0.017180 0.000000 0.000000 0.000000
# 4 0.000000 0.000000 0.000000 0.086006 0.000000 0.000000
# 5 0.000000 0.000000 0.000000 0.000000 0.025373 0.000000
# 6 0.000000 0.000000 0.000000 0.000000 0.000000 0.048512
#
#
# Mechanical properties :
#
#
# Convention : Reuss Voigt Hill
#
# Bulk Modulus (GPa) = 50.39726 56.66865 53.53296
# Shear Modulus (GPa) = 21.11751 25.80041 23.45896
#
# Velocity S-wave (km/s) = 3.39585 3.75354 3.57917
# Velocity P-wave (km/s) = 6.54955 7.05202 6.80542
#
# Compressibility (1/GPa) = 0.01984235
#
# Stress axis : x y z
#
# Youngs Moduli (GPa) = 101.77635 55.40666 58.20652
#
# Poissons Ratio (x) = 0.26625 0.18886
# Poissons Ratio (y) = 0.48907 0.26518
# Poissons Ratio (z) = 0.33023 0.25243
#
# Static dielectric constant tensor:
#      x y z
#    x 3.663080 0.000000 0.000000 
#    y 0.000000 3.069650 0.000000 
#    z 0.000000 0.000000 3.264970 
# 
# 
# High freq. dielectric constant tensor:
#      x y z
#    x 1.718670 0.000000 0.000000 
#    y 0.000000 1.670180 0.000000 
#    z 0.000000 0.000000 1.699480 
# 
# From -- ./inp_files/25758.got.cif
#   From: 2010.03.12/outbox.cif.g09.slc.cpg/sg51_13_cif.got.tgz:25758.got - 2010.04.16 13:43:02.
