data_PCOD8211262
_publ_section_title
;
Structure prediction by ZEFSAII (Michael W. Deem and Ramdas Pophale) SiO2 
 PCOD8211262
Probable space group: P M M A
;
_chemical_formula_sum "Si O2"
_cell_formula_units_Z 64
_cell_length_a 33.707364
_cell_length_b 9.400811
_cell_length_c 11.328264
_cell_angle_alpha 90.000000
_cell_angle_beta 90.000000
_cell_angle_gamma 90.000000
_cell_volume 3589.661308
_symmetry_space_group_name_H-M "P M M A"
_symmetry_group_IT_number 51
_symmetry_cell_setting 'orthorhombic'
loop_
_space_group_symop_operation_xyz
x,y,z
1/2-x,-y,z
1/2+x,-y,-z
-x,y,-z
-x,-y,-z
1/2+x,y,-z
1/2-x,y,z
x,-y,z
loop_
_atom_site_type_symbol
_atom_site_label
_atom_site_fract_x
_atom_site_fract_y
_atom_site_fract_z
Si Si1 0.930998 0.165223 0.533343
Si Si2 0.204779 0.165381 0.740133
Si Si3 0.635266 0.338860 0.643713
Si Si4 0.055579 0.167895 0.725134
Si Si5 0.205922 0.337245 0.512424
Si Si6 0.900175 0.667270 0.889468
Si Si7 0.529870 0.834098 0.777928
Si Si8 0.628236 0.167329 0.114111
O O1 0.889654 0.238793 0.559480
O O2 0.946506 0.228212 0.408744
O O3 0.961599 0.194758 0.639413
O O4 0.921913 0.000000 0.520731
O O5 0.250000 0.209136 0.778388
O O6 0.190809 0.245517 0.622590
O O7 0.172785 0.202538 0.841501
O O8 0.202875 0.000000 0.710233
O O9 0.621554 0.500000 0.620013
O O10 0.680591 0.312535 0.606095
O O11 0.629459 0.302272 0.780815
O O12 0.095335 0.219169 0.791012
O O13 0.015882 0.214269 0.796787
O O14 0.054905 0.000000 0.716657
O O15 0.250000 0.290504 0.476827
O O16 0.203852 0.500000 0.554255
O O17 0.906470 0.500000 0.913322
O O18 0.942828 0.738707 0.862758
O O19 0.878695 0.741242 0.998016
O O20 0.536938 0.000000 0.809780
O O21 0.623347 0.000000 0.086512
#
# Coordination Sequence:
#
# PCOD8211262 Si02
#       8
#     8   8   8   8   8   8   8   8
#     4   9  16  28  49  74  96 120 154 195 238 288
#     4   9  18  33  53  77 104 129 152 187 238 288
#     4   9  18  32  48  67  94 126 156 192 240 285
#     4   9  17  29  48  74  99 123 156 198 239 283
#     4   9  17  30  50  75 100 124 151 185 230 288
#     4  10  21  36  50  66  93 128 167 208 243 277
#     4   9  17  31  51  72  95 125 159 196 241 290
#     4  10  20  34  51  70  95 129 166 199 234 280
#
# _framework density 17.828979
#
# number of rings (size 3 to 8) (size 9 to 14) (size 15 to 20)
#    0.000    2.750    0.000    1.500    0.000    4.500 
#    0.000    5.000    0.000    3.750    0.000    0.000 
#    0.000    0.000    0.000    0.000    0.000    0.000 
#
# Total GULP energy -793316.277393 kJ/mol
# GULP energy per Si atom -12395.566834 kJ/mol
# Density = 1.778840 g / cm^3
# Si number density = 17.828979 Si / 1000 Ang^3
#
#
#
# Elastic Constant Matrix: (Units=GPa)
#
#
# Indices 1 2 3 4 5 6 
#
# 1 119.5112 40.3266 57.3439 0.0000 0.0000 0.0000
# 2 40.3266 47.0558 35.4005 0.0000 0.0000 0.0000
# 3 57.3439 35.4005 80.9478 0.0000 0.0000 0.0000
# 4 0.0000 0.0000 0.0000 23.7604 0.0000 0.0000
# 5 0.0000 0.0000 0.0000 0.0000 23.0313 0.0000
# 6 0.0000 0.0000 0.0000 0.0000 0.0000 14.7580
#
#
#
# Elastic Compliance Matrix: (Units=1/GPa)
#
#
# Indices 1 2 3 4 5 6 
#
# 1 0.013981 -0.006752 -0.006952 0.000000 0.000000 0.000000
# 2 -0.006752 0.034932 -0.010493 0.000000 0.000000 0.000000
# 3 -0.006952 -0.010493 0.021867 0.000000 0.000000 0.000000
# 4 0.000000 0.000000 0.000000 0.042087 0.000000 0.000000
# 5 0.000000 0.000000 0.000000 0.000000 0.043419 0.000000
# 6 0.000000 0.000000 0.000000 0.000000 0.000000 0.067760
#
#
# Mechanical properties :
#
#
# Convention : Reuss Voigt Hill
#
# Bulk Modulus (GPa) = 44.67001 57.07299 50.87150
# Shear Modulus (GPa) = 17.86332 19.93953 18.90142
#
# Velocity S-wave (km/s) = 3.16876 3.34784 3.25953
# Velocity P-wave (km/s) = 6.20461 6.85747 6.53919
#
# Compressibility (1/GPa) = 0.02238638
#
# Stress axis : x y z
#
# Youngs Moduli (GPa) = 71.52419 28.62683 45.73060
#
# Poissons Ratio (x) = 0.19329 0.31790
# Poissons Ratio (y) = 0.48295 0.47987
# Poissons Ratio (z) = 0.49720 0.30039
#
# Static dielectric constant tensor:
#      x y z
#    x 3.575570 0.000000 0.000000 
#    y 0.000000 3.197190 0.000000 
#    z 0.000000 0.000000 3.253570 
# 
# 
# High freq. dielectric constant tensor:
#      x y z
#    x 1.694520 0.000000 0.000000 
#    y 0.000000 1.673850 0.000000 
#    z 0.000000 0.000000 1.679600 
# 
# From -- ./inp_files/19607.got.cif
#   From: 2010.03.12/outbox.cif.g09.slc.cpg/sg51_10_cif.got.tgz:19607.got - 2010.04.16 13:43:02.
