data_PCOD8211603
_publ_section_title
;
Structure prediction by ZEFSAII (Michael W. Deem and Ramdas Pophale) SiO2 
 PCOD8211603
Probable space group: P M M A
;
_chemical_formula_sum "Si O2"
_cell_formula_units_Z 48
_cell_length_a 9.081360
_cell_length_b 9.557665
_cell_length_c 31.151234
_cell_angle_alpha 90.000000
_cell_angle_beta 90.000000
_cell_angle_gamma 90.000000
_cell_volume 2703.821092
_symmetry_space_group_name_H-M "P M M A"
_symmetry_group_IT_number 51
_symmetry_cell_setting 'orthorhombic'
loop_
_space_group_symop_operation_xyz
x,y,z
1/2-x,-y,z
1/2+x,-y,-z
-x,y,-z
-x,-y,-z
1/2+x,y,-z
1/2-x,y,z
x,-y,z
loop_
_atom_site_type_symbol
_atom_site_label
_atom_site_fract_x
_atom_site_fract_y
_atom_site_fract_z
Si Si1 0.921734 0.837156 0.712632
Si Si2 0.078052 0.661479 0.955549
Si Si3 0.916048 0.166216 0.202852
Si Si4 0.087301 0.333330 0.459763
Si Si5 0.574278 0.343850 0.633616
Si Si6 0.579126 0.834775 0.882361
O O1 0.750000 0.806696 0.720210
O O2 0.983644 0.759038 0.670590
O O3 0.008467 0.777429 0.753762
O O4 0.952353 0.000000 0.705603
O O5 0.250000 0.696335 0.959827
O O6 0.051858 0.500000 0.943141
O O7 0.007047 0.758510 0.919881
O O8 0.000000 0.698676 0.000000
O O9 0.750000 0.225218 0.199437
O O10 0.010603 0.218600 0.162407
O O11 0.915617 0.000000 0.203793
O O12 0.250000 0.269479 0.462971
O O13 0.092938 0.500000 0.462905
O O14 0.015897 0.293293 0.413360
O O15 0.000000 0.268413 0.500000
O O16 0.750000 0.343934 0.631579
O O17 0.516595 0.500000 0.643944
O O18 0.750000 0.792736 0.883319
O O19 0.557528 0.000000 0.888200
#
# Coordination Sequence:
#
# PCOD8211603 Si02
#       6
#     8   8   8   8   8   8
#     4   9  16  27  45  66  85 110 148 187 219 261
#     4  10  21  37  56  77 103 136 170 202 240 288
#     4   9  17  30  48  69  94 124 155 189 232 279
#     4   8  13  22  37  56  77 103 136 172 210 255
#     4   8  14  25  41  61  85 111 139 175 220 265
#     4  10  20  34  54  79 103 128 163 206 246 284
#
# _framework density 17.752654
#
# number of rings (size 3 to 8) (size 9 to 14) (size 15 to 20)
#    0.000    3.000    0.000    2.500    0.000    4.333 
#    0.000    1.667    0.000    5.000    0.000    0.000 
#    0.000    0.000    0.000    0.000    0.000    0.000 
#
# Total GULP energy -595004.351954 kJ/mol
# GULP energy per Si atom -12395.923999 kJ/mol
# Density = 1.771225 g / cm^3
# Si number density = 17.752654 Si / 1000 Ang^3
#
#
#
# Elastic Constant Matrix: (Units=GPa)
#
#
# Indices 1 2 3 4 5 6 
#
# 1 100.0641 31.8949 77.6329 0.0000 0.0000 0.0000
# 2 31.8949 37.7236 53.3951 0.0000 0.0000 0.0000
# 3 77.6329 53.3951 186.0661 0.0000 0.0000 0.0000
# 4 0.0000 0.0000 0.0000 30.5293 0.0000 0.0000
# 5 0.0000 0.0000 0.0000 0.0000 33.7535 0.0000
# 6 0.0000 0.0000 0.0000 0.0000 0.0000 16.1405
#
#
#
# Elastic Compliance Matrix: (Units=1/GPa)
#
#
# Indices 1 2 3 4 5 6 
#
# 1 0.015737 -0.006756 -0.004627 0.000000 0.000000 0.000000
# 2 -0.006756 0.047541 -0.010824 0.000000 0.000000 0.000000
# 3 -0.004627 -0.010824 0.010411 0.000000 0.000000 0.000000
# 4 0.000000 0.000000 0.000000 0.032755 0.000000 0.000000
# 5 0.000000 0.000000 0.000000 0.000000 0.029627 0.000000
# 6 0.000000 0.000000 0.000000 0.000000 0.000000 0.061956
#
#
# Mechanical properties :
#
#
# Convention : Reuss Voigt Hill
#
# Bulk Modulus (GPa) = 34.15865 72.18882 53.17373
# Shear Modulus (GPa) = 19.82550 26.81340 23.31945
#
# Velocity S-wave (km/s) = 3.34543 3.89059 3.62826
# Velocity P-wave (km/s) = 5.84856 7.80603 6.89710
#
# Compressibility (1/GPa) = 0.02927516
#
# Stress axis : x y z
#
# Youngs Moduli (GPa) = 63.54472 21.03430 96.04994
#
# Poissons Ratio (x) = 0.14210 0.44445
# Poissons Ratio (y) = 0.42930 1.03965
# Poissons Ratio (z) = 0.29404 0.22768
#
# Static dielectric constant tensor:
#      x y z
#    x 3.390580 0.000000 0.000000 
#    y 0.000000 2.964360 0.000000 
#    z 0.000000 0.000000 3.673040 
# 
# 
# High freq. dielectric constant tensor:
#      x y z
#    x 1.675490 0.000000 0.000000 
#    y 0.000000 1.642420 0.000000 
#    z 0.000000 0.000000 1.706250 
# 
# From -- ./inp_files/34539.got.cif
#   From: 2010.03.12/outbox.cif.g09.slc.cpg/sg51_18_cif.got.tgz:34539.got - 2010.04.16 13:43:02.
