data_PCOD8211748
_publ_section_title
;
Structure prediction by ZEFSAII (Michael W. Deem and Ramdas Pophale) SiO2 
 PCOD8211748
Probable space group: P M M A
;
_chemical_formula_sum "Si O2"
_cell_formula_units_Z 64
_cell_length_a 16.196911
_cell_length_b 8.630918
_cell_length_c 22.343356
_cell_angle_alpha 90.000000
_cell_angle_beta 90.000000
_cell_angle_gamma 90.000000
_cell_volume 3123.471816
_symmetry_space_group_name_H-M "P M M A"
_symmetry_group_IT_number 51
_symmetry_cell_setting 'orthorhombic'
loop_
_space_group_symop_operation_xyz
x,y,z
1/2-x,-y,z
1/2+x,-y,-z
-x,y,-z
-x,-y,-z
1/2+x,y,-z
1/2-x,y,z
x,-y,z
loop_
_atom_site_type_symbol
_atom_site_label
_atom_site_fract_x
_atom_site_fract_y
_atom_site_fract_z
Si Si1 0.845393 0.682835 0.641267
Si Si2 0.657068 0.184975 0.360242
Si Si3 0.155086 0.175490 0.772088
Si Si4 0.100886 0.678531 0.118215
Si Si5 0.345218 0.170086 0.236362
Si Si6 0.071168 0.819525 0.887666
Si Si7 0.342193 0.826581 0.003536
Si Si8 0.005050 0.818876 0.430365
O O1 0.750000 0.735539 0.626440
O O2 0.847608 0.500000 0.646680
O O3 0.880333 0.752768 0.703432
O O4 0.911075 0.736977 0.591715
O O5 0.750000 0.240287 0.381584
O O6 0.640098 0.252151 0.293182
O O7 0.581236 0.244960 0.401470
O O8 0.658738 0.000000 0.358765
O O9 0.250000 0.182563 0.789713
O O10 0.106530 0.259611 0.826599
O O11 0.122900 0.000000 0.767699
O O12 0.074573 0.500000 0.117387
O O13 0.144679 0.716084 0.180516
O O14 0.158456 0.717308 0.061882
O O15 0.024974 0.792926 0.111225
O O16 0.250000 0.144848 0.247304
O O17 0.386954 0.000000 0.225999
O O18 0.094673 0.000000 0.887739
O O19 0.106744 0.747854 0.949251
O O20 0.250000 0.838034 0.979454
O O21 0.375317 0.000000 0.019576
O O22 0.000000 0.782369 0.500000
O O23 0.014004 0.000000 0.416663
#
# Coordination Sequence:
#
# PCOD8211748 Si02
#       8
#     8   8   8   8   8   8   8   8
#     4  10  22  40  61  87 122 162 202 247 302 362
#     4   8  15  29  50  79 115 151 191 244 299 347
#     4   8  14  27  50  79 105 132 175 231 288 340
#     4  12  25  37  52  79 114 149 184 224 278 344
#     4  10  21  39  63  87 110 142 188 240 292 344
#     4  10  20  34  55  81 106 137 180 232 284 336
#     4  10  21  38  58  78 103 138 185 238 286 335
#     4  10  21  35  56  89 124 161 207 252 293 344
#
# _framework density 20.490020999999999
#
# number of rings (size 3 to 8) (size 9 to 14) (size 15 to 20)
#    0.000    2.250    0.000    3.750    1.750    7.500 
#    0.000    1.250    0.000    1.500    0.000    1.750 
#    0.000    0.000    0.000    0.000    0.000    0.000 
#
# Total GULP energy -793113.133564 kJ/mol
# GULP energy per Si atom -12392.392712 kJ/mol
# Density = 2.044338 g / cm^3
# Si number density = 20.490021 Si / 1000 Ang^3
#
#
#
# Elastic Constant Matrix: (Units=GPa)
#
#
# Indices 1 2 3 4 5 6 
#
# 1 103.1120 19.8511 55.7734 0.0000 0.0000 0.0000
# 2 19.8511 47.7643 33.5562 0.0000 0.0000 0.0000
# 3 55.7734 33.5562 131.7863 0.0000 0.0000 0.0000
# 4 0.0000 0.0000 0.0000 13.5069 0.0000 0.0000
# 5 0.0000 0.0000 0.0000 0.0000 55.0820 0.0000
# 6 0.0000 0.0000 0.0000 0.0000 0.0000 14.4263
#
#
#
# Elastic Compliance Matrix: (Units=1/GPa)
#
#
# Indices 1 2 3 4 5 6 
#
# 1 0.012707 -0.001831 -0.004912 0.000000 0.000000 0.000000
# 2 -0.001831 0.025761 -0.005785 0.000000 0.000000 0.000000
# 3 -0.004912 -0.005785 0.011140 0.000000 0.000000 0.000000
# 4 0.000000 0.000000 0.000000 0.074036 0.000000 0.000000
# 5 0.000000 0.000000 0.000000 0.000000 0.018155 0.000000
# 6 0.000000 0.000000 0.000000 0.000000 0.000000 0.069318
#
#
# Mechanical properties :
#
#
# Convention : Reuss Voigt Hill
#
# Bulk Modulus (GPa) = 40.72670 55.66932 48.19801
# Shear Modulus (GPa) = 20.46200 28.16851 24.31526
#
# Velocity S-wave (km/s) = 3.16354 3.71178 3.44857
# Velocity P-wave (km/s) = 5.76745 6.75260 6.27938
#
# Compressibility (1/GPa) = 0.02455392
#
# Stress axis : x y z
#
# Youngs Moduli (GPa) = 78.69420 38.81861 89.76902
#
# Poissons Ratio (x) = 0.07106 0.44093
# Poissons Ratio (y) = 0.14405 0.51928
# Poissons Ratio (z) = 0.38653 0.22455
#
# Static dielectric constant tensor:
#      x y z
#    x 3.714810 0.000000 0.000000 
#    y 0.000000 3.317940 0.000000 
#    z 0.000000 0.000000 3.877260 
# 
# 
# High freq. dielectric constant tensor:
#      x y z
#    x 1.805190 0.000000 0.000000 
#    y 0.000000 1.754930 0.000000 
#    z 0.000000 0.000000 1.809580 
# 
# From -- ./inp_files/35749.got.cif
#   From: 2010.03.12/outbox.cif.g09.slc.cpg/sg51_18_cif.got.tgz:35749.got - 2010.04.16 13:43:02.
