data_PCOD8211807
_publ_section_title
;
Structure prediction by ZEFSAII (Michael W. Deem and Ramdas Pophale) SiO2 
 PCOD8211807
Probable space group: P M M A
;
_chemical_formula_sum "Si O2"
_cell_formula_units_Z 40
_cell_length_a 9.151523
_cell_length_b 7.708344
_cell_length_c 28.996617
_cell_angle_alpha 90.000000
_cell_angle_beta 90.000000
_cell_angle_gamma 90.000000
_cell_volume 2045.510888
_symmetry_space_group_name_H-M "P M M A"
_symmetry_group_IT_number 51
_symmetry_cell_setting 'orthorhombic'
loop_
_space_group_symop_operation_xyz
x,y,z
1/2-x,-y,z
1/2+x,-y,-z
-x,y,-z
-x,-y,-z
1/2+x,y,-z
1/2-x,y,z
x,-y,z
loop_
_atom_site_type_symbol
_atom_site_label
_atom_site_fract_x
_atom_site_fract_y
_atom_site_fract_z
Si Si1 0.417378 0.806527 0.634960
Si Si2 0.919327 0.296862 0.545875
Si Si3 0.919302 0.699480 0.955657
Si Si4 0.919125 0.195578 0.855633
Si Si5 0.575880 0.500000 0.196784
Si Si6 0.577045 0.500000 0.300732
O O1 0.250000 0.759557 0.622200
O O2 0.513247 0.801871 0.589092
O O3 0.479390 0.671462 0.672629
O O4 0.428332 0.000000 0.656068
O O5 0.750000 0.248968 0.541443
O O6 0.945316 0.500000 0.553240
O O7 0.000000 0.230947 0.500000
O O8 0.750000 0.720590 0.965841
O O9 0.965181 0.500000 0.948554
O O10 0.965007 0.799845 0.909344
O O11 0.000000 0.780658 0.000000
O O12 0.750000 0.252481 0.850633
O O13 0.018306 0.325956 0.826904
O O14 0.944022 0.000000 0.837268
O O15 0.750000 0.500000 0.194334
O O16 0.514892 0.500000 0.249048
O O17 0.750000 0.500000 0.298194
#
# Coordination Sequence:
#
# PCOD8211807 Si02
#       6
#     8   8   8   8   4   4
#     4  10  20  36  60  85 110 145 186 227 276 333
#     4  10  20  34  55  83 115 152 189 227 272 323
#     4   9  17  31  52  79 112 149 189 232 279 335
#     4  10  21  39  61  84 115 156 196 233 282 347
#     4  11  23  39  62  89 116 147 188 245 300 343
#     4   9  20  39  60  83 112 145 182 231 288 341
#
# _framework density 19.555016999999999
#
# number of rings (size 3 to 8) (size 9 to 14) (size 15 to 20)
#    0.000    2.200    2.000    0.900    0.000    4.000 
#    0.000    4.000    0.000    0.000    0.000    0.000 
#    0.000    0.000    0.000    0.000    0.000    0.000 
#
# Total GULP energy -496053.300362 kJ/mol
# GULP energy per Si atom -12401.332509 kJ/mol
# Density = 1.951051 g / cm^3
# Si number density = 19.555017 Si / 1000 Ang^3
#
#
#
# Elastic Constant Matrix: (Units=GPa)
#
#
# Indices 1 2 3 4 5 6 
#
# 1 77.1259 42.4293 55.1871 0.0000 0.0000 0.0000
# 2 42.4293 112.6278 62.4566 0.0000 0.0000 0.0000
# 3 55.1871 62.4566 142.3580 0.0000 0.0000 0.0000
# 4 0.0000 0.0000 0.0000 1.9384 0.0000 0.0000
# 5 0.0000 0.0000 0.0000 0.0000 28.7428 0.0000
# 6 0.0000 0.0000 0.0000 0.0000 0.0000 18.2285
#
#
#
# Elastic Compliance Matrix: (Units=1/GPa)
#
#
# Indices 1 2 3 4 5 6 
#
# 1 0.019291 -0.004123 -0.005669 0.000000 0.000000 0.000000
# 2 -0.004123 0.012615 -0.003936 0.000000 0.000000 0.000000
# 3 -0.005669 -0.003936 0.010949 0.000000 0.000000 0.000000
# 4 0.000000 0.000000 0.000000 0.515883 0.000000 0.000000
# 5 0.000000 0.000000 0.000000 0.000000 0.034791 0.000000
# 6 0.000000 0.000000 0.000000 0.000000 0.000000 0.054859
#
#
# Mechanical properties :
#
#
# Convention : Reuss Voigt Hill
#
# Bulk Modulus (GPa) = 64.94594 72.47311 68.70953
# Shear Modulus (GPa) = 7.34238 21.25119 14.29678
#
# Velocity S-wave (km/s) = 1.93981 3.30015 2.70683
# Velocity P-wave (km/s) = 6.18879 7.18769 6.70686
#
# Compressibility (1/GPa) = 0.01539742
#
# Stress axis : x y z
#
# Youngs Moduli (GPa) = 51.83791 79.27157 91.33107
#
# Poissons Ratio (x) = 0.32687 0.51779
# Poissons Ratio (y) = 0.21375 0.35948
# Poissons Ratio (z) = 0.29389 0.31201
#
# Static dielectric constant tensor:
#      x y z
#    x 3.406430 0.000000 0.000000 
#    y 0.000000 3.567670 0.000000 
#    z 0.000000 0.000000 3.643360 
# 
# 
# High freq. dielectric constant tensor:
#      x y z
#    x 1.745170 0.000000 0.000000 
#    y 0.000000 1.765610 0.000000 
#    z 0.000000 0.000000 1.757520 
# 
# From -- ./inp_files/36040.got.cif
#   From: 2010.03.12/outbox.cif.g09.slc.cpg/sg51_19_cif.got.tgz:36040.got - 2010.04.16 13:43:02.
