data_PCOD8211615
_publ_section_title
;
Structure prediction by ZEFSAII (Michael W. Deem and Ramdas Pophale) SiO2 
 PCOD8211615
Probable space group: P M M A
;
_chemical_formula_sum "Si O2"
_cell_formula_units_Z 64
_cell_length_a 14.520615
_cell_length_b 8.902469
_cell_length_c 24.494251
_cell_angle_alpha 90.000000
_cell_angle_beta 90.000000
_cell_angle_gamma 90.000000
_cell_volume 3166.355291
_symmetry_space_group_name_H-M "P M M A"
_symmetry_group_IT_number 51
_symmetry_cell_setting 'orthorhombic'
loop_
_space_group_symop_operation_xyz
x,y,z
1/2-x,-y,z
1/2+x,-y,-z
-x,y,-z
-x,-y,-z
1/2+x,y,-z
1/2-x,y,z
x,-y,z
loop_
_atom_site_type_symbol
_atom_site_label
_atom_site_fract_x
_atom_site_fract_y
_atom_site_fract_z
Si Si1 0.538408 0.676433 0.263801
Si Si2 0.015958 0.325213 0.940691
Si Si3 0.856506 0.329428 0.461563
Si Si4 0.645438 0.324881 0.587635
Si Si5 0.355272 0.679141 0.844850
Si Si6 0.029954 0.175590 0.629138
Si Si7 0.149403 0.666315 0.133965
Si Si8 0.852684 0.826405 0.756983
O O1 0.550218 0.500000 0.267403
O O2 0.588508 0.737467 0.208709
O O3 0.581452 0.749065 0.318609
O O4 0.430968 0.721799 0.268386
O O5 0.037929 0.500000 0.949071
O O6 0.096373 0.259257 0.900711
O O7 0.919190 0.292075 0.913374
O O8 0.000000 0.247732 0.000000
O O9 0.750000 0.308737 0.446933
O O10 0.888047 0.500000 0.449543
O O11 0.874676 0.289429 0.524376
O O12 0.915753 0.217166 0.425413
O O13 0.750000 0.278233 0.602405
O O14 0.629739 0.500000 0.599444
O O15 0.576292 0.228784 0.624583
O O16 0.250000 0.738050 0.842515
O O17 0.358329 0.500000 0.844735
O O18 0.031132 0.000000 0.638096
O O19 0.250000 0.660257 0.106994
O O20 0.124191 0.500000 0.158970
O O21 0.145467 0.795386 0.178697
O O22 0.750000 0.785962 0.734204
O O23 0.876331 0.000000 0.746225
#
# Coordination Sequence:
#
# PCOD8211615 Si02
#       8
#     8   8   8   8   8   8   8   8
#     4  11  22  38  58  78 105 147 195 237 277 329
#     4   9  16  27  47  79 115 143 173 221 279 331
#     4   9  19  38  63  87 113 150 197 243 284 334
#     4   9  19  38  63  88 115 152 196 238 283 339
#     4   9  18  33  53  78 107 141 184 231 277 324
#     4  12  25  37  54  85 121 153 188 237 295 349
#     4   9  16  28  48  75 105 137 174 213 259 323
#     4  10  20  34  54  79 105 135 172 219 278 336
#
# _framework density 20.212513999999999
#
# number of rings (size 3 to 8) (size 9 to 14) (size 15 to 20)
#    0.000    2.250    1.250    3.000    0.000    4.750 
#    0.000    5.000    0.000    1.500    0.000    0.000 
#    0.000    0.000    0.000    0.000    0.000    0.000 
#
# Total GULP energy -793181.446689 kJ/mol
# GULP energy per Si atom -12393.460105 kJ/mol
# Density = 2.016651 g / cm^3
# Si number density = 20.212514 Si / 1000 Ang^3
#
#
#
# Elastic Constant Matrix: (Units=GPa)
#
#
# Indices 1 2 3 4 5 6 
#
# 1 98.1964 25.7404 45.0685 0.0000 0.0000 0.0000
# 2 25.7404 59.4945 31.5192 0.0000 0.0000 0.0000
# 3 45.0685 31.5192 108.8494 0.0000 0.0000 0.0000
# 4 0.0000 0.0000 0.0000 8.3795 0.0000 0.0000
# 5 0.0000 0.0000 0.0000 0.0000 16.8009 0.0000
# 6 0.0000 0.0000 0.0000 0.0000 0.0000 10.4457
#
#
#
# Elastic Compliance Matrix: (Units=1/GPa)
#
#
# Indices 1 2 3 4 5 6 
#
# 1 0.013099 -0.003300 -0.004468 0.000000 0.000000 0.000000
# 2 -0.003300 0.020686 -0.004623 0.000000 0.000000 0.000000
# 3 -0.004468 -0.004623 0.012376 0.000000 0.000000 0.000000
# 4 0.000000 0.000000 0.000000 0.119339 0.000000 0.000000
# 5 0.000000 0.000000 0.000000 0.000000 0.059521 0.000000
# 6 0.000000 0.000000 0.000000 0.000000 0.000000 0.095733
#
#
# Mechanical properties :
#
#
# Convention : Reuss Voigt Hill
#
# Bulk Modulus (GPa) = 46.77891 52.35518 49.56704
# Shear Modulus (GPa) = 14.17785 18.07270 16.12527
#
# Velocity S-wave (km/s) = 2.65134 2.99345 2.82758
# Velocity P-wave (km/s) = 5.70672 6.15681 5.93603
#
# Compressibility (1/GPa) = 0.02137716
#
# Stress axis : x y z
#
# Youngs Moduli (GPa) = 76.33880 48.34289 80.80304
#
# Poissons Ratio (x) = 0.15955 0.36104
# Poissons Ratio (y) = 0.25195 0.37358
# Poissons Ratio (z) = 0.34109 0.22351
#
# Static dielectric constant tensor:
#      x y z
#    x 3.877750 0.000000 0.000000 
#    y 0.000000 3.247970 0.000000 
#    z 0.000000 0.000000 3.803840 
# 
# 
# High freq. dielectric constant tensor:
#      x y z
#    x 1.794670 0.000000 0.000000 
#    y 0.000000 1.746160 0.000000 
#    z 0.000000 0.000000 1.793430 
# 
# From -- ./inp_files/35653.got.cif
#   From: 2010.03.12/outbox.cif.g09.slc.cpg/sg51_18_cif.got.tgz:35653.got - 2010.04.16 13:43:02.
