data_PCOD8211272
_publ_section_title
;
Structure prediction by ZEFSAII (Michael W. Deem and Ramdas Pophale) SiO2 
 PCOD8211272
Probable space group: P M M A
;
_chemical_formula_sum "Si O2"
_cell_formula_units_Z 64
_cell_length_a 19.383578
_cell_length_b 9.313488
_cell_length_c 20.074824
_cell_angle_alpha 90.000000
_cell_angle_beta 90.000000
_cell_angle_gamma 90.000000
_cell_volume 3624.082303
_symmetry_space_group_name_H-M "P M M A"
_symmetry_group_IT_number 51
_symmetry_cell_setting 'orthorhombic'
loop_
_space_group_symop_operation_xyz
x,y,z
1/2-x,-y,z
1/2+x,-y,-z
-x,y,-z
-x,-y,-z
1/2+x,y,-z
1/2-x,y,z
x,-y,z
loop_
_atom_site_type_symbol
_atom_site_label
_atom_site_fract_x
_atom_site_fract_y
_atom_site_fract_z
Si Si1 0.831263 0.156038 0.027532
Si Si2 0.048410 0.166400 0.599255
Si Si3 0.830019 0.829733 0.171715
Si Si4 0.600015 0.164880 0.541878
Si Si5 0.087235 0.667835 0.227643
Si Si6 0.671710 0.335947 0.646531
Si Si7 0.329016 0.828333 0.116864
Si Si8 0.432838 0.668455 0.732894
O O1 0.750000 0.132902 0.029150
O O2 0.851930 0.231169 0.097689
O O3 0.867174 0.000000 0.026759
O O4 0.849635 0.232977 0.957272
O O5 0.099412 0.196339 0.537064
O O6 0.070683 0.268362 0.658930
O O7 0.972113 0.207511 0.575645
O O8 0.052538 0.000000 0.621225
O O9 0.750000 0.797546 0.186307
O O10 0.873931 0.744329 0.225015
O O11 0.844451 0.000000 0.176374
O O12 0.659939 0.254635 0.577124
O O13 0.616180 0.000000 0.554962
O O14 0.103207 0.500000 0.217036
O O15 0.123379 0.725319 0.294870
O O16 0.117611 0.755988 0.166470
O O17 0.006234 0.699728 0.232736
O O18 0.750000 0.315014 0.669818
O O19 0.653050 0.500000 0.632895
O O20 0.250000 0.785361 0.134464
O O21 0.336870 0.000000 0.119107
O O22 0.418005 0.500000 0.728580
#
# Coordination Sequence:
#
# PCOD8211272 Si02
#       8
#     8   8   8   8   8   8   8   8
#     4   7  12  27  51  76 100 127 165 212 259 309
#     4   9  18  34  55  77 101 130 165 208 257 307
#     4   9  18  35  59  81 101 130 166 209 267 323
#     4   9  18  33  54  78 100 125 166 216 258 299
#     4  10  21  35  48  69 105 146 179 207 251 306
#     4  10  20  34  51  72 104 144 180 213 251 301
#     4   9  17  30  51  78 103 131 174 223 260 295
#     4  11  22  35  53  78 106 138 174 213 253 300
#
# _framework density 17.659642999999999
#
# number of rings (size 3 to 8) (size 9 to 14) (size 15 to 20)
#    0.000    2.750    1.250    3.000    0.000    3.250 
#    0.000    3.125    0.000    6.750    0.000    0.000 
#    0.000    0.000    0.000    0.000    0.000    0.000 
#
# Total GULP energy -793150.356982 kJ/mol
# GULP energy per Si atom -12392.974328 kJ/mol
# Density = 1.761945 g / cm^3
# Si number density = 17.659643 Si / 1000 Ang^3
#
#
#
# Elastic Constant Matrix: (Units=GPa)
#
#
# Indices 1 2 3 4 5 6 
#
# 1 71.1831 43.3806 57.8812 0.0000 0.0000 0.0000
# 2 43.3806 62.0137 63.5295 0.0000 0.0000 0.0000
# 3 57.8812 63.5295 145.6733 0.0000 0.0000 0.0000
# 4 0.0000 0.0000 0.0000 2.3575 0.0000 0.0000
# 5 0.0000 0.0000 0.0000 0.0000 27.4766 0.0000
# 6 0.0000 0.0000 0.0000 0.0000 0.0000 26.0136
#
#
#
# Elastic Compliance Matrix: (Units=1/GPa)
#
#
# Indices 1 2 3 4 5 6 
#
# 1 0.025910 -0.013698 -0.004321 0.000000 0.000000 0.000000
# 2 -0.013698 0.036390 -0.010427 0.000000 0.000000 0.000000
# 3 -0.004321 -0.010427 0.013129 0.000000 0.000000 0.000000
# 4 0.000000 0.000000 0.000000 0.424174 0.000000 0.000000
# 5 0.000000 0.000000 0.000000 0.000000 0.036395 0.000000
# 6 0.000000 0.000000 0.000000 0.000000 0.000000 0.038441
#
#
# Mechanical properties :
#
#
# Convention : Reuss Voigt Hill
#
# Bulk Modulus (GPa) = 53.94929 67.60588 60.77758
# Shear Modulus (GPa) = 7.84302 18.77480 13.30891
#
# Velocity S-wave (km/s) = 2.10970 3.26413 2.74822
# Velocity P-wave (km/s) = 6.04568 7.25065 6.67541
#
# Compressibility (1/GPa) = 0.01853593
#
# Stress axis : x y z
#
# Youngs Moduli (GPa) = 38.59551 27.48024 76.16743
#
# Poissons Ratio (x) = 0.37643 0.32912
# Poissons Ratio (y) = 0.52868 0.79421
# Poissons Ratio (z) = 0.16677 0.28654
#
# Static dielectric constant tensor:
#      x y z
#    x 3.044880 0.000000 0.000000 
#    y 0.000000 3.060900 0.000000 
#    z 0.000000 0.000000 3.566780 
# 
# 
# High freq. dielectric constant tensor:
#      x y z
#    x 1.659710 0.000000 0.000000 
#    y 0.000000 1.663010 0.000000 
#    z 0.000000 0.000000 1.697020 
# 
# From -- ./inp_files/30533.got.cif
#   From: 2010.03.12/outbox.cif.g09.slc.cpg/sg51_16_cif.got.tgz:30533.got - 2010.04.16 13:43:02.
