data_PCOD8211395
_publ_section_title
;
Structure prediction by ZEFSAII (Michael W. Deem and Ramdas Pophale) SiO2 
 PCOD8211395
Probable space group: P M M A
;
_chemical_formula_sum "Si O2"
_cell_formula_units_Z 40
_cell_length_a 8.931611
_cell_length_b 18.689352
_cell_length_c 13.445870
_cell_angle_alpha 90.000000
_cell_angle_beta 90.000000
_cell_angle_gamma 90.000000
_cell_volume 2244.465590
_symmetry_space_group_name_H-M "P M M A"
_symmetry_group_IT_number 51
_symmetry_cell_setting 'orthorhombic'
loop_
_space_group_symop_operation_xyz
x,y,z
1/2-x,-y,z
1/2+x,-y,-z
-x,y,-z
-x,-y,-z
1/2+x,y,-z
1/2-x,y,z
x,-y,z
loop_
_atom_site_type_symbol
_atom_site_label
_atom_site_fract_x
_atom_site_fract_y
_atom_site_fract_z
Si Si1 0.925652 0.350642 0.695316
Si Si2 0.571926 0.214970 0.396355
Si Si3 0.573347 0.855363 0.786713
Si Si4 0.577435 0.284640 0.899381
Si Si5 0.425973 0.000000 0.106869
Si Si6 0.574386 0.500000 0.606147
O O1 0.750000 0.336614 0.675264
O O2 0.963434 0.339975 0.811544
O O3 0.976686 0.430313 0.667210
O O4 0.018128 0.295080 0.629009
O O5 0.500000 0.190696 0.500000
O O6 0.750000 0.213527 0.403488
O O7 0.516261 0.158045 0.314701
O O8 0.750000 0.851594 0.763434
O O9 0.527354 0.794908 0.866662
O O10 0.522549 0.931071 0.830824
O O11 0.750000 0.285639 0.923890
O O12 0.500000 0.309676 0.000000
O O13 0.250000 0.000000 0.089686
O O14 0.500000 0.000000 0.000000
O O15 0.750000 0.500000 0.589636
O O16 0.500000 0.500000 0.500000
#
# Coordination Sequence:
#
# PCOD8211395 Si02
#       6
#     8   8   8   8   4   4
#     4   9  19  35  52  74 103 134 168 208 252 302
#     4  11  21  34  54  77 101 133 170 211 255 302
#     4   9  19  35  52  75 105 136 170 209 251 299
#     4   9  17  30  49  71  99 132 167 205 245 289
#     4  10  20  34  55  80 109 140 169 208 258 306
#     4  10  20  34  53  74 100 132 165 204 255 306
#
# _framework density 17.821614
#
# number of rings (size 3 to 8) (size 9 to 14) (size 15 to 20)
#    0.000    2.400    0.000    4.200    0.000    6.400 
#    0.000    1.000    0.000    0.000    0.000    0.000 
#    0.000    0.000    0.000    0.000    0.000    0.000 
#
# Total GULP energy -496046.369707 kJ/mol
# GULP energy per Si atom -12401.159243 kJ/mol
# Density = 1.778105 g / cm^3
# Si number density = 17.821614 Si / 1000 Ang^3
#
#
#
# Elastic Constant Matrix: (Units=GPa)
#
#
# Indices 1 2 3 4 5 6 
#
# 1 70.5910 39.8952 61.7604 0.0000 0.0000 0.0000
# 2 39.8952 147.6107 80.3505 0.0000 0.0000 0.0000
# 3 61.7604 80.3505 161.2327 0.0000 0.0000 0.0000
# 4 0.0000 0.0000 0.0000 1136.0769 0.0000 0.0000
# 5 0.0000 0.0000 0.0000 0.0000 37.2806 0.0000
# 6 0.0000 0.0000 0.0000 0.0000 0.0000 21.7355
#
#
#
# Elastic Compliance Matrix: (Units=1/GPa)
#
#
# Indices 1 2 3 4 5 6 
#
# 1 0.021663 -0.001836 -0.007383 0.000000 0.000000 0.000000
# 2 -0.001836 0.009452 -0.004007 0.000000 0.000000 0.000000
# 3 -0.007383 -0.004007 0.011027 0.000000 0.000000 0.000000
# 4 0.000000 0.000000 0.000000 0.000880 0.000000 0.000000
# 5 0.000000 0.000000 0.000000 0.000000 0.026824 0.000000
# 6 0.000000 0.000000 0.000000 0.000000 0.000000 0.046008
#
#
# Mechanical properties :
#
#
# Convention : Reuss Voigt Hill
#
# Bulk Modulus (GPa) = 63.73498 82.60519 73.17008
# Shear Modulus (GPa) = 33.88981 252.18049 143.03515
#
# Velocity S-wave (km/s) = 4.36548 11.90839 8.96848
# Velocity P-wave (km/s) = 7.82625 15.34704 12.18158
#
# Compressibility (1/GPa) = 0.01568997
#
# Stress axis : x y z
#
# Youngs Moduli (GPa) = 46.16095 105.79691 90.68392
#
# Poissons Ratio (x) = 0.19425 0.66953
# Poissons Ratio (y) = 0.08475 0.36338
# Poissons Ratio (z) = 0.34081 0.42394
#
# Static dielectric constant tensor:
#      x y z
#    x 3.190350 0.000000 0.000000 
#    y 0.000000 3.387230 0.000000 
#    z 0.000000 0.000000 3.297290 
# 
# 
# High freq. dielectric constant tensor:
#      x y z
#    x 1.683460 0.000000 0.000000 
#    y 0.000000 1.681020 0.000000 
#    z 0.000000 0.000000 1.697380 
# 
# From -- ./inp_files/14289.got.cif
#   From: 2010.03.12/outbox.cif.g09.slc.cpg/sg51_8_cif.got.tgz:14289.got - 2010.04.16 13:43:02.
