data_PCOD8211665
_publ_section_title
;
Structure prediction by ZEFSAII (Michael W. Deem and Ramdas Pophale) SiO2 
 PCOD8211665
Probable space group: P M M A
;
_chemical_formula_sum "Si O2"
_cell_formula_units_Z 40
_cell_length_a 14.503495
_cell_length_b 9.254979
_cell_length_c 14.308082
_cell_angle_alpha 90.000000
_cell_angle_beta 90.000000
_cell_angle_gamma 90.000000
_cell_volume 1920.567289
_symmetry_space_group_name_H-M "P M M A"
_symmetry_group_IT_number 51
_symmetry_cell_setting 'orthorhombic'
loop_
_space_group_symop_operation_xyz
x,y,z
1/2-x,-y,z
1/2+x,-y,-z
-x,y,-z
-x,-y,-z
1/2+x,y,-z
1/2-x,y,z
x,-y,z
loop_
_atom_site_type_symbol
_atom_site_label
_atom_site_fract_x
_atom_site_fract_y
_atom_site_fract_z
Si Si1 0.491811 0.165922 0.391989
Si Si2 0.591940 0.667854 0.060827
Si Si3 0.857241 0.832351 0.242007
Si Si4 0.359420 0.664769 0.268868
Si Si5 0.351350 0.843256 0.098105
O O1 0.500000 0.204990 0.500000
O O2 0.588394 0.197655 0.338735
O O3 0.408132 0.264648 0.357394
O O4 0.462842 0.000000 0.377194
O O5 0.618663 0.500000 0.066519
O O6 0.592227 0.734859 0.163973
O O7 0.500000 0.695103 0.000000
O O8 0.663832 0.759025 0.999471
O O9 0.750000 0.786922 0.254815
O O10 0.864330 0.000000 0.212898
O O11 0.250000 0.676662 0.281262
O O12 0.390891 0.500000 0.258283
O O13 0.400382 0.744118 0.176394
O O14 0.250000 0.873529 0.137357
O O15 0.402110 0.000000 0.086821
#
# Coordination Sequence:
#
# PCOD8211665 Si02
#       5
#     8   8   8   8   8
#     4  10  22  40  63  89 115 149 196 250 307 364
#     4  11  23  36  53  81 116 153 194 239 287 343
#     4  10  22  40  60  85 120 160 202 249 301 360
#     4  10  21  37  58  86 120 155 192 240 298 358
#     4  10  20  34  54  80 109 143 183 226 274 331
#
# _framework density 20.827179999999998
#
# number of rings (size 3 to 8) (size 9 to 14) (size 15 to 20)
#    0.000    1.800    0.000    3.600    0.000   12.000 
#    0.000    2.000    0.000    0.000    0.000    0.000 
#    0.000    0.000    0.000    0.000    0.000    0.000 
#
# Total GULP energy -495798.233195 kJ/mol
# GULP energy per Si atom -12394.955830 kJ/mol
# Density = 2.077978 g / cm^3
# Si number density = 20.827180 Si / 1000 Ang^3
#
#
#
# Elastic Constant Matrix: (Units=GPa)
#
#
# Indices 1 2 3 4 5 6 
#
# 1 72.9399 41.7234 46.9036 0.0000 0.0000 0.0000
# 2 41.7234 157.0169 88.9702 0.0000 0.0000 0.0000
# 3 46.9036 88.9702 165.6099 0.0000 0.0000 0.0000
# 4 0.0000 0.0000 0.0000 20.6703 0.0000 0.0000
# 5 0.0000 0.0000 0.0000 0.0000 28.1200 0.0000
# 6 0.0000 0.0000 0.0000 0.0000 0.0000 22.5519
#
#
#
# Elastic Compliance Matrix: (Units=1/GPa)
#
#
# Indices 1 2 3 4 5 6 
#
# 1 0.017496 -0.002647 -0.003533 0.000000 0.000000 0.000000
# 2 -0.002647 0.009556 -0.004384 0.000000 0.000000 0.000000
# 3 -0.003533 -0.004384 0.009394 0.000000 0.000000 0.000000
# 4 0.000000 0.000000 0.000000 0.048379 0.000000 0.000000
# 5 0.000000 0.000000 0.000000 0.000000 0.035562 0.000000
# 6 0.000000 0.000000 0.000000 0.000000 0.000000 0.044342
#
#
# Mechanical properties :
#
#
# Convention : Reuss Voigt Hill
#
# Bulk Modulus (GPa) = 65.28375 83.41792 74.35083
# Shear Modulus (GPa) = 26.18291 28.79974 27.49132
#
# Velocity S-wave (km/s) = 3.54948 3.72263 3.63709
# Velocity P-wave (km/s) = 6.94348 7.65615 7.30851
#
# Compressibility (1/GPa) = 0.01531775
#
# Stress axis : x y z
#
# Youngs Moduli (GPa) = 57.15554 104.64184 106.44836
#
# Poissons Ratio (x) = 0.27701 0.37608
# Poissons Ratio (y) = 0.15131 0.46669
# Poissons Ratio (z) = 0.20193 0.45877
#
# Static dielectric constant tensor:
#      x y z
#    x 3.701570 0.000000 0.000000 
#    y 0.000000 3.977330 0.000000 
#    z 0.000000 0.000000 3.697220 
# 
# 
# High freq. dielectric constant tensor:
#      x y z
#    x 1.815930 0.000000 0.000000 
#    y 0.000000 1.822730 0.000000 
#    z 0.000000 0.000000 1.805470 
# 
# From -- ./inp_files/17096.got.cif
#   From: 2010.03.12/outbox.cif.g09.slc.cpg/sg51_9_cif.got.tgz:17096.got - 2010.04.16 13:43:02.
