data_PCOD8211182
_publ_section_title
;
Structure prediction by ZEFSAII (Michael W. Deem and Ramdas Pophale) SiO2 
 PCOD8211182
Probable space group: P M M A
;
_chemical_formula_sum "Si O2"
_cell_formula_units_Z 56
_cell_length_a 15.700912
_cell_length_b 9.207408
_cell_length_c 20.561563
_cell_angle_alpha 90.000000
_cell_angle_beta 90.000000
_cell_angle_gamma 90.000000
_cell_volume 2972.476243
_symmetry_space_group_name_H-M "P M M A"
_symmetry_group_IT_number 51
_symmetry_cell_setting 'orthorhombic'
loop_
_space_group_symop_operation_xyz
x,y,z
1/2-x,-y,z
1/2+x,-y,-z
-x,y,-z
-x,-y,-z
1/2+x,y,-z
1/2-x,y,z
x,-y,z
loop_
_atom_site_type_symbol
_atom_site_label
_atom_site_fract_x
_atom_site_fract_y
_atom_site_fract_z
Si Si1 0.579851 0.667464 0.801981
Si Si2 0.655049 0.337711 0.370326
Si Si3 0.750000 0.332701 0.729619
Si Si4 0.011956 0.329014 0.928380
Si Si5 0.652868 0.164128 0.141570
Si Si6 0.940256 0.165147 0.270398
Si Si7 0.750000 0.176588 0.592181
Si Si8 0.598478 0.666138 0.513974
O O1 0.554060 0.500000 0.796058
O O2 0.674628 0.699074 0.779942
O O3 0.562034 0.718732 0.876880
O O4 0.524504 0.754925 0.751096
O O5 0.750000 0.291418 0.350246
O O6 0.634887 0.500000 0.345359
O O7 0.588667 0.227918 0.339115
O O8 0.648650 0.329951 0.447168
O O9 0.750000 0.500000 0.704796
O O10 0.750000 0.226521 0.667669
O O11 0.016043 0.500000 0.934819
O O12 0.102074 0.275276 0.902549
O O13 0.000000 0.259425 0.000000
O O14 0.750000 0.198924 0.128333
O O15 0.634149 0.187932 0.217692
O O16 0.628297 0.000000 0.121865
O O17 0.964665 0.000000 0.281796
O O18 0.839869 0.237396 0.561322
O O19 0.750000 0.000000 0.587453
O O20 0.500000 0.721930 0.500000
O O21 0.593598 0.500000 0.541443
#
# Coordination Sequence:
#
# PCOD8211182 Si02
#       8
#     8   8   4   8   8   8   4   8
#     4   9  19  37  58  81 109 146 193 233 276 336
#     4  10  20  35  55  81 111 142 183 230 276 334
#     4  10  22  40  62  80 106 155 204 241 278 337
#     4   9  18  34  55  83 115 143 177 227 283 331
#     4   9  18  33  51  74 106 144 184 217 256 323
#     4  10  20  33  53  80 112 145 177 222 280 334
#     4  12  26  42  62  90 124 153 190 251 312 359
#     4  10  22  42  65  85 111 152 199 241 287 355
#
# _framework density 18.839513
#
# number of rings (size 3 to 8) (size 9 to 14) (size 15 to 20)
#    0.000    2.286    0.714    1.500    2.000    3.429 
#    1.286    0.000    0.000    0.000    0.000    0.000 
#    0.000    0.000    0.000    0.000    0.000    0.000 
#
# Total GULP energy -693985.463643 kJ/mol
# GULP energy per Si atom -12392.597565 kJ/mol
# Density = 1.879663 g / cm^3
# Si number density = 18.839513 Si / 1000 Ang^3
#
#
#
# Elastic Constant Matrix: (Units=GPa)
#
#
# Indices 1 2 3 4 5 6 
#
# 1 113.2619 50.2522 52.6490 0.0000 0.0000 0.0000
# 2 50.2522 46.7839 40.0675 0.0000 0.0000 0.0000
# 3 52.6490 40.0675 89.3541 0.0000 0.0000 0.0000
# 4 0.0000 0.0000 0.0000 16.7945 0.0000 0.0000
# 5 0.0000 0.0000 0.0000 0.0000 11.2966 0.0000
# 6 0.0000 0.0000 0.0000 0.0000 0.0000 61.9900
#
#
#
# Elastic Compliance Matrix: (Units=1/GPa)
#
#
# Indices 1 2 3 4 5 6 
#
# 1 0.017359 -0.016050 -0.003031 0.000000 0.000000 0.000000
# 2 -0.016050 0.049541 -0.012758 0.000000 0.000000 0.000000
# 3 -0.003031 -0.012758 0.018698 0.000000 0.000000 0.000000
# 4 0.000000 0.000000 0.000000 0.059543 0.000000 0.000000
# 5 0.000000 0.000000 0.000000 0.000000 0.088523 0.000000
# 6 0.000000 0.000000 0.000000 0.000000 0.000000 0.016132
#
#
# Mechanical properties :
#
#
# Convention : Reuss Voigt Hill
#
# Bulk Modulus (GPa) = 45.62003 59.48194 52.55098
# Shear Modulus (GPa) = 15.58691 25.11163 20.34927
#
# Velocity S-wave (km/s) = 2.87949 3.65488 3.29011
# Velocity P-wave (km/s) = 5.94331 7.03224 6.51058
#
# Compressibility (1/GPa) = 0.02192019
#
# Stress axis : x y z
#
# Youngs Moduli (GPa) = 57.60595 20.18518 53.48053
#
# Poissons Ratio (x) = 0.32397 0.16212
# Poissons Ratio (y) = 0.92458 0.68230
# Poissons Ratio (z) = 0.17462 0.25752
#
# Static dielectric constant tensor:
#      x y z
#    x 3.658250 0.000000 0.000000 
#    y 0.000000 3.468850 0.000000 
#    z 0.000000 0.000000 3.524010 
# 
# 
# High freq. dielectric constant tensor:
#      x y z
#    x 1.735250 0.000000 0.000000 
#    y 0.000000 1.722390 0.000000 
#    z 0.000000 0.000000 1.729030 
# 
# From -- ./inp_files/33533.got.cif
#   From: 2010.03.12/outbox.cif.g09.slc.cpg/sg51_17_cif.got.tgz:33533.got - 2010.04.16 13:43:02.
