data_PCOD8211524
_publ_section_title
;
Structure prediction by ZEFSAII (Michael W. Deem and Ramdas Pophale) SiO2 
 PCOD8211524
Probable space group: P M M A
;
_chemical_formula_sum "Si O2"
_cell_formula_units_Z 52
_cell_length_a 9.312302
_cell_length_b 13.175777
_cell_length_c 22.377258
_cell_angle_alpha 90.000000
_cell_angle_beta 90.000000
_cell_angle_gamma 90.000000
_cell_volume 2745.618274
_symmetry_space_group_name_H-M "P M M A"
_symmetry_group_IT_number 51
_symmetry_cell_setting 'orthorhombic'
loop_
_space_group_symop_operation_xyz
x,y,z
1/2-x,-y,z
1/2+x,-y,-z
-x,y,-z
-x,-y,-z
1/2+x,y,-z
1/2-x,y,z
x,-y,z
loop_
_atom_site_type_symbol
_atom_site_label
_atom_site_fract_x
_atom_site_fract_y
_atom_site_fract_z
Si Si1 0.417109 0.114965 0.439368
Si Si2 0.087891 0.116661 0.181129
Si Si3 0.086143 0.616757 0.880865
Si Si4 0.083287 0.716909 0.757577
Si Si5 0.581947 0.694359 0.639000
Si Si6 0.082799 0.786515 0.057793
Si Si7 0.582843 0.500000 0.561218
O O1 0.500000 0.139015 0.500000
O O2 0.250000 0.127528 0.454010
O O3 0.464190 0.197535 0.389948
O O4 0.451120 0.000000 0.416523
O O5 0.250000 0.153806 0.194959
O O6 0.053411 0.135096 0.111428
O O7 0.978605 0.173800 0.224216
O O8 0.068740 0.000000 0.196058
O O9 0.250000 0.648092 0.895517
O O10 0.057452 0.500000 0.893729
O O11 0.053463 0.638681 0.811351
O O12 0.979759 0.677042 0.924126
O O13 0.250000 0.728924 0.742962
O O14 0.003880 0.675385 0.699591
O O15 0.750000 0.693579 0.653854
O O16 0.538954 0.601429 0.596498
O O17 0.250000 0.774996 0.042769
O O18 0.000000 0.829113 0.000000
O O19 0.750000 0.500000 0.546622
O O20 0.500000 0.500000 0.500000
#
# Coordination Sequence:
#
# PCOD8211524 Si02
#       7
#     8   8   8   8   8   8   4
#     4   9  18  33  53  75 100 132 170 213 261 313
#     4   9  19  37  58  78 106 145 182 218 267 323
#     4   9  19  36  55  74 101 137 175 219 270 319
#     4  10  21  35  54  81 108 136 176 224 269 315
#     4  10  21  36  53  77 109 143 180 219 268 330
#     4  10  20  34  53  79 108 138 177 220 265 319
#     4  10  22  38  56  80 110 146 185 230 277 328
#
# _framework density 18.939267999999998
#
# number of rings (size 3 to 8) (size 9 to 14) (size 15 to 20)
#    0.000    2.462    0.000    1.385    1.077    4.308 
#    0.000    1.538    0.000    0.000    0.000    0.000 
#    0.000    0.000    0.000    0.000    0.000    0.000 
#
# Total GULP energy -644906.721783 kJ/mol
# GULP energy per Si atom -12402.052342 kJ/mol
# Density = 1.889616 g / cm^3
# Si number density = 18.939268 Si / 1000 Ang^3
#
#
#
# Elastic Constant Matrix: (Units=GPa)
#
#
# Indices 1 2 3 4 5 6 
#
# 1 74.1511 22.6441 45.0933 0.0000 0.0000 0.0000
# 2 22.6441 68.4018 16.9626 0.0000 0.0000 0.0000
# 3 45.0933 16.9626 89.6313 0.0000 0.0000 0.0000
# 4 0.0000 0.0000 0.0000 14.1339 0.0000 0.0000
# 5 0.0000 0.0000 0.0000 0.0000 41.6212 0.0000
# 6 0.0000 0.0000 0.0000 0.0000 0.0000 22.9027
#
#
#
# Elastic Compliance Matrix: (Units=1/GPa)
#
#
# Indices 1 2 3 4 5 6 
#
# 1 0.020657 -0.004471 -0.009546 0.000000 0.000000 0.000000
# 2 -0.004471 0.016307 -0.000837 0.000000 0.000000 0.000000
# 3 -0.009546 -0.000837 0.016118 0.000000 0.000000 0.000000
# 4 0.000000 0.000000 0.000000 0.070752 0.000000 0.000000
# 5 0.000000 0.000000 0.000000 0.000000 0.024026 0.000000
# 6 0.000000 0.000000 0.000000 0.000000 0.000000 0.043663
#
#
# Mechanical properties :
#
#
# Convention : Reuss Voigt Hill
#
# Bulk Modulus (GPa) = 42.78308 44.62048 43.70178
# Shear Modulus (GPa) = 21.83198 25.56383 23.69791
#
# Velocity S-wave (km/s) = 3.39888 3.67792 3.54115
# Velocity P-wave (km/s) = 6.16781 6.45345 6.31225
#
# Compressibility (1/GPa) = 0.02337373
#
# Stress axis : x y z
#
# Youngs Moduli (GPa) = 48.41068 61.32297 62.04312
#
# Poissons Ratio (x) = 0.27417 0.59227
# Poissons Ratio (y) = 0.21644 0.05191
# Poissons Ratio (z) = 0.46214 0.05131
#
# Static dielectric constant tensor:
#      x y z
#    x 3.505300 0.000000 0.000000 
#    y 0.000000 3.486700 0.000000 
#    z 0.000000 0.000000 3.377660 
# 
# 
# High freq. dielectric constant tensor:
#      x y z
#    x 1.736570 0.000000 0.000000 
#    y 0.000000 1.736450 0.000000 
#    z 0.000000 0.000000 1.734500 
# 
# From -- ./inp_files/31717.got.cif
#   From: 2010.03.12/outbox.cif.g09.slc.cpg/sg51_16_cif.got.tgz:31717.got - 2010.04.16 13:43:02.
