data_PCOD8211098
_publ_section_title
;
Structure prediction by ZEFSAII (Michael W. Deem and Ramdas Pophale) SiO2 
 PCOD8211098
Probable space group: P M M A
;
_chemical_formula_sum "Si O2"
_cell_formula_units_Z 48
_cell_length_a 9.328610
_cell_length_b 9.177742
_cell_length_c 30.728637
_cell_angle_alpha 90.000000
_cell_angle_beta 90.000000
_cell_angle_gamma 90.000000
_cell_volume 2630.849950
_symmetry_space_group_name_H-M "P M M A"
_symmetry_group_IT_number 51
_symmetry_cell_setting 'orthorhombic'
loop_
_space_group_symop_operation_xyz
x,y,z
1/2-x,-y,z
1/2+x,-y,-z
-x,y,-z
-x,-y,-z
1/2+x,y,-z
1/2-x,y,z
x,-y,z
loop_
_atom_site_type_symbol
_atom_site_label
_atom_site_fract_x
_atom_site_fract_y
_atom_site_fract_z
Si Si1 0.415951 0.829064 0.871017
Si Si2 0.916795 0.670713 0.795358
Si Si3 0.591741 0.327229 0.286604
Si Si4 0.583332 0.667582 0.042327
Si Si5 0.415789 0.670292 0.616209
Si Si6 0.414841 0.828222 0.457851
O O1 0.250000 0.790829 0.862459
O O2 0.509439 0.758184 0.833634
O O3 0.467011 0.763236 0.916874
O O4 0.443889 0.000000 0.871943
O O5 0.750000 0.706236 0.795527
O O6 0.948051 0.500000 0.801908
O O7 0.979503 0.727987 0.749393
O O8 0.750000 0.265963 0.274889
O O9 0.598203 0.500000 0.287202
O O10 0.546559 0.275539 0.334865
O O11 0.750000 0.688708 0.032721
O O12 0.544997 0.500000 0.052505
O O13 0.500000 0.724280 0.000000
O O14 0.250000 0.704953 0.605530
O O15 0.446974 0.500000 0.610712
O O16 0.519674 0.757207 0.584839
O O17 0.500000 0.770641 0.500000
O O18 0.250000 0.780828 0.462750
O O19 0.431423 0.000000 0.453084
#
# Coordination Sequence:
#
# PCOD8211098 Si02
#       6
#     8   8   8   8   8   8
#     4  10  21  36  53  74 102 137 175 211 250 299
#     4  10  20  33  52  78 104 132 169 211 254 300
#     4   8  15  30  52  76 102 133 168 206 249 299
#     4   9  18  33  53  76 101 130 166 208 251 297
#     4   9  18  33  54  80 106 131 164 207 254 304
#     4  10  21  36  53  73  99 134 174 212 252 300
#
# _framework density 18.245052000000001
#
# number of rings (size 3 to 8) (size 9 to 14) (size 15 to 20)
#    0.000    2.667    0.000    2.500    0.000    5.333 
#    0.000    4.167    0.000    1.000    0.000    0.000 
#    0.000    0.000    0.000    0.000    0.000    0.000 
#
# Total GULP energy -595214.100897 kJ/mol
# GULP energy per Si atom -12400.293769 kJ/mol
# Density = 1.820353 g / cm^3
# Si number density = 18.245052 Si / 1000 Ang^3
#
#
#
# Elastic Constant Matrix: (Units=GPa)
#
#
# Indices 1 2 3 4 5 6 
#
# 1 115.4032 50.9241 100.7564 0.0000 0.0000 0.0000
# 2 50.9241 46.0279 57.9959 0.0000 0.0000 0.0000
# 3 100.7564 57.9959 178.7321 0.0000 0.0000 0.0000
# 4 0.0000 0.0000 0.0000 -29.0955 0.0000 0.0000
# 5 0.0000 0.0000 0.0000 0.0000 39.9198 0.0000
# 6 0.0000 0.0000 0.0000 0.0000 0.0000 25.2955
#
#
#
# Elastic Compliance Matrix: (Units=1/GPa)
#
#
# Indices 1 2 3 4 5 6 
#
# 1 0.021557 -0.014443 -0.007466 0.000000 0.000000 0.000000
# 2 -0.014443 0.046429 -0.006924 0.000000 0.000000 0.000000
# 3 -0.007466 -0.006924 0.012050 0.000000 0.000000 0.000000
# 4 0.000000 0.000000 0.000000 -0.034370 0.000000 0.000000
# 5 0.000000 0.000000 0.000000 0.000000 0.025050 0.000000
# 6 0.000000 0.000000 0.000000 0.000000 0.000000 0.039533
#
#
# Mechanical properties :
#
#
# Convention : Reuss Voigt Hill
#
# Bulk Modulus (GPa) = 44.69951 84.39068 64.54509
# Shear Modulus (GPa) = 28.51101 15.92308 22.21705
#
# Velocity S-wave (km/s) = 3.95735 2.95741 3.49335
# Velocity P-wave (km/s) = 6.74044 7.61683 7.19200
#
# Compressibility (1/GPa) = 0.02237161
#
# Stress axis : x y z
#
# Youngs Moduli (GPa) = 46.38962 21.53814 82.98653
#
# Poissons Ratio (x) = 0.31107 0.61954
# Poissons Ratio (y) = 0.67000 0.57458
# Poissons Ratio (z) = 0.34632 0.14912
#
# Static dielectric constant tensor:
#      x y z
#    x 4.616010 0.000000 0.000000 
#    y 0.000000 3.120050 0.000000 
#    z 0.000000 0.000000 3.602500 
# 
# 
# High freq. dielectric constant tensor:
#      x y z
#    x 1.707090 0.000000 0.000000 
#    y 0.000000 1.682100 0.000000 
#    z 0.000000 0.000000 1.721540 
# 
# From -- ./inp_files/36881.got.cif
#   From: 2010.03.12/outbox.cif.g09.slc.cpg/sg51_19_cif.got.tgz:36881.got - 2010.04.16 13:43:02.
