data_PCOD8211873
_publ_section_title
;
Structure prediction by ZEFSAII (Michael W. Deem and Ramdas Pophale) SiO2 
 PCOD8211873
Probable space group: P M M A
;
_chemical_formula_sum "Si O2"
_cell_formula_units_Z 64
_cell_length_a 14.483095
_cell_length_b 9.103582
_cell_length_c 24.290001
_cell_angle_alpha 90.000000
_cell_angle_beta 90.000000
_cell_angle_gamma 90.000000
_cell_volume 3202.589095
_symmetry_space_group_name_H-M "P M M A"
_symmetry_group_IT_number 51
_symmetry_cell_setting 'orthorhombic'
loop_
_space_group_symop_operation_xyz
x,y,z
1/2-x,-y,z
1/2+x,-y,-z
-x,y,-z
-x,-y,-z
1/2+x,y,-z
1/2-x,y,z
x,-y,z
loop_
_atom_site_type_symbol
_atom_site_label
_atom_site_fract_x
_atom_site_fract_y
_atom_site_fract_z
Si Si1 0.034367 0.326782 0.739184
Si Si2 0.357377 0.331599 0.535275
Si Si3 0.038597 0.830445 0.630969
Si Si4 0.648276 0.839078 0.887446
Si Si5 0.353646 0.832774 0.424409
Si Si6 0.354696 0.324952 0.846565
Si Si7 0.648051 0.835875 0.757621
Si Si8 0.490515 0.672529 0.939055
O O1 0.043905 0.500000 0.734207
O O2 0.077277 0.253395 0.684682
O O3 0.089266 0.267727 0.792977
O O4 0.927022 0.283064 0.739978
O O5 0.250000 0.314659 0.549052
O O6 0.389719 0.500000 0.539485
O O7 0.413239 0.233159 0.577438
O O8 0.379176 0.275339 0.474105
O O9 0.927301 0.808357 0.624747
O O10 0.065252 0.000000 0.636784
O O11 0.750000 0.810985 0.912218
O O12 0.653408 0.836537 0.822621
O O13 0.584146 0.708229 0.907543
O O14 0.611917 0.000000 0.906932
O O15 0.250000 0.800035 0.402020
O O16 0.360412 0.000000 0.446365
O O17 0.250000 0.263779 0.845229
O O18 0.354889 0.500000 0.846043
O O19 0.404474 0.266446 0.902552
O O20 0.750000 0.794332 0.734282
O O21 0.619954 0.000000 0.736548
O O22 0.479460 0.500000 0.944378
O O23 0.500000 0.743712 0.000000
#
# Coordination Sequence:
#
# PCOD8211873 Si02
#       8
#     8   8   8   8   8   8   8   8
#     4  11  22  36  56  81 109 147 193 239 286 335
#     4  10  21  37  58  84 114 148 188 237 290 339
#     4  11  23  37  56  83 115 151 191 237 286 339
#     4   9  18  33  54  79 109 144 178 217 272 333
#     4   9  19  37  59  82 111 149 188 226 278 344
#     4   9  19  37  57  77 108 149 188 228 280 338
#     4   9  18  34  56  79 105 141 180 220 275 339
#     4  10  20  34  56  86 114 143 184 233 283 336
#
# _framework density 19.983832
#
# number of rings (size 3 to 8) (size 9 to 14) (size 15 to 20)
#    0.000    2.250    1.250    2.250    0.000    5.500 
#    0.000    5.000    0.000    3.000    0.000    0.000 
#    0.000    0.000    0.000    0.000    0.000    0.000 
#
# Total GULP energy -793371.135800 kJ/mol
# GULP energy per Si atom -12396.423997 kJ/mol
# Density = 1.993835 g / cm^3
# Si number density = 19.983832 Si / 1000 Ang^3
#
#
#
# Elastic Constant Matrix: (Units=GPa)
#
#
# Indices 1 2 3 4 5 6 
#
# 1 87.4656 27.7156 39.7521 0.0000 0.0000 0.0000
# 2 27.7156 63.9606 33.6352 0.0000 0.0000 0.0000
# 3 39.7521 33.6352 91.4776 0.0000 0.0000 0.0000
# 4 0.0000 0.0000 0.0000 25.6384 0.0000 0.0000
# 5 0.0000 0.0000 0.0000 0.0000 14.0093 0.0000
# 6 0.0000 0.0000 0.0000 0.0000 0.0000 24.3080
#
#
#
# Elastic Compliance Matrix: (Units=1/GPa)
#
#
# Indices 1 2 3 4 5 6 
#
# 1 0.014955 -0.003797 -0.005103 0.000000 0.000000 0.000000
# 2 -0.003797 0.020346 -0.005831 0.000000 0.000000 0.000000
# 3 -0.005103 -0.005831 0.015293 0.000000 0.000000 0.000000
# 4 0.000000 0.000000 0.000000 0.039004 0.000000 0.000000
# 5 0.000000 0.000000 0.000000 0.000000 0.071381 0.000000
# 6 0.000000 0.000000 0.000000 0.000000 0.000000 0.041139
#
#
# Mechanical properties :
#
#
# Convention : Reuss Voigt Hill
#
# Bulk Modulus (GPa) = 47.31943 49.45663 48.38803
# Shear Modulus (GPa) = 20.95334 22.24451 21.59893
#
# Velocity S-wave (km/s) = 3.24159 3.33997 3.29115
# Velocity P-wave (km/s) = 6.14335 6.29888 6.22161
#
# Compressibility (1/GPa) = 0.02113297
#
# Stress axis : x y z
#
# Youngs Moduli (GPa) = 66.86523 49.14868 65.38883
#
# Poissons Ratio (x) = 0.18662 0.33367
# Poissons Ratio (y) = 0.25389 0.38129
# Poissons Ratio (z) = 0.34120 0.28659
#
# Static dielectric constant tensor:
#      x y z
#    x 4.019900 0.000000 0.000000 
#    y 0.000000 3.478900 0.000000 
#    z 0.000000 0.000000 3.685220 
# 
# 
# High freq. dielectric constant tensor:
#      x y z
#    x 1.781220 0.000000 0.000000 
#    y 0.000000 1.760650 0.000000 
#    z 0.000000 0.000000 1.778810 
# 
# From -- ./inp_files/35673.got.cif
#   From: 2010.03.12/outbox.cif.g09.slc.cpg/sg51_18_cif.got.tgz:35673.got - 2010.04.16 13:43:02.
