data_PCOD8211001
_publ_section_title
;
Structure prediction by ZEFSAII (Michael W. Deem and Ramdas Pophale) SiO2 
 PCOD8211001
Probable space group: P M M A
;
_chemical_formula_sum "Si O2"
_cell_formula_units_Z 48
_cell_length_a 9.171151
_cell_length_b 9.257381
_cell_length_c 30.919612
_cell_angle_alpha 90.000000
_cell_angle_beta 90.000000
_cell_angle_gamma 90.000000
_cell_volume 2625.101001
_symmetry_space_group_name_H-M "P M M A"
_symmetry_group_IT_number 51
_symmetry_cell_setting 'orthorhombic'
loop_
_space_group_symop_operation_xyz
x,y,z
1/2-x,-y,z
1/2+x,-y,-z
-x,y,-z
-x,-y,-z
1/2+x,y,-z
1/2-x,y,z
x,-y,z
loop_
_atom_site_type_symbol
_atom_site_label
_atom_site_fract_x
_atom_site_fract_y
_atom_site_fract_z
Si Si1 0.419683 0.167341 0.873733
Si Si2 0.080262 0.667652 0.957541
Si Si3 0.081521 0.669980 0.297247
Si Si4 0.414663 0.171711 0.458490
Si Si5 0.078891 0.832387 0.627447
Si Si6 0.420037 0.165225 0.211480
O O1 0.250000 0.198755 0.867504
O O2 0.481234 0.250954 0.915431
O O3 0.498840 0.225206 0.830841
O O4 0.454155 0.000000 0.880999
O O5 0.250000 0.699261 0.963798
O O6 0.045893 0.500000 0.950925
O O7 0.000000 0.728203 0.000000
O O8 0.250000 0.708562 0.307171
O O9 0.055693 0.500000 0.295491
O O10 0.032189 0.736856 0.251686
O O11 0.979385 0.737697 0.333414
O O12 0.500000 0.234801 0.500000
O O13 0.250000 0.233463 0.457859
O O14 0.498713 0.222729 0.415694
O O15 0.411535 0.000000 0.461025
O O16 0.250000 0.806851 0.621394
O O17 0.043487 0.000000 0.636616
O O18 0.250000 0.178319 0.202257
O O19 0.465651 0.000000 0.221448
#
# Coordination Sequence:
#
# PCOD8211001 Si02
#       6
#     8   8   8   8   8   8
#     4   9  18  32  49  70  96 124 155 194 240 288
#     4   9  18  32  48  67  93 125 159 194 234 281
#     4  10  21  36  53  74 101 133 169 209 253 301
#     4   9  16  27  46  73 104 135 168 209 254 298
#     4  10  20  33  51  76 104 135 172 211 252 300
#     4   9  18  33  52  73  98 128 162 201 246 296
#
# _framework density 18.285011999999998
#
# number of rings (size 3 to 8) (size 9 to 14) (size 15 to 20)
#    0.000    2.667    0.000    1.500    0.000    6.333 
#    0.000    1.667    0.000    0.500    0.000    0.000 
#    0.000    0.000    0.000    0.000    0.000    0.000 
#
# Total GULP energy -595298.088684 kJ/mol
# GULP energy per Si atom -12402.043514 kJ/mol
# Density = 1.824339 g / cm^3
# Si number density = 18.285012 Si / 1000 Ang^3
#
#
#
# Elastic Constant Matrix: (Units=GPa)
#
#
# Indices 1 2 3 4 5 6 
#
# 1 86.4882 38.0103 80.2835 0.0000 0.0000 0.0000
# 2 38.0103 55.0065 62.3382 0.0000 0.0000 0.0000
# 3 80.2835 62.3382 188.6747 0.0000 0.0000 0.0000
# 4 0.0000 0.0000 0.0000 -1.9259 0.0000 0.0000
# 5 0.0000 0.0000 0.0000 0.0000 41.7692 0.0000
# 6 0.0000 0.0000 0.0000 0.0000 0.0000 19.7394
#
#
#
# Elastic Compliance Matrix: (Units=1/GPa)
#
#
# Indices 1 2 3 4 5 6 
#
# 1 0.020621 -0.006883 -0.006501 0.000000 0.000000 0.000000
# 2 -0.006883 0.031358 -0.007432 0.000000 0.000000 0.000000
# 3 -0.006501 -0.007432 0.010522 0.000000 0.000000 0.000000
# 4 0.000000 0.000000 0.000000 -0.519245 0.000000 0.000000
# 5 0.000000 0.000000 0.000000 0.000000 0.023941 0.000000
# 6 0.000000 0.000000 0.000000 0.000000 0.000000 0.050660
#
#
# Mechanical properties :
#
#
# Convention : Reuss Voigt Hill
#
# Bulk Modulus (GPa) = 47.91382 76.82592 62.36987
# Shear Modulus (GPa) = -14.99005 21.88570 3.44783
#
# Velocity S-wave (km/s) = -2.86632 3.46341 1.37466
# Velocity P-wave (km/s) = 3.91234 7.62237 6.05834
#
# Compressibility (1/GPa) = 0.02087081
#
# Stress axis : x y z
#
# Youngs Moduli (GPa) = 48.49345 31.88935 95.04032
#
# Poissons Ratio (x) = 0.21948 0.61782
# Poissons Ratio (y) = 0.33376 0.70636
# Poissons Ratio (z) = 0.31524 0.23701
#
# Static dielectric constant tensor:
#      x y z
#    x 3.373680 0.000000 0.000000 
#    y 0.000000 3.135180 0.000000 
#    z 0.000000 0.000000 3.589870 
# 
# 
# High freq. dielectric constant tensor:
#      x y z
#    x 1.707830 0.000000 0.000000 
#    y 0.000000 1.680950 0.000000 
#    z 0.000000 0.000000 1.723100 
# 
# From -- ./inp_files/37005.got.cif
#   From: 2010.03.12/outbox.cif.g09.slc.cpg/sg51_19_cif.got.tgz:37005.got - 2010.04.16 13:43:02.
