data_PCOD8211104
_publ_section_title
;
Structure prediction by ZEFSAII (Michael W. Deem and Ramdas Pophale) SiO2 
 PCOD8211104
Probable space group: P M M A
;
_chemical_formula_sum "Si O2"
_cell_formula_units_Z 32
_cell_length_a 8.812063
_cell_length_b 20.424207
_cell_length_c 9.390776
_cell_angle_alpha 90.000000
_cell_angle_beta 90.000000
_cell_angle_gamma 90.000000
_cell_volume 1690.146219
_symmetry_space_group_name_H-M "P M M A"
_symmetry_group_IT_number 51
_symmetry_cell_setting 'orthorhombic'
loop_
_space_group_symop_operation_xyz
x,y,z
1/2-x,-y,z
1/2+x,-y,-z
-x,y,-z
-x,-y,-z
1/2+x,y,-z
1/2-x,y,z
x,-y,z
loop_
_atom_site_type_symbol
_atom_site_label
_atom_site_fract_x
_atom_site_fract_y
_atom_site_fract_z
Si Si1 0.571316 0.699204 0.844902
Si Si2 0.428978 0.821574 0.346996
Si Si3 0.073635 0.076460 0.852469
Si Si4 0.927771 0.429074 0.154769
O O1 0.750000 0.693078 0.860491
O O2 0.522994 0.760025 0.748628
O O3 0.506771 0.632931 0.767920
O O4 0.500000 0.709455 0.000000
O O5 0.500000 0.810469 0.500000
O O6 0.250000 0.829067 0.360891
O O7 0.495451 0.887332 0.278707
O O8 0.250000 0.094061 0.857996
O O9 0.044531 0.000000 0.828379
O O10 0.000000 0.100489 0.000000
O O11 0.750000 0.415331 0.141562
O O12 0.957286 0.500000 0.231135
O O13 0.000000 0.432293 0.000000
#
# Coordination Sequence:
#
# PCOD8211104 Si02
#       4
#     8   8   8   8
#     4  10  20  33  52  78 105 137 176 217 264 316
#     4  11  24  39  56  79 108 144 183 223 269 319
#     4  10  21  38  61  87 113 142 177 218 264 315
#     4   9  16  26  44  72 103 134 169 212 262 312
#
# _framework density 18.933273
#
# number of rings (size 3 to 8) (size 9 to 14) (size 15 to 20)
#    0.000    2.000    0.000    5.250    0.000    9.500 
#    0.000    0.000    0.000    0.750    0.000    0.000 
#    0.000    0.000    0.000    0.000    0.000    0.000 
#
# Total GULP energy -396716.482364 kJ/mol
# GULP energy per Si atom -12397.390074 kJ/mol
# Density = 1.889018 g / cm^3
# Si number density = 18.933273 Si / 1000 Ang^3
#
#
#
# Elastic Constant Matrix: (Units=GPa)
#
#
# Indices 1 2 3 4 5 6 
#
# 1 108.1008 66.0528 51.1337 0.0000 0.0000 0.0000
# 2 66.0528 120.3735 60.7199 0.0000 0.0000 0.0000
# 3 51.1337 60.7199 95.1824 0.0000 0.0000 0.0000
# 4 0.0000 0.0000 0.0000 5.6177 0.0000 0.0000
# 5 0.0000 0.0000 0.0000 0.0000 29.4495 0.0000
# 6 0.0000 0.0000 0.0000 0.0000 0.0000 29.5938
#
#
#
# Elastic Compliance Matrix: (Units=1/GPa)
#
#
# Indices 1 2 3 4 5 6 
#
# 1 0.014939 -0.006118 -0.004123 0.000000 0.000000 0.000000
# 2 -0.006118 0.014755 -0.006126 0.000000 0.000000 0.000000
# 3 -0.004123 -0.006126 0.016629 0.000000 0.000000 0.000000
# 4 0.000000 0.000000 0.000000 0.178010 0.000000 0.000000
# 5 0.000000 0.000000 0.000000 0.000000 0.033956 0.000000
# 6 0.000000 0.000000 0.000000 0.000000 0.000000 0.033791
#
#
# Mechanical properties :
#
#
# Convention : Reuss Voigt Hill
#
# Bulk Modulus (GPa) = 73.58571 75.49660 74.54115
# Shear Modulus (GPa) = 15.18179 22.64888 18.91534
#
# Velocity S-wave (km/s) = 2.83478 3.46243 3.16421
# Velocity P-wave (km/s) = 7.04733 7.47972 7.26674
#
# Compressibility (1/GPa) = 0.01358959
#
# Stress axis : x y z
#
# Youngs Moduli (GPa) = 66.93928 67.77558 60.13681
#
# Poissons Ratio (x) = 0.41464 0.24792
# Poissons Ratio (y) = 0.40953 0.36839
# Poissons Ratio (z) = 0.27597 0.41518
#
# Static dielectric constant tensor:
#      x y z
#    x 3.617520 0.000000 0.000000 
#    y 0.000000 4.205100 0.000000 
#    z 0.000000 0.000000 3.109940 
# 
# 
# High freq. dielectric constant tensor:
#      x y z
#    x 1.755390 0.000000 0.000000 
#    y 0.000000 1.761630 0.000000 
#    z 0.000000 0.000000 1.690760 
# 
# From -- ./inp_files/4849.got.cif
#   From: 2010.03.12/outbox.cif.g09.slc.cpg/sg51_3_cif.got.tgz:4849.got - 2010.04.16 13:43:02.
