data_PCOD8211553
_publ_section_title
;
Structure prediction by ZEFSAII (Michael W. Deem and Ramdas Pophale) SiO2 
 PCOD8211553
Probable space group: P M M A
;
_chemical_formula_sum "Si O2"
_cell_formula_units_Z 40
_cell_length_a 15.406835
_cell_length_b 8.816034
_cell_length_c 14.570060
_cell_angle_alpha 90.000000
_cell_angle_beta 90.000000
_cell_angle_gamma 90.000000
_cell_volume 1979.010180
_symmetry_space_group_name_H-M "P M M A"
_symmetry_group_IT_number 51
_symmetry_cell_setting 'orthorhombic'
loop_
_space_group_symop_operation_xyz
x,y,z
1/2-x,-y,z
1/2+x,-y,-z
-x,y,-z
-x,-y,-z
1/2+x,y,-z
1/2-x,y,z
x,-y,z
loop_
_atom_site_type_symbol
_atom_site_label
_atom_site_fract_x
_atom_site_fract_y
_atom_site_fract_z
Si Si1 0.250000 0.178074 0.896637
Si Si2 0.852669 0.173228 0.400582
Si Si3 0.905244 0.677183 0.780457
Si Si4 0.147318 0.672423 0.414637
Si Si5 0.400219 0.323983 0.781899
Si Si6 0.250000 0.680611 0.095518
O O1 0.335602 0.223498 0.841232
O O2 0.250000 0.000000 0.910134
O O3 0.250000 0.257350 0.993838
O O4 0.750000 0.193104 0.391991
O O5 0.885652 0.227665 0.499962
O O6 0.896640 0.278952 0.324572
O O7 0.880808 0.000000 0.385157
O O8 0.885725 0.500000 0.770367
O O9 0.893031 0.745239 0.678124
O O10 0.835474 0.744206 0.852241
O O11 0.002105 0.707994 0.817684
O O12 0.250000 0.680059 0.404543
O O13 0.116144 0.500000 0.430843
O O14 0.375225 0.500000 0.792602
O O15 0.250000 0.500000 0.089517
#
# Coordination Sequence:
#
# PCOD8211553 Si02
#       6
#     4   8   8   8   8   4
#     4  12  26  44  61  84 117 152 191 240 298 354
#     4  10  20  34  53  81 120 162 200 238 283 337
#     4   9  19  36  63  94 119 147 193 246 288 337
#     4   9  16  31  57  86 117 155 195 235 281 336
#     4  11  22  38  62  90 116 151 198 243 290 343
#     4  10  20  42  69  90 115 148 187 238 296 350
#
# _framework density 20.212122999999998
#
# number of rings (size 3 to 8) (size 9 to 14) (size 15 to 20)
#    0.000    2.000    2.000    2.100    0.000    2.400 
#    0.000   13.000    0.000    0.000    0.000    0.000 
#    0.000    0.000    0.000    0.000    0.000    0.000 
#
# Total GULP energy -496049.589184 kJ/mol
# GULP energy per Si atom -12401.239730 kJ/mol
# Density = 2.016612 g / cm^3
# Si number density = 20.212123 Si / 1000 Ang^3
#
#
#
# Elastic Constant Matrix: (Units=GPa)
#
#
# Indices 1 2 3 4 5 6 
#
# 1 96.8114 22.3494 48.7888 0.0000 0.0000 0.0000
# 2 22.3494 39.6517 6.9336 0.0000 0.0000 0.0000
# 3 48.7888 6.9336 123.8890 0.0000 0.0000 0.0000
# 4 0.0000 0.0000 0.0000 6.5037 0.0000 0.0000
# 5 0.0000 0.0000 0.0000 0.0000 4.1456 0.0000
# 6 0.0000 0.0000 0.0000 0.0000 0.0000 11.1776
#
#
#
# Elastic Compliance Matrix: (Units=1/GPa)
#
#
# Indices 1 2 3 4 5 6 
#
# 1 0.014750 -0.007370 -0.005396 0.000000 0.000000 0.000000
# 2 -0.007370 0.029152 0.001271 0.000000 0.000000 0.000000
# 3 -0.005396 0.001271 0.010126 0.000000 0.000000 0.000000
# 4 0.000000 0.000000 0.000000 0.153759 0.000000 0.000000
# 5 0.000000 0.000000 0.000000 0.000000 0.241219 0.000000
# 6 0.000000 0.000000 0.000000 0.000000 0.000000 0.089464
#
#
# Mechanical properties :
#
#
# Convention : Reuss Voigt Hill
#
# Bulk Modulus (GPa) = 32.22029 46.27730 39.24879
# Shear Modulus (GPa) = 8.74421 16.51741 12.63081
#
# Velocity S-wave (km/s) = 2.08221 2.86178 2.50254
# Velocity P-wave (km/s) = 4.66439 5.81938 5.27360
#
# Compressibility (1/GPa) = 0.03103634
#
# Stress axis : x y z
#
# Youngs Moduli (GPa) = 67.79484 34.30349 98.75807
#
# Poissons Ratio (x) = 0.25283 0.53294
# Poissons Ratio (y) = 0.49967 -0.12552
# Poissons Ratio (z) = 0.36585 -0.04360
#
# Static dielectric constant tensor:
#      x y z
#    x 3.684390 0.000000 0.000000 
#    y 0.000000 3.434820 0.000000 
#    z 0.000000 0.000000 3.746430 
# 
# 
# High freq. dielectric constant tensor:
#      x y z
#    x 1.791340 0.000000 0.000000 
#    y 0.000000 1.763240 0.000000 
#    z 0.000000 0.000000 1.792520 
# 
# From -- ./inp_files/23810.got.cif
#   From: 2010.03.12/outbox.cif.g09.slc.cpg/sg51_12_cif.got.tgz:23810.got - 2010.04.16 13:43:02.
