data_PCOD8211099
_publ_section_title
;
Structure prediction by ZEFSAII (Michael W. Deem and Ramdas Pophale) SiO2 
 PCOD8211099
Probable space group: P M M A
;
_chemical_formula_sum "Si O2"
_cell_formula_units_Z 48
_cell_length_a 20.536550
_cell_length_b 9.058505
_cell_length_c 14.240250
_cell_angle_alpha 90.000000
_cell_angle_beta 90.000000
_cell_angle_gamma 90.000000
_cell_volume 2649.119985
_symmetry_space_group_name_H-M "P M M A"
_symmetry_group_IT_number 51
_symmetry_cell_setting 'orthorhombic'
loop_
_space_group_symop_operation_xyz
x,y,z
1/2-x,-y,z
1/2+x,-y,-z
-x,y,-z
-x,-y,-z
1/2+x,y,-z
1/2-x,y,z
x,-y,z
loop_
_atom_site_type_symbol
_atom_site_label
_atom_site_fract_x
_atom_site_fract_y
_atom_site_fract_z
Si Si1 0.674340 0.174232 0.476902
Si Si2 0.607971 0.173532 0.141026
Si Si3 0.982829 0.328140 0.780033
Si Si4 0.058108 0.327150 0.430321
Si Si5 0.175167 0.661829 0.707400
Si Si6 0.074143 0.337853 0.033095
O O1 0.750000 0.215398 0.499180
O O2 0.625787 0.240558 0.554377
O O3 0.648323 0.242499 0.379142
O O4 0.665931 0.000000 0.471354
O O5 0.543734 0.226553 0.194968
O O6 0.667111 0.250259 0.195537
O O7 0.614437 0.000000 0.146624
O O8 0.612082 0.220757 0.031538
O O9 0.002890 0.500000 0.789044
O O10 0.960509 0.288069 0.676092
O O11 0.925320 0.293682 0.856231
O O12 0.071560 0.500000 0.444386
O O13 0.000000 0.274877 0.500000
O O14 0.250000 0.635402 0.690424
O O15 0.140160 0.500000 0.709601
O O16 0.105703 0.500000 0.019014
O O17 0.000000 0.341249 0.000000
#
# Coordination Sequence:
#
# PCOD8211099 Si02
#       6
#     8   8   8   8   8   8
#     4  10  21  36  53  75 104 136 169 206 251 304
#     4  11  20  29  47  74 102 128 156 198 251 302
#     4   9  18  32  49  71 100 133 169 206 242 286
#     4  10  20  33  52  78 105 134 171 214 255 296
#     4  10  20  34  52  71  93 126 165 201 240 292
#     4   8  15  29  47  66  93 129 164 197 235 285
#
# _framework density 18.119225
#
# number of rings (size 3 to 8) (size 9 to 14) (size 15 to 20)
#    0.000    2.333    0.000    4.500    0.000    7.333 
#    0.000    0.000    0.000    1.000    0.000    2.333 
#    0.000    0.000    0.000    0.000    0.000    0.000 
#
# Total GULP energy -594931.263694 kJ/mol
# GULP energy per Si atom -12394.401327 kJ/mol
# Density = 1.807799 g / cm^3
# Si number density = 18.119225 Si / 1000 Ang^3
#
#
#
# Elastic Constant Matrix: (Units=GPa)
#
#
# Indices 1 2 3 4 5 6 
#
# 1 49.1937 29.9277 32.9797 0.0000 0.0000 0.0000
# 2 29.9277 109.2223 46.0583 0.0000 0.0000 0.0000
# 3 32.9797 46.0583 143.4210 0.0000 0.0000 0.0000
# 4 0.0000 0.0000 0.0000 22.3254 0.0000 0.0000
# 5 0.0000 0.0000 0.0000 0.0000 24.2389 0.0000
# 6 0.0000 0.0000 0.0000 0.0000 0.0000 25.3936
#
#
#
# Elastic Compliance Matrix: (Units=1/GPa)
#
#
# Indices 1 2 3 4 5 6 
#
# 1 0.026560 -0.005439 -0.004361 0.000000 0.000000 0.000000
# 2 -0.005439 0.011703 -0.002508 0.000000 0.000000 0.000000
# 3 -0.004361 -0.002508 0.008781 0.000000 0.000000 0.000000
# 4 0.000000 0.000000 0.000000 0.044792 0.000000 0.000000
# 5 0.000000 0.000000 0.000000 0.000000 0.041256 0.000000
# 6 0.000000 0.000000 0.000000 0.000000 0.000000 0.039380
#
#
# Mechanical properties :
#
#
# Convention : Reuss Voigt Hill
#
# Bulk Modulus (GPa) = 44.58455 57.75204 51.16829
# Shear Modulus (GPa) = 24.44229 27.24966 25.84598
#
# Velocity S-wave (km/s) = 3.67682 3.88223 3.78092
# Velocity P-wave (km/s) = 6.53337 7.21375 6.88197
#
# Compressibility (1/GPa) = 0.02242930
#
# Stress axis : x y z
#
# Youngs Moduli (GPa) = 37.65050 85.44528 113.88704
#
# Poissons Ratio (x) = 0.46471 0.49665
# Poissons Ratio (y) = 0.20477 0.28561
# Poissons Ratio (z) = 0.16419 0.21428
#
# Static dielectric constant tensor:
#      x y z
#    x 3.054520 0.000000 0.000000 
#    y 0.000000 3.386990 0.000000 
#    z 0.000000 0.000000 3.713160 
# 
# 
# High freq. dielectric constant tensor:
#      x y z
#    x 1.664520 0.000000 0.000000 
#    y 0.000000 1.703110 0.000000 
#    z 0.000000 0.000000 1.707820 
# 
# From -- ./inp_files/24798.got.cif
#   From: 2010.03.12/outbox.cif.g09.slc.cpg/sg51_13_cif.got.tgz:24798.got - 2010.04.16 13:43:02.
