data_PCOD8211729
_publ_section_title
;
Structure prediction by ZEFSAII (Michael W. Deem and Ramdas Pophale) SiO2 
 PCOD8211729
Probable space group: P M M A
;
_chemical_formula_sum "Si O2"
_cell_formula_units_Z 32
_cell_length_a 13.180617
_cell_length_b 9.098372
_cell_length_c 13.714950
_cell_angle_alpha 90.000000
_cell_angle_beta 90.000000
_cell_angle_gamma 90.000000
_cell_volume 1644.726382
_symmetry_space_group_name_H-M "P M M A"
_symmetry_group_IT_number 51
_symmetry_cell_setting 'orthorhombic'
loop_
_space_group_symop_operation_xyz
x,y,z
1/2-x,-y,z
1/2+x,-y,-z
-x,y,-z
-x,-y,-z
1/2+x,y,-z
1/2-x,y,z
x,-y,z
loop_
_atom_site_type_symbol
_atom_site_label
_atom_site_fract_x
_atom_site_fract_y
_atom_site_fract_z
Si Si1 0.250000 0.173669 0.599150
Si Si2 0.390570 0.660582 0.461575
Si Si3 0.967068 0.825181 0.105107
Si Si4 0.250000 0.825151 0.819994
Si Si5 0.865662 0.170738 0.739122
O O1 0.153294 0.233672 0.543570
O O2 0.250000 0.232110 0.709414
O O3 0.250000 0.000000 0.596447
O O4 0.500000 0.632133 0.500000
O O5 0.336847 0.500000 0.454524
O O6 0.382958 0.737125 0.357669
O O7 0.853667 0.765073 0.129782
O O8 0.052514 0.771977 0.181934
O O9 0.964687 0.000000 0.103700
O O10 0.000000 0.762573 0.000000
O O11 0.250000 0.000000 0.823974
O O12 0.750000 0.193266 0.777941
O O13 0.884882 0.000000 0.714956
#
# Coordination Sequence:
#
# PCOD8211729 Si02
#       5
#     4   8   8   4   8
#     4  11  21  35  56  81 112 150 189 233 278 333
#     4  11  23  37  55  81 114 152 190 231 281 338
#     4   9  18  31  51  78 111 146 182 230 282 334
#     4   9  18  31  48  75 108 144 183 225 276 329
#     4  10  20  34  54  83 113 146 188 233 282 335
#
# _framework density 19.456123999999999
#
# number of rings (size 3 to 8) (size 9 to 14) (size 15 to 20)
#    0.000    2.000    1.250    2.625    1.750    4.000 
#    0.000    0.000    0.000    0.750    0.000    0.000 
#    0.000    0.000    0.000    0.000    0.000    0.000 
#
# Total GULP energy -396550.563228 kJ/mol
# GULP energy per Si atom -12392.205101 kJ/mol
# Density = 1.941184 g / cm^3
# Si number density = 19.456124 Si / 1000 Ang^3
#
#
#
# Elastic Constant Matrix: (Units=GPa)
#
#
# Indices 1 2 3 4 5 6 
#
# 1 169.6046 27.5894 86.6424 0.0000 0.0000 0.0000
# 2 27.5894 54.6566 39.2878 0.0000 0.0000 0.0000
# 3 86.6424 39.2878 173.0460 0.0000 0.0000 0.0000
# 4 0.0000 0.0000 0.0000 1.4867 0.0000 0.0000
# 5 0.0000 0.0000 0.0000 0.0000 30.4015 0.0000
# 6 0.0000 0.0000 0.0000 0.0000 0.0000 -233.5800
#
#
#
# Elastic Compliance Matrix: (Units=1/GPa)
#
#
# Indices 1 2 3 4 5 6 
#
# 1 0.008009 -0.001387 -0.003695 0.000000 0.000000 0.000000
# 2 -0.001387 0.022104 -0.004324 0.000000 0.000000 0.000000
# 3 -0.003695 -0.004324 0.008611 0.000000 0.000000 0.000000
# 4 0.000000 0.000000 0.000000 0.672618 0.000000 0.000000
# 5 0.000000 0.000000 0.000000 0.000000 0.032893 0.000000
# 6 0.000000 0.000000 0.000000 0.000000 0.000000 -0.004281
#
#
# Mechanical properties :
#
#
# Convention : Reuss Voigt Hill
#
# Bulk Modulus (GPa) = 50.22099 78.26072 64.24085
# Shear Modulus (GPa) = 6.53249 -24.08586 -8.77668
#
# Velocity S-wave (km/s) = 1.83435 -3.52228 -2.12622
# Velocity P-wave (km/s) = 5.50953 4.87541 5.20214
#
# Compressibility (1/GPa) = 0.01991199
#
# Stress axis : x y z
#
# Youngs Moduli (GPa) = 124.85275 45.24005 116.13294
#
# Poissons Ratio (x) = 0.06273 0.42916
# Poissons Ratio (y) = 0.17313 0.50218
# Poissons Ratio (z) = 0.46138 0.19563
#
# Static dielectric constant tensor:
#      x y z
#    x 3.945820 0.000000 0.000000 
#    y 0.000000 3.238460 0.000000 
#    z 0.000000 0.000000 3.692150 
# 
# 
# High freq. dielectric constant tensor:
#      x y z
#    x 1.782190 0.000000 0.000000 
#    y 0.000000 1.717130 0.000000 
#    z 0.000000 0.000000 1.760640 
# 
# From -- ./inp_files/15971.got.cif
#   From: 2010.03.12/outbox.cif.g09.slc.cpg/sg51_8_cif.got.tgz:15971.got - 2010.04.16 13:43:02.
