data_PCOD8211798
_publ_section_title
;
Structure prediction by ZEFSAII (Michael W. Deem and Ramdas Pophale) SiO2 
 PCOD8211798
Probable space group: P M M A
;
_chemical_formula_sum "Si O2"
_cell_formula_units_Z 64
_cell_length_a 31.198232
_cell_length_b 8.795953
_cell_length_c 12.019931
_cell_angle_alpha 90.000000
_cell_angle_beta 90.000000
_cell_angle_gamma 90.000000
_cell_volume 3298.487617
_symmetry_space_group_name_H-M "P M M A"
_symmetry_group_IT_number 51
_symmetry_cell_setting 'orthorhombic'
loop_
_space_group_symop_operation_xyz
x,y,z
1/2-x,-y,z
1/2+x,-y,-z
-x,y,-z
-x,-y,-z
1/2+x,y,-z
1/2-x,y,z
x,-y,z
loop_
_atom_site_type_symbol
_atom_site_label
_atom_site_fract_x
_atom_site_fract_y
_atom_site_fract_z
Si Si1 0.548900 0.679803 0.017698
Si Si2 0.200615 0.322380 0.992754
Si Si3 0.123949 0.178003 0.123284
Si Si4 0.391483 0.675497 0.348060
Si Si5 0.477974 0.828423 0.386172
Si Si6 0.626258 0.678860 0.404520
Si Si7 0.796593 0.680182 0.259063
Si Si8 0.559638 0.828090 0.248129
O O1 0.550338 0.500000 0.009276
O O2 0.566661 0.729492 0.137789
O O3 0.500000 0.739552 0.000000
O O4 0.581140 0.744239 0.925181
O O5 0.250000 0.286376 0.025356
O O6 0.190951 0.500000 0.009660
O O7 0.168136 0.226588 0.066402
O O8 0.191560 0.271930 0.866157
O O9 0.129255 0.222035 0.252383
O O10 0.117677 0.000000 0.110387
O O11 0.384650 0.500000 0.317318
O O12 0.441733 0.707789 0.358078
O O13 0.369223 0.717123 0.465295
O O14 0.500000 0.775777 0.500000
O O15 0.510200 0.822944 0.282736
O O16 0.459438 0.000000 0.399755
O O17 0.620231 0.500000 0.384744
O O18 0.668571 0.744423 0.344571
O O19 0.585790 0.762730 0.352045
O O20 0.750000 0.747423 0.291570
O O21 0.794618 0.500000 0.265510
O O22 0.574429 0.000000 0.223220
#
# Coordination Sequence:
#
# PCOD8211798 Si02
#       8
#     8   8   8   8   8   8   8   8
#     4  11  24  41  60  83 114 151 193 244 298 352
#     4   9  18  36  64  93 119 150 190 239 295 355
#     4  12  25  40  60  84 116 158 199 245 303 361
#     4  11  23  37  55  81 114 153 199 244 286 337
#     4  10  20  36  55  78 111 152 192 233 284 340
#     4  10  20  34  55  83 112 144 185 231 276 330
#     4   8  15  31  57  86 112 138 171 218 276 332
#     4  11  22  35  56  83 112 145 185 231 282 342
#
# _framework density 19.402830999999999
#
# number of rings (size 3 to 8) (size 9 to 14) (size 15 to 20)
#    0.000    1.750    1.250    4.500    0.000    6.000 
#    0.000    0.625    0.000    3.375    0.000    0.000 
#    0.000    0.000    0.000    0.000    0.000    0.000 
#
# Total GULP energy -793699.836071 kJ/mol
# GULP energy per Si atom -12401.559939 kJ/mol
# Density = 1.935867 g / cm^3
# Si number density = 19.402831 Si / 1000 Ang^3
#
#
#
# Elastic Constant Matrix: (Units=GPa)
#
#
# Indices 1 2 3 4 5 6 
#
# 1 107.8235 38.8144 56.1625 0.0000 0.0000 0.0000
# 2 38.8144 73.9554 41.9317 0.0000 0.0000 0.0000
# 3 56.1625 41.9317 119.3273 0.0000 0.0000 0.0000
# 4 0.0000 0.0000 0.0000 25.1516 0.0000 0.0000
# 5 0.0000 0.0000 0.0000 0.0000 31.5231 0.0000
# 6 0.0000 0.0000 0.0000 0.0000 0.0000 17.3492
#
#
#
# Elastic Compliance Matrix: (Units=1/GPa)
#
#
# Indices 1 2 3 4 5 6 
#
# 1 0.013290 -0.004282 -0.004751 0.000000 0.000000 0.000000
# 2 -0.004282 0.018265 -0.004403 0.000000 0.000000 0.000000
# 3 -0.004751 -0.004403 0.012164 0.000000 0.000000 0.000000
# 4 0.000000 0.000000 0.000000 0.039759 0.000000 0.000000
# 5 0.000000 0.000000 0.000000 0.000000 0.031723 0.000000
# 6 0.000000 0.000000 0.000000 0.000000 0.000000 0.057640
#
#
# Mechanical properties :
#
#
# Convention : Reuss Voigt Hill
#
# Bulk Modulus (GPa) = 59.35380 63.88039 61.61710
# Shear Modulus (GPa) = 24.35134 25.75128 25.05131
#
# Velocity S-wave (km/s) = 3.54650 3.64702 3.59711
# Velocity P-wave (km/s) = 6.88672 7.12243 7.00557
#
# Compressibility (1/GPa) = 0.01684812
#
# Stress axis : x y z
#
# Youngs Moduli (GPa) = 75.24359 54.74825 82.21295
#
# Poissons Ratio (x) = 0.23441 0.39056
# Poissons Ratio (y) = 0.32217 0.36201
# Poissons Ratio (z) = 0.35745 0.24107
#
# Static dielectric constant tensor:
#      x y z
#    x 3.794050 0.000000 0.000000 
#    y 0.000000 3.382270 0.000000 
#    z 0.000000 0.000000 3.743750 
# 
# 
# High freq. dielectric constant tensor:
#      x y z
#    x 1.750120 0.000000 0.000000 
#    y 0.000000 1.742820 0.000000 
#    z 0.000000 0.000000 1.762180 
# 
# From -- ./inp_files/19553.got.cif
#   From: 2010.03.12/outbox.cif.g09.slc.cpg/sg51_10_cif.got.tgz:19553.got - 2010.04.16 13:43:02.
