data_PCOD8211073
_publ_section_title
;
Structure prediction by ZEFSAII (Michael W. Deem and Ramdas Pophale) SiO2 
 PCOD8211073
Probable space group: P M M A
;
_chemical_formula_sum "Si O2"
_cell_formula_units_Z 48
_cell_length_a 16.221978
_cell_length_b 8.888447
_cell_length_c 18.145234
_cell_angle_alpha 90.000000
_cell_angle_beta 90.000000
_cell_angle_gamma 90.000000
_cell_volume 2616.328478
_symmetry_space_group_name_H-M "P M M A"
_symmetry_group_IT_number 51
_symmetry_cell_setting 'orthorhombic'
loop_
_space_group_symop_operation_xyz
x,y,z
1/2-x,-y,z
1/2+x,-y,-z
-x,y,-z
-x,-y,-z
1/2+x,y,-z
1/2-x,y,z
x,-y,z
loop_
_atom_site_type_symbol
_atom_site_label
_atom_site_fract_x
_atom_site_fract_y
_atom_site_fract_z
Si Si1 0.589384 0.675734 0.971083
Si Si2 0.565590 0.325667 0.802386
Si Si3 0.250000 0.178763 0.788081
Si Si4 0.418654 0.178893 0.722757
Si Si5 0.990769 0.176650 0.580665
Si Si6 0.657743 0.172826 0.678661
Si Si7 0.250000 0.178846 0.956228
O O1 0.599580 0.500000 0.989185
O O2 0.593864 0.710085 0.884706
O O3 0.665970 0.761599 0.007373
O O4 0.500000 0.732983 0.000000
O O5 0.546758 0.500000 0.790979
O O6 0.482852 0.235755 0.783565
O O7 0.639796 0.274800 0.749500
O O8 0.329290 0.242137 0.744614
O O9 0.250000 0.000000 0.786869
O O10 0.250000 0.235773 0.871909
O O11 0.442933 0.237961 0.640698
O O12 0.421451 0.000000 0.724842
O O13 0.000000 0.253512 0.500000
O O14 0.899944 0.216822 0.610104
O O15 0.004257 0.000000 0.572330
O O16 0.750000 0.201445 0.651484
O O17 0.642090 0.000000 0.701690
O O18 0.250000 0.000000 0.962275
#
# Coordination Sequence:
#
# PCOD8211073 Si02
#       7
#     8   8   4   8   8   8   4
#     4  10  22  39  55  74 104 139 175 218 268 317
#     4  10  20  33  52  74  98 130 171 212 252 302
#     4   9  18  33  51  75 102 131 170 208 249 299
#     4   9  17  32  53  74 102 137 169 206 250 299
#     4   8  14  27  47  73 104 132 161 200 245 291
#     4   9  18  32  50  73 101 134 167 203 248 298
#     4  11  23  35  53  79 106 135 174 222 265 315
#
# _framework density 18.346319999999999
#
# number of rings (size 3 to 8) (size 9 to 14) (size 15 to 20)
#    0.000    2.667    0.000    2.750    1.167    2.000 
#    1.500    1.250    0.000    8.000    0.000    0.000 
#    0.000    0.000    0.000    0.000    0.000    0.000 
#
# Total GULP energy -595028.870165 kJ/mol
# GULP energy per Si atom -12396.434795 kJ/mol
# Density = 1.830456 g / cm^3
# Si number density = 18.346320 Si / 1000 Ang^3
#
#
#
# Elastic Constant Matrix: (Units=GPa)
#
#
# Indices 1 2 3 4 5 6 
#
# 1 169.7021 30.6342 88.4419 0.0000 0.0000 0.0000
# 2 30.6342 32.0191 35.2747 0.0000 0.0000 0.0000
# 3 88.4419 35.2747 150.2341 0.0000 0.0000 0.0000
# 4 0.0000 0.0000 0.0000 16.0929 0.0000 0.0000
# 5 0.0000 0.0000 0.0000 0.0000 20.0801 0.0000
# 6 0.0000 0.0000 0.0000 0.0000 0.0000 16.1211
#
#
#
# Elastic Compliance Matrix: (Units=1/GPa)
#
#
# Indices 1 2 3 4 5 6 
#
# 1 0.008808 -0.003662 -0.004325 0.000000 0.000000 0.000000
# 2 -0.003662 0.043651 -0.008094 0.000000 0.000000 0.000000
# 3 -0.004325 -0.008094 0.011103 0.000000 0.000000 0.000000
# 4 0.000000 0.000000 0.000000 0.062139 0.000000 0.000000
# 5 0.000000 0.000000 0.000000 0.000000 0.049800 0.000000
# 6 0.000000 0.000000 0.000000 0.000000 0.000000 0.062031
#
#
# Mechanical properties :
#
#
# Convention : Reuss Voigt Hill
#
# Bulk Modulus (GPa) = 31.84643 73.40634 52.62639
# Shear Modulus (GPa) = 17.84688 23.63244 20.73966
#
# Velocity S-wave (km/s) = 3.12232 3.59295 3.36587
# Velocity P-wave (km/s) = 5.51314 7.57038 6.62214
#
# Compressibility (1/GPa) = 0.03140069
#
# Stress axis : x y z
#
# Youngs Moduli (GPa) = 113.53427 22.90881 90.06594
#
# Poissons Ratio (x) = 0.08389 0.38957
# Poissons Ratio (y) = 0.41574 0.72896
# Poissons Ratio (z) = 0.49108 0.18541
#
# Static dielectric constant tensor:
#      x y z
#    x 3.598930 0.000000 0.000000 
#    y 0.000000 3.121930 0.000000 
#    z 0.000000 0.000000 3.621710 
# 
# 
# High freq. dielectric constant tensor:
#      x y z
#    x 1.719760 0.000000 0.000000 
#    y 0.000000 1.680500 0.000000 
#    z 0.000000 0.000000 1.715280 
# 
# From -- ./inp_files/29583.got.cif
#   From: 2010.03.12/outbox.cif.g09.slc.cpg/sg51_15_cif.got.tgz:29583.got - 2010.04.16 13:43:02.
