data_PCOD8211348
_publ_section_title
;
Structure prediction by ZEFSAII (Michael W. Deem and Ramdas Pophale) SiO2 
 PCOD8211348
Probable space group: P M M A
;
_chemical_formula_sum "Si O2"
_cell_formula_units_Z 52
_cell_length_a 9.793705
_cell_length_b 12.689662
_cell_length_c 27.591122
_cell_angle_alpha 90.000000
_cell_angle_beta 90.000000
_cell_angle_gamma 90.000000
_cell_volume 3428.991703
_symmetry_space_group_name_H-M "P M M A"
_symmetry_group_IT_number 51
_symmetry_cell_setting 'orthorhombic'
loop_
_space_group_symop_operation_xyz
x,y,z
1/2-x,-y,z
1/2+x,-y,-z
-x,y,-z
-x,-y,-z
1/2+x,y,-z
1/2-x,y,z
x,-y,z
loop_
_atom_site_type_symbol
_atom_site_label
_atom_site_fract_x
_atom_site_fract_y
_atom_site_fract_z
Si Si1 0.902901 0.873825 0.041814
Si Si2 0.411435 0.500000 0.452103
Si Si3 0.101442 0.619617 0.278270
Si Si4 0.909367 0.785743 0.244940
Si Si5 0.912147 0.115350 0.146826
Si Si6 0.406309 0.305824 0.384301
Si Si7 0.909814 0.121739 0.348206
O O1 0.750000 0.835376 0.029985
O O2 0.950010 0.830306 0.095010
O O3 0.907829 0.000000 0.043419
O O4 0.000000 0.827477 0.000000
O O5 0.250000 0.500000 0.463107
O O6 0.500000 0.500000 0.500000
O O7 0.451233 0.391202 0.424570
O O8 0.250000 0.668536 0.265140
O O9 0.096746 0.500000 0.262315
O O10 0.077041 0.629376 0.335242
O O11 0.981164 0.674201 0.249398
O O12 0.750000 0.765621 0.241161
O O13 0.970443 0.829316 0.194672
O O14 0.944250 0.859572 0.291225
O O15 0.750000 0.107495 0.150696
O O16 0.978017 0.000000 0.147378
O O17 0.250000 0.268161 0.392631
O O18 0.502534 0.200983 0.382426
O O19 0.750000 0.143834 0.358016
O O20 0.946486 0.000000 0.360472
#
# Coordination Sequence:
#
# PCOD8211348 Si02
#       7
#     8   4   8   8   8   8   8
#     4   8  13  21  33  48  66  93 130 166 199 237
#     4  10  20  34  52  74  96 116 142 182 225 262
#     4   9  16  28  44  59  81 113 140 164 200 247
#     4   9  16  25  39  60  83 109 141 174 204 239
#     4   8  13  22  36  52  74 106 137 163 197 243
#     4   9  17  31  49  67  89 118 149 176 209 256
#     4   9  17  28  43  66  94 120 147 180 214 247
#
# _framework density 15.164808000000001
#
# number of rings (size 3 to 8) (size 9 to 14) (size 15 to 20)
#    0.000    3.231    0.769    1.385    0.000    3.077 
#    0.000    0.769    0.000    2.769    0.000    0.000 
#    0.000    0.615    0.000    1.385    0.000    2.462 
#
# Total GULP energy -644187.015168 kJ/mol
# GULP energy per Si atom -12388.211830 kJ/mol
# Density = 1.513029 g / cm^3
# Si number density = 15.164808 Si / 1000 Ang^3
#
#
#
# Elastic Constant Matrix: (Units=GPa)
#
#
# Indices 1 2 3 4 5 6 
#
# 1 57.2351 44.1889 47.6823 0.0000 0.0000 0.0000
# 2 44.1889 81.5962 45.8998 0.0000 0.0000 0.0000
# 3 47.6823 45.8998 103.7673 0.0000 0.0000 0.0000
# 4 0.0000 0.0000 0.0000 17.4634 0.0000 0.0000
# 5 0.0000 0.0000 0.0000 0.0000 22.1036 0.0000
# 6 0.0000 0.0000 0.0000 0.0000 0.0000 19.7798
#
#
#
# Elastic Compliance Matrix: (Units=1/GPa)
#
#
# Indices 1 2 3 4 5 6 
#
# 1 0.037565 -0.014156 -0.011000 0.000000 0.000000 0.000000
# 2 -0.014156 0.021649 -0.003072 0.000000 0.000000 0.000000
# 3 -0.011000 -0.003072 0.016050 0.000000 0.000000 0.000000
# 4 0.000000 0.000000 0.000000 0.057262 0.000000 0.000000
# 5 0.000000 0.000000 0.000000 0.000000 0.045242 0.000000
# 6 0.000000 0.000000 0.000000 0.000000 0.000000 0.050557
#
#
# Mechanical properties :
#
#
# Convention : Reuss Voigt Hill
#
# Bulk Modulus (GPa) = 53.16311 57.57117 55.36714
# Shear Modulus (GPa) = 17.17922 18.85786 18.01854
#
# Velocity S-wave (km/s) = 3.36941 3.53019 3.45074
# Velocity P-wave (km/s) = 7.09015 7.39341 7.24337
#
# Compressibility (1/GPa) = 0.01881003
#
# Stress axis : x y z
#
# Youngs Moduli (GPa) = 26.62070 46.19070 62.30454
#
# Poissons Ratio (x) = 0.65386 0.68534
# Poissons Ratio (y) = 0.37683 0.19137
# Poissons Ratio (z) = 0.29283 0.14188
#
# Static dielectric constant tensor:
#      x y z
#    x 2.898150 0.000000 0.000000 
#    y 0.000000 2.779260 0.000000 
#    z 0.000000 0.000000 3.002740 
# 
# 
# High freq. dielectric constant tensor:
#      x y z
#    x 1.570370 0.000000 0.000000 
#    y 0.000000 1.550800 0.000000 
#    z 0.000000 0.000000 1.571180 
# 
# From -- ./inp_files/32995.got.cif
#   From: 2010.03.12/outbox.cif.g09.slc.cpg/sg51_17_cif.got.tgz:32995.got - 2010.04.16 13:43:02.
