data_PCOD8211037
_publ_section_title
;
Structure prediction by ZEFSAII (Michael W. Deem and Ramdas Pophale) SiO2 
 PCOD8211037
Probable space group: P M M A
;
_chemical_formula_sum "Si O2"
_cell_formula_units_Z 48
_cell_length_a 9.021149
_cell_length_b 9.203463
_cell_length_c 30.883835
_cell_angle_alpha 90.000000
_cell_angle_beta 90.000000
_cell_angle_gamma 90.000000
_cell_volume 2564.155449
_symmetry_space_group_name_H-M "P M M A"
_symmetry_group_IT_number 51
_symmetry_cell_setting 'orthorhombic'
loop_
_space_group_symop_operation_xyz
x,y,z
1/2-x,-y,z
1/2+x,-y,-z
-x,y,-z
-x,-y,-z
1/2+x,y,-z
1/2-x,y,z
x,-y,z
loop_
_atom_site_type_symbol
_atom_site_label
_atom_site_fract_x
_atom_site_fract_y
_atom_site_fract_z
Si Si1 0.079065 0.829102 0.371235
Si Si2 0.080429 0.172233 0.871620
Si Si3 0.577129 0.331457 0.793934
Si Si4 0.423619 0.333870 0.456707
Si Si5 0.917440 0.173069 0.957569
Si Si6 0.423324 0.667007 0.705262
O O1 0.250000 0.786254 0.362649
O O2 0.022306 0.761063 0.416195
O O3 0.978575 0.767391 0.333271
O O4 0.056992 0.000000 0.373876
O O5 0.250000 0.224708 0.871863
O O6 0.996690 0.238097 0.831124
O O7 0.003427 0.230073 0.915346
O O8 0.068920 0.000000 0.868479
O O9 0.750000 0.295653 0.792219
O O10 0.545885 0.500000 0.803273
O O11 0.506451 0.283437 0.748599
O O12 0.500000 0.272932 0.500000
O O13 0.250000 0.318839 0.463671
O O14 0.471512 0.500000 0.448046
O O15 0.750000 0.233565 0.956694
O O16 0.916977 0.000000 0.958626
O O17 0.000000 0.234562 0.000000
O O18 0.250000 0.691300 0.712515
O O19 0.460559 0.500000 0.694068
#
# Coordination Sequence:
#
# PCOD8211037 Si02
#       6
#     8   8   8   8   8   8
#     4  10  21  36  54  78 108 141 175 212 258 310
#     4  10  20  33  51  77 107 138 173 214 260 309
#     4  10  21  37  57  79 103 135 174 214 259 312
#     4   9  18  33  53  76 103 137 177 218 257 301
#     4   9  16  27  45  70 101 136 174 216 260 307
#     4  10  21  37  57  79 102 132 172 215 258 307
#
# _framework density 18.719615000000001
#
# number of rings (size 3 to 8) (size 9 to 14) (size 15 to 20)
#    0.000    2.333    0.000    2.500    0.000    7.667 
#    0.000    1.667    0.000    0.500    0.000    0.000 
#    0.000    0.000    0.000    0.000    0.000    0.000 
#
# Total GULP energy -595367.399327 kJ/mol
# GULP energy per Si atom -12403.487486 kJ/mol
# Density = 1.867701 g / cm^3
# Si number density = 18.719615 Si / 1000 Ang^3
#
#
#
# Elastic Constant Matrix: (Units=GPa)
#
#
# Indices 1 2 3 4 5 6 
#
# 1 112.7017 33.4258 78.1566 0.0000 0.0000 0.0000
# 2 33.4258 42.9368 47.9986 0.0000 0.0000 0.0000
# 3 78.1566 47.9986 169.1255 0.0000 0.0000 0.0000
# 4 0.0000 0.0000 0.0000 31.7836 0.0000 0.0000
# 5 0.0000 0.0000 0.0000 0.0000 42.6458 0.0000
# 6 0.0000 0.0000 0.0000 0.0000 0.0000 24.0452
#
#
#
# Elastic Compliance Matrix: (Units=1/GPa)
#
#
# Indices 1 2 3 4 5 6 
#
# 1 0.013837 -0.005308 -0.004888 0.000000 0.000000 0.000000
# 2 -0.005308 0.036149 -0.007806 0.000000 0.000000 0.000000
# 3 -0.004888 -0.007806 0.010387 0.000000 0.000000 0.000000
# 4 0.000000 0.000000 0.000000 0.031463 0.000000 0.000000
# 5 0.000000 0.000000 0.000000 0.000000 0.023449 0.000000
# 6 0.000000 0.000000 0.000000 0.000000 0.000000 0.041588
#
#
# Mechanical properties :
#
#
# Convention : Reuss Voigt Hill
#
# Bulk Modulus (GPa) = 41.03639 71.54733 56.29186
# Shear Modulus (GPa) = 24.87567 30.70711 27.79139
#
# Velocity S-wave (km/s) = 3.64930 4.05454 3.85725
# Velocity P-wave (km/s) = 6.30284 7.76032 7.06924
#
# Compressibility (1/GPa) = 0.02436861
#
# Stress axis : x y z
#
# Youngs Moduli (GPa) = 72.27056 27.66360 96.27321
#
# Poissons Ratio (x) = 0.14683 0.47058
# Poissons Ratio (y) = 0.38358 0.75154
# Poissons Ratio (z) = 0.35326 0.21595
#
# Static dielectric constant tensor:
#      x y z
#    x 2.143740 0.000000 0.000000 
#    y 0.000000 3.192980 0.000000 
#    z 0.000000 0.000000 3.613200 
# 
# 
# High freq. dielectric constant tensor:
#      x y z
#    x 1.736820 0.000000 0.000000 
#    y 0.000000 1.698950 0.000000 
#    z 0.000000 0.000000 1.742310 
# 
# From -- ./inp_files/36908.got.cif
#   From: 2010.03.12/outbox.cif.g09.slc.cpg/sg51_19_cif.got.tgz:36908.got - 2010.04.16 13:43:02.
