data_PCOD8211227
_publ_section_title
;
Structure prediction by ZEFSAII (Michael W. Deem and Ramdas Pophale) SiO2 
 PCOD8211227
Probable space group: P M M A
;
_chemical_formula_sum "Si O2"
_cell_formula_units_Z 48
_cell_length_a 27.869354
_cell_length_b 9.341951
_cell_length_c 9.994829
_cell_angle_alpha 90.000000
_cell_angle_beta 90.000000
_cell_angle_gamma 90.000000
_cell_volume 2602.195103
_symmetry_space_group_name_H-M "P M M A"
_symmetry_group_IT_number 51
_symmetry_cell_setting 'orthorhombic'
loop_
_space_group_symop_operation_xyz
x,y,z
1/2-x,-y,z
1/2+x,-y,-z
-x,y,-z
-x,-y,-z
1/2+x,y,-z
1/2-x,y,z
x,-y,z
loop_
_atom_site_type_symbol
_atom_site_label
_atom_site_fract_x
_atom_site_fract_y
_atom_site_fract_z
Si Si1 0.250000 0.668344 0.096529
Si Si2 0.350659 0.164169 0.491462
Si Si3 0.146501 0.332746 0.011598
Si Si4 0.395507 0.835788 0.766905
Si Si5 0.090137 0.669071 0.278453
Si Si6 0.250000 0.163359 0.368889
Si Si7 0.500806 0.167065 0.344252
O O1 0.250000 0.500000 0.122890
O O2 0.297573 0.715275 0.015537
O O3 0.250000 0.737210 0.241343
O O4 0.357920 0.193846 0.648143
O O5 0.384716 0.268773 0.409517
O O6 0.295597 0.197461 0.460483
O O7 0.364971 0.000000 0.457039
O O8 0.141985 0.500000 0.985692
O O9 0.122029 0.288878 0.150897
O O10 0.118948 0.256351 0.893310
O O11 0.448146 0.791437 0.717507
O O12 0.394498 0.000000 0.811591
O O13 0.084418 0.500000 0.294260
O O14 0.038047 0.740535 0.263062
O O15 0.250000 0.000000 0.318816
O O16 0.500000 0.209440 0.500000
O O17 0.489046 0.000000 0.326250
#
# Coordination Sequence:
#
# PCOD8211227 Si02
#       7
#     4   8   8   8   8   4   8
#     4  10  20  39  60  80 116 158 192 231 286 346
#     4  10  20  37  58  86 118 147 188 241 290 339
#     4  10  23  40  58  83 119 156 192 238 288 341
#     4  10  22  39  60  85 116 154 191 235 292 346
#     4  11  22  36  59  88 114 152 195 237 286 340
#     4  10  20  33  60  92 114 144 190 245 292 334
#     4  10  20  38  61  85 116 153 191 239 294 344
#
# _framework density 18.445965999999999
#
# number of rings (size 3 to 8) (size 9 to 14) (size 15 to 20)
#    0.000    1.833    3.333    0.500    0.000    5.000 
#    0.000    4.167    0.000    0.000    0.000    0.000 
#    0.000    0.000    0.000    0.000    0.000    0.000 
#
# Total GULP energy -595368.469905 kJ/mol
# GULP energy per Si atom -12403.509790 kJ/mol
# Density = 1.840398 g / cm^3
# Si number density = 18.445966 Si / 1000 Ang^3
#
#
#
# Elastic Constant Matrix: (Units=GPa)
#
#
# Indices 1 2 3 4 5 6 
#
# 1 126.3909 47.7982 39.5559 0.0000 0.0000 0.0000
# 2 47.7982 56.1561 43.7537 0.0000 0.0000 0.0000
# 3 39.5559 43.7537 74.9810 0.0000 0.0000 0.0000
# 4 0.0000 0.0000 0.0000 18.3040 0.0000 0.0000
# 5 0.0000 0.0000 0.0000 0.0000 28.2243 0.0000
# 6 0.0000 0.0000 0.0000 0.0000 0.0000 30.0430
#
#
#
# Elastic Compliance Matrix: (Units=1/GPa)
#
#
# Indices 1 2 3 4 5 6 
#
# 1 0.011686 -0.009431 -0.000661 0.000000 0.000000 0.000000
# 2 -0.009431 0.040265 -0.018521 0.000000 0.000000 0.000000
# 3 -0.000661 -0.018521 0.024493 0.000000 0.000000 0.000000
# 4 0.000000 0.000000 0.000000 0.054633 0.000000 0.000000
# 5 0.000000 0.000000 0.000000 0.000000 0.035430 0.000000
# 6 0.000000 0.000000 0.000000 0.000000 0.000000 0.033286
#
#
# Mechanical properties :
#
#
# Convention : Reuss Voigt Hill
#
# Bulk Modulus (GPa) = 52.03569 57.74930 54.89249
# Shear Modulus (GPa) = 18.98076 23.74227 21.36152
#
# Velocity S-wave (km/s) = 3.21127 3.59154 3.40672
# Velocity P-wave (km/s) = 6.48234 6.96952 6.73034
#
# Compressibility (1/GPa) = 0.01921758
#
# Stress axis : x y z
#
# Youngs Moduli (GPa) = 85.57568 24.83536 40.82805
#
# Poissons Ratio (x) = 0.23422 0.02700
# Poissons Ratio (y) = 0.80707 0.75616
# Poissons Ratio (z) = 0.05660 0.45997
#
# Static dielectric constant tensor:
#      x y z
#    x 3.755640 0.000000 0.000000 
#    y 0.000000 3.344140 0.000000 
#    z 0.000000 0.000000 3.253870 
# 
# 
# High freq. dielectric constant tensor:
#      x y z
#    x 1.733600 0.000000 0.000000 
#    y 0.000000 1.711210 0.000000 
#    z 0.000000 0.000000 1.707580 
# 
# From -- ./inp_files/12876.got.cif
#   From: 2010.03.12/outbox.cif.g09.slc.cpg/sg51_7_cif.got.tgz:12876.got - 2010.04.16 13:43:02.
