data_PCOD8211312
_publ_section_title
;
Structure prediction by ZEFSAII (Michael W. Deem and Ramdas Pophale) SiO2 
 PCOD8211312
Probable space group: P M M A
;
_chemical_formula_sum "Si O2"
_cell_formula_units_Z 56
_cell_length_a 9.321534
_cell_length_b 18.373771
_cell_length_c 18.764219
_cell_angle_alpha 90.000000
_cell_angle_beta 90.000000
_cell_angle_gamma 90.000000
_cell_volume 3213.780271
_symmetry_space_group_name_H-M "P M M A"
_symmetry_group_IT_number 51
_symmetry_cell_setting 'orthorhombic'
loop_
_space_group_symop_operation_xyz
x,y,z
1/2-x,-y,z
1/2+x,-y,-z
-x,y,-z
-x,-y,-z
1/2+x,y,-z
1/2-x,y,z
x,-y,z
loop_
_atom_site_type_symbol
_atom_site_label
_atom_site_fract_x
_atom_site_fract_y
_atom_site_fract_z
Si Si1 0.085740 0.712773 0.802418
Si Si2 0.585257 0.582865 0.296691
Si Si3 0.916902 0.084282 0.430604
Si Si4 0.588728 0.413435 0.566460
Si Si5 0.915894 0.854685 0.282114
Si Si6 0.580804 0.220917 0.927439
Si Si7 0.085498 0.081044 0.157080
O O1 0.250000 0.720615 0.829121
O O2 0.055485 0.632611 0.771920
O O3 0.055098 0.771145 0.739733
O O4 0.977939 0.723749 0.867892
O O5 0.750000 0.589535 0.321831
O O6 0.547652 0.500000 0.275329
O O7 0.487204 0.611390 0.360940
O O8 0.750000 0.096114 0.445434
O O9 0.969819 0.131346 0.362632
O O10 0.000000 0.113079 0.500000
O O11 0.953010 0.000000 0.415479
O O12 0.500000 0.380934 0.500000
O O13 0.750000 0.382033 0.564694
O O14 0.590682 0.500000 0.561678
O O15 0.750000 0.875787 0.276847
O O16 0.995959 0.908650 0.228647
O O17 0.750000 0.232850 0.937327
O O18 0.541349 0.138571 0.903905
O O19 0.500000 0.238646 0.000000
O O20 0.250000 0.093407 0.178285
O O21 0.058039 0.000000 0.126714
#
# Coordination Sequence:
#
# PCOD8211312 Si02
#       7
#     8   8   8   8   8   8   8
#     4   9  18  33  52  72  95 123 154 189 232 283
#     4   9  17  30  49  72  97 125 157 195 240 288
#     4   9  17  28  42  61  85 115 153 195 235 272
#     4   9  16  26  42  65  93 124 157 193 233 278
#     4   9  17  30  47  66  90 121 157 195 234 278
#     4  10  20  34  52  73  98 127 157 188 225 272
#     4   9  18  31  47  70  98 125 154 189 228 270
#
# _framework density 17.424963000000002
#
# number of rings (size 3 to 8) (size 9 to 14) (size 15 to 20)
#    0.000    2.857    0.000    1.286    0.000    4.571 
#    0.000    2.143    0.000    2.143    0.000    0.000 
#    0.000    0.000    0.000    0.000    0.000    0.000 
#
# Total GULP energy -694389.424529 kJ/mol
# GULP energy per Si atom -12399.811152 kJ/mol
# Density = 1.738530 g / cm^3
# Si number density = 17.424963 Si / 1000 Ang^3
#
#
#
# Elastic Constant Matrix: (Units=GPa)
#
#
# Indices 1 2 3 4 5 6 
#
# 1 87.0217 33.2553 65.6415 0.0000 0.0000 0.0000
# 2 33.2553 66.1509 45.6465 0.0000 0.0000 0.0000
# 3 65.6415 45.6465 133.2361 0.0000 0.0000 0.0000
# 4 0.0000 0.0000 0.0000 16.5325 0.0000 0.0000
# 5 0.0000 0.0000 0.0000 0.0000 34.3483 0.0000
# 6 0.0000 0.0000 0.0000 0.0000 0.0000 18.1378
#
#
#
# Elastic Compliance Matrix: (Units=1/GPa)
#
#
# Indices 1 2 3 4 5 6 
#
# 1 0.019089 -0.004069 -0.008010 0.000000 0.000000 0.000000
# 2 -0.004069 0.020664 -0.005075 0.000000 0.000000 0.000000
# 3 -0.008010 -0.005075 0.013191 0.000000 0.000000 0.000000
# 4 0.000000 0.000000 0.000000 0.060487 0.000000 0.000000
# 5 0.000000 0.000000 0.000000 0.000000 0.029114 0.000000
# 6 0.000000 0.000000 0.000000 0.000000 0.000000 0.055133
#
#
# Mechanical properties :
#
#
# Convention : Reuss Voigt Hill
#
# Bulk Modulus (GPa) = 53.66183 63.94393 58.80288
# Shear Modulus (GPa) = 20.99097 23.26141 22.12619
#
# Velocity S-wave (km/s) = 3.47457 3.65766 3.56729
# Velocity P-wave (km/s) = 6.85271 7.39015 7.12650
#
# Compressibility (1/GPa) = 0.01863522
#
# Stress axis : x y z
#
# Youngs Moduli (GPa) = 52.38715 48.39264 75.81098
#
# Poissons Ratio (x) = 0.19690 0.60728
# Poissons Ratio (y) = 0.21315 0.38474
# Poissons Ratio (z) = 0.41965 0.24559
#
# Static dielectric constant tensor:
#      x y z
#    x 3.314410 0.000000 0.000000 
#    y 0.000000 3.080660 0.000000 
#    z 0.000000 0.000000 3.140190 
# 
# 
# High freq. dielectric constant tensor:
#      x y z
#    x 1.676750 0.000000 0.000000 
#    y 0.000000 1.647910 0.000000 
#    z 0.000000 0.000000 1.663950 
# 
# From -- ./inp_files/28229.got.cif
#   From: 2010.03.12/outbox.cif.g09.slc.cpg/sg51_15_cif.got.tgz:28229.got - 2010.04.16 13:43:02.
