data_PCOD8211790
_publ_section_title
;
Structure prediction by ZEFSAII (Michael W. Deem and Ramdas Pophale) SiO2 
 PCOD8211790
Probable space group: P M M A
;
_chemical_formula_sum "Si O2"
_cell_formula_units_Z 64
_cell_length_a 19.196130
_cell_length_b 9.148630
_cell_length_c 18.972536
_cell_angle_alpha 90.000000
_cell_angle_beta 90.000000
_cell_angle_gamma 90.000000
_cell_volume 3331.924344
_symmetry_space_group_name_H-M "P M M A"
_symmetry_group_IT_number 51
_symmetry_cell_setting 'orthorhombic'
loop_
_space_group_symop_operation_xyz
x,y,z
1/2-x,-y,z
1/2+x,-y,-z
-x,y,-z
-x,-y,-z
1/2+x,y,-z
1/2-x,y,z
x,-y,z
loop_
_atom_site_type_symbol
_atom_site_label
_atom_site_fract_x
_atom_site_fract_y
_atom_site_fract_z
Si Si1 0.168308 0.828433 0.549916
Si Si2 0.559937 0.675167 0.360123
Si Si3 0.329059 0.326796 0.001602
Si Si4 0.049475 0.826707 0.936736
Si Si5 0.522674 0.162571 0.220804
Si Si6 0.868735 0.841677 0.728362
Si Si7 0.672227 0.345691 0.848617
Si Si8 0.075004 0.173324 0.415251
O O1 0.250000 0.786815 0.539166
O O2 0.134970 0.733140 0.612736
O O3 0.121896 0.786694 0.481937
O O4 0.161374 0.000000 0.566850
O O5 0.556462 0.500000 0.363403
O O6 0.554412 0.728078 0.279157
O O7 0.499097 0.742720 0.410835
O O8 0.250000 0.279166 0.986749
O O9 0.339453 0.500000 0.993850
O O10 0.358206 0.274495 0.079583
O O11 0.374148 0.240464 0.945012
O O12 0.028070 0.773848 0.858252
O O13 0.052582 0.000000 0.939929
O O14 0.000000 0.766929 0.000000
O O15 0.441389 0.147648 0.232344
O O16 0.556908 0.000000 0.228157
O O17 0.820487 0.746894 0.778034
O O18 0.878374 0.773838 0.650885
O O19 0.833394 0.000000 0.720874
O O20 0.750000 0.381788 0.873483
O O21 0.633901 0.500000 0.830905
O O22 0.058031 0.000000 0.410481
#
# Coordination Sequence:
#
# PCOD8211790 Si02
#       8
#     8   8   8   8   8   8   8   8
#     4  10  21  38  60  83 108 142 182 222 267 319
#     4  11  22  36  57  83 110 141 179 221 263 311
#     4   9  19  35  51  69  99 139 179 216 257 312
#     4  10  20  34  55  83 110 134 168 220 274 317
#     4   9  19  36  55  76 105 138 172 213 262 317
#     4   9  17  30  50  75 101 130 167 213 258 300
#     4   9  18  31  45  64  96 138 176 208 251 311
#     4   9  19  36  57  80 108 142 178 216 261 317
#
# _framework density 19.208119
#
# number of rings (size 3 to 8) (size 9 to 14) (size 15 to 20)
#    0.000    2.500    0.000    3.750    0.000    7.500 
#    0.000    3.125    0.000    0.750    0.000    0.000 
#    0.000    0.000    0.000    0.000    0.000    0.000 
#
# Total GULP energy -792865.925357 kJ/mol
# GULP energy per Si atom -12388.530084 kJ/mol
# Density = 1.916440 g / cm^3
# Si number density = 19.208119 Si / 1000 Ang^3
#
#
#
# Elastic Constant Matrix: (Units=GPa)
#
#
# Indices 1 2 3 4 5 6 
#
# 1 78.9177 33.9274 55.0324 0.0000 0.0000 0.0000
# 2 33.9274 60.6411 38.3529 0.0000 0.0000 0.0000
# 3 55.0324 38.3529 120.8989 0.0000 0.0000 0.0000
# 4 0.0000 0.0000 0.0000 19.1155 0.0000 0.0000
# 5 0.0000 0.0000 0.0000 0.0000 25.2570 0.0000
# 6 0.0000 0.0000 0.0000 0.0000 0.0000 31.8709
#
#
#
# Elastic Compliance Matrix: (Units=1/GPa)
#
#
# Indices 1 2 3 4 5 6 
#
# 1 0.020716 -0.007038 -0.007197 0.000000 0.000000 0.000000
# 2 -0.007038 0.023021 -0.004099 0.000000 0.000000 0.000000
# 3 -0.007197 -0.004099 0.012848 0.000000 0.000000 0.000000
# 4 0.000000 0.000000 0.000000 0.052314 0.000000 0.000000
# 5 0.000000 0.000000 0.000000 0.000000 0.039593 0.000000
# 6 0.000000 0.000000 0.000000 0.000000 0.000000 0.031377
#
#
# Mechanical properties :
#
#
# Convention : Reuss Voigt Hill
#
# Bulk Modulus (GPa) = 50.21180 57.23146 53.72163
# Shear Modulus (GPa) = 22.40391 24.12501 23.26446
#
# Velocity S-wave (km/s) = 3.41893 3.54783 3.48397
# Velocity P-wave (km/s) = 6.46399 6.82956 6.64929
#
# Compressibility (1/GPa) = 0.01991564
#
# Stress axis : x y z
#
# Youngs Moduli (GPa) = 48.27178 43.43898 77.83450
#
# Poissons Ratio (x) = 0.30574 0.56018
# Poissons Ratio (y) = 0.33975 0.31905
# Poissons Ratio (z) = 0.34741 0.17806
#
# Static dielectric constant tensor:
#      x y z
#    x 3.359670 0.000000 0.000000 
#    y 0.000000 3.461700 0.000000 
#    z 0.000000 0.000000 3.664610 
# 
# 
# High freq. dielectric constant tensor:
#      x y z
#    x 1.730680 0.000000 0.000000 
#    y 0.000000 1.731440 0.000000 
#    z 0.000000 0.000000 1.754020 
# 
# From -- ./inp_files/30694.got.cif
#   From: 2010.03.12/outbox.cif.g09.slc.cpg/sg51_16_cif.got.tgz:30694.got - 2010.04.16 13:43:02.
