data_PCOD8211072
_publ_section_title
;
Structure prediction by ZEFSAII (Michael W. Deem and Ramdas Pophale) SiO2 
 PCOD8211072
Probable space group: P M M A
;
_chemical_formula_sum "Si O2"
_cell_formula_units_Z 56
_cell_length_a 15.314311
_cell_length_b 9.440185
_cell_length_c 20.968435
_cell_angle_alpha 90.000000
_cell_angle_beta 90.000000
_cell_angle_gamma 90.000000
_cell_volume 3031.405159
_symmetry_space_group_name_H-M "P M M A"
_symmetry_group_IT_number 51
_symmetry_cell_setting 'orthorhombic'
loop_
_space_group_symop_operation_xyz
x,y,z
1/2-x,-y,z
1/2+x,-y,-z
-x,y,-z
-x,-y,-z
1/2+x,y,-z
1/2-x,y,z
x,-y,z
loop_
_atom_site_type_symbol
_atom_site_label
_atom_site_fract_x
_atom_site_fract_y
_atom_site_fract_z
Si Si1 0.750000 0.830972 0.752891
Si Si2 0.515681 0.336211 0.427042
Si Si3 0.098842 0.340236 0.310224
Si Si4 0.847749 0.657386 0.112632
Si Si5 0.650666 0.840028 0.353169
Si Si6 0.100499 0.832209 0.004016
Si Si7 0.582869 0.339547 0.244149
Si Si8 0.250000 0.832335 0.100447
O O1 0.667219 0.773666 0.714479
O O2 0.750000 0.775658 0.826528
O O3 0.750000 0.000000 0.750389
O O4 0.500000 0.297452 0.500000
O O5 0.541851 0.500000 0.417871
O O6 0.430884 0.303766 0.382903
O O7 0.596824 0.242147 0.406469
O O8 0.137532 0.500000 0.307382
O O9 0.016971 0.325694 0.263839
O O10 0.750000 0.656810 0.140271
O O11 0.872651 0.500000 0.087055
O O12 0.911399 0.703180 0.170054
O O13 0.852211 0.771531 0.057402
O O14 0.750000 0.838206 0.375915
O O15 0.642591 0.765642 0.284730
O O16 0.615298 0.000000 0.347225
O O17 0.159895 0.781275 0.064794
O O18 0.101520 0.000000 0.000284
O O19 0.000000 0.776202 0.000000
O O20 0.616912 0.500000 0.254400
O O21 0.250000 0.000000 0.101119
#
# Coordination Sequence:
#
# PCOD8211072 Si02
#       8
#     4   8   8   8   8   8   8   4
#     4  11  23  37  57  81 111 150 191 232 279 335
#     4   9  19  38  62  84 109 146 188 227 272 325
#     4   9  19  37  58  82 111 140 182 233 274 322
#     4  10  20  34  53  80 111 139 173 223 282 336
#     4  10  20  33  51  81 116 145 177 219 267 322
#     4  10  21  37  57  77 102 142 186 231 283 338
#     4   9  19  35  56  79 107 144 181 222 272 329
#     4   9  20  39  55  77 111 144 189 238 279 337
#
# _framework density 18.473282000000001
#
# number of rings (size 3 to 8) (size 9 to 14) (size 15 to 20)
#    0.000    2.429    0.714    1.929    2.000    5.143 
#    1.286    1.429    0.000    0.000    0.000    0.000 
#    0.000    0.000    0.000    0.000    0.000    0.000 
#
# Total GULP energy -694166.720800 kJ/mol
# GULP energy per Si atom -12395.834300 kJ/mol
# Density = 1.843124 g / cm^3
# Si number density = 18.473282 Si / 1000 Ang^3
#
#
#
# Elastic Constant Matrix: (Units=GPa)
#
#
# Indices 1 2 3 4 5 6 
#
# 1 95.5524 42.4661 54.7764 0.0000 0.0000 0.0000
# 2 42.4661 74.7660 48.6169 0.0000 0.0000 0.0000
# 3 54.7764 48.6169 140.9384 0.0000 0.0000 0.0000
# 4 0.0000 0.0000 0.0000 23.4211 0.0000 0.0000
# 5 0.0000 0.0000 0.0000 0.0000 20.7187 0.0000
# 6 0.0000 0.0000 0.0000 0.0000 0.0000 28.3344
#
#
#
# Elastic Compliance Matrix: (Units=1/GPa)
#
#
# Indices 1 2 3 4 5 6 
#
# 1 0.015460 -0.006283 -0.003841 0.000000 0.000000 0.000000
# 2 -0.006283 0.019796 -0.004387 0.000000 0.000000 0.000000
# 3 -0.003841 -0.004387 0.010101 0.000000 0.000000 0.000000
# 4 0.000000 0.000000 0.000000 0.042697 0.000000 0.000000
# 5 0.000000 0.000000 0.000000 0.000000 0.048266 0.000000
# 6 0.000000 0.000000 0.000000 0.000000 0.000000 0.035293
#
#
# Mechanical properties :
#
#
# Convention : Reuss Voigt Hill
#
# Bulk Modulus (GPa) = 61.21712 66.99729 64.10721
# Shear Modulus (GPa) = 24.26241 25.52134 24.89187
#
# Velocity S-wave (km/s) = 3.62799 3.72092 3.67475
# Velocity P-wave (km/s) = 7.12460 7.40312 7.26519
#
# Compressibility (1/GPa) = 0.01633530
#
# Stress axis : x y z
#
# Youngs Moduli (GPa) = 64.68346 50.51421 98.99635
#
# Poissons Ratio (x) = 0.31740 0.38026
# Poissons Ratio (y) = 0.40643 0.43427
# Poissons Ratio (z) = 0.24846 0.22159
#
# Static dielectric constant tensor:
#      x y z
#    x 3.519880 0.000000 0.000000 
#    y 0.000000 3.348440 0.000000 
#    z 0.000000 0.000000 3.469460 
# 
# 
# High freq. dielectric constant tensor:
#      x y z
#    x 1.714560 0.000000 0.000000 
#    y 0.000000 1.710000 0.000000 
#    z 0.000000 0.000000 1.714560 
# 
# From -- ./inp_files/33570.got.cif
#   From: 2010.03.12/outbox.cif.g09.slc.cpg/sg51_17_cif.got.tgz:33570.got - 2010.04.16 13:43:02.
