data_PCOD8211223
_publ_section_title
;
Structure prediction by ZEFSAII (Michael W. Deem and Ramdas Pophale) SiO2 
 PCOD8211223
Probable space group: P M M A
;
_chemical_formula_sum "Si O2"
_cell_formula_units_Z 64
_cell_length_a 18.456967
_cell_length_b 9.071408
_cell_length_c 21.136740
_cell_angle_alpha 90.000000
_cell_angle_beta 90.000000
_cell_angle_gamma 90.000000
_cell_volume 3538.938711
_symmetry_space_group_name_H-M "P M M A"
_symmetry_group_IT_number 51
_symmetry_cell_setting 'orthorhombic'
loop_
_space_group_symop_operation_xyz
x,y,z
1/2-x,-y,z
1/2+x,-y,-z
-x,y,-z
-x,-y,-z
1/2+x,y,-z
1/2-x,y,z
x,-y,z
loop_
_atom_site_type_symbol
_atom_site_label
_atom_site_fract_x
_atom_site_fract_y
_atom_site_fract_z
Si Si1 0.832355 0.173816 0.118040
Si Si2 0.081578 0.174660 0.500357
Si Si3 0.166726 0.331663 0.394216
Si Si4 0.833064 0.669862 0.751169
Si Si5 0.396115 0.172428 0.751141
Si Si6 0.332356 0.175992 0.621649
Si Si7 0.959819 0.827014 0.817248
Si Si8 0.466479 0.672043 0.931997
O O1 0.750000 0.213144 0.099866
O O2 0.848322 0.229122 0.189631
O O3 0.886094 0.257472 0.070311
O O4 0.847606 0.000000 0.112713
O O5 0.118841 0.224665 0.436060
O O6 0.123612 0.238462 0.561497
O O7 0.000000 0.235958 0.500000
O O8 0.082479 0.000000 0.501856
O O9 0.250000 0.308393 0.412818
O O10 0.143624 0.500000 0.406053
O O11 0.154023 0.287640 0.321605
O O12 0.750000 0.698593 0.770156
O O13 0.853656 0.500000 0.762801
O O14 0.881793 0.773014 0.794783
O O15 0.368781 0.243610 0.685350
O O16 0.480407 0.210828 0.763379
O O17 0.384015 0.000000 0.744893
O O18 0.250000 0.232743 0.617263
O O19 0.334907 0.000000 0.622076
O O20 0.980173 0.746504 0.881843
O O21 0.957408 0.000000 0.830966
O O22 0.460356 0.500000 0.916951
O O23 0.500000 0.703278 0.000000
#
# Coordination Sequence:
#
# PCOD8211223 Si02
#       8
#     8   8   8   8   8   8   8   8
#     4   9  17  31  53  81 109 136 172 222 273 314
#     4  10  21  32  46  71 102 134 172 221 264 306
#     4   9  19  36  55  72  95 133 177 219 266 320
#     4   9  19  36  56  77 103 137 176 218 267 323
#     4   8  15  27  46  73 102 131 163 203 255 315
#     4   9  16  27  44  66  95 131 166 202 252 310
#     4  10  20  33  55  83 108 134 168 216 267 311
#     4  10  21  37  56  78 108 148 186 216 253 306
#
# _framework density 18.084517999999999
#
# number of rings (size 3 to 8) (size 9 to 14) (size 15 to 20)
#    0.000    2.750    0.000    3.000    1.750    4.500 
#    0.000    1.875    0.000    1.500    0.000    0.000 
#    0.000    0.000    0.000    0.000    0.000    0.000 
#
# Total GULP energy -793544.433474 kJ/mol
# GULP energy per Si atom -12399.131773 kJ/mol
# Density = 1.804336 g / cm^3
# Si number density = 18.084518 Si / 1000 Ang^3
#
#
#
# Elastic Constant Matrix: (Units=GPa)
#
#
# Indices 1 2 3 4 5 6 
#
# 1 133.5752 47.3548 75.0379 0.0000 0.0000 0.0000
# 2 47.3548 48.1297 43.9918 0.0000 0.0000 0.0000
# 3 75.0379 43.9918 100.8084 0.0000 0.0000 0.0000
# 4 0.0000 0.0000 0.0000 26.3063 0.0000 0.0000
# 5 0.0000 0.0000 0.0000 0.0000 27.3640 0.0000
# 6 0.0000 0.0000 0.0000 0.0000 0.0000 23.9165
#
#
#
# Elastic Compliance Matrix: (Units=1/GPa)
#
#
# Indices 1 2 3 4 5 6 
#
# 1 0.014216 -0.007178 -0.007449 0.000000 0.000000 0.000000
# 2 -0.007178 0.038188 -0.011322 0.000000 0.000000 0.000000
# 3 -0.007449 -0.011322 0.020406 0.000000 0.000000 0.000000
# 4 0.000000 0.000000 0.000000 0.038014 0.000000 0.000000
# 5 0.000000 0.000000 0.000000 0.000000 0.036544 0.000000
# 6 0.000000 0.000000 0.000000 0.000000 0.000000 0.041812
#
#
# Mechanical properties :
#
#
# Convention : Reuss Voigt Hill
#
# Bulk Modulus (GPa) = 47.82156 68.36470 58.09313
# Shear Modulus (GPa) = 20.15731 23.25929 21.70830
#
# Velocity S-wave (km/s) = 3.34221 3.59018 3.46841
# Velocity P-wave (km/s) = 6.43386 7.42097 6.94498
#
# Compressibility (1/GPa) = 0.02091107
#
# Stress axis : x y z
#
# Youngs Moduli (GPa) = 70.34330 26.18608 49.00634
#
# Poissons Ratio (x) = 0.18797 0.36506
# Poissons Ratio (y) = 0.50494 0.55484
# Poissons Ratio (z) = 0.52401 0.29647
#
# Static dielectric constant tensor:
#      x y z
#    x 3.478130 0.000000 0.000000 
#    y 0.000000 3.039700 0.000000 
#    z 0.000000 0.000000 3.339090 
# 
# 
# High freq. dielectric constant tensor:
#      x y z
#    x 1.708380 0.000000 0.000000 
#    y 0.000000 1.672160 0.000000 
#    z 0.000000 0.000000 1.696060 
# 
# From -- ./inp_files/33881.got.cif
#   From: 2010.03.12/outbox.cif.g09.slc.cpg/sg51_17_cif.got.tgz:33881.got - 2010.04.16 13:43:02.
