data_PCOD8211635
_publ_section_title
;
Structure prediction by ZEFSAII (Michael W. Deem and Ramdas Pophale) SiO2 
 PCOD8211635
Probable space group: P M M A
;
_chemical_formula_sum "Si O2"
_cell_formula_units_Z 36
_cell_length_a 8.665267
_cell_length_b 23.112268
_cell_length_c 9.365040
_cell_angle_alpha 90.000000
_cell_angle_beta 90.000000
_cell_angle_gamma 90.000000
_cell_volume 1875.573770
_symmetry_space_group_name_H-M "P M M A"
_symmetry_group_IT_number 51
_symmetry_cell_setting 'orthorhombic'
loop_
_space_group_symop_operation_xyz
x,y,z
1/2-x,-y,z
1/2+x,-y,-z
-x,y,-z
-x,-y,-z
1/2+x,y,-z
1/2-x,y,z
x,-y,z
loop_
_atom_site_type_symbol
_atom_site_label
_atom_site_fract_x
_atom_site_fract_y
_atom_site_fract_z
Si Si1 0.932149 0.435910 0.847326
Si Si2 0.569033 0.897229 0.157875
Si Si3 0.432800 0.000000 0.341311
Si Si4 0.930259 0.212987 0.346294
Si Si5 0.566971 0.332330 0.654655
O O1 0.750000 0.432431 0.857688
O O2 0.983945 0.500000 0.794025
O O3 0.997345 0.386476 0.744016
O O4 0.000000 0.422076 0.000000
O O5 0.750000 0.910940 0.149957
O O6 0.487475 0.944031 0.256441
O O7 0.534865 0.835536 0.229142
O O8 0.500000 0.898514 0.000000
O O9 0.500000 0.000000 0.500000
O O10 0.250000 0.000000 0.352753
O O11 0.750000 0.222798 0.369935
O O12 0.000000 0.195513 0.500000
O O13 0.004993 0.271601 0.283362
O O14 0.500000 0.341794 0.500000
O O15 0.750000 0.330608 0.651567
#
# Coordination Sequence:
#
# PCOD8211635 Si02
#       5
#     8   8   4   8   8
#     4   9  19  35  53  75 104 139 179 222 270 325
#     4  11  24  41  61  87 118 152 189 231 279 329
#     4  12  25  42  65  90 118 152 190 232 277 330
#     4  10  21  37  58  82 110 145 185 227 273 327
#     4  10  20  34  54  79 108 141 179 225 273 324
#
# _framework density 19.194126000000001
#
# number of rings (size 3 to 8) (size 9 to 14) (size 15 to 20)
#    0.000    1.778    0.000    5.333    0.000    8.444 
#    0.000    4.444    0.000    0.000    0.000    0.000 
#    0.000    0.000    0.000    0.000    0.000    0.000 
#
# Total GULP energy -446413.812753 kJ/mol
# GULP energy per Si atom -12400.383688 kJ/mol
# Density = 1.915044 g / cm^3
# Si number density = 19.194126 Si / 1000 Ang^3
#
#
#
# Elastic Constant Matrix: (Units=GPa)
#
#
# Indices 1 2 3 4 5 6 
#
# 1 107.3767 71.2768 59.0972 0.0000 0.0000 0.0000
# 2 71.2768 168.8401 100.2457 0.0000 0.0000 0.0000
# 3 59.0972 100.2457 130.2304 0.0000 0.0000 0.0000
# 4 0.0000 0.0000 0.0000 258.8688 0.0000 0.0000
# 5 0.0000 0.0000 0.0000 0.0000 34.6171 0.0000
# 6 0.0000 0.0000 0.0000 0.0000 0.0000 29.1653
#
#
#
# Elastic Compliance Matrix: (Units=1/GPa)
#
#
# Indices 1 2 3 4 5 6 
#
# 1 0.013641 -0.003837 -0.003237 0.000000 0.000000 0.000000
# 2 -0.003837 0.011987 -0.007486 0.000000 0.000000 0.000000
# 3 -0.003237 -0.007486 0.014910 0.000000 0.000000 0.000000
# 4 0.000000 0.000000 0.000000 0.003863 0.000000 0.000000
# 5 0.000000 0.000000 0.000000 0.000000 0.028887 0.000000
# 6 0.000000 0.000000 0.000000 0.000000 0.000000 0.034287
#
#
# Mechanical properties :
#
#
# Convention : Reuss Voigt Hill
#
# Bulk Modulus (GPa) = 87.57377 96.40962 91.99170
# Shear Modulus (GPa) = 35.58649 76.25207 55.91928
#
# Velocity S-wave (km/s) = 4.31052 6.30976 5.40341
# Velocity P-wave (km/s) = 8.39633 10.16965 9.32524
#
# Compressibility (1/GPa) = 0.01141894
#
# Stress axis : x y z
#
# Youngs Moduli (GPa) = 73.30585 83.42131 67.06912
#
# Poissons Ratio (x) = 0.32009 0.21709
# Poissons Ratio (y) = 0.28128 0.50209
# Poissons Ratio (z) = 0.23727 0.62450
#
# Static dielectric constant tensor:
#      x y z
#    x 3.633190 0.000000 0.000000 
#    y 0.000000 4.068760 0.000000 
#    z 0.000000 0.000000 3.512110 
# 
# 
# High freq. dielectric constant tensor:
#      x y z
#    x 1.758420 0.000000 0.000000 
#    y 0.000000 1.766780 0.000000 
#    z 0.000000 0.000000 1.744690 
# 
# From -- ./inp_files/5280.got.cif
#   From: 2010.03.12/outbox.cif.g09.slc.cpg/sg51_3_cif.got.tgz:5280.got - 2010.04.16 13:43:02.
