data_PCOD8211845
_publ_section_title
;
Structure prediction by ZEFSAII (Michael W. Deem and Ramdas Pophale) SiO2 
 PCOD8211845
Probable space group: P M M A
;
_chemical_formula_sum "Si O2"
_cell_formula_units_Z 40
_cell_length_a 23.977139
_cell_length_b 9.291387
_cell_length_c 9.634477
_cell_angle_alpha 90.000000
_cell_angle_beta 90.000000
_cell_angle_gamma 90.000000
_cell_volume 2146.377241
_symmetry_space_group_name_H-M "P M M A"
_symmetry_group_IT_number 51
_symmetry_cell_setting 'orthorhombic'
loop_
_space_group_symop_operation_xyz
x,y,z
1/2-x,-y,z
1/2+x,-y,-z
-x,y,-z
-x,-y,-z
1/2+x,y,-z
1/2-x,y,z
x,-y,z
loop_
_atom_site_type_symbol
_atom_site_label
_atom_site_fract_x
_atom_site_fract_y
_atom_site_fract_z
Si Si1 0.354874 0.170563 0.197246
Si Si2 0.648166 0.830022 0.484794
Si Si3 0.750000 0.828683 0.299526
Si Si4 0.250000 0.170875 0.016898
Si Si5 0.967658 0.332843 0.859746
Si Si6 0.455735 0.658153 0.618259
O O1 0.341305 0.217044 0.355767
O O2 0.410830 0.243937 0.142715
O O3 0.362532 0.000000 0.186605
O O4 0.304651 0.225485 0.099035
O O5 0.696798 0.771066 0.384803
O O6 0.591287 0.766937 0.428091
O O7 0.643940 0.000000 0.475235
O O8 0.750000 0.768316 0.141333
O O9 0.750000 0.000000 0.296336
O O10 0.250000 0.000000 0.014248
O O11 0.953107 0.500000 0.833033
O O12 0.011031 0.273452 0.746606
O O13 0.000000 0.306580 0.000000
O O14 0.500000 0.637123 0.500000
O O15 0.430381 0.500000 0.655443
#
# Coordination Sequence:
#
# PCOD8211845 Si02
#       6
#     8   8   4   4   8   8
#     4  10  20  35  56  81 108 140 178 219 262 314
#     4  10  20  34  56  82 108 138 177 221 263 311
#     4   9  19  35  54  79 108 140 175 218 270 314
#     4   9  19  35  54  77 108 142 175 216 268 316
#     4  10  22  38  55  77 109 145 177 215 268 320
#     4  10  20  36  56  78 107 142 176 214 263 317
#
# _framework density 18.636053
#
# number of rings (size 3 to 8) (size 9 to 14) (size 15 to 20)
#    0.000    2.200    2.000    0.600    2.800    4.000 
#    0.000    1.000    0.000    3.600    0.000    0.000 
#    0.000    0.000    0.000    0.000    0.000    0.000 
#
# Total GULP energy -495916.100611 kJ/mol
# GULP energy per Si atom -12397.902515 kJ/mol
# Density = 1.859364 g / cm^3
# Si number density = 18.636053 Si / 1000 Ang^3
#
#
#
# Elastic Constant Matrix: (Units=GPa)
#
#
# Indices 1 2 3 4 5 6 
#
# 1 141.4562 36.7363 83.7180 0.0000 0.0000 0.0000
# 2 36.7363 21.3761 26.5876 0.0000 0.0000 0.0000
# 3 83.7180 26.5876 147.0373 0.0000 0.0000 0.0000
# 4 0.0000 0.0000 0.0000 21.1916 0.0000 0.0000
# 5 0.0000 0.0000 0.0000 0.0000 36.7055 0.0000
# 6 0.0000 0.0000 0.0000 0.0000 0.0000 -62.2084
#
#
#
# Elastic Compliance Matrix: (Units=1/GPa)
#
#
# Indices 1 2 3 4 5 6 
#
# 1 0.015236 -0.019861 -0.005083 0.000000 0.000000 0.000000
# 2 -0.019861 0.086246 -0.004287 0.000000 0.000000 0.000000
# 3 -0.005083 -0.004287 0.010471 0.000000 0.000000 0.000000
# 4 0.000000 0.000000 0.000000 0.047188 0.000000 0.000000
# 5 0.000000 0.000000 0.000000 0.000000 0.027244 0.000000
# 6 0.000000 0.000000 0.000000 0.000000 0.000000 -0.016075
#
#
# Mechanical properties :
#
#
# Convention : Reuss Voigt Hill
#
# Bulk Modulus (GPa) = 18.69535 67.10593 42.90064
# Shear Modulus (GPa) = 20.27561 9.99292 15.13427
#
# Velocity S-wave (km/s) = 3.30203 2.31814 2.85282
# Velocity P-wave (km/s) = 4.95898 6.57662 5.82423
#
# Compressibility (1/GPa) = 0.05348924
#
# Stress axis : x y z
#
# Youngs Moduli (GPa) = 65.63505 11.59479 95.50638
#
# Poissons Ratio (x) = 0.23028 0.48550
# Poissons Ratio (y) = 1.30357 0.40943
# Poissons Ratio (z) = 0.33365 0.04971
#
# Static dielectric constant tensor:
#      x y z
#    x 3.532680 0.000000 0.000000 
#    y 0.000000 3.151500 0.000000 
#    z 0.000000 0.000000 3.763890 
# 
# 
# High freq. dielectric constant tensor:
#      x y z
#    x 1.729540 0.000000 0.000000 
#    y 0.000000 1.690400 0.000000 
#    z 0.000000 0.000000 1.743330 
# 
# From -- ./inp_files/10700.got.cif
#   From: 2010.03.12/outbox.cif.g09.slc.cpg/sg51_6_cif.got.tgz:10700.got - 2010.04.16 13:43:02.
