data_PCOD8211279
_publ_section_title
;
Structure prediction by ZEFSAII (Michael W. Deem and Ramdas Pophale) SiO2 
 PCOD8211279
Probable space group: P M M A
;
_chemical_formula_sum "Si O2"
_cell_formula_units_Z 44
_cell_length_a 8.805717
_cell_length_b 28.373587
_cell_length_c 9.609387
_cell_angle_alpha 90.000000
_cell_angle_beta 90.000000
_cell_angle_gamma 90.000000
_cell_volume 2400.903203
_symmetry_space_group_name_H-M "P M M A"
_symmetry_group_IT_number 51
_symmetry_cell_setting 'orthorhombic'
loop_
_space_group_symop_operation_xyz
x,y,z
1/2-x,-y,z
1/2+x,-y,-z
-x,y,-z
-x,-y,-z
1/2+x,y,-z
1/2-x,y,z
x,-y,z
loop_
_atom_site_type_symbol
_atom_site_label
_atom_site_fract_x
_atom_site_fract_y
_atom_site_fract_z
Si Si1 0.068843 0.316290 0.851167
Si Si2 0.428986 0.398446 0.650834
Si Si3 0.072849 0.500000 0.648510
Si Si4 0.070899 0.053326 0.145149
Si Si5 0.569716 0.218241 0.851108
Si Si6 0.071471 0.133531 0.349156
O O1 0.250000 0.313183 0.860103
O O2 0.009902 0.357441 0.750106
O O3 0.001818 0.266976 0.796010
O O4 0.000000 0.328386 0.000000
O O5 0.500000 0.391743 0.500000
O O6 0.250000 0.393960 0.633787
O O7 0.473612 0.449928 0.719858
O O8 0.250000 0.500000 0.624488
O O9 0.000000 0.500000 0.500000
O O10 0.250000 0.057634 0.128206
O O11 0.011957 0.086979 0.268686
O O12 0.020135 0.000000 0.181021
O O13 0.000000 0.070289 0.000000
O O14 0.750000 0.223312 0.867347
O O15 0.523063 0.178991 0.739506
O O16 0.500000 0.204220 0.000000
O O17 0.250000 0.131228 0.368107
O O18 0.000000 0.136215 0.500000
#
# Coordination Sequence:
#
# PCOD8211279 Si02
#       6
#     8   8   4   8   8   8
#     4  10  20  34  51  73  99 129 163 200 244 292
#     4   9  18  31  50  73  97 126 161 200 242 288
#     4   8  14  28  47  68  94 124 158 196 237 284
#     4   9  18  34  55  78 103 132 168 207 245 290
#     4  10  20  35  54  74  96 127 166 205 244 290
#     4  10  22  36  51  75 105 134 165 203 247 293
#
# _framework density 18.326436000000001
#
# number of rings (size 3 to 8) (size 9 to 14) (size 15 to 20)
#    0.000    2.545    0.000    2.727    0.000    4.727 
#    0.000    4.091    0.000    0.000    0.000    0.000 
#    0.000    0.000    0.000    0.000    0.000    0.000 
#
# Total GULP energy -545346.047748 kJ/mol
# GULP energy per Si atom -12394.228358 kJ/mol
# Density = 1.828472 g / cm^3
# Si number density = 18.326436 Si / 1000 Ang^3
#
#
#
# Elastic Constant Matrix: (Units=GPa)
#
#
# Indices 1 2 3 4 5 6 
#
# 1 43.5260 44.0988 35.5566 0.0000 0.0000 0.0000
# 2 44.0988 181.2270 108.9618 0.0000 0.0000 0.0000
# 3 35.5566 108.9618 126.5440 0.0000 0.0000 0.0000
# 4 0.0000 0.0000 0.0000 14.5741 0.0000 0.0000
# 5 0.0000 0.0000 0.0000 0.0000 30.7501 0.0000
# 6 0.0000 0.0000 0.0000 0.0000 0.0000 -12.2317
#
#
#
# Elastic Compliance Matrix: (Units=1/GPa)
#
#
# Indices 1 2 3 4 5 6 
#
# 1 0.031791 -0.004904 -0.004710 0.000000 0.000000 0.000000
# 2 -0.004904 0.012197 -0.009125 0.000000 0.000000 0.000000
# 3 -0.004710 -0.009125 0.017083 0.000000 0.000000 0.000000
# 4 0.000000 0.000000 0.000000 0.068615 0.000000 0.000000
# 5 0.000000 0.000000 0.000000 0.000000 0.032520 0.000000
# 6 0.000000 0.000000 0.000000 0.000000 0.000000 -0.081754
#
#
# Mechanical properties :
#
#
# Convention : Reuss Voigt Hill
#
# Bulk Modulus (GPa) = 42.38450 80.94792 61.66621
# Shear Modulus (GPa) = 39.74739 17.46380 28.60560
#
# Velocity S-wave (km/s) = 4.66215 3.09030 3.95510
# Velocity P-wave (km/s) = 7.22209 7.54978 7.38775
#
# Compressibility (1/GPa) = 0.02359353
#
# Stress axis : x y z
#
# Youngs Moduli (GPa) = 31.45552 81.98414 58.53806
#
# Poissons Ratio (x) = 0.40204 0.27573
# Poissons Ratio (y) = 0.15425 0.53415
# Poissons Ratio (z) = 0.14816 0.74809
#
# Static dielectric constant tensor:
#      x y z
#    x 3.341540 0.000000 0.000000 
#    y 0.000000 4.004040 0.000000 
#    z 0.000000 0.000000 3.302070 
# 
# 
# High freq. dielectric constant tensor:
#      x y z
#    x 1.709090 0.000000 0.000000 
#    y 0.000000 1.733720 0.000000 
#    z 0.000000 0.000000 1.690580 
# 
# From -- ./inp_files/5756.got.cif
#   From: 2010.03.12/outbox.cif.g09.slc.cpg/sg51_3_cif.got.tgz:5756.got - 2010.04.16 13:43:02.
