data_PCOD8211779
_publ_section_title
;
Structure prediction by ZEFSAII (Michael W. Deem and Ramdas Pophale) SiO2 
 PCOD8211779
Probable space group: P M M A
;
_chemical_formula_sum "Si O2"
_cell_formula_units_Z 56
_cell_length_a 9.061178
_cell_length_b 14.484817
_cell_length_c 21.244506
_cell_angle_alpha 90.000000
_cell_angle_beta 90.000000
_cell_angle_gamma 90.000000
_cell_volume 2788.330899
_symmetry_space_group_name_H-M "P M M A"
_symmetry_group_IT_number 51
_symmetry_cell_setting 'orthorhombic'
loop_
_space_group_symop_operation_xyz
x,y,z
1/2-x,-y,z
1/2+x,-y,-z
-x,y,-z
-x,-y,-z
1/2+x,y,-z
1/2-x,y,z
x,-y,z
loop_
_atom_site_type_symbol
_atom_site_label
_atom_site_fract_x
_atom_site_fract_y
_atom_site_fract_z
Si Si1 0.576318 0.397184 0.697055
Si Si2 0.581605 0.109432 0.937215
Si Si3 0.924018 0.893463 0.191559
Si Si4 0.577777 0.106174 0.438910
Si Si5 0.575837 0.214483 0.317781
Si Si6 0.088405 0.605045 0.824473
Si Si7 0.414371 0.389999 0.060424
O O1 0.750000 0.382904 0.692850
O O2 0.532975 0.500000 0.670933
O O3 0.493904 0.313602 0.662784
O O4 0.525116 0.387916 0.768331
O O5 0.750000 0.145397 0.937172
O O6 0.503158 0.141862 0.872191
O O7 0.575881 0.000000 0.939639
O O8 0.500000 0.148837 0.000000
O O9 0.750000 0.885223 0.180939
O O10 0.975023 0.828256 0.250360
O O11 0.966188 0.000000 0.207248
O O12 0.500000 0.151608 0.500000
O O13 0.750000 0.122081 0.447347
O O14 0.520527 0.149194 0.373841
O O15 0.533455 0.000000 0.434478
O O16 0.750000 0.225838 0.318249
O O17 0.250000 0.651331 0.809898
O O18 0.118394 0.500000 0.843122
O O19 0.007396 0.654218 0.882508
O O20 0.250000 0.348354 0.060641
O O21 0.406263 0.500000 0.064178
O O22 0.500000 0.354628 0.000000
#
# Coordination Sequence:
#
# PCOD8211779 Si02
#       7
#     8   8   8   8   8   8   8
#     4  10  21  36  53  74 101 134 174 223 276 324
#     4   9  16  26  42  66  98 138 182 224 267 319
#     4   9  17  30  49  75 108 143 178 219 268 322
#     4   9  18  34  57  87 123 159 190 218 254 308
#     4  10  20  34  55  82 111 145 184 225 270 321
#     4   9  16  27  44  64  86 115 154 202 257 316
#     4   9  15  22  34  55  83 113 148 194 250 313
#
# _framework density 20.0837
#
# number of rings (size 3 to 8) (size 9 to 14) (size 15 to 20)
#    0.000    2.714    0.000    2.143    0.000    8.857 
#    0.000    0.000    0.000    5.571    0.000    2.000 
#    0.000    0.000    0.000    0.000    0.000    0.000 
#
# Total GULP energy -693913.929343 kJ/mol
# GULP energy per Si atom -12391.320167 kJ/mol
# Density = 2.003799 g / cm^3
# Si number density = 20.083700 Si / 1000 Ang^3
#
#
#
# Elastic Constant Matrix: (Units=GPa)
#
#
# Indices 1 2 3 4 5 6 
#
# 1 68.3896 30.5250 49.5241 0.0000 0.0000 0.0000
# 2 30.5250 85.3642 38.6807 0.0000 0.0000 0.0000
# 3 49.5241 38.6807 136.0729 0.0000 0.0000 0.0000
# 4 0.0000 0.0000 0.0000 -47.7533 0.0000 0.0000
# 5 0.0000 0.0000 0.0000 0.0000 31.0739 0.0000
# 6 0.0000 0.0000 0.0000 0.0000 0.0000 14.0772
#
#
#
# Elastic Compliance Matrix: (Units=1/GPa)
#
#
# Indices 1 2 3 4 5 6 
#
# 1 0.021401 -0.004733 -0.006443 0.000000 0.000000 0.000000
# 2 -0.004733 0.014493 -0.002397 0.000000 0.000000 0.000000
# 3 -0.006443 -0.002397 0.010376 0.000000 0.000000 0.000000
# 4 0.000000 0.000000 0.000000 -0.020941 0.000000 0.000000
# 5 0.000000 0.000000 0.000000 0.000000 0.032181 0.000000
# 6 0.000000 0.000000 0.000000 0.000000 0.000000 0.071037
#
#
# Mechanical properties :
#
#
# Convention : Reuss Voigt Hill
#
# Bulk Modulus (GPa) = 52.29555 58.58736 55.44145
# Shear Modulus (GPa) = 30.85126 10.88603 20.86865
#
# Velocity S-wave (km/s) = 3.92361 2.33069 3.22698
# Velocity P-wave (km/s) = 6.82800 6.03968 6.44590
#
# Compressibility (1/GPa) = 0.01912209
#
# Stress axis : x y z
#
# Youngs Moduli (GPa) = 46.72781 68.99777 96.38023
#
# Poissons Ratio (x) = 0.32656 0.62102
# Poissons Ratio (y) = 0.22116 0.23106
# Poissons Ratio (z) = 0.30109 0.16541
#
# Static dielectric constant tensor:
#      x y z
#    x 3.786060 0.000000 0.000000 
#    y 0.000000 3.809020 0.000000 
#    z 0.000000 0.000000 3.693470 
# 
# 
# High freq. dielectric constant tensor:
#      x y z
#    x 1.784060 0.000000 0.000000 
#    y 0.000000 1.773700 0.000000 
#    z 0.000000 0.000000 1.763300 
# 
# From -- ./inp_files/32007.got.cif
#   From: 2010.03.12/outbox.cif.g09.slc.cpg/sg51_17_cif.got.tgz:32007.got - 2010.04.16 13:43:02.
