data_PCOD8211928
_publ_section_title
;
Structure prediction by ZEFSAII (Michael W. Deem and Ramdas Pophale) SiO2 
 PCOD8211928
Probable space group: P M M A
;
_chemical_formula_sum "Si O2"
_cell_formula_units_Z 64
_cell_length_a 26.256290
_cell_length_b 13.772223
_cell_length_c 9.632760
_cell_angle_alpha 90.000000
_cell_angle_beta 90.000000
_cell_angle_gamma 90.000000
_cell_volume 3483.278079
_symmetry_space_group_name_H-M "P M M A"
_symmetry_group_IT_number 51
_symmetry_cell_setting 'orthorhombic'
loop_
_space_group_symop_operation_xyz
x,y,z
1/2-x,-y,z
1/2+x,-y,-z
-x,y,-z
-x,-y,-z
1/2+x,y,-z
1/2-x,y,z
x,-y,z
loop_
_atom_site_type_symbol
_atom_site_label
_atom_site_fract_x
_atom_site_fract_y
_atom_site_fract_z
Si Si1 0.191881 0.109188 0.142626
Si Si2 0.375188 0.887772 0.875533
Si Si3 0.691495 0.731984 0.642270
Si Si4 0.946366 0.389764 0.519555
Si Si5 0.610908 0.389468 0.790392
Si Si6 0.190296 0.231527 0.680236
Si Si7 0.116420 0.612253 0.731745
Si Si8 0.440481 0.714123 0.959888
O O1 0.250000 0.130324 0.102323
O O2 0.174054 0.174238 0.271034
O O3 0.183648 0.000000 0.194346
O O4 0.160232 0.131719 0.006545
O O5 0.342438 0.859476 0.738586
O O6 0.392445 0.000000 0.862101
O O7 0.425090 0.820371 0.899743
O O8 0.750000 0.704873 0.664057
O O9 0.661253 0.640614 0.705133
O O10 0.680633 0.757104 0.483092
O O11 0.952544 0.500000 0.466327
O O12 0.934652 0.383708 0.680990
O O13 0.902911 0.347827 0.418404
O O14 0.000000 0.333911 0.500000
O O15 0.617934 0.500000 0.845866
O O16 0.595861 0.315532 0.911775
O O17 0.250000 0.218946 0.714692
O O18 0.168219 0.326947 0.760168
O O19 0.131634 0.500000 0.735051
O O20 0.071595 0.634179 0.842122
O O21 0.500000 0.712417 0.000000
#
# Coordination Sequence:
#
# PCOD8211928 Si02
#       8
#     8   8   8   8   8   8   8   8
#     4   9  17  32  56  81 105 137 178 224 274 330
#     4  10  21  38  60  84 111 143 181 229 284 340
#     4  10  20  35  54  81 114 147 185 228 277 331
#     4   9  17  30  50  73 100 140 188 233 271 313
#     4  11  21  35  54  81 114 149 189 229 272 324
#     4  10  21  35  55  83 114 149 187 227 274 333
#     4  10  20  35  52  77 111 146 189 233 277 328
#     4  11  23  38  58  83 110 146 185 236 285 334
#
# _framework density 18.373497
#
# number of rings (size 3 to 8) (size 9 to 14) (size 15 to 20)
#    0.000    2.000    2.500    1.500    0.000    4.000 
#    0.000    2.500    0.000    1.500    0.000    0.875 
#    0.000    0.000    0.000    0.000    0.000    0.000 
#
# Total GULP energy -793206.912469 kJ/mol
# GULP energy per Si atom -12393.858007 kJ/mol
# Density = 1.833168 g / cm^3
# Si number density = 18.373497 Si / 1000 Ang^3
#
#
#
# Elastic Constant Matrix: (Units=GPa)
#
#
# Indices 1 2 3 4 5 6 
#
# 1 68.5843 31.5207 24.6372 0.0000 0.0000 0.0000
# 2 31.5207 91.6188 30.6294 0.0000 0.0000 0.0000
# 3 24.6372 30.6294 74.4349 0.0000 0.0000 0.0000
# 4 0.0000 0.0000 0.0000 24.9437 0.0000 0.0000
# 5 0.0000 0.0000 0.0000 0.0000 26.4487 0.0000
# 6 0.0000 0.0000 0.0000 0.0000 0.0000 20.5314
#
#
#
# Elastic Compliance Matrix: (Units=1/GPa)
#
#
# Indices 1 2 3 4 5 6 
#
# 1 0.018301 -0.004952 -0.004019 0.000000 0.000000 0.000000
# 2 -0.004952 0.013996 -0.004120 0.000000 0.000000 0.000000
# 3 -0.004019 -0.004120 0.016460 0.000000 0.000000 0.000000
# 4 0.000000 0.000000 0.000000 0.040090 0.000000 0.000000
# 5 0.000000 0.000000 0.000000 0.000000 0.037809 0.000000
# 6 0.000000 0.000000 0.000000 0.000000 0.000000 0.048706
#
#
# Mechanical properties :
#
#
# Convention : Reuss Voigt Hill
#
# Bulk Modulus (GPa) = 44.30048 45.35696 44.82872
# Shear Modulus (GPa) = 23.91540 24.24147 24.07844
#
# Velocity S-wave (km/s) = 3.61172 3.63626 3.62401
# Velocity P-wave (km/s) = 6.44640 6.50918 6.47787
#
# Compressibility (1/GPa) = 0.02257312
#
# Stress axis : x y z
#
# Youngs Moduli (GPa) = 54.64310 71.44892 60.75217
#
# Poissons Ratio (x) = 0.35385 0.24419
# Poissons Ratio (y) = 0.27062 0.25030
# Poissons Ratio (z) = 0.21963 0.29437
#
# Static dielectric constant tensor:
#      x y z
#    x 3.357840 0.000000 0.000000 
#    y 0.000000 3.294220 0.000000 
#    z 0.000000 0.000000 3.474040 
# 
# 
# High freq. dielectric constant tensor:
#      x y z
#    x 1.707640 0.000000 0.000000 
#    y 0.000000 1.697630 0.000000 
#    z 0.000000 0.000000 1.721450 
# 
# From -- ./inp_files/11890.got.cif
#   From: 2010.03.12/outbox.cif.g09.slc.cpg/sg51_6_cif.got.tgz:11890.got - 2010.04.16 13:43:02.
