data_PCOD8211549
_publ_section_title
;
Structure prediction by ZEFSAII (Michael W. Deem and Ramdas Pophale) SiO2 
 PCOD8211549
Probable space group: P M M A
;
_chemical_formula_sum "Si O2"
_cell_formula_units_Z 64
_cell_length_a 13.942645
_cell_length_b 8.899520
_cell_length_c 25.978974
_cell_angle_alpha 90.000000
_cell_angle_beta 90.000000
_cell_angle_gamma 90.000000
_cell_volume 3223.545083
_symmetry_space_group_name_H-M "P M M A"
_symmetry_group_IT_number 51
_symmetry_cell_setting 'orthorhombic'
loop_
_space_group_symop_operation_xyz
x,y,z
1/2-x,-y,z
1/2+x,-y,-z
-x,y,-z
-x,-y,-z
1/2+x,y,-z
1/2-x,y,z
x,-y,z
loop_
_atom_site_type_symbol
_atom_site_label
_atom_site_fract_x
_atom_site_fract_y
_atom_site_fract_z
Si Si1 0.466070 0.676160 0.375833
Si Si2 0.642954 0.823980 0.417455
Si Si3 0.863957 0.330112 0.024419
Si Si4 0.635828 0.828336 0.921971
Si Si5 0.357861 0.678640 0.275542
Si Si6 0.636434 0.168263 0.533507
Si Si7 0.140562 0.177659 0.870601
Si Si8 0.465250 0.678396 0.173331
O O1 0.477154 0.500000 0.371055
O O2 0.572298 0.745923 0.377034
O O3 0.410050 0.741886 0.326479
O O4 0.408152 0.714000 0.427335
O O5 0.750000 0.758515 0.409513
O O6 0.605347 0.790056 0.475356
O O7 0.643983 0.000000 0.407189
O O8 0.750000 0.329813 0.021457
O O9 0.903579 0.500000 0.028440
O O10 0.897036 0.236171 0.074178
O O11 0.906041 0.251341 0.973300
O O12 0.750000 0.821624 0.921928
O O13 0.598697 0.738969 0.872993
O O14 0.599269 0.000000 0.920296
O O15 0.250000 0.744577 0.273446
O O16 0.353658 0.500000 0.277118
O O17 0.416299 0.734037 0.225912
O O18 0.750000 0.175419 0.537333
O O19 0.600087 0.000000 0.547229
O O20 0.250000 0.228071 0.859897
O O21 0.072462 0.252428 0.827750
O O22 0.130490 0.000000 0.869319
O O23 0.471494 0.500000 0.170097
#
# Coordination Sequence:
#
# PCOD8211549 Si02
#       8
#     8   8   8   8   8   8   8   8
#     4  11  21  33  54  83 112 143 181 228 280 327
#     4   9  19  36  55  76 109 152 190 224 266 319
#     4   9  17  31  53  81 111 143 181 220 258 312
#     4  10  20  34  53  80 115 148 177 217 272 327
#     4   9  20  39  59  80 109 142 175 217 271 325
#     4   9  18  33  53  78 110 149 189 225 266 322
#     4  10  21  38  58  80 110 143 173 215 273 327
#     4  11  22  37  59  81 102 137 185 229 268 316
#
# _framework density 19.853918
#
# number of rings (size 3 to 8) (size 9 to 14) (size 15 to 20)
#    0.000    2.250    0.000    3.750    0.000    7.000 
#    0.000    6.875    0.000    8.250    0.000    0.000 
#    0.000    0.000    0.000    0.000    0.000    0.000 
#
# Total GULP energy -793728.691414 kJ/mol
# GULP energy per Si atom -12402.010803 kJ/mol
# Density = 1.980873 g / cm^3
# Si number density = 19.853918 Si / 1000 Ang^3
#
#
#
# Elastic Constant Matrix: (Units=GPa)
#
#
# Indices 1 2 3 4 5 6 
#
# 1 92.1834 38.1356 80.1285 0.0000 0.0000 0.0000
# 2 38.1356 79.7733 44.9171 0.0000 0.0000 0.0000
# 3 80.1285 44.9171 123.4606 0.0000 0.0000 0.0000
# 4 0.0000 0.0000 0.0000 9.3903 0.0000 0.0000
# 5 0.0000 0.0000 0.0000 0.0000 36.1785 0.0000
# 6 0.0000 0.0000 0.0000 0.0000 0.0000 31.8511
#
#
#
# Elastic Compliance Matrix: (Units=1/GPa)
#
#
# Indices 1 2 3 4 5 6 
#
# 1 0.025703 -0.003640 -0.015357 0.000000 0.000000 0.000000
# 2 -0.003640 0.016281 -0.003561 0.000000 0.000000 0.000000
# 3 -0.015357 -0.003561 0.019362 0.000000 0.000000 0.000000
# 4 0.000000 0.000000 0.000000 0.106492 0.000000 0.000000
# 5 0.000000 0.000000 0.000000 0.000000 0.027641 0.000000
# 6 0.000000 0.000000 0.000000 0.000000 0.000000 0.031396
#
#
# Mechanical properties :
#
#
# Convention : Reuss Voigt Hill
#
# Bulk Modulus (GPa) = 61.61583 69.08664 65.35123
# Shear Modulus (GPa) = 18.02443 24.29972 21.16208
#
# Velocity S-wave (km/s) = 3.01633 3.50226 3.26834
# Velocity P-wave (km/s) = 6.57518 7.15734 6.87242
#
# Compressibility (1/GPa) = 0.01622960
#
# Stress axis : x y z
#
# Youngs Moduli (GPa) = 38.90605 61.42308 51.64646
#
# Poissons Ratio (x) = 0.22359 0.79315
# Poissons Ratio (y) = 0.14162 0.18389
# Poissons Ratio (z) = 0.59750 0.21870
#
# Static dielectric constant tensor:
#      x y z
#    x 3.825000 0.000000 0.000000 
#    y 0.000000 3.489910 0.000000 
#    z 0.000000 0.000000 3.618230 
# 
# 
# High freq. dielectric constant tensor:
#      x y z
#    x 1.791530 0.000000 0.000000 
#    y 0.000000 1.763590 0.000000 
#    z 0.000000 0.000000 1.757780 
# 
# From -- ./inp_files/35839.got.cif
#   From: 2010.03.12/outbox.cif.g09.slc.cpg/sg51_18_cif.got.tgz:35839.got - 2010.04.16 13:43:02.
