data_PCOD8211913
_publ_section_title
;
Structure prediction by ZEFSAII (Michael W. Deem and Ramdas Pophale) SiO2 
 PCOD8211913
Probable space group: P M M A
;
_chemical_formula_sum "Si O2"
_cell_formula_units_Z 48
_cell_length_a 20.471017
_cell_length_b 7.986734
_cell_length_c 15.218389
_cell_angle_alpha 90.000000
_cell_angle_beta 90.000000
_cell_angle_gamma 90.000000
_cell_volume 2488.154364
_symmetry_space_group_name_H-M "P M M A"
_symmetry_group_IT_number 51
_symmetry_cell_setting 'orthorhombic'
loop_
_space_group_symop_operation_xyz
x,y,z
1/2-x,-y,z
1/2+x,-y,-z
-x,y,-z
-x,-y,-z
1/2+x,y,-z
1/2-x,y,z
x,-y,z
loop_
_atom_site_type_symbol
_atom_site_label
_atom_site_fract_x
_atom_site_fract_y
_atom_site_fract_z
Si Si1 0.947601 0.689910 0.067874
Si Si2 0.855686 0.196668 0.779356
Si Si3 0.677174 0.191557 0.978322
Si Si4 0.419608 0.500000 0.493770
Si Si5 0.821056 0.500000 0.660855
Si Si6 0.501569 0.191930 0.243040
Si Si7 0.945415 0.815055 0.425777
O O1 0.968585 0.500000 0.084022
O O2 0.949011 0.778920 0.162475
O O3 0.874642 0.696512 0.030139
O O4 0.000000 0.773217 0.000000
O O5 0.825472 0.222515 0.874846
O O6 0.819926 0.327024 0.716011
O O7 0.930593 0.259392 0.783340
O O8 0.847666 0.000000 0.749548
O O9 0.750000 0.238214 0.010963
O O10 0.660046 0.000000 0.999814
O O11 0.500000 0.500000 0.500000
O O12 0.385632 0.500000 0.399165
O O13 0.394845 0.328075 0.540860
O O14 0.750000 0.500000 0.611674
O O15 0.526629 0.265997 0.335380
O O16 0.494390 0.000000 0.264184
O O17 0.000000 0.836257 0.500000
O O18 0.912504 0.000000 0.411930
#
# Coordination Sequence:
#
# PCOD8211913 Si02
#       7
#     8   8   8   4   4   8   8
#     4  11  23  35  52  85 120 154 198 248 296 354
#     4  10  21  37  58  85 120 160 196 234 291 360
#     4  10  21  37  56  77 111 160 203 243 297 358
#     4  10  20  36  58  81 109 153 186 235 288 337
#     4  12  26  38  58  90 124 157 195 242 296 363
#     4  10  20  34  59  87 117 154 191 243 298 350
#     4   9  18  33  54  86 115 142 186 235 287 342
#
# _framework density 19.291407
#
# number of rings (size 3 to 8) (size 9 to 14) (size 15 to 20)
#    0.000    1.833    1.667    3.000    3.500    4.000 
#    0.000    0.000    0.000    1.000    0.000    2.333 
#    0.000    0.000    0.000    0.000    0.000    0.000 
#
# Total GULP energy -594696.979784 kJ/mol
# GULP energy per Si atom -12389.520412 kJ/mol
# Density = 1.924750 g / cm^3
# Si number density = 19.291407 Si / 1000 Ang^3
#
#
#
# Elastic Constant Matrix: (Units=GPa)
#
#
# Indices 1 2 3 4 5 6 
#
# 1 87.0950 17.6515 35.3752 0.0000 0.0000 0.0000
# 2 17.6515 89.0862 21.9464 0.0000 0.0000 0.0000
# 3 35.3752 21.9464 112.2635 0.0000 0.0000 0.0000
# 4 0.0000 0.0000 0.0000 28.7478 0.0000 0.0000
# 5 0.0000 0.0000 0.0000 0.0000 19.2023 0.0000
# 6 0.0000 0.0000 0.0000 0.0000 0.0000 13.9196
#
#
#
# Elastic Compliance Matrix: (Units=1/GPa)
#
#
# Indices 1 2 3 4 5 6 
#
# 1 0.013407 -0.001697 -0.003893 0.000000 0.000000 0.000000
# 2 -0.001697 0.012008 -0.001813 0.000000 0.000000 0.000000
# 3 -0.003893 -0.001813 0.010489 0.000000 0.000000 0.000000
# 4 0.000000 0.000000 0.000000 0.034785 0.000000 0.000000
# 5 0.000000 0.000000 0.000000 0.000000 0.052077 0.000000
# 6 0.000000 0.000000 0.000000 0.000000 0.000000 0.071841
#
#
# Mechanical properties :
#
#
# Convention : Reuss Voigt Hill
#
# Bulk Modulus (GPa) = 47.39824 48.71012 48.05418
# Shear Modulus (GPa) = 23.10056 26.60538 24.85297
#
# Velocity S-wave (km/s) = 3.46418 3.71769 3.59317
# Velocity P-wave (km/s) = 6.37367 6.61308 6.49448
#
# Compressibility (1/GPa) = 0.02109783
#
# Stress axis : x y z
#
# Youngs Moduli (GPa) = 74.58867 83.27819 95.34161
#
# Poissons Ratio (x) = 0.14136 0.37114
# Poissons Ratio (y) = 0.12661 0.17281
# Poissons Ratio (z) = 0.29036 0.15095
#
# Static dielectric constant tensor:
#      x y z
#    x 3.363630 0.000000 0.000000 
#    y 0.000000 4.071370 0.000000 
#    z 0.000000 0.000000 3.443010 
# 
# 
# High freq. dielectric constant tensor:
#      x y z
#    x 1.711400 0.000000 0.000000 
#    y 0.000000 1.766710 0.000000 
#    z 0.000000 0.000000 1.740390 
# 
# From -- ./inp_files/24908.got.cif
#   From: 2010.03.12/outbox.cif.g09.slc.cpg/sg51_13_cif.got.tgz:24908.got - 2010.04.16 13:43:02.
