data_PCOD8211973
_publ_section_title
;
Structure prediction by ZEFSAII (Michael W. Deem and Ramdas Pophale) SiO2 
 PCOD8211973
Probable space group: P M M A
;
_chemical_formula_sum "Si O2"
_cell_formula_units_Z 64
_cell_length_a 8.653555
_cell_length_b 28.505088
_cell_length_c 14.856898
_cell_angle_alpha 90.000000
_cell_angle_beta 90.000000
_cell_angle_gamma 90.000000
_cell_volume 3664.756182
_symmetry_space_group_name_H-M "P M M A"
_symmetry_group_IT_number 51
_symmetry_cell_setting 'orthorhombic'
loop_
_space_group_symop_operation_xyz
x,y,z
1/2-x,-y,z
1/2+x,-y,-z
-x,y,-z
-x,-y,-z
1/2+x,y,-z
1/2-x,y,z
x,-y,z
loop_
_atom_site_type_symbol
_atom_site_label
_atom_site_fract_x
_atom_site_fract_y
_atom_site_fract_z
Si Si1 0.432020 0.626713 0.093907
Si Si2 0.067105 0.151124 0.599221
Si Si3 0.568010 0.049455 0.401891
Si Si4 0.066979 0.691396 0.405917
Si Si5 0.428353 0.552350 0.238195
Si Si6 0.931564 0.589451 0.408935
Si Si7 0.932869 0.266433 0.904296
Si Si8 0.066694 0.234552 0.725212
O O1 0.250000 0.623528 0.087250
O O2 0.494629 0.590925 0.169106
O O3 0.485054 0.679858 0.115588
O O4 0.500000 0.609403 0.000000
O O5 0.250000 0.154976 0.589940
O O6 0.015427 0.099677 0.639620
O O7 0.005366 0.189125 0.670646
O O8 0.000000 0.160717 0.500000
O O9 0.500000 0.047398 0.500000
O O10 0.750000 0.050360 0.410490
O O11 0.518138 0.000000 0.351282
O O12 0.250000 0.696217 0.406652
O O13 0.000000 0.711219 0.500000
O O14 0.018590 0.638098 0.390722
O O15 0.998159 0.719569 0.322874
O O16 0.250000 0.563036 0.261721
O O17 0.446405 0.500000 0.197461
O O18 0.530927 0.554487 0.327960
O O19 0.750000 0.598319 0.419024
O O20 0.000000 0.566744 0.500000
O O21 0.750000 0.261414 0.906382
O O22 0.001726 0.233129 0.826693
O O23 0.000000 0.249658 0.000000
O O24 0.250000 0.236263 0.728433
#
# Coordination Sequence:
#
# PCOD8211973 Si02
#       8
#     8   8   8   8   8   8   8   8
#     4   9  19  35  55  77  99 123 151 186 227 274
#     4   9  18  29  42  64  96 132 168 206 244 285
#     4   8  13  23  39  58  83 120 165 207 244 281
#     4  11  21  34  51  72  98 128 163 198 236 283
#     4  10  21  37  55  76 103 131 157 188 228 274
#     4  11  22  37  56  75  96 124 160 200 239 279
#     4  10  20  35  54  74  96 124 160 200 241 286
#     4  11  21  32  47  70 100 131 163 199 242 289
#
# _framework density 17.463645
#
# number of rings (size 3 to 8) (size 9 to 14) (size 15 to 20)
#    0.000    2.125    0.000    4.875    0.000    4.750 
#    0.000    0.000    0.000    0.000    0.000    0.000 
#    0.000    0.500    0.000    0.875    0.000    1.500 
#
# Total GULP energy -793248.034721 kJ/mol
# GULP energy per Si atom -12394.500543 kJ/mol
# Density = 1.742390 g / cm^3
# Si number density = 17.463645 Si / 1000 Ang^3
#
#
#
# Elastic Constant Matrix: (Units=GPa)
#
#
# Indices 1 2 3 4 5 6 
#
# 1 47.7006 19.5849 33.7974 0.0000 0.0000 0.0000
# 2 19.5849 85.7023 56.4262 0.0000 0.0000 0.0000
# 3 33.7974 56.4262 114.3927 0.0000 0.0000 0.0000
# 4 0.0000 0.0000 0.0000 14.2113 0.0000 0.0000
# 5 0.0000 0.0000 0.0000 0.0000 29.4437 0.0000
# 6 0.0000 0.0000 0.0000 0.0000 0.0000 13.1372
#
#
#
# Elastic Compliance Matrix: (Units=1/GPa)
#
#
# Indices 1 2 3 4 5 6 
#
# 1 0.026618 -0.001340 -0.007203 0.000000 0.000000 0.000000
# 2 -0.001340 0.017348 -0.008161 0.000000 0.000000 0.000000
# 3 -0.007203 -0.008161 0.014896 0.000000 0.000000 0.000000
# 4 0.000000 0.000000 0.000000 0.070366 0.000000 0.000000
# 5 0.000000 0.000000 0.000000 0.000000 0.033963 0.000000
# 6 0.000000 0.000000 0.000000 0.000000 0.000000 0.076120
#
#
# Mechanical properties :
#
#
# Convention : Reuss Voigt Hill
#
# Bulk Modulus (GPa) = 39.28908 51.93472 45.61190
# Shear Modulus (GPa) = 17.78066 20.55758 19.16912
#
# Velocity S-wave (km/s) = 3.19431 3.43470 3.31669
# Velocity P-wave (km/s) = 6.01260 6.74781 6.39078
#
# Compressibility (1/GPa) = 0.02545236
#
# Stress axis : x y z
#
# Youngs Moduli (GPa) = 37.56839 57.64400 67.13368
#
# Poissons Ratio (x) = 0.07726 0.48358
# Poissons Ratio (y) = 0.05035 0.54789
# Poissons Ratio (z) = 0.27061 0.47044
#
# Static dielectric constant tensor:
#      x y z
#    x 3.183250 0.000000 0.000000 
#    y 0.000000 3.695440 0.000000 
#    z 0.000000 0.000000 3.252470 
# 
# 
# High freq. dielectric constant tensor:
#      x y z
#    x 1.679490 0.000000 0.000000 
#    y 0.000000 1.668010 0.000000 
#    z 0.000000 0.000000 1.651960 
# 
# From -- ./inp_files/22585.got.cif
#   From: 2010.03.12/outbox.cif.g09.slc.cpg/sg51_12_cif.got.tgz:22585.got - 2010.04.16 13:43:02.
