data_PCOD8211409
_publ_section_title
;
Structure prediction by ZEFSAII (Michael W. Deem and Ramdas Pophale) SiO2 
 PCOD8211409
Probable space group: P M M A
;
_chemical_formula_sum "Si O2"
_cell_formula_units_Z 64
_cell_length_a 9.252430
_cell_length_b 18.141382
_cell_length_c 19.381592
_cell_angle_alpha 90.000000
_cell_angle_beta 90.000000
_cell_angle_gamma 90.000000
_cell_volume 3253.236404
_symmetry_space_group_name_H-M "P M M A"
_symmetry_group_IT_number 51
_symmetry_cell_setting 'orthorhombic'
loop_
_space_group_symop_operation_xyz
x,y,z
1/2-x,-y,z
1/2+x,-y,-z
-x,y,-z
-x,-y,-z
1/2+x,y,-z
1/2-x,y,z
x,-y,z
loop_
_atom_site_type_symbol
_atom_site_label
_atom_site_fract_x
_atom_site_fract_y
_atom_site_fract_z
Si Si1 0.580542 0.851600 0.829240
Si Si2 0.081516 0.915011 0.708715
Si Si3 0.583850 0.156033 0.433777
Si Si4 0.407386 0.083493 0.940257
Si Si5 0.419863 0.283904 0.071608
Si Si6 0.084844 0.413444 0.315937
Si Si7 0.921694 0.418721 0.839262
Si Si8 0.079560 0.325110 0.569315
O O1 0.750000 0.866884 0.826014
O O2 0.513602 0.856976 0.752972
O O3 0.498007 0.916284 0.870074
O O4 0.543264 0.776523 0.869735
O O5 0.250000 0.901467 0.725255
O O6 0.045651 0.896658 0.629808
O O7 0.038743 0.000000 0.723083
O O8 0.500000 0.125721 0.500000
O O9 0.750000 0.151476 0.453430
O O10 0.540765 0.240006 0.416133
O O11 0.250000 0.122498 0.933050
O O12 0.380854 0.000000 0.962786
O O13 0.500000 0.124872 0.000000
O O14 0.250000 0.285598 0.056560
O O15 0.477614 0.360758 0.103856
O O16 0.500000 0.268056 0.000000
O O17 0.250000 0.386213 0.326666
O O18 0.074529 0.500000 0.330668
O O19 0.030849 0.395882 0.238075
O O20 0.977993 0.371358 0.366522
O O21 0.750000 0.420835 0.839478
O O22 0.983140 0.500000 0.858146
O O23 0.250000 0.338507 0.561042
O O24 0.000000 0.352489 0.500000
#
# Coordination Sequence:
#
# PCOD8211409 Si02
#       8
#     8   8   8   8   8   8   8   8
#     4  11  23  36  53  80 112 143 180 226 271 323
#     4  10  22  40  60  83 113 148 184 225 278 335
#     4   9  20  38  58  83 113 146 186 229 278 332
#     4  10  20  34  53  75 101 138 180 221 268 321
#     4  10  22  38  56  83 113 144 183 226 274 326
#     4   9  18  33  55  81 109 146 190 233 278 329
#     4   8  16  34  58  81 108 144 184 226 275 330
#     4  10  20  34  53  79 112 150 189 231 277 328
#
# _framework density 19.672716999999999
#
# number of rings (size 3 to 8) (size 9 to 14) (size 15 to 20)
#    0.000    2.375    0.000    2.625    1.750    6.500 
#    0.000    0.625    0.000    0.750    0.000    0.000 
#    0.000    0.000    0.000    0.000    0.000    0.000 
#
# Total GULP energy -793411.553874 kJ/mol
# GULP energy per Si atom -12397.055529 kJ/mol
# Density = 1.962794 g / cm^3
# Si number density = 19.672717 Si / 1000 Ang^3
#
#
#
# Elastic Constant Matrix: (Units=GPa)
#
#
# Indices 1 2 3 4 5 6 
#
# 1 97.3619 43.6878 65.5714 0.0000 0.0000 0.0000
# 2 43.6878 82.0025 59.1464 0.0000 0.0000 0.0000
# 3 65.5714 59.1464 123.7417 0.0000 0.0000 0.0000
# 4 0.0000 0.0000 0.0000 29.2236 0.0000 0.0000
# 5 0.0000 0.0000 0.0000 0.0000 35.1398 0.0000
# 6 0.0000 0.0000 0.0000 0.0000 0.0000 14.9703
#
#
#
# Elastic Compliance Matrix: (Units=1/GPa)
#
#
# Indices 1 2 3 4 5 6 
#
# 1 0.016728 -0.003844 -0.007027 0.000000 0.000000 0.000000
# 2 -0.003844 0.019494 -0.007281 0.000000 0.000000 0.000000
# 3 -0.007027 -0.007281 0.015285 0.000000 0.000000 0.000000
# 4 0.000000 0.000000 0.000000 0.034219 0.000000 0.000000
# 5 0.000000 0.000000 0.000000 0.000000 0.028458 0.000000
# 6 0.000000 0.000000 0.000000 0.000000 0.000000 0.066799
#
#
# Mechanical properties :
#
#
# Convention : Reuss Voigt Hill
#
# Bulk Modulus (GPa) = 65.77262 71.10193 68.43728
# Shear Modulus (GPa) = 22.48649 24.84678 23.66664
#
# Velocity S-wave (km/s) = 3.38454 3.55774 3.47222
# Velocity P-wave (km/s) = 6.98423 7.28680 7.13712
#
# Compressibility (1/GPa) = 0.01520389
#
# Stress axis : x y z
#
# Youngs Moduli (GPa) = 59.77862 51.29733 65.42200
#
# Poissons Ratio (x) = 0.19717 0.45974
# Poissons Ratio (y) = 0.22977 0.47634
# Poissons Ratio (z) = 0.42008 0.37350
#
# Static dielectric constant tensor:
#      x y z
#    x 3.594090 0.000000 0.000000 
#    y 0.000000 3.645860 0.000000 
#    z 0.000000 0.000000 3.643960 
# 
# 
# High freq. dielectric constant tensor:
#      x y z
#    x 1.754830 0.000000 0.000000 
#    y 0.000000 1.760200 0.000000 
#    z 0.000000 0.000000 1.771520 
# 
# From -- ./inp_files/32415.got.cif
#   From: 2010.03.12/outbox.cif.g09.slc.cpg/sg51_17_cif.got.tgz:32415.got - 2010.04.16 13:43:02.
