data_PCOD8211384
_publ_section_title
;
Structure prediction by ZEFSAII (Michael W. Deem and Ramdas Pophale) SiO2 
 PCOD8211384
Probable space group: P M M A
;
_chemical_formula_sum "Si O2"
_cell_formula_units_Z 64
_cell_length_a 8.801762
_cell_length_b 24.524366
_cell_length_c 15.309699
_cell_angle_alpha 90.000000
_cell_angle_beta 90.000000
_cell_angle_gamma 90.000000
_cell_volume 3304.715384
_symmetry_space_group_name_H-M "P M M A"
_symmetry_group_IT_number 51
_symmetry_cell_setting 'orthorhombic'
loop_
_space_group_symop_operation_xyz
x,y,z
1/2-x,-y,z
1/2+x,-y,-z
-x,y,-z
-x,-y,-z
1/2+x,y,-z
1/2-x,y,z
x,-y,z
loop_
_atom_site_type_symbol
_atom_site_label
_atom_site_fract_x
_atom_site_fract_y
_atom_site_fract_z
Si Si1 0.424420 0.634640 0.591356
Si Si2 0.571997 0.938073 0.589169
Si Si3 0.077038 0.736665 0.697287
Si Si4 0.429147 0.172622 0.914416
Si Si5 0.924081 0.562272 0.738896
Si Si6 0.429977 0.398679 0.913099
Si Si7 0.571576 0.713906 0.871301
Si Si8 0.575088 0.141188 0.278443
O O1 0.500000 0.621024 0.500000
O O2 0.250000 0.616950 0.587042
O O3 0.440672 0.699474 0.611241
O O4 0.503656 0.600006 0.665826
O O5 0.500000 0.914397 0.500000
O O6 0.750000 0.934777 0.577782
O O7 0.525321 0.903348 0.673191
O O8 0.516199 0.000000 0.604554
O O9 0.250000 0.732811 0.734686
O O10 0.040376 0.799890 0.677830
O O11 0.960431 0.713153 0.767886
O O12 0.250000 0.178463 0.924604
O O13 0.505176 0.231735 0.913476
O O14 0.469068 0.141050 0.824528
O O15 0.500000 0.142042 0.000000
O O16 0.750000 0.580003 0.753299
O O17 0.936651 0.500000 0.707477
O O18 0.012395 0.568800 0.829248
O O19 0.250000 0.401454 0.915836
O O20 0.485471 0.336480 0.913696
O O21 0.500000 0.426705 0.000000
O O22 0.750000 0.709491 0.889114
O O23 0.750000 0.125214 0.290677
#
# Coordination Sequence:
#
# PCOD8211384 Si02
#       8
#     8   8   8   8   8   8   8   8
#     4  11  23  40  64  89 118 153 190 234 286 345
#     4  10  21  37  58  84 114 150 195 245 294 344
#     4   9  19  36  56  83 118 154 188 231 283 339
#     4  10  20  34  52  79 117 156 196 239 284 336
#     4  11  25  45  66  88 114 144 186 240 292 347
#     4  12  24  39  60  86 116 150 189 232 283 343
#     4  11  20  32  54  82 114 152 191 232 280 334
#     4   9  19  35  56  84 119 155 192 237 288 340
#
# _framework density 19.366268000000002
#
# number of rings (size 3 to 8) (size 9 to 14) (size 15 to 20)
#    0.000    1.625    1.250    4.875    0.000    5.750 
#    0.000    1.250    0.000    0.375    0.000    0.000 
#    0.000    0.000    0.000    0.000    0.000    0.000 
#
# Total GULP energy -793658.231305 kJ/mol
# GULP energy per Si atom -12400.909864 kJ/mol
# Density = 1.932219 g / cm^3
# Si number density = 19.366268 Si / 1000 Ang^3
#
#
#
# Elastic Constant Matrix: (Units=GPa)
#
#
# Indices 1 2 3 4 5 6 
#
# 1 134.7028 39.7769 58.2046 0.0000 0.0000 0.0000
# 2 39.7769 72.7517 50.0834 0.0000 0.0000 0.0000
# 3 58.2046 50.0834 130.7589 0.0000 0.0000 0.0000
# 4 0.0000 0.0000 0.0000 -49.5463 0.0000 0.0000
# 5 0.0000 0.0000 0.0000 0.0000 38.8939 0.0000
# 6 0.0000 0.0000 0.0000 0.0000 0.0000 27.6778
#
#
#
# Elastic Compliance Matrix: (Units=1/GPa)
#
#
# Indices 1 2 3 4 5 6 
#
# 1 0.009700 -0.003166 -0.003105 0.000000 0.000000 0.000000
# 2 -0.003166 0.019701 -0.006137 0.000000 0.000000 0.000000
# 3 -0.003105 -0.006137 0.011380 0.000000 0.000000 0.000000
# 4 0.000000 0.000000 0.000000 -0.020183 0.000000 0.000000
# 5 0.000000 0.000000 0.000000 0.000000 0.025711 0.000000
# 6 0.000000 0.000000 0.000000 0.000000 0.000000 0.036130
#
#
# Mechanical properties :
#
#
# Convention : Reuss Voigt Hill
#
# Bulk Modulus (GPa) = 62.63324 70.48258 66.55791
# Shear Modulus (GPa) = 44.41393 16.08165 30.24779
#
# Velocity S-wave (km/s) = 4.79411 2.88478 3.95635
# Velocity P-wave (km/s) = 7.94079 6.89706 7.43726
#
# Compressibility (1/GPa) = 0.01596596
#
# Stress axis : x y z
#
# Youngs Moduli (GPa) = 103.08817 50.75911 87.87054
#
# Poissons Ratio (x) = 0.16070 0.27287
# Poissons Ratio (y) = 0.32637 0.53923
# Poissons Ratio (z) = 0.32012 0.31149
#
# Static dielectric constant tensor:
#      x y z
#    x 3.670820 0.000000 0.000000 
#    y 0.000000 3.401090 0.000000 
#    z 0.000000 0.000000 3.791580 
# 
# 
# High freq. dielectric constant tensor:
#      x y z
#    x 1.765500 0.000000 0.000000 
#    y 0.000000 1.730570 0.000000 
#    z 0.000000 0.000000 1.759670 
# 
# From -- ./inp_files/22212.got.cif
#   From: 2010.03.12/outbox.cif.g09.slc.cpg/sg51_12_cif.got.tgz:22212.got - 2010.04.16 13:43:02.
