data_PCOD8211675
_publ_section_title
;
Structure prediction by ZEFSAII (Michael W. Deem and Ramdas Pophale) SiO2 
 PCOD8211675
Probable space group: P M M A
;
_chemical_formula_sum "Si O2"
_cell_formula_units_Z 40
_cell_length_a 14.904305
_cell_length_b 8.761937
_cell_length_c 15.363687
_cell_angle_alpha 90.000000
_cell_angle_beta 90.000000
_cell_angle_gamma 90.000000
_cell_volume 2006.352818
_symmetry_space_group_name_H-M "P M M A"
_symmetry_group_IT_number 51
_symmetry_cell_setting 'orthorhombic'
loop_
_space_group_symop_operation_xyz
x,y,z
1/2-x,-y,z
1/2+x,-y,-z
-x,y,-z
-x,-y,-z
1/2+x,y,-z
1/2-x,y,z
x,-y,z
loop_
_atom_site_type_symbol
_atom_site_label
_atom_site_fract_x
_atom_site_fract_y
_atom_site_fract_z
Si Si1 0.116415 0.676480 0.321243
Si Si2 0.750000 0.318366 0.341563
Si Si3 0.750000 0.321766 0.992709
Si Si4 0.069774 0.321984 0.750675
Si Si5 0.750000 0.680058 0.534921
Si Si6 0.250000 0.821048 0.194437
Si Si7 0.922854 0.178200 0.068562
O O1 0.140336 0.500000 0.308480
O O2 0.160798 0.733343 0.412066
O O3 0.160061 0.762573 0.240104
O O4 0.009529 0.704134 0.320195
O O5 0.750000 0.500000 0.346418
O O6 0.838147 0.260198 0.291180
O O7 0.750000 0.246124 0.438827
O O8 0.750000 0.500000 0.972030
O O9 0.750000 0.228061 0.904697
O O10 0.836188 0.279134 0.049178
O O11 0.077255 0.500000 0.775777
O O12 0.044489 0.224415 0.835427
O O13 0.750000 0.500000 0.522874
O O14 0.250000 0.000000 0.197824
O O15 0.898715 0.000000 0.064607
O O16 0.000000 0.219579 0.000000
#
# Coordination Sequence:
#
# PCOD8211675 Si02
#       7
#     8   4   4   8   4   4   8
#     4   9  18  33  54  80 109 142 182 227 276 327
#     4   9  18  32  52  81 113 144 183 227 272 323
#     4  12  24  38  58  81 110 147 186 231 280 331
#     4  10  20  34  54  80 110 146 186 228 275 326
#     4   8  15  30  52  80 112 142 178 228 277 322
#     4  11  21  34  54  80 109 141 179 226 279 332
#     4  11  24  40  58  82 112 147 189 233 278 331
#
# _framework density 19.936672000000002
#
# number of rings (size 3 to 8) (size 9 to 14) (size 15 to 20)
#    0.000    2.000    0.000    4.800    0.000    7.200 
#    0.000    4.000    0.000    4.800    0.000    7.000 
#    0.000    0.000    0.000    0.000    0.000    0.000 
#
# Total GULP energy -496045.425235 kJ/mol
# GULP energy per Si atom -12401.135631 kJ/mol
# Density = 1.989130 g / cm^3
# Si number density = 19.936672 Si / 1000 Ang^3
#
#
#
# Elastic Constant Matrix: (Units=GPa)
#
#
# Indices 1 2 3 4 5 6 
#
# 1 152.9942 30.2087 55.5500 0.0000 0.0000 0.0000
# 2 30.2087 46.9128 14.9279 0.0000 0.0000 0.0000
# 3 55.5500 14.9279 131.0973 0.0000 0.0000 0.0000
# 4 0.0000 0.0000 0.0000 1.4750 0.0000 0.0000
# 5 0.0000 0.0000 0.0000 0.0000 32.2718 0.0000
# 6 0.0000 0.0000 0.0000 0.0000 0.0000 -15.7888
#
#
#
# Elastic Compliance Matrix: (Units=1/GPa)
#
#
# Indices 1 2 3 4 5 6 
#
# 1 0.008559 -0.004521 -0.003112 0.000000 0.000000 0.000000
# 2 -0.004521 0.024506 -0.000875 0.000000 0.000000 0.000000
# 3 -0.003112 -0.000875 0.009046 0.000000 0.000000 0.000000
# 4 0.000000 0.000000 0.000000 0.677958 0.000000 0.000000
# 5 0.000000 0.000000 0.000000 0.000000 0.030987 0.000000
# 6 0.000000 0.000000 0.000000 0.000000 0.000000 -0.063336
#
#
# Mechanical properties :
#
#
# Convention : Reuss Voigt Hill
#
# Bulk Modulus (GPa) = 39.84791 59.15306 49.50048
# Shear Modulus (GPa) = 7.01164 18.94611 12.97888
#
# Velocity S-wave (km/s) = 1.87739 3.08606 2.55425
# Velocity P-wave (km/s) = 4.97294 6.51408 5.79497
#
# Compressibility (1/GPa) = 0.02509542
#
# Stress axis : x y z
#
# Youngs Moduli (GPa) = 116.83980 40.80672 110.54502
#
# Poissons Ratio (x) = 0.18449 0.34399
# Poissons Ratio (y) = 0.52824 0.09670
# Poissons Ratio (z) = 0.36358 0.03569
#
# Static dielectric constant tensor:
#      x y z
#    x 3.770400 0.000000 0.000000 
#    y 0.000000 3.333530 0.000000 
#    z 0.000000 0.000000 3.709820 
# 
# 
# High freq. dielectric constant tensor:
#      x y z
#    x 1.789150 0.000000 0.000000 
#    y 0.000000 1.749960 0.000000 
#    z 0.000000 0.000000 1.778570 
# 
# From -- ./inp_files/23868.got.cif
#   From: 2010.03.12/outbox.cif.g09.slc.cpg/sg51_12_cif.got.tgz:23868.got - 2010.04.16 13:43:02.
