data_PCOD8211917
_publ_section_title
;
Structure prediction by ZEFSAII (Michael W. Deem and Ramdas Pophale) SiO2 
 PCOD8211917
Probable space group: P M M A
;
_chemical_formula_sum "Si O2"
_cell_formula_units_Z 32
_cell_length_a 10.623742
_cell_length_b 12.191685
_cell_length_c 12.543915
_cell_angle_alpha 90.000000
_cell_angle_beta 90.000000
_cell_angle_gamma 90.000000
_cell_volume 1624.704378
_symmetry_space_group_name_H-M "P M M A"
_symmetry_group_IT_number 51
_symmetry_cell_setting 'orthorhombic'
loop_
_space_group_symop_operation_xyz
x,y,z
1/2-x,-y,z
1/2+x,-y,-z
-x,y,-z
-x,-y,-z
1/2+x,y,-z
1/2-x,y,z
x,-y,z
loop_
_atom_site_type_symbol
_atom_site_label
_atom_site_fract_x
_atom_site_fract_y
_atom_site_fract_z
Si Si1 0.394135 0.627203 0.302430
Si Si2 0.000000 0.257666 0.500000
Si Si3 0.881766 0.500000 0.075157
Si Si4 0.750000 0.875171 0.200188
Si Si5 0.750000 0.126803 0.451130
Si Si6 0.462114 0.277566 0.877218
O O1 0.250000 0.642419 0.338422
O O2 0.421354 0.500000 0.272815
O O3 0.487150 0.664002 0.397297
O O4 0.417375 0.707272 0.200226
O O5 0.875986 0.182449 0.495954
O O6 0.750000 0.500000 0.009050
O O7 0.883157 0.610620 0.144709
O O8 0.000000 0.500000 0.000000
O O9 0.750000 0.860668 0.325322
O O10 0.877425 0.825059 0.153107
O O11 0.750000 0.000000 0.163608
O O12 0.750000 0.000000 0.486986
O O13 0.500000 0.264310 0.000000
#
# Coordination Sequence:
#
# PCOD8211917 Si02
#       6
#     8   4   4   4   4   8
#     4  11  24  40  62  97 132 166 202 253 322 389
#     4  12  22  44  66  94 130 164 208 264 324 378
#     4  10  20  34  60  93 120 161 208 255 311 367
#     4  11  24  43  64  87 120 167 217 263 312 366
#     4  11  24  42  69  92 121 165 220 271 314 368
#     4  11  23  39  64  91 126 167 209 257 310 376
#
# _framework density 19.695892000000001
#
# number of rings (size 3 to 8) (size 9 to 14) (size 15 to 20)
#    0.000    1.000    6.250    0.750    1.750    1.500 
#    0.000    1.250    0.000    0.000    0.000    0.000 
#    0.000    0.000    0.000    0.000    0.000    0.000 
#
# Total GULP energy -396664.615320 kJ/mol
# GULP energy per Si atom -12395.769229 kJ/mol
# Density = 1.965106 g / cm^3
# Si number density = 19.695892 Si / 1000 Ang^3
#
#
#
# Elastic Constant Matrix: (Units=GPa)
#
#
# Indices 1 2 3 4 5 6 
#
# 1 121.3701 48.6828 24.9336 0.0000 0.0000 0.0000
# 2 48.6828 125.1829 35.7822 0.0000 0.0000 0.0000
# 3 24.9336 35.7822 103.2235 0.0000 0.0000 0.0000
# 4 0.0000 0.0000 0.0000 26.9320 0.0000 0.0000
# 5 0.0000 0.0000 0.0000 0.0000 26.6533 0.0000
# 6 0.0000 0.0000 0.0000 0.0000 0.0000 41.7315
#
#
#
# Elastic Compliance Matrix: (Units=1/GPa)
#
#
# Indices 1 2 3 4 5 6 
#
# 1 0.009888 -0.003511 -0.001172 0.000000 0.000000 0.000000
# 2 -0.003511 0.010113 -0.002658 0.000000 0.000000 0.000000
# 3 -0.001172 -0.002658 0.010892 0.000000 0.000000 0.000000
# 4 0.000000 0.000000 0.000000 0.037131 0.000000 0.000000
# 5 0.000000 0.000000 0.000000 0.000000 0.037519 0.000000
# 6 0.000000 0.000000 0.000000 0.000000 0.000000 0.023963
#
#
# Mechanical properties :
#
#
# Convention : Reuss Voigt Hill
#
# Bulk Modulus (GPa) = 61.67649 63.17485 62.42567
# Shear Modulus (GPa) = 33.42480 35.08856 34.25668
#
# Velocity S-wave (km/s) = 4.12399 4.22538 4.17499
# Velocity P-wave (km/s) = 7.35247 7.47997 7.41649
#
# Compressibility (1/GPa) = 0.01621363
#
# Stress axis : x y z
#
# Youngs Moduli (GPa) = 101.13229 98.88051 91.81049
#
# Poissons Ratio (x) = 0.34712 0.10756
# Poissons Ratio (y) = 0.35503 0.24401
# Poissons Ratio (z) = 0.11848 0.26280
#
# Static dielectric constant tensor:
#      x y z
#    x 3.653640 0.000000 0.000000 
#    y 0.000000 3.945890 0.000000 
#    z 0.000000 0.000000 3.449900 
# 
# 
# High freq. dielectric constant tensor:
#      x y z
#    x 1.776330 0.000000 0.000000 
#    y 0.000000 1.765640 0.000000 
#    z 0.000000 0.000000 1.763770 
# 
# From -- ./inp_files/15134.got.cif
#   From: 2010.03.12/outbox.cif.g09.slc.cpg/sg51_8_cif.got.tgz:15134.got - 2010.04.16 13:43:02.
