data_PCOD8211496
_publ_section_title
;
Structure prediction by ZEFSAII (Michael W. Deem and Ramdas Pophale) SiO2 
 PCOD8211496
Probable space group: P M M A
;
_chemical_formula_sum "Si O2"
_cell_formula_units_Z 56
_cell_length_a 15.761329
_cell_length_b 9.209260
_cell_length_c 19.391637
_cell_angle_alpha 90.000000
_cell_angle_beta 90.000000
_cell_angle_gamma 90.000000
_cell_volume 2814.699537
_symmetry_space_group_name_H-M "P M M A"
_symmetry_group_IT_number 51
_symmetry_cell_setting 'orthorhombic'
loop_
_space_group_symop_operation_xyz
x,y,z
1/2-x,-y,z
1/2+x,-y,-z
-x,y,-z
-x,-y,-z
1/2+x,y,-z
1/2-x,y,z
x,-y,z
loop_
_atom_site_type_symbol
_atom_site_label
_atom_site_fract_x
_atom_site_fract_y
_atom_site_fract_z
Si Si1 0.649361 0.338278 0.079653
Si Si2 0.657118 0.172674 0.660533
Si Si3 0.845244 0.329100 0.926562
Si Si4 0.395623 0.836282 0.789604
Si Si5 0.654182 0.331691 0.340893
Si Si6 0.088370 0.837186 0.198024
Si Si7 0.006492 0.830013 0.580450
O O1 0.750000 0.343144 0.081732
O O2 0.613836 0.500000 0.096346
O O3 0.614524 0.222388 0.133226
O O4 0.620447 0.289451 0.002889
O O5 0.750000 0.227928 0.634494
O O6 0.646861 0.223348 0.740034
O O7 0.580461 0.233776 0.613670
O O8 0.653240 0.000000 0.657159
O O9 0.750000 0.268433 0.915834
O O10 0.846031 0.500000 0.916724
O O11 0.906497 0.260448 0.869785
O O12 0.346547 0.735766 0.735658
O O13 0.494291 0.834953 0.770511
O O14 0.359259 0.000000 0.786120
O O15 0.750000 0.313944 0.370044
O O16 0.628660 0.500000 0.335563
O O17 0.589067 0.251167 0.391090
O O18 0.115094 0.000000 0.177173
O O19 0.000000 0.799201 0.500000
O O20 0.018192 0.000000 0.596989
#
# Coordination Sequence:
#
# PCOD8211496 Si02
#       7
#     8   8   8   8   8   8   8
#     4   9  19  36  54  74 106 147 188 234 293 354
#     4   9  17  33  57  84 116 153 192 234 286 346
#     4   9  19  35  53  75 106 144 189 239 287 344
#     4  11  22  36  56  83 113 146 193 249 296 345
#     4  11  24  41  62  88 121 163 204 242 292 352
#     4  10  20  34  53  77 109 148 188 237 295 347
#     4  10  21  39  64  94 126 157 194 241 290 344
#
# _framework density 19.895551999999999
#
# number of rings (size 3 to 8) (size 9 to 14) (size 15 to 20)
#    0.000    2.143    1.429    2.571    0.000    7.143 
#    0.000    5.714    0.000    0.429    0.000    0.000 
#    0.000    0.000    0.000    0.000    0.000    0.000 
#
# Total GULP energy -694339.432770 kJ/mol
# GULP energy per Si atom -12398.918442 kJ/mol
# Density = 1.985027 g / cm^3
# Si number density = 19.895552 Si / 1000 Ang^3
#
#
#
# Elastic Constant Matrix: (Units=GPa)
#
#
# Indices 1 2 3 4 5 6 
#
# 1 105.5147 40.6847 54.7504 0.0000 0.0000 0.0000
# 2 40.6847 80.4625 55.0690 0.0000 0.0000 0.0000
# 3 54.7504 55.0690 117.3476 0.0000 0.0000 0.0000
# 4 0.0000 0.0000 0.0000 26.9059 0.0000 0.0000
# 5 0.0000 0.0000 0.0000 0.0000 27.0126 0.0000
# 6 0.0000 0.0000 0.0000 0.0000 0.0000 27.1299
#
#
#
# Elastic Compliance Matrix: (Units=1/GPa)
#
#
# Indices 1 2 3 4 5 6 
#
# 1 0.013183 -0.003618 -0.004453 0.000000 0.000000 0.000000
# 2 -0.003618 0.019302 -0.007370 0.000000 0.000000 0.000000
# 3 -0.004453 -0.007370 0.014058 0.000000 0.000000 0.000000
# 4 0.000000 0.000000 0.000000 0.037167 0.000000 0.000000
# 5 0.000000 0.000000 0.000000 0.000000 0.037020 0.000000
# 6 0.000000 0.000000 0.000000 0.000000 0.000000 0.036860
#
#
# Mechanical properties :
#
#
# Convention : Reuss Voigt Hill
#
# Bulk Modulus (GPa) = 63.85391 67.14809 65.50100
# Shear Modulus (GPa) = 25.81446 26.39772 26.10609
#
# Velocity S-wave (km/s) = 3.60599 3.64650 3.62630
# Velocity P-wave (km/s) = 7.03575 7.18003 7.10826
#
# Compressibility (1/GPa) = 0.01566075
#
# Stress axis : x y z
#
# Youngs Moduli (GPa) = 75.85539 51.80935 71.13580
#
# Poissons Ratio (x) = 0.18746 0.31675
# Poissons Ratio (y) = 0.27447 0.52425
# Poissons Ratio (z) = 0.33776 0.38182
#
# Static dielectric constant tensor:
#      x y z
#    x 3.700590 0.000000 0.000000 
#    y 0.000000 3.543030 0.000000 
#    z 0.000000 0.000000 3.665620 
# 
# 
# High freq. dielectric constant tensor:
#      x y z
#    x 1.781660 0.000000 0.000000 
#    y 0.000000 1.751820 0.000000 
#    z 0.000000 0.000000 1.775970 
# 
# From -- ./inp_files/33465.got.cif
#   From: 2010.03.12/outbox.cif.g09.slc.cpg/sg51_17_cif.got.tgz:33465.got - 2010.04.16 13:43:02.
