data_PCOD8211992
_publ_section_title
;
Structure prediction by ZEFSAII (Michael W. Deem and Ramdas Pophale) SiO2 
 PCOD8211992
Probable space group: P M M A
;
_chemical_formula_sum "Si O2"
_cell_formula_units_Z 44
_cell_length_a 8.765277
_cell_length_b 27.106638
_cell_length_c 9.972665
_cell_angle_alpha 90.000000
_cell_angle_beta 90.000000
_cell_angle_gamma 90.000000
_cell_volume 2369.477187
_symmetry_space_group_name_H-M "P M M A"
_symmetry_group_IT_number 51
_symmetry_cell_setting 'orthorhombic'
loop_
_space_group_symop_operation_xyz
x,y,z
1/2-x,-y,z
1/2+x,-y,-z
-x,y,-z
-x,-y,-z
1/2+x,y,-z
1/2-x,y,z
x,-y,z
loop_
_atom_site_type_symbol
_atom_site_label
_atom_site_fract_x
_atom_site_fract_y
_atom_site_fract_z
Si Si1 0.926906 0.689307 0.360846
Si Si2 0.071578 0.425625 0.642586
Si Si3 0.429621 0.757657 0.140393
Si Si4 0.569799 0.944356 0.639832
Si Si5 0.432582 0.500000 0.150878
Si Si6 0.429931 0.869122 0.139841
O O1 0.750000 0.702501 0.363577
O O2 0.955956 0.631932 0.332790
O O3 0.000000 0.705708 0.500000
O O4 0.009347 0.720119 0.248280
O O5 0.250000 0.439362 0.640427
O O6 0.000000 0.442237 0.500000
O O7 0.989659 0.452331 0.766823
O O8 0.250000 0.752992 0.130257
O O9 0.479880 0.813452 0.177561
O O10 0.500000 0.741436 0.000000
O O11 0.500000 0.927353 0.500000
O O12 0.750000 0.940630 0.628644
O O13 0.504746 0.906715 0.749962
O O14 0.518229 0.000000 0.676851
O O15 0.250000 0.500000 0.141437
O O16 0.500000 0.500000 0.000000
O O17 0.250000 0.873328 0.127974
O O18 0.500000 0.885888 0.000000
#
# Coordination Sequence:
#
# PCOD8211992 Si02
#       6
#     8   8   8   8   4   8
#     4  10  21  37  58  83 110 141 179 221 264 313
#     4  10  21  39  61  84 111 144 181 220 264 315
#     4  10  20  35  54  76 106 141 177 218 265 317
#     4   9  18  33  51  72 100 132 168 211 258 309
#     4  12  25  40  59  84 114 146 182 224 267 314
#     4   9  19  34  51  74 102 134 172 213 258 309
#
# _framework density 18.569496999999998
#
# number of rings (size 3 to 8) (size 9 to 14) (size 15 to 20)
#    0.000    2.182    0.000    2.727    0.000    5.455 
#    0.000    1.818    0.000    0.000    0.000    0.000 
#    0.000    0.000    0.000    0.000    0.000    0.000 
#
# Total GULP energy -545666.337283 kJ/mol
# GULP energy per Si atom -12401.507666 kJ/mol
# Density = 1.852723 g / cm^3
# Si number density = 18.569497 Si / 1000 Ang^3
#
#
#
# Elastic Constant Matrix: (Units=GPa)
#
#
# Indices 1 2 3 4 5 6 
#
# 1 81.5501 39.8391 64.5531 0.0000 0.0000 0.0000
# 2 39.8391 97.5434 91.8826 0.0000 0.0000 0.0000
# 3 64.5531 91.8826 174.4182 0.0000 0.0000 0.0000
# 4 0.0000 0.0000 0.0000 41.4767 0.0000 0.0000
# 5 0.0000 0.0000 0.0000 0.0000 39.4880 0.0000
# 6 0.0000 0.0000 0.0000 0.0000 0.0000 30.2420
#
#
#
# Elastic Compliance Matrix: (Units=1/GPa)
#
#
# Indices 1 2 3 4 5 6 
#
# 1 0.017554 -0.002084 -0.005399 0.000000 0.000000 0.000000
# 2 -0.002084 0.020597 -0.010079 0.000000 0.000000 0.000000
# 3 -0.005399 -0.010079 0.013041 0.000000 0.000000 0.000000
# 4 0.000000 0.000000 0.000000 0.024110 0.000000 0.000000
# 5 0.000000 0.000000 0.000000 0.000000 0.025324 0.000000
# 6 0.000000 0.000000 0.000000 0.000000 0.000000 0.033067
#
#
# Mechanical properties :
#
#
# Convention : Reuss Voigt Hill
#
# Bulk Modulus (GPa) = 62.23409 82.89571 72.56490
# Shear Modulus (GPa) = 28.70688 32.72382 30.71535
#
# Velocity S-wave (km/s) = 3.93608 4.20245 4.07144
# Velocity P-wave (km/s) = 7.36504 8.26348 7.82717
#
# Compressibility (1/GPa) = 0.01606836
#
# Stress axis : x y z
#
# Youngs Moduli (GPa) = 56.96626 48.55010 76.67883
#
# Poissons Ratio (x) = 0.10116 0.41401
# Poissons Ratio (y) = 0.11870 0.77287
# Poissons Ratio (z) = 0.30758 0.48935
#
# Static dielectric constant tensor:
#      x y z
#    x 3.467070 0.000000 0.000000 
#    y 0.000000 3.599620 0.000000 
#    z 0.000000 0.000000 3.485570 
# 
# 
# High freq. dielectric constant tensor:
#      x y z
#    x 1.728300 0.000000 0.000000 
#    y 0.000000 1.727000 0.000000 
#    z 0.000000 0.000000 1.724690 
# 
# From -- ./inp_files/5743.got.cif
#   From: 2010.03.12/outbox.cif.g09.slc.cpg/sg51_3_cif.got.tgz:5743.got - 2010.04.16 13:43:02.
