data_PCOD8211477
_publ_section_title
;
Structure prediction by ZEFSAII (Michael W. Deem and Ramdas Pophale) SiO2 
 PCOD8211477
Probable space group: P M M A
;
_chemical_formula_sum "Si O2"
_cell_formula_units_Z 48
_cell_length_a 18.633306
_cell_length_b 9.160347
_cell_length_c 15.353374
_cell_angle_alpha 90.000000
_cell_angle_beta 90.000000
_cell_angle_gamma 90.000000
_cell_volume 2620.629773
_symmetry_space_group_name_H-M "P M M A"
_symmetry_group_IT_number 51
_symmetry_cell_setting 'orthorhombic'
loop_
_space_group_symop_operation_xyz
x,y,z
1/2-x,-y,z
1/2+x,-y,-z
-x,y,-z
-x,-y,-z
1/2+x,y,-z
1/2-x,y,z
x,-y,z
loop_
_atom_site_type_symbol
_atom_site_label
_atom_site_fract_x
_atom_site_fract_y
_atom_site_fract_z
Si Si1 0.334089 0.167819 0.395013
Si Si2 0.832002 0.671078 0.916527
Si Si3 0.578463 0.327055 0.749748
Si Si4 0.831996 0.829742 0.088796
Si Si5 0.072908 0.172839 0.746922
Si Si6 0.170804 0.172375 0.591484
O O1 0.250000 0.191803 0.378443
O O2 0.378860 0.274419 0.334520
O O3 0.354398 0.211291 0.493930
O O4 0.355259 0.000000 0.376278
O O5 0.750000 0.717574 0.898068
O O6 0.839102 0.500000 0.931125
O O7 0.878838 0.724529 0.835285
O O8 0.861340 0.748123 0.003390
O O9 0.570941 0.500000 0.745381
O O10 0.501335 0.255139 0.753414
O O11 0.750000 0.784612 0.109046
O O12 0.879677 0.782335 0.170314
O O13 0.838417 0.000000 0.070168
O O14 0.113610 0.232262 0.660925
O O15 0.059523 0.000000 0.742498
O O16 0.250000 0.239601 0.609753
O O17 0.177064 0.000000 0.601943
#
# Coordination Sequence:
#
# PCOD8211477 Si02
#       6
#     8   8   8   8   8   8
#     4   9  18  34  57  81 101 127 169 216 257 299
#     4   9  19  36  55  72  94 131 174 210 249 301
#     4  11  23  36  50  72 106 143 175 208 250 301
#     4   9  18  33  55  81 103 126 163 213 262 302
#     4  10  20  34  53  77 106 137 168 205 252 306
#     4   8  15  31  56  81 102 129 168 211 254 304
#
# _framework density 18.316208
#
# number of rings (size 3 to 8) (size 9 to 14) (size 15 to 20)
#    0.000    2.667    0.000    2.500    0.000    6.333 
#    0.000    9.167    0.000    2.500    0.000    0.000 
#    0.000    0.000    0.000    0.000    0.000    0.000 
#
# Total GULP energy -595217.219408 kJ/mol
# GULP energy per Si atom -12400.358738 kJ/mol
# Density = 1.827452 g / cm^3
# Si number density = 18.316208 Si / 1000 Ang^3
#
#
#
# Elastic Constant Matrix: (Units=GPa)
#
#
# Indices 1 2 3 4 5 6 
#
# 1 115.5182 44.6695 94.1587 0.0000 0.0000 0.0000
# 2 44.6695 42.0249 53.4996 0.0000 0.0000 0.0000
# 3 94.1587 53.4996 169.3185 0.0000 0.0000 0.0000
# 4 0.0000 0.0000 0.0000 2.2615 0.0000 0.0000
# 5 0.0000 0.0000 0.0000 0.0000 13.3057 0.0000
# 6 0.0000 0.0000 0.0000 0.0000 0.0000 23.0203
#
#
#
# Elastic Compliance Matrix: (Units=1/GPa)
#
#
# Indices 1 2 3 4 5 6 
#
# 1 0.018417 -0.010937 -0.006786 0.000000 0.000000 0.000000
# 2 -0.010937 0.046303 -0.008548 0.000000 0.000000 0.000000
# 3 -0.006786 -0.008548 0.012381 0.000000 0.000000 0.000000
# 4 0.000000 0.000000 0.000000 0.442188 0.000000 0.000000
# 5 0.000000 0.000000 0.000000 0.000000 0.075156 0.000000
# 6 0.000000 0.000000 0.000000 0.000000 0.000000 0.043440
#
#
# Mechanical properties :
#
#
# Convention : Reuss Voigt Hill
#
# Bulk Modulus (GPa) = 40.71961 79.05746 59.88854
# Shear Modulus (GPa) = 7.15703 16.68641 11.92172
#
# Velocity S-wave (km/s) = 1.97888 3.02158 2.55401
# Velocity P-wave (km/s) = 5.24414 7.44510 6.43935
#
# Compressibility (1/GPa) = 0.02455819
#
# Stress axis : x y z
#
# Youngs Moduli (GPa) = 54.29680 21.59676 80.77067
#
# Poissons Ratio (x) = 0.23621 0.54811
# Poissons Ratio (y) = 0.59386 0.69044
# Poissons Ratio (z) = 0.36846 0.18461
#
# Static dielectric constant tensor:
#      x y z
#    x 3.242130 0.000000 0.000000 
#    y 0.000000 3.113280 0.000000 
#    z 0.000000 0.000000 3.624980 
# 
# 
# High freq. dielectric constant tensor:
#      x y z
#    x 1.709730 0.000000 0.000000 
#    y 0.000000 1.684550 0.000000 
#    z 0.000000 0.000000 1.724780 
# 
# From -- ./inp_files/24747.got.cif
#   From: 2010.03.12/outbox.cif.g09.slc.cpg/sg51_13_cif.got.tgz:24747.got - 2010.04.16 13:43:02.
