data_PCOD8211212
_publ_section_title
;
Structure prediction by ZEFSAII (Michael W. Deem and Ramdas Pophale) SiO2 
 PCOD8211212
Probable space group: P M M A
;
_chemical_formula_sum "Si O2"
_cell_formula_units_Z 64
_cell_length_a 17.296896
_cell_length_b 9.624829
_cell_length_c 20.352762
_cell_angle_alpha 90.000000
_cell_angle_beta 90.000000
_cell_angle_gamma 90.000000
_cell_volume 3388.321025
_symmetry_space_group_name_H-M "P M M A"
_symmetry_group_IT_number 51
_symmetry_cell_setting 'orthorhombic'
loop_
_space_group_symop_operation_xyz
x,y,z
1/2-x,-y,z
1/2+x,-y,-z
-x,y,-z
-x,-y,-z
1/2+x,y,-z
1/2-x,y,z
x,-y,z
loop_
_atom_site_type_symbol
_atom_site_label
_atom_site_fract_x
_atom_site_fract_y
_atom_site_fract_z
Si Si1 0.077941 0.663428 0.828435
Si Si2 0.840110 0.150917 0.405471
Si Si3 0.432034 0.165115 0.207417
Si Si4 0.659933 0.350113 0.298688
Si Si5 0.838413 0.835566 0.661828
Si Si6 0.834231 0.162946 0.915391
Si Si7 0.579244 0.163555 0.531725
Si Si8 0.340804 0.161251 0.936810
O O1 0.060453 0.500000 0.842028
O O2 0.147851 0.686188 0.777404
O O3 0.104126 0.739391 0.894689
O O4 0.008063 0.741192 0.791849
O O5 0.750000 0.140407 0.392987
O O6 0.880314 0.244490 0.349545
O O7 0.854833 0.204575 0.479031
O O8 0.879626 0.000000 0.397358
O O9 0.378781 0.205047 0.269488
O O10 0.390902 0.217376 0.140678
O O11 0.451203 0.000000 0.206623
O O12 0.750000 0.352917 0.313245
O O13 0.622425 0.500000 0.313469
O O14 0.750000 0.776270 0.660032
O O15 0.891138 0.774115 0.601661
O O16 0.833523 0.000000 0.654716
O O17 0.750000 0.232998 0.905863
O O18 0.824259 0.000000 0.906893
O O19 0.865461 0.195533 0.988376
O O20 0.500000 0.225929 0.500000
O O21 0.569127 0.000000 0.541477
O O22 0.250000 0.193315 0.925821
O O23 0.357830 0.000000 0.919761
#
# Coordination Sequence:
#
# PCOD8211212 Si02
#       8
#     8   8   8   8   8   8   8   8
#     4  11  23  36  50  72 108 145 175 213 263 319
#     4   9  17  29  48  73  99 128 164 207 252 302
#     4  10  20  33  54  80 104 135 176 223 265 307
#     4   9  19  35  52  68  92 131 172 208 251 305
#     4   9  17  30  50  76 104 137 179 221 262 313
#     4   8  15  31  55  81 106 132 169 219 271 316
#     4   9  17  27  43  72 110 141 161 201 263 316
#     4   9  18  34  57  81 104 134 174 219 263 312
#
# _framework density 18.888411000000001
#
# number of rings (size 3 to 8) (size 9 to 14) (size 15 to 20)
#    0.000    2.750    0.000    2.250    1.750    5.250 
#    0.000    4.375    0.000    3.375    0.000    0.000 
#    0.000    0.000    0.000    0.000    0.000    0.000 
#
# Total GULP energy -792925.720113 kJ/mol
# GULP energy per Si atom -12389.464377 kJ/mol
# Density = 1.884542 g / cm^3
# Si number density = 18.888411 Si / 1000 Ang^3
#
#
#
# Elastic Constant Matrix: (Units=GPa)
#
#
# Indices 1 2 3 4 5 6 
#
# 1 69.8763 30.3572 46.7126 0.0000 0.0000 0.0000
# 2 30.3572 58.3441 50.1668 0.0000 0.0000 0.0000
# 3 46.7126 50.1668 146.5381 0.0000 0.0000 0.0000
# 4 0.0000 0.0000 0.0000 -0.8892 0.0000 0.0000
# 5 0.0000 0.0000 0.0000 0.0000 24.4197 0.0000
# 6 0.0000 0.0000 0.0000 0.0000 0.0000 9.2292
#
#
#
# Elastic Compliance Matrix: (Units=1/GPa)
#
#
# Indices 1 2 3 4 5 6 
#
# 1 0.020011 -0.006982 -0.003989 0.000000 0.000000 0.000000
# 2 -0.006982 0.026726 -0.006924 0.000000 0.000000 0.000000
# 3 -0.003989 -0.006924 0.010466 0.000000 0.000000 0.000000
# 4 0.000000 0.000000 0.000000 -1.124619 0.000000 0.000000
# 5 0.000000 0.000000 0.000000 0.000000 0.040951 0.000000
# 6 0.000000 0.000000 0.000000 0.000000 0.000000 0.108351
#
#
# Mechanical properties :
#
#
# Convention : Reuss Voigt Hill
#
# Bulk Modulus (GPa) = 46.69960 58.80352 52.75156
# Shear Modulus (GPa) = -5.71306 16.38675 5.33684
#
# Velocity S-wave (km/s) = -1.74104 2.94863 1.68273
# Velocity P-wave (km/s) = 4.55368 6.54157 5.63596
#
# Compressibility (1/GPa) = 0.02141346
#
# Stress axis : x y z
#
# Youngs Moduli (GPa) = 49.97308 37.41665 95.54794
#
# Poissons Ratio (x) = 0.26126 0.38110
# Poissons Ratio (y) = 0.34893 0.66155
# Poissons Ratio (z) = 0.19932 0.25907
#
# Static dielectric constant tensor:
#      x y z
#    x 3.565590 0.000000 0.000000 
#    y 0.000000 3.285700 0.000000 
#    z 0.000000 0.000000 3.711050 
# 
# 
# High freq. dielectric constant tensor:
#      x y z
#    x 1.727990 0.000000 0.000000 
#    y 0.000000 1.681960 0.000000 
#    z 0.000000 0.000000 1.750110 
# 
# From -- ./inp_files/33775.got.cif
#   From: 2010.03.12/outbox.cif.g09.slc.cpg/sg51_17_cif.got.tgz:33775.got - 2010.04.16 13:43:02.
