data_PCOD8211372
_publ_section_title
;
Structure prediction by ZEFSAII (Michael W. Deem and Ramdas Pophale) SiO2 
 PCOD8211372
Probable space group: P M M A
;
_chemical_formula_sum "Si O2"
_cell_formula_units_Z 36
_cell_length_a 9.254414
_cell_length_b 10.237407
_cell_length_c 19.157148
_cell_angle_alpha 90.000000
_cell_angle_beta 90.000000
_cell_angle_gamma 90.000000
_cell_volume 1814.971241
_symmetry_space_group_name_H-M "P M M A"
_symmetry_group_IT_number 51
_symmetry_cell_setting 'orthorhombic'
loop_
_space_group_symop_operation_xyz
x,y,z
1/2-x,-y,z
1/2+x,-y,-z
-x,y,-z
-x,-y,-z
1/2+x,y,-z
1/2-x,y,z
x,-y,z
loop_
_atom_site_type_symbol
_atom_site_label
_atom_site_fract_x
_atom_site_fract_y
_atom_site_fract_z
Si Si1 0.092145 0.648840 0.936941
Si Si2 0.416624 0.765353 0.171718
Si Si3 0.085685 0.000000 0.070196
Si Si4 0.580443 0.152249 0.673173
Si Si5 0.080313 0.351050 0.572586
O O1 0.250000 0.717629 0.933379
O O2 0.115408 0.500000 0.957736
O O3 0.014311 0.650244 0.860520
O O4 0.000000 0.716323 0.000000
O O5 0.250000 0.722946 0.171639
O O6 0.463298 0.810316 0.248367
O O7 0.453829 0.878257 0.117750
O O8 0.250000 0.000000 0.048487
O O9 0.000000 0.000000 0.000000
O O10 0.750000 0.177145 0.659616
O O11 0.485571 0.245997 0.625171
O O12 0.542975 0.000000 0.659134
O O13 0.250000 0.323043 0.562666
O O14 0.055132 0.500000 0.599680
O O15 0.000000 0.330408 0.500000
#
# Coordination Sequence:
#
# PCOD8211372 Si02
#       5
#     8   8   4   8   8
#     4  10  21  36  53  75 105 141 185 238 292 347
#     4  10  20  36  56  78 109 146 186 232 283 341
#     4  10  20  34  52  76 105 140 183 232 281 328
#     4  10  21  39  62  88 122 162 200 243 296 355
#     4  10  22  41  65  93 124 158 199 246 294 351
#
# _framework density 19.835024000000001
#
# number of rings (size 3 to 8) (size 9 to 14) (size 15 to 20)
#    0.000    2.000    1.111    2.000    0.000    8.000 
#    0.000    4.444    0.000    0.000    0.000    0.000 
#    0.000    0.000    0.000    0.000    0.000    0.000 
#
# Total GULP energy -446206.214241 kJ/mol
# GULP energy per Si atom -12394.617062 kJ/mol
# Density = 1.978988 g / cm^3
# Si number density = 19.835024 Si / 1000 Ang^3
#
#
#
# Elastic Constant Matrix: (Units=GPa)
#
#
# Indices 1 2 3 4 5 6 
#
# 1 128.7872 62.2102 87.3468 0.0000 0.0000 0.0000
# 2 62.2102 84.4142 68.9706 0.0000 0.0000 0.0000
# 3 87.3468 68.9706 148.1685 0.0000 0.0000 0.0000
# 4 0.0000 0.0000 0.0000 37.2625 0.0000 0.0000
# 5 0.0000 0.0000 0.0000 0.0000 38.9905 0.0000
# 6 0.0000 0.0000 0.0000 0.0000 0.0000 26.8402
#
#
#
# Elastic Compliance Matrix: (Units=1/GPa)
#
#
# Indices 1 2 3 4 5 6 
#
# 1 0.014616 -0.006022 -0.005813 0.000000 0.000000 0.000000
# 2 -0.006022 0.021598 -0.006504 0.000000 0.000000 0.000000
# 3 -0.005813 -0.006504 0.013203 0.000000 0.000000 0.000000
# 4 0.000000 0.000000 0.000000 0.026837 0.000000 0.000000
# 5 0.000000 0.000000 0.000000 0.000000 0.025647 0.000000
# 6 0.000000 0.000000 0.000000 0.000000 0.000000 0.037258
#
#
# Mechanical properties :
#
#
# Convention : Reuss Voigt Hill
#
# Bulk Modulus (GPa) = 78.49262 88.71390 83.60326
# Shear Modulus (GPa) = 27.76482 30.14148 28.95315
#
# Velocity S-wave (km/s) = 3.74543 3.90244 3.82474
# Velocity P-wave (km/s) = 7.63957 8.07022 7.85784
#
# Compressibility (1/GPa) = 0.01274005
#
# Stress axis : x y z
#
# Youngs Moduli (GPa) = 68.41632 46.30039 75.73763
#
# Poissons Ratio (x) = 0.27882 0.44029
# Poissons Ratio (y) = 0.41200 0.49257
# Poissons Ratio (z) = 0.39773 0.30112
#
# Static dielectric constant tensor:
#      x y z
#    x 3.724520 0.000000 0.000000 
#    y 0.000000 5.921050 0.000000 
#    z 0.000000 0.000000 3.537140 
# 
# 
# High freq. dielectric constant tensor:
#      x y z
#    x 1.777710 0.000000 0.000000 
#    y 0.000000 1.774420 0.000000 
#    z 0.000000 0.000000 1.771450 
# 
# From -- ./inp_files/27023.got.cif
#   From: 2010.03.12/outbox.cif.g09.slc.cpg/sg51_14_cif.got.tgz:27023.got - 2010.04.16 13:43:02.
