data_PCOD8211111
_publ_section_title
;
Structure prediction by ZEFSAII (Michael W. Deem and Ramdas Pophale) SiO2 
 PCOD8211111
Probable space group: P M M A
;
_chemical_formula_sum "Si O2"
_cell_formula_units_Z 48
_cell_length_a 9.206355
_cell_length_b 7.625566
_cell_length_c 34.358536
_cell_angle_alpha 90.000000
_cell_angle_beta 90.000000
_cell_angle_gamma 90.000000
_cell_volume 2412.095243
_symmetry_space_group_name_H-M "P M M A"
_symmetry_group_IT_number 51
_symmetry_cell_setting 'orthorhombic'
loop_
_space_group_symop_operation_xyz
x,y,z
1/2-x,-y,z
1/2+x,-y,-z
-x,y,-z
-x,-y,-z
1/2+x,y,-z
1/2-x,y,z
x,-y,z
loop_
_atom_site_type_symbol
_atom_site_label
_atom_site_fract_x
_atom_site_fract_y
_atom_site_fract_z
Si Si1 0.919148 0.500000 0.540400
Si Si2 0.419423 0.000000 0.040448
Si Si3 0.580850 0.700875 0.900501
Si Si4 0.089940 0.700696 0.248244
Si Si5 0.912652 0.291668 0.176262
Si Si6 0.414734 0.793574 0.676846
Si Si7 0.918651 0.201210 0.599587
O O1 0.750000 0.500000 0.531329
O O2 0.963768 0.325107 0.563880
O O3 0.000000 0.500000 0.500000
O O4 0.464571 0.174985 0.063842
O O5 0.250000 0.000000 0.031652
O O6 0.500000 0.000000 0.000000
O O7 0.750000 0.721415 0.890341
O O8 0.542699 0.500000 0.911664
O O9 0.492841 0.766282 0.863015
O O10 0.250000 0.789805 0.252037
O O11 0.112320 0.500000 0.236998
O O12 0.998284 0.789850 0.213309
O O13 0.004031 0.709288 0.288408
O O14 0.750000 0.213558 0.176232
O O15 0.906875 0.500000 0.179282
O O16 0.250000 0.722410 0.677532
O O17 0.488046 0.737271 0.636457
O O18 0.419440 0.000000 0.681980
O O19 0.750000 0.225978 0.610461
O O20 0.952696 0.000000 0.587953
#
# Coordination Sequence:
#
# PCOD8211111 Si02
#       7
#     4   4   8   8   8   8   8
#     4  10  22  38  58  86 114 142 184 230 278 340
#     4  10  22  38  56  82 112 140 178 226 274 330
#     4   9  18  35  57  78 105 143 182 221 270 330
#     4  10  20  33  52  78 108 145 186 227 272 326
#     4   9  17  31  52  78 107 139 180 227 273 322
#     4  10  21  36  53  77 109 143 183 230 279 329
#     4   9  19  37  58  79 109 148 185 226 276 332
#
# _framework density 19.899711
#
# number of rings (size 3 to 8) (size 9 to 14) (size 15 to 20)
#    0.000    2.500    0.000    1.500    1.167    6.000 
#    1.500    0.000    0.000    0.000    0.000    0.000 
#    0.000    0.000    0.000    0.000    0.000    0.000 
#
# Total GULP energy -595209.259423 kJ/mol
# GULP energy per Si atom -12400.192905 kJ/mol
# Density = 1.985442 g / cm^3
# Si number density = 19.899711 Si / 1000 Ang^3
#
#
#
# Elastic Constant Matrix: (Units=GPa)
#
#
# Indices 1 2 3 4 5 6 
#
# 1 135.3791 37.1664 97.1727 0.0000 0.0000 0.0000
# 2 37.1664 72.6710 60.1562 0.0000 0.0000 0.0000
# 3 97.1727 60.1562 186.2730 0.0000 0.0000 0.0000
# 4 0.0000 0.0000 0.0000 -98.8366 0.0000 0.0000
# 5 0.0000 0.0000 0.0000 0.0000 45.4957 0.0000
# 6 0.0000 0.0000 0.0000 0.0000 0.0000 12.8696
#
#
#
# Elastic Compliance Matrix: (Units=1/GPa)
#
#
# Indices 1 2 3 4 5 6 
#
# 1 0.011896 -0.001293 -0.005789 0.000000 0.000000 0.000000
# 2 -0.001293 0.018922 -0.005437 0.000000 0.000000 0.000000
# 3 -0.005789 -0.005437 0.010144 0.000000 0.000000 0.000000
# 4 0.000000 0.000000 0.000000 -0.010118 0.000000 0.000000
# 5 0.000000 0.000000 0.000000 0.000000 0.021980 0.000000
# 6 0.000000 0.000000 0.000000 0.000000 0.000000 0.077702
#
#
# Mechanical properties :
#
#
# Convention : Reuss Voigt Hill
#
# Bulk Modulus (GPa) = 62.78619 87.03485 74.91052
# Shear Modulus (GPa) = 31.08072 5.22761 18.15416
#
# Velocity S-wave (km/s) = 3.95633 1.62255 3.02368
# Velocity P-wave (km/s) = 7.24499 6.88055 7.06512
#
# Compressibility (1/GPa) = 0.01592707
#
# Stress axis : x y z
#
# Youngs Moduli (GPa) = 84.05872 52.84857 98.58147
#
# Poissons Ratio (x) = 0.06831 0.57065
# Poissons Ratio (y) = 0.10865 0.53594
# Poissons Ratio (z) = 0.48658 0.28731
#
# Static dielectric constant tensor:
#      x y z
#    x 3.931110 0.000000 0.000000 
#    y 0.000000 3.476640 0.000000 
#    z 0.000000 0.000000 3.493350 
# 
# 
# High freq. dielectric constant tensor:
#      x y z
#    x 1.781630 0.000000 0.000000 
#    y 0.000000 1.768100 0.000000 
#    z 0.000000 0.000000 1.770570 
# 
# From -- ./inp_files/37066.got.cif
#   From: 2010.03.12/outbox.cif.g09.slc.cpg/sg51_19_cif.got.tgz:37066.got - 2010.04.16 13:43:02.
