data_PCOD8211644
_publ_section_title
;
Structure prediction by ZEFSAII (Michael W. Deem and Ramdas Pophale) SiO2 
 PCOD8211644
Probable space group: P M M A
;
_chemical_formula_sum "Si O2"
_cell_formula_units_Z 48
_cell_length_a 17.520863
_cell_length_b 13.998228
_cell_length_c 10.139722
_cell_angle_alpha 90.000000
_cell_angle_beta 90.000000
_cell_angle_gamma 90.000000
_cell_volume 2486.878713
_symmetry_space_group_name_H-M "P M M A"
_symmetry_group_IT_number 51
_symmetry_cell_setting 'orthorhombic'
loop_
_space_group_symop_operation_xyz
x,y,z
1/2-x,-y,z
1/2+x,-y,-z
-x,y,-z
-x,-y,-z
1/2+x,y,-z
1/2-x,y,z
x,-y,z
loop_
_atom_site_type_symbol
_atom_site_label
_atom_site_fract_x
_atom_site_fract_y
_atom_site_fract_z
Si Si1 0.340710 0.693651 0.965426
Si Si2 0.334434 0.388196 0.506009
Si Si3 0.164816 0.100359 0.950378
Si Si4 0.835388 0.895652 0.737485
Si Si5 0.435152 0.389865 0.746568
Si Si6 0.596143 0.700116 0.746003
O O1 0.250000 0.685164 0.948353
O O2 0.372283 0.797737 0.911569
O O3 0.382509 0.614819 0.877083
O O4 0.360002 0.678388 0.118339
O O5 0.250000 0.341590 0.517572
O O6 0.327384 0.500000 0.526850
O O7 0.388885 0.348308 0.621434
O O8 0.369959 0.369204 0.363832
O O9 0.250000 0.097672 0.892063
O O10 0.123001 0.000000 0.903994
O O11 0.168948 0.100251 0.106654
O O12 0.750000 0.874252 0.682594
O O13 0.892261 0.809851 0.696510
O O14 0.863676 0.000000 0.683996
O O15 0.460249 0.500000 0.726443
O O16 0.507539 0.321902 0.765693
#
# Coordination Sequence:
#
# PCOD8211644 Si02
#       6
#     8   8   8   8   8   8
#     4  10  20  34  54  80 107 140 183 223 261 313
#     4  10  21  38  59  79  99 133 183 227 263 314
#     4   7  11  23  45  72 100 129 164 209 257 302
#     4   8  14  27  50  80 110 137 168 211 263 314
#     4  11  24  39  52  72 110 151 176 212 280 336
#     4  11  20  34  57  84 108 134 176 225 267 310
#
# _framework density 19.301303000000001
#
# number of rings (size 3 to 8) (size 9 to 14) (size 15 to 20)
#    0.000    2.500    0.000    5.500    0.000    4.333 
#    0.000    0.833    0.000    7.000    0.000    2.333 
#    0.000    0.000    0.000    0.000    0.000    0.000 
#
# Total GULP energy -594626.569197 kJ/mol
# GULP energy per Si atom -12388.053525 kJ/mol
# Density = 1.925737 g / cm^3
# Si number density = 19.301303 Si / 1000 Ang^3
#
#
#
# Elastic Constant Matrix: (Units=GPa)
#
#
# Indices 1 2 3 4 5 6 
#
# 1 109.2274 39.8499 27.6169 0.0000 0.0000 0.0000
# 2 39.8499 71.2233 20.4716 0.0000 0.0000 0.0000
# 3 27.6169 20.4716 61.8262 0.0000 0.0000 0.0000
# 4 0.0000 0.0000 0.0000 6.9808 0.0000 0.0000
# 5 0.0000 0.0000 0.0000 0.0000 27.1715 0.0000
# 6 0.0000 0.0000 0.0000 0.0000 0.0000 26.0785
#
#
#
# Elastic Compliance Matrix: (Units=1/GPa)
#
#
# Indices 1 2 3 4 5 6 
#
# 1 0.012156 -0.005792 -0.003512 0.000000 0.000000 0.000000
# 2 -0.005792 0.018277 -0.003465 0.000000 0.000000 0.000000
# 3 -0.003512 -0.003465 0.018890 0.000000 0.000000 0.000000
# 4 0.000000 0.000000 0.000000 0.143249 0.000000 0.000000
# 5 0.000000 0.000000 0.000000 0.000000 0.036803 0.000000
# 6 0.000000 0.000000 0.000000 0.000000 0.000000 0.038346
#
#
# Mechanical properties :
#
#
# Convention : Reuss Voigt Hill
#
# Bulk Modulus (GPa) = 42.04153 46.46151 44.25152
# Shear Modulus (GPa) = 16.60090 22.33539 19.46814
#
# Velocity S-wave (km/s) = 2.93591 3.40545 3.17936
# Velocity P-wave (km/s) = 5.77250 6.29180 6.03774
#
# Compressibility (1/GPa) = 0.02378600
#
# Stress axis : x y z
#
# Youngs Moduli (GPa) = 82.26125 54.71404 52.93693
#
# Poissons Ratio (x) = 0.31691 0.18593
# Poissons Ratio (y) = 0.47646 0.18340
# Poissons Ratio (z) = 0.28892 0.18956
#
# Static dielectric constant tensor:
#      x y z
#    x 3.467780 0.000000 0.000000 
#    y 0.000000 4.222900 0.000000 
#    z 0.000000 0.000000 3.187850 
# 
# 
# High freq. dielectric constant tensor:
#      x y z
#    x 1.734940 0.000000 0.000000 
#    y 0.000000 1.759010 0.000000 
#    z 0.000000 0.000000 1.715450 
# 
# From -- ./inp_files/9588.got.cif
#   From: 2010.03.12/outbox.cif.g09.slc.cpg/sg51_5_cif.got.tgz:9588.got - 2010.04.16 13:43:02.
