data_PCOD8211033
_publ_section_title
;
Structure prediction by ZEFSAII (Michael W. Deem and Ramdas Pophale) SiO2 
 PCOD8211033
Probable space group: P M M A
;
_chemical_formula_sum "Si O2"
_cell_formula_units_Z 48
_cell_length_a 16.636048
_cell_length_b 9.695603
_cell_length_c 16.320317
_cell_angle_alpha 90.000000
_cell_angle_beta 90.000000
_cell_angle_gamma 90.000000
_cell_volume 2632.410287
_symmetry_space_group_name_H-M "P M M A"
_symmetry_group_IT_number 51
_symmetry_cell_setting 'orthorhombic'
loop_
_space_group_symop_operation_xyz
x,y,z
1/2-x,-y,z
1/2+x,-y,-z
-x,y,-z
-x,-y,-z
1/2+x,y,-z
1/2-x,y,z
x,-y,z
loop_
_atom_site_type_symbol
_atom_site_label
_atom_site_fract_x
_atom_site_fract_y
_atom_site_fract_z
Si Si1 0.250000 0.835420 0.521318
Si Si2 0.562667 0.159933 0.736121
Si Si3 0.909077 0.340870 0.024227
Si Si4 0.842489 0.651431 0.853954
Si Si5 0.078235 0.836554 0.450584
Si Si6 0.893532 0.839126 0.181937
Si Si7 0.250000 0.836881 0.705209
O O1 0.166338 0.780538 0.480073
O O2 0.250000 0.776064 0.613691
O O3 0.250000 0.000000 0.518213
O O4 0.627398 0.242665 0.787096
O O5 0.565246 0.210522 0.642702
O O6 0.477073 0.192262 0.774879
O O7 0.585201 0.000000 0.741882
O O8 0.894447 0.500000 0.048468
O O9 0.882917 0.245890 0.099132
O O10 0.856489 0.294928 0.946214
O O11 0.000000 0.311401 0.000000
O O12 0.750000 0.635311 0.836970
O O13 0.884505 0.500000 0.844587
O O14 0.000000 0.777848 0.500000
O O15 0.078383 0.000000 0.460190
O O16 0.827864 0.785728 0.246151
O O17 0.882860 0.000000 0.160551
O O18 0.250000 0.000000 0.697859
#
# Coordination Sequence:
#
# PCOD8211033 Si02
#       7
#     4   8   8   8   8   8   4
#     4   9  16  28  48  70  99 138 170 203 251 305
#     4  10  20  33  53  80 108 135 172 219 261 303
#     4  10  20  36  55  73  97 134 177 216 253 304
#     4  10  22  38  54  74 103 139 176 213 258 312
#     4   9  17  29  47  74 106 137 170 209 255 306
#     4  10  20  33  51  77 107 138 169 211 262 307
#     4   9  18  32  49  74 109 140 170 207 257 313
#
# _framework density 18.234238999999999
#
# number of rings (size 3 to 8) (size 9 to 14) (size 15 to 20)
#    0.000    2.333    1.667    1.000    2.333    5.333 
#    0.000    0.000    0.000    0.500    0.000    2.333 
#    0.000    0.000    0.000    0.000    0.000    0.000 
#
# Total GULP energy -595055.606868 kJ/mol
# GULP energy per Si atom -12396.991810 kJ/mol
# Density = 1.819274 g / cm^3
# Si number density = 18.234239 Si / 1000 Ang^3
#
#
#
# Elastic Constant Matrix: (Units=GPa)
#
#
# Indices 1 2 3 4 5 6 
#
# 1 99.4227 25.1489 52.8068 0.0000 0.0000 0.0000
# 2 25.1489 33.9780 48.1185 0.0000 0.0000 0.0000
# 3 52.8068 48.1185 162.0269 0.0000 0.0000 0.0000
# 4 0.0000 0.0000 0.0000 0.3102 0.0000 0.0000
# 5 0.0000 0.0000 0.0000 0.0000 84.3358 0.0000
# 6 0.0000 0.0000 0.0000 0.0000 0.0000 12.6037
#
#
#
# Elastic Compliance Matrix: (Units=1/GPa)
#
#
# Indices 1 2 3 4 5 6 
#
# 1 0.012877 -0.006191 -0.002358 0.000000 0.000000 0.000000
# 2 -0.006191 0.053770 -0.013951 0.000000 0.000000 0.000000
# 3 -0.002358 -0.013951 0.011083 0.000000 0.000000 0.000000
# 4 0.000000 0.000000 0.000000 3.223883 0.000000 0.000000
# 5 0.000000 0.000000 0.000000 0.000000 0.011857 0.000000
# 6 0.000000 0.000000 0.000000 0.000000 0.000000 0.079342
#
#
# Mechanical properties :
#
#
# Convention : Reuss Voigt Hill
#
# Bulk Modulus (GPa) = 30.55325 60.84178 45.69752
# Shear Modulus (GPa) = 1.44981 30.74017 16.09499
#
# Velocity S-wave (km/s) = 0.89265 4.11036 2.97422
# Velocity P-wave (km/s) = 4.22549 7.48104 6.07539
#
# Compressibility (1/GPa) = 0.03272974
#
# Stress axis : x y z
#
# Youngs Moduli (GPa) = 77.66058 18.59787 90.22570
#
# Poissons Ratio (x) = 0.11515 0.21275
# Poissons Ratio (y) = 0.48082 1.25870
# Poissons Ratio (z) = 0.18312 0.25945
#
# Static dielectric constant tensor:
#      x y z
#    x 3.541990 0.000000 0.000000 
#    y 0.000000 3.026380 0.000000 
#    z 0.000000 0.000000 2.966870 
# 
# 
# High freq. dielectric constant tensor:
#      x y z
#    x 1.720460 0.000000 0.000000 
#    y 0.000000 1.659260 0.000000 
#    z 0.000000 0.000000 1.719220 
# 
# From -- ./inp_files/24839.got.cif
#   From: 2010.03.12/outbox.cif.g09.slc.cpg/sg51_13_cif.got.tgz:24839.got - 2010.04.16 13:43:02.
