data_PCOD8211766
_publ_section_title
;
Structure prediction by ZEFSAII (Michael W. Deem and Ramdas Pophale) SiO2 
 PCOD8211766
Probable space group: P M M A
;
_chemical_formula_sum "Si O2"
_cell_formula_units_Z 56
_cell_length_a 22.659242
_cell_length_b 13.493577
_cell_length_c 9.364105
_cell_angle_alpha 90.000000
_cell_angle_beta 90.000000
_cell_angle_gamma 90.000000
_cell_volume 2863.114683
_symmetry_space_group_name_H-M "P M M A"
_symmetry_group_IT_number 51
_symmetry_cell_setting 'orthorhombic'
loop_
_space_group_symop_operation_xyz
x,y,z
1/2-x,-y,z
1/2+x,-y,-z
-x,y,-z
-x,-y,-z
1/2+x,y,-z
1/2-x,y,z
x,-y,z
loop_
_atom_site_type_symbol
_atom_site_label
_atom_site_fract_x
_atom_site_fract_y
_atom_site_fract_z
Si Si1 0.597487 0.386483 0.372628
Si Si2 0.182029 0.227391 0.128246
Si Si3 0.482387 0.795006 0.653853
Si Si4 0.816677 0.277244 0.188187
Si Si5 0.598204 0.886071 0.691423
Si Si6 0.366140 0.113049 0.629723
Si Si7 0.317057 0.614317 0.366728
O O1 0.576990 0.500000 0.371969
O O2 0.538194 0.320076 0.357473
O O3 0.640993 0.365772 0.240231
O O4 0.634582 0.357590 0.513931
O O5 0.250000 0.197628 0.128811
O O6 0.147717 0.132684 0.189966
O O7 0.168897 0.323341 0.225446
O O8 0.160298 0.247396 0.968085
O O9 0.500000 0.838101 0.500000
O O10 0.542822 0.815329 0.740155
O O11 0.428054 0.861797 0.710155
O O12 0.750000 0.317646 0.180673
O O13 0.817823 0.183584 0.297019
O O14 0.626808 0.859346 0.537305
O O15 0.577908 0.000000 0.693942
O O16 0.347234 0.000000 0.653490
O O17 0.250000 0.635794 0.422776
O O18 0.323332 0.500000 0.323765
#
# Coordination Sequence:
#
# PCOD8211766 Si02
#       7
#     8   8   8   8   8   8   8
#     4  10  20  34  55  82 108 136 174 218 262 311
#     4  10  21  36  53  76 108 142 177 218 262 312
#     4   9  17  32  54  79 107 135 169 215 264 314
#     4  10  21  35  52  76 109 147 179 213 262 314
#     4  10  20  35  57  80 103 137 177 218 264 312
#     4   9  18  33  53  77 104 136 178 223 263 308
#     4   9  17  31  53  79 105 136 176 220 264 311
#
# _framework density 19.559118999999999
#
# number of rings (size 3 to 8) (size 9 to 14) (size 15 to 20)
#    0.000    2.429    0.000    3.429    0.000    6.286 
#    0.000    7.857    0.000    5.143    0.000    0.000 
#    0.000    0.000    0.000    0.000    0.000    0.000 
#
# Total GULP energy -694101.801852 kJ/mol
# GULP energy per Si atom -12394.675033 kJ/mol
# Density = 1.951460 g / cm^3
# Si number density = 19.559119 Si / 1000 Ang^3
#
#
#
# Elastic Constant Matrix: (Units=GPa)
#
#
# Indices 1 2 3 4 5 6 
#
# 1 70.4172 30.0963 35.9163 0.0000 0.0000 0.0000
# 2 30.0963 97.1101 26.1969 0.0000 0.0000 0.0000
# 3 35.9163 26.1969 90.4747 0.0000 0.0000 0.0000
# 4 0.0000 0.0000 0.0000 20.5690 0.0000 0.0000
# 5 0.0000 0.0000 0.0000 0.0000 15.8672 0.0000
# 6 0.0000 0.0000 0.0000 0.0000 0.0000 27.3448
#
#
#
# Elastic Compliance Matrix: (Units=1/GPa)
#
#
# Indices 1 2 3 4 5 6 
#
# 1 0.019295 -0.004245 -0.006431 0.000000 0.000000 0.000000
# 2 -0.004245 0.012104 -0.001819 0.000000 0.000000 0.000000
# 3 -0.006431 -0.001819 0.014132 0.000000 0.000000 0.000000
# 4 0.000000 0.000000 0.000000 0.048617 0.000000 0.000000
# 5 0.000000 0.000000 0.000000 0.000000 0.063023 0.000000
# 6 0.000000 0.000000 0.000000 0.000000 0.000000 0.036570
#
#
# Mechanical properties :
#
#
# Convention : Reuss Voigt Hill
#
# Bulk Modulus (GPa) = 48.68244 49.15788 48.92016
# Shear Modulus (GPa) = 22.16512 23.80904 22.98708
#
# Velocity S-wave (km/s) = 3.37001 3.49275 3.43193
# Velocity P-wave (km/s) = 6.33139 6.43842 6.38513
#
# Compressibility (1/GPa) = 0.02054129
#
# Stress axis : x y z
#
# Youngs Moduli (GPa) = 51.82576 82.61661 70.75927
#
# Poissons Ratio (x) = 0.35073 0.45502
# Poissons Ratio (y) = 0.22001 0.12874
# Poissons Ratio (z) = 0.33327 0.15032
#
# Static dielectric constant tensor:
#      x y z
#    x 3.658600 0.000000 0.000000 
#    y 0.000000 3.450540 0.000000 
#    z 0.000000 0.000000 3.407140 
# 
# 
# High freq. dielectric constant tensor:
#      x y z
#    x 1.762110 0.000000 0.000000 
#    y 0.000000 1.759310 0.000000 
#    z 0.000000 0.000000 1.734090 
# 
# From -- ./inp_files/11025.got.cif
#   From: 2010.03.12/outbox.cif.g09.slc.cpg/sg51_6_cif.got.tgz:11025.got - 2010.04.16 13:43:02.
