data_PCOD8211801
_publ_section_title
;
Structure prediction by ZEFSAII (Michael W. Deem and Ramdas Pophale) SiO2 
 PCOD8211801
Probable space group: P M M A
;
_chemical_formula_sum "Si O2"
_cell_formula_units_Z 64
_cell_length_a 9.208384
_cell_length_b 25.152707
_cell_length_c 14.231876
_cell_angle_alpha 90.000000
_cell_angle_beta 90.000000
_cell_angle_gamma 90.000000
_cell_volume 3296.327127
_symmetry_space_group_name_H-M "P M M A"
_symmetry_group_IT_number 51
_symmetry_cell_setting 'orthorhombic'
loop_
_space_group_symop_operation_xyz
x,y,z
1/2-x,-y,z
1/2+x,-y,-z
-x,y,-z
-x,-y,-z
1/2+x,y,-z
1/2-x,y,z
x,-y,z
loop_
_atom_site_type_symbol
_atom_site_label
_atom_site_fract_x
_atom_site_fract_y
_atom_site_fract_z
Si Si1 0.418941 0.100062 0.906642
Si Si2 0.584312 0.060128 0.730953
Si Si3 0.919237 0.224108 0.093709
Si Si4 0.580195 0.154324 0.597700
Si Si5 0.417552 0.251977 0.273761
Si Si6 0.909885 0.436968 0.085954
Si Si7 0.418605 0.648680 0.406039
Si Si8 0.420111 0.438320 0.705618
O O1 0.250000 0.087314 0.918155
O O2 0.481107 0.067248 0.819891
O O3 0.448644 0.162018 0.888840
O O4 0.500000 0.080398 0.000000
O O5 0.750000 0.073108 0.761192
O O6 0.536299 0.098979 0.646985
O O7 0.569055 0.000000 0.693586
O O8 0.750000 0.237179 0.083970
O O9 0.985215 0.256208 0.180883
O O10 0.000000 0.243538 0.000000
O O11 0.500000 0.158793 0.500000
O O12 0.750000 0.158166 0.577025
O O13 0.528737 0.202604 0.663576
O O14 0.250000 0.243952 0.244815
O O15 0.442560 0.306023 0.329493
O O16 0.750000 0.412226 0.077960
O O17 0.901593 0.500000 0.074920
O O18 0.974836 0.423439 0.188758
O O19 0.000000 0.411501 0.000000
O O20 0.500000 0.666811 0.500000
O O21 0.250000 0.639580 0.428644
O O22 0.486429 0.593980 0.369029
O O23 0.250000 0.424866 0.695482
O O24 0.448266 0.500000 0.684766
#
# Coordination Sequence:
#
# PCOD8211801 Si02
#       8
#     8   8   8   8   8   8   8   8
#     4  10  20  34  55  83 113 148 187 229 279 336
#     4  10  21  37  56  79 110 149 190 234 285 338
#     4  10  20  34  58  89 118 150 187 228 278 336
#     4  10  21  37  58  81 108 142 183 233 285 339
#     4  10  21  39  61  85 114 148 186 231 282 335
#     4   8  14  26  47  76 108 142 180 221 265 315
#     4  11  24  40  60  86 114 147 188 236 289 340
#     4   9  19  37  59  83 115 155 195 235 282 336
#
# _framework density 19.415548999999999
#
# number of rings (size 3 to 8) (size 9 to 14) (size 15 to 20)
#    0.000    2.250    1.250    2.250    0.000    4.750 
#    0.000    1.875    0.000    1.500    0.000    0.000 
#    0.000    0.000    0.000    0.000    0.000    0.000 
#
# Total GULP energy -793750.351882 kJ/mol
# GULP energy per Si atom -12402.349248 kJ/mol
# Density = 1.937136 g / cm^3
# Si number density = 19.415549 Si / 1000 Ang^3
#
#
#
# Elastic Constant Matrix: (Units=GPa)
#
#
# Indices 1 2 3 4 5 6 
#
# 1 98.7661 41.1396 67.7936 0.0000 0.0000 0.0000
# 2 41.1396 72.7522 40.3018 0.0000 0.0000 0.0000
# 3 67.7936 40.3018 130.4328 0.0000 0.0000 0.0000
# 4 0.0000 0.0000 0.0000 17.2186 0.0000 0.0000
# 5 0.0000 0.0000 0.0000 0.0000 43.6308 0.0000
# 6 0.0000 0.0000 0.0000 0.0000 0.0000 21.5825
#
#
#
# Elastic Compliance Matrix: (Units=1/GPa)
#
#
# Indices 1 2 3 4 5 6 
#
# 1 0.017616 -0.005899 -0.007333 0.000000 0.000000 0.000000
# 2 -0.005899 0.018559 -0.002669 0.000000 0.000000 0.000000
# 3 -0.007333 -0.002669 0.012303 0.000000 0.000000 0.000000
# 4 0.000000 0.000000 0.000000 0.058077 0.000000 0.000000
# 5 0.000000 0.000000 0.000000 0.000000 0.022920 0.000000
# 6 0.000000 0.000000 0.000000 0.000000 0.000000 0.046334
#
#
# Mechanical properties :
#
#
# Convention : Reuss Voigt Hill
#
# Bulk Modulus (GPa) = 59.96496 66.71347 63.33921
# Shear Modulus (GPa) = 23.45571 26.66746 25.06158
#
# Velocity S-wave (km/s) = 3.47953 3.71011 3.59667
# Velocity P-wave (km/s) = 6.86257 7.26558 7.06695
#
# Compressibility (1/GPa) = 0.01667641
#
# Stress axis : x y z
#
# Youngs Moduli (GPa) = 56.76802 53.88160 81.28230
#
# Poissons Ratio (x) = 0.31784 0.59606
# Poissons Ratio (y) = 0.33487 0.21690
# Poissons Ratio (z) = 0.41629 0.14378
#
# Static dielectric constant tensor:
#      x y z
#    x 3.576770 0.000000 0.000000 
#    y 0.000000 3.363920 0.000000 
#    z 0.000000 0.000000 3.546920 
# 
# 
# High freq. dielectric constant tensor:
#      x y z
#    x 1.754290 0.000000 0.000000 
#    y 0.000000 1.741660 0.000000 
#    z 0.000000 0.000000 1.761460 
# 
# From -- ./inp_files/22304.got.cif
#   From: 2010.03.12/outbox.cif.g09.slc.cpg/sg51_12_cif.got.tgz:22304.got - 2010.04.16 13:43:02.
