data_PCOD8211818
_publ_section_title
;
Structure prediction by ZEFSAII (Michael W. Deem and Ramdas Pophale) SiO2 
 PCOD8211818
Probable space group: P M M A
;
_chemical_formula_sum "Si O2"
_cell_formula_units_Z 44
_cell_length_a 9.242872
_cell_length_b 7.964850
_cell_length_c 29.766624
_cell_angle_alpha 90.000000
_cell_angle_beta 90.000000
_cell_angle_gamma 90.000000
_cell_volume 2191.361976
_symmetry_space_group_name_H-M "P M M A"
_symmetry_group_IT_number 51
_symmetry_cell_setting 'orthorhombic'
loop_
_space_group_symop_operation_xyz
x,y,z
1/2-x,-y,z
1/2+x,-y,-z
-x,y,-z
-x,-y,-z
1/2+x,y,-z
1/2-x,y,z
x,-y,z
loop_
_atom_site_type_symbol
_atom_site_label
_atom_site_fract_x
_atom_site_fract_y
_atom_site_fract_z
Si Si1 0.085794 0.301531 0.714202
Si Si2 0.085242 0.301054 0.372341
Si Si3 0.088999 0.195773 0.541488
Si Si4 0.078635 0.000000 0.047057
Si Si5 0.582957 0.687463 0.893245
Si Si6 0.083310 0.192415 0.810666
O O1 0.250000 0.240803 0.704969
O O2 0.078683 0.500000 0.718445
O O3 0.024961 0.223117 0.760342
O O4 0.985125 0.235691 0.673942
O O5 0.250000 0.236705 0.374789
O O6 0.076817 0.500000 0.375267
O O7 0.995528 0.224087 0.412735
O O8 0.250000 0.277330 0.543899
O O9 0.000000 0.277926 0.500000
O O10 0.105693 0.000000 0.532648
O O11 0.026502 0.168429 0.072958
O O12 0.250000 0.000000 0.039383
O O13 0.000000 0.000000 0.000000
O O14 0.750000 0.720714 0.883019
O O15 0.558240 0.500000 0.913802
O O16 0.501955 0.694312 0.845859
O O17 0.250000 0.247160 0.812713
O O18 0.060418 0.000000 0.824164
#
# Coordination Sequence:
#
# PCOD8211818 Si02
#       6
#     8   8   8   4   8   8
#     4   9  18  33  51  73 106 146 184 224 271 323
#     4  10  21  36  54  78 108 141 179 223 271 327
#     4  10  21  37  57  79 103 134 173 219 272 330
#     4  10  22  40  60  86 120 154 194 244 291 344
#     4  10  21  38  60  85 116 155 195 238 291 346
#     4  10  20  34  55  84 116 149 189 235 282 336
#
# _framework density 20.078838000000001
#
# number of rings (size 3 to 8) (size 9 to 14) (size 15 to 20)
#    0.000    2.182    0.909    1.636    0.000    6.182 
#    0.000    3.636    0.000    0.000    0.000    0.000 
#    0.000    0.000    0.000    0.000    0.000    0.000 
#
# Total GULP energy -545641.879142 kJ/mol
# GULP energy per Si atom -12400.951799 kJ/mol
# Density = 2.003314 g / cm^3
# Si number density = 20.078838 Si / 1000 Ang^3
#
#
#
# Elastic Constant Matrix: (Units=GPa)
#
#
# Indices 1 2 3 4 5 6 
#
# 1 111.1515 30.4609 70.6423 0.0000 0.0000 0.0000
# 2 30.4609 69.3234 46.0404 0.0000 0.0000 0.0000
# 3 70.6423 46.0404 151.9335 0.0000 0.0000 0.0000
# 4 0.0000 0.0000 0.0000 25.5003 0.0000 0.0000
# 5 0.0000 0.0000 0.0000 0.0000 42.7841 0.0000
# 6 0.0000 0.0000 0.0000 0.0000 0.0000 21.3831
#
#
#
# Elastic Compliance Matrix: (Units=1/GPa)
#
#
# Indices 1 2 3 4 5 6 
#
# 1 0.013017 -0.002128 -0.005407 0.000000 0.000000 0.000000
# 2 -0.002128 0.018408 -0.004588 0.000000 0.000000 0.000000
# 3 -0.005407 -0.004588 0.010486 0.000000 0.000000 0.000000
# 4 0.000000 0.000000 0.000000 0.039215 0.000000 0.000000
# 5 0.000000 0.000000 0.000000 0.000000 0.023373 0.000000
# 6 0.000000 0.000000 0.000000 0.000000 0.000000 0.046766
#
#
# Mechanical properties :
#
#
# Convention : Reuss Voigt Hill
#
# Bulk Modulus (GPa) = 56.61686 69.63284 63.12485
# Shear Modulus (GPa) = 27.56332 30.28448 28.92390
#
# Velocity S-wave (km/s) = 3.70909 3.88787 3.79953
# Velocity P-wave (km/s) = 6.82654 7.41006 7.12428
#
# Compressibility (1/GPa) = 0.01766258
#
# Stress axis : x y z
#
# Youngs Moduli (GPa) = 76.82543 54.32485 95.36207
#
# Poissons Ratio (x) = 0.11563 0.51564
# Poissons Ratio (y) = 0.16352 0.43757
# Poissons Ratio (z) = 0.41541 0.24927
#
# Static dielectric constant tensor:
#      x y z
#    x 4.520810 0.000000 0.000000 
#    y 0.000000 3.628500 0.000000 
#    z 0.000000 0.000000 3.620770 
# 
# 
# High freq. dielectric constant tensor:
#      x y z
#    x 1.781090 0.000000 0.000000 
#    y 0.000000 1.778860 0.000000 
#    z 0.000000 0.000000 1.784830 
# 
# From -- ./inp_files/36780.got.cif
#   From: 2010.03.12/outbox.cif.g09.slc.cpg/sg51_19_cif.got.tgz:36780.got - 2010.04.16 13:43:02.
