data_PCOD8211485
_publ_section_title
;
Structure prediction by ZEFSAII (Michael W. Deem and Ramdas Pophale) SiO2 
 PCOD8211485
Probable space group: P M M A
;
_chemical_formula_sum "Si O2"
_cell_formula_units_Z 48
_cell_length_a 7.788893
_cell_length_b 9.386271
_cell_length_c 34.245034
_cell_angle_alpha 90.000000
_cell_angle_beta 90.000000
_cell_angle_gamma 90.000000
_cell_volume 2503.608564
_symmetry_space_group_name_H-M "P M M A"
_symmetry_group_IT_number 51
_symmetry_cell_setting 'orthorhombic'
loop_
_space_group_symop_operation_xyz
x,y,z
1/2-x,-y,z
1/2+x,-y,-z
-x,y,-z
-x,-y,-z
1/2+x,y,-z
1/2-x,y,z
x,-y,z
loop_
_atom_site_type_symbol
_atom_site_label
_atom_site_fract_x
_atom_site_fract_y
_atom_site_fract_z
Si Si1 0.250000 0.668448 0.744924
Si Si2 0.947638 0.156861 0.614916
Si Si3 0.449987 0.163935 0.957354
Si Si4 0.951092 0.339832 0.457189
Si Si5 0.750000 0.330521 0.168093
Si Si6 0.948972 0.333007 0.688554
Si Si7 0.058636 0.663767 0.114924
O O1 0.250000 0.500000 0.747866
O O2 0.250000 0.735522 0.788358
O O3 0.425318 0.717537 0.723377
O O4 0.750000 0.135337 0.623499
O O5 0.020276 0.252758 0.650121
O O6 0.967263 0.234048 0.573736
O O7 0.036791 0.000000 0.614006
O O8 0.250000 0.184985 0.949644
O O9 0.553681 0.251929 0.925489
O O10 0.506565 0.000000 0.953805
O O11 0.500000 0.222577 0.000000
O O12 0.750000 0.339892 0.451151
O O13 0.025546 0.500000 0.451549
O O14 0.000000 0.282622 0.500000
O O15 0.750000 0.500000 0.170590
O O16 0.579647 0.275210 0.145779
O O17 0.750000 0.296532 0.699075
O O18 0.969090 0.500000 0.679988
O O19 0.250000 0.679890 0.132882
O O20 0.015650 0.500000 0.105554
#
# Coordination Sequence:
#
# PCOD8211485 Si02
#       7
#     4   8   8   8   4   8   8
#     4   9  18  32  55  83 109 139 179 225 273 325
#     4  10  21  36  54  77 107 142 176 215 266 319
#     4  10  20  34  53  77 106 141 182 228 275 321
#     4  10  21  36  55  78 104 137 178 221 263 311
#     4   9  18  34  53  79 113 141 175 229 277 323
#     4   9  18  33  54  80 108 138 177 224 269 317
#     4  10  20  34  54  79 108 145 183 220 271 328
#
# _framework density 19.172326000000002
#
# number of rings (size 3 to 8) (size 9 to 14) (size 15 to 20)
#    0.000    2.333    0.833    1.500    1.167    4.333 
#    0.000    3.333    0.000    2.000    0.000    2.333 
#    0.000    0.000    0.000    0.000    0.000    0.000 
#
# Total GULP energy -595132.773018 kJ/mol
# GULP energy per Si atom -12398.599438 kJ/mol
# Density = 1.912869 g / cm^3
# Si number density = 19.172326 Si / 1000 Ang^3
#
#
#
# Elastic Constant Matrix: (Units=GPa)
#
#
# Indices 1 2 3 4 5 6 
#
# 1 92.3379 28.1437 54.0494 0.0000 0.0000 0.0000
# 2 28.1437 64.9540 54.3958 0.0000 0.0000 0.0000
# 3 54.0494 54.3958 164.3520 0.0000 0.0000 0.0000
# 4 0.0000 0.0000 0.0000 3.7348 0.0000 0.0000
# 5 0.0000 0.0000 0.0000 0.0000 32.3301 0.0000
# 6 0.0000 0.0000 0.0000 0.0000 0.0000 15.0482
#
#
#
# Elastic Compliance Matrix: (Units=1/GPa)
#
#
# Indices 1 2 3 4 5 6 
#
# 1 0.013827 -0.003020 -0.003548 0.000000 0.000000 0.000000
# 2 -0.003020 0.021959 -0.006275 0.000000 0.000000 0.000000
# 3 -0.003548 -0.006275 0.009328 0.000000 0.000000 0.000000
# 4 0.000000 0.000000 0.000000 0.267753 0.000000 0.000000
# 5 0.000000 0.000000 0.000000 0.000000 0.030931 0.000000
# 6 0.000000 0.000000 0.000000 0.000000 0.000000 0.066453
#
#
# Mechanical properties :
#
#
# Convention : Reuss Voigt Hill
#
# Bulk Modulus (GPa) = 51.46930 66.09130 58.78030
# Shear Modulus (GPa) = 11.30172 22.55962 16.93067
#
# Velocity S-wave (km/s) = 2.43056 3.43399 2.97489
# Velocity P-wave (km/s) = 5.89752 7.09014 6.52115
#
# Compressibility (1/GPa) = 0.01942906
#
# Stress axis : x y z
#
# Youngs Moduli (GPa) = 72.32320 45.54018 107.20573
#
# Poissons Ratio (x) = 0.13753 0.38032
# Poissons Ratio (y) = 0.21842 0.67266
# Poissons Ratio (z) = 0.25657 0.28574
#
# Static dielectric constant tensor:
#      x y z
#    x 3.618350 0.000000 0.000000 
#    y 0.000000 3.465720 0.000000 
#    z 0.000000 0.000000 3.481390 
# 
# 
# High freq. dielectric constant tensor:
#      x y z
#    x 1.754570 0.000000 0.000000 
#    y 0.000000 1.719080 0.000000 
#    z 0.000000 0.000000 1.741780 
# 
# From -- ./inp_files/37097.got.cif
#   From: 2010.03.12/outbox.cif.g09.slc.cpg/sg51_19_cif.got.tgz:37097.got - 2010.04.16 13:43:02.
