data_PCOD8211347
_publ_section_title
;
Structure prediction by ZEFSAII (Michael W. Deem and Ramdas Pophale) SiO2 
 PCOD8211347
Probable space group: P M M A
;
_chemical_formula_sum "Si O2"
_cell_formula_units_Z 48
_cell_length_a 15.097210
_cell_length_b 8.974060
_cell_length_c 18.344870
_cell_angle_alpha 90.000000
_cell_angle_beta 90.000000
_cell_angle_gamma 90.000000
_cell_volume 2485.422945
_symmetry_space_group_name_H-M "P M M A"
_symmetry_group_IT_number 51
_symmetry_cell_setting 'orthorhombic'
loop_
_space_group_symop_operation_xyz
x,y,z
1/2-x,-y,z
1/2+x,-y,-z
-x,y,-z
-x,-y,-z
1/2+x,y,-z
1/2-x,y,z
x,-y,z
loop_
_atom_site_type_symbol
_atom_site_label
_atom_site_fract_x
_atom_site_fract_y
_atom_site_fract_z
Si Si1 0.351823 0.325184 0.403047
Si Si2 0.479559 0.323983 0.827054
Si Si3 0.906582 0.833026 0.039740
Si Si4 0.991064 0.175761 0.323853
Si Si5 0.851117 0.171887 0.446649
Si Si6 0.846442 0.330980 0.907256
O O1 0.250000 0.285402 0.384433
O O2 0.369297 0.500000 0.398262
O O3 0.413990 0.243699 0.344910
O O4 0.376129 0.270501 0.483820
O O5 0.469434 0.500000 0.817870
O O6 0.409745 0.265119 0.886880
O O7 0.457849 0.244417 0.751594
O O8 0.579012 0.274882 0.851011
O O9 0.876197 0.000000 0.060002
O O10 0.839333 0.762126 0.981946
O O11 0.000000 0.832376 0.000000
O O12 0.916357 0.220140 0.382279
O O13 0.001156 0.000000 0.315833
O O14 0.750000 0.200740 0.421464
O O15 0.865551 0.000000 0.468489
O O16 0.750000 0.319296 0.868792
O O17 0.869716 0.500000 0.929438
#
# Coordination Sequence:
#
# PCOD8211347 Si02
#       6
#     8   8   8   8   8   8
#     4  10  21  36  55  80 109 141 178 220 266 320
#     4  10  20  34  52  74 104 141 175 212 260 312
#     4   9  17  31  51  73  97 127 165 206 247 297
#     4  11  22  35  54  80 109 143 181 222 271 324
#     4   9  19  37  58  78 103 137 178 224 272 321
#     4   9  18  33  53  76 101 131 169 212 259 312
#
# _framework density 19.312608999999998
#
# number of rings (size 3 to 8) (size 9 to 14) (size 15 to 20)
#    0.000    2.333    0.000    2.500    0.000    8.000 
#    0.000    2.500    0.000    3.000    0.000    0.000 
#    0.000    0.000    0.000    0.000    0.000    0.000 
#
# Total GULP energy -595233.543461 kJ/mol
# GULP energy per Si atom -12400.698822 kJ/mol
# Density = 1.926865 g / cm^3
# Si number density = 19.312609 Si / 1000 Ang^3
#
#
#
# Elastic Constant Matrix: (Units=GPa)
#
#
# Indices 1 2 3 4 5 6 
#
# 1 40.1326 12.6271 6.5581 0.0000 0.0000 0.0000
# 2 12.6271 82.2047 33.0664 0.0000 0.0000 0.0000
# 3 6.5581 33.0664 81.7145 0.0000 0.0000 0.0000
# 4 0.0000 0.0000 0.0000 37.4874 0.0000 0.0000
# 5 0.0000 0.0000 0.0000 0.0000 19.4904 0.0000
# 6 0.0000 0.0000 0.0000 0.0000 0.0000 20.9724
#
#
#
# Elastic Compliance Matrix: (Units=1/GPa)
#
#
# Indices 1 2 3 4 5 6 
#
# 1 0.026205 -0.003797 -0.000566 0.000000 0.000000 0.000000
# 2 -0.003797 0.015080 -0.005797 0.000000 0.000000 0.000000
# 3 -0.000566 -0.005797 0.014629 0.000000 0.000000 0.000000
# 4 0.000000 0.000000 0.000000 0.026676 0.000000 0.000000
# 5 0.000000 0.000000 0.000000 0.000000 0.051307 0.000000
# 6 0.000000 0.000000 0.000000 0.000000 0.000000 0.047682
#
#
# Mechanical properties :
#
#
# Convention : Reuss Voigt Hill
#
# Bulk Modulus (GPa) = 28.09668 34.28387 31.19028
# Shear Modulus (GPa) = 23.39016 25.71004 24.55010
#
# Velocity S-wave (km/s) = 3.48391 3.65260 3.56925
# Velocity P-wave (km/s) = 5.54648 5.96483 5.75946
#
# Compressibility (1/GPa) = 0.03559139
#
# Stress axis : x y z
#
# Youngs Moduli (GPa) = 38.16102 66.31274 68.35649
#
# Poissons Ratio (x) = 0.25181 0.03872
# Poissons Ratio (y) = 0.14491 0.39630
# Poissons Ratio (z) = 0.02162 0.38445
#
# Static dielectric constant tensor:
#      x y z
#    x 3.481620 0.000000 0.000000 
#    y 0.000000 3.605530 0.000000 
#    z 0.000000 0.000000 3.421470 
# 
# 
# High freq. dielectric constant tensor:
#      x y z
#    x 1.743280 0.000000 0.000000 
#    y 0.000000 1.758340 0.000000 
#    z 0.000000 0.000000 1.741220 
# 
# From -- ./inp_files/29456.got.cif
#   From: 2010.03.12/outbox.cif.g09.slc.cpg/sg51_15_cif.got.tgz:29456.got - 2010.04.16 13:43:02.
