data_PCOD8211127
_publ_section_title
;
Structure prediction by ZEFSAII (Michael W. Deem and Ramdas Pophale) SiO2 
 PCOD8211127
Probable space group: P M M A
;
_chemical_formula_sum "Si O2"
_cell_formula_units_Z 56
_cell_length_a 16.263016
_cell_length_b 9.135816
_cell_length_c 19.523790
_cell_angle_alpha 90.000000
_cell_angle_beta 90.000000
_cell_angle_gamma 90.000000
_cell_volume 2900.765096
_symmetry_space_group_name_H-M "P M M A"
_symmetry_group_IT_number 51
_symmetry_cell_setting 'orthorhombic'
loop_
_space_group_symop_operation_xyz
x,y,z
1/2-x,-y,z
1/2+x,-y,-z
-x,y,-z
-x,-y,-z
1/2+x,y,-z
1/2-x,y,z
x,-y,z
loop_
_atom_site_type_symbol
_atom_site_label
_atom_site_fract_x
_atom_site_fract_y
_atom_site_fract_z
Si Si1 0.750000 0.828098 0.074895
Si Si2 0.659145 0.334354 0.660229
Si Si3 0.571214 0.172857 0.050816
Si Si4 0.994101 0.672866 0.575556
Si Si5 0.993620 0.334193 0.831678
Si Si6 0.250000 0.825737 0.769078
Si Si7 0.598276 0.667883 0.298310
Si Si8 0.841570 0.831700 0.799272
O O1 0.833379 0.784160 0.032447
O O2 0.750000 0.763403 0.152738
O O3 0.750000 0.000000 0.084922
O O4 0.750000 0.330741 0.627078
O O5 0.638748 0.500000 0.686682
O O6 0.595575 0.282733 0.602827
O O7 0.654979 0.221152 0.721759
O O8 0.559435 0.244176 0.124761
O O9 0.561075 0.000000 0.056888
O O10 0.500000 0.235069 0.000000
O O11 0.002660 0.500000 0.569980
O O12 0.065698 0.726321 0.627877
O O13 0.000000 0.744994 0.500000
O O14 0.990935 0.500000 0.857994
O O15 0.904218 0.262874 0.844478
O O16 0.019727 0.323166 0.752411
O O17 0.329261 0.769616 0.728197
O O18 0.250000 0.000000 0.767502
O O19 0.629506 0.500000 0.302414
O O20 0.750000 0.811035 0.829723
O O21 0.868959 0.000000 0.802492
#
# Coordination Sequence:
#
# PCOD8211127 Si02
#       8
#     4   8   8   8   8   4   8   8
#     4   9  18  35  59  87 113 148 195 236 282 338
#     4   9  16  29  50  75 102 134 175 221 270 321
#     4  10  21  39  61  84 116 156 196 239 285 339
#     4   9  17  32  52  77 109 144 184 231 282 337
#     4  11  21  35  58  84 114 145 183 236 289 339
#     4  11  21  35  59  85 113 146 187 236 286 344
#     4  10  20  35  55  83 112 142 185 237 289 340
#     4  10  20  33  52  79 108 141 182 223 269 329
#
# _framework density 19.305250999999998
#
# number of rings (size 3 to 8) (size 9 to 14) (size 15 to 20)
#    0.000    2.143    2.857    1.071    0.000    1.714 
#    2.571    0.357    0.000    1.714    0.000    0.000 
#    0.000    0.000    0.000    0.000    0.000    0.000 
#
# Total GULP energy -694063.164129 kJ/mol
# GULP energy per Si atom -12393.985074 kJ/mol
# Density = 1.926131 g / cm^3
# Si number density = 19.305251 Si / 1000 Ang^3
#
#
#
# Elastic Constant Matrix: (Units=GPa)
#
#
# Indices 1 2 3 4 5 6 
#
# 1 147.7120 35.7877 40.1430 0.0000 0.0000 0.0000
# 2 35.7877 44.3577 11.9734 0.0000 0.0000 0.0000
# 3 40.1430 11.9734 67.3389 0.0000 0.0000 0.0000
# 4 0.0000 0.0000 0.0000 15.3453 0.0000 0.0000
# 5 0.0000 0.0000 0.0000 0.0000 30.3564 0.0000
# 6 0.0000 0.0000 0.0000 0.0000 0.0000 23.3757
#
#
#
# Elastic Compliance Matrix: (Units=1/GPa)
#
#
# Indices 1 2 3 4 5 6 
#
# 1 0.009584 -0.006502 -0.004557 0.000000 0.000000 0.000000
# 2 -0.006502 0.028092 -0.001119 0.000000 0.000000 0.000000
# 3 -0.004557 -0.001119 0.017766 0.000000 0.000000 0.000000
# 4 0.000000 0.000000 0.000000 0.065167 0.000000 0.000000
# 5 0.000000 0.000000 0.000000 0.000000 0.032942 0.000000
# 6 0.000000 0.000000 0.000000 0.000000 0.000000 0.042779
#
#
# Mechanical properties :
#
#
# Convention : Reuss Voigt Hill
#
# Bulk Modulus (GPa) = 32.16941 48.35742 40.26342
# Shear Modulus (GPa) = 21.64060 25.24911 23.44485
#
# Velocity S-wave (km/s) = 3.35172 3.62040 3.48865
# Velocity P-wave (km/s) = 5.62836 6.52530 6.09336
#
# Compressibility (1/GPa) = 0.03108543
#
# Stress axis : x y z
#
# Youngs Moduli (GPa) = 104.34389 35.59755 56.28786
#
# Poissons Ratio (x) = 0.23146 0.25651
# Poissons Ratio (y) = 0.67845 0.06298
# Poissons Ratio (z) = 0.47550 0.03983
#
# Static dielectric constant tensor:
#      x y z
#    x 3.951660 0.000000 0.000000 
#    y 0.000000 3.297180 0.000000 
#    z 0.000000 0.000000 3.462490 
# 
# 
# High freq. dielectric constant tensor:
#      x y z
#    x 1.770270 0.000000 0.000000 
#    y 0.000000 1.724420 0.000000 
#    z 0.000000 0.000000 1.726120 
# 
# From -- ./inp_files/33539.got.cif
#   From: 2010.03.12/outbox.cif.g09.slc.cpg/sg51_17_cif.got.tgz:33539.got - 2010.04.16 13:43:02.
