data_PCOD8211841
_publ_section_title
;
Structure prediction by ZEFSAII (Michael W. Deem and Ramdas Pophale) SiO2 
 PCOD8211841
Probable space group: P M M A
;
_chemical_formula_sum "Si O2"
_cell_formula_units_Z 48
_cell_length_a 16.150960
_cell_length_b 8.770311
_cell_length_c 17.872774
_cell_angle_alpha 90.000000
_cell_angle_beta 90.000000
_cell_angle_gamma 90.000000
_cell_volume 2531.659530
_symmetry_space_group_name_H-M "P M M A"
_symmetry_group_IT_number 51
_symmetry_cell_setting 'orthorhombic'
loop_
_space_group_symop_operation_xyz
x,y,z
1/2-x,-y,z
1/2+x,-y,-z
-x,y,-z
-x,-y,-z
1/2+x,y,-z
1/2-x,y,z
x,-y,z
loop_
_atom_site_type_symbol
_atom_site_label
_atom_site_fract_x
_atom_site_fract_y
_atom_site_fract_z
Si Si1 0.156081 0.175542 0.334153
Si Si2 0.409766 0.679850 0.028732
Si Si3 0.750000 0.675047 0.209313
Si Si4 0.015743 0.321019 0.418490
Si Si5 0.750000 0.179308 0.050865
Si Si6 0.924589 0.677640 0.273108
Si Si7 0.563449 0.176456 0.816665
O O1 0.250000 0.226571 0.340626
O O2 0.127257 0.207009 0.249994
O O3 0.107745 0.278184 0.393439
O O4 0.142084 0.000000 0.355271
O O5 0.401587 0.500000 0.019132
O O6 0.401741 0.726310 0.114840
O O7 0.500000 0.736783 0.000000
O O8 0.334218 0.754065 0.983752
O O9 0.750000 0.500000 0.180847
O O10 0.750000 0.785283 0.138661
O O11 0.827992 0.708937 0.262269
O O12 0.006498 0.500000 0.425443
O O13 0.951003 0.260503 0.355435
O O14 0.000000 0.245772 0.500000
O O15 0.750000 0.000000 0.037227
O O16 0.947438 0.500000 0.265097
O O17 0.972643 0.767318 0.207888
O O18 0.558486 0.000000 0.839673
#
# Coordination Sequence:
#
# PCOD8211841 Si02
#       7
#     8   8   4   8   4   8   8
#     4   9  19  35  54  78 108 143 180 218 267 325
#     4  11  24  41  59  82 114 151 190 233 284 342
#     4  10  20  36  56  76 103 144 189 228 271 330
#     4   9  18  34  54  81 113 142 178 224 270 319
#     4  12  26  40  58  84 115 148 187 240 291 336
#     4   9  18  34  55  78 107 146 186 225 275 330
#     4  10  20  34  56  81 108 142 183 229 277 327
#
# _framework density 18.959893999999998
#
# number of rings (size 3 to 8) (size 9 to 14) (size 15 to 20)
#    0.000    2.167    0.000    2.750    1.167    7.333 
#    1.500    0.000    0.000    0.000    0.000    0.000 
#    0.000    0.000    0.000    0.000    0.000    0.000 
#
# Total GULP energy -595249.508486 kJ/mol
# GULP energy per Si atom -12401.031427 kJ/mol
# Density = 1.891674 g / cm^3
# Si number density = 18.959894 Si / 1000 Ang^3
#
#
#
# Elastic Constant Matrix: (Units=GPa)
#
#
# Indices 1 2 3 4 5 6 
#
# 1 146.2927 33.1595 62.7184 0.0000 0.0000 0.0000
# 2 33.1595 47.5783 30.1039 0.0000 0.0000 0.0000
# 3 62.7184 30.1039 117.0422 0.0000 0.0000 0.0000
# 4 0.0000 0.0000 0.0000 20.9394 0.0000 0.0000
# 5 0.0000 0.0000 0.0000 0.0000 16.8106 0.0000
# 6 0.0000 0.0000 0.0000 0.0000 0.0000 21.6638
#
#
#
# Elastic Compliance Matrix: (Units=1/GPa)
#
#
# Indices 1 2 3 4 5 6 
#
# 1 0.009487 -0.004055 -0.004041 0.000000 0.000000 0.000000
# 2 -0.004055 0.026837 -0.004729 0.000000 0.000000 0.000000
# 3 -0.004041 -0.004729 0.011926 0.000000 0.000000 0.000000
# 4 0.000000 0.000000 0.000000 0.047757 0.000000 0.000000
# 5 0.000000 0.000000 0.000000 0.000000 0.059486 0.000000
# 6 0.000000 0.000000 0.000000 0.000000 0.000000 0.046160
#
#
# Mechanical properties :
#
#
# Convention : Reuss Voigt Hill
#
# Bulk Modulus (GPa) = 44.25080 62.54185 53.39633
# Shear Modulus (GPa) = 21.29140 24.21152 22.75146
#
# Velocity S-wave (km/s) = 3.35471 3.57737 3.46783
# Velocity P-wave (km/s) = 6.19639 7.07965 6.65270
#
# Compressibility (1/GPa) = 0.02259846
#
# Stress axis : x y z
#
# Youngs Moduli (GPa) = 105.40558 37.26233 83.85294
#
# Poissons Ratio (x) = 0.15111 0.33883
# Poissons Ratio (y) = 0.42746 0.39658
# Poissons Ratio (z) = 0.42592 0.17623
#
# Static dielectric constant tensor:
#      x y z
#    x 3.565810 0.000000 0.000000 
#    y 0.000000 3.435120 0.000000 
#    z 0.000000 0.000000 3.649010 
# 
# 
# High freq. dielectric constant tensor:
#      x y z
#    x 1.741840 0.000000 0.000000 
#    y 0.000000 1.731090 0.000000 
#    z 0.000000 0.000000 1.738670 
# 
# From -- ./inp_files/29586.got.cif
#   From: 2010.03.12/outbox.cif.g09.slc.cpg/sg51_15_cif.got.tgz:29586.got - 2010.04.16 13:43:02.
