data_PCOD8211980
_publ_section_title
;
Structure prediction by ZEFSAII (Michael W. Deem and Ramdas Pophale) SiO2 
 PCOD8211980
Probable space group: P M M A
;
_chemical_formula_sum "Si O2"
_cell_formula_units_Z 48
_cell_length_a 8.956223
_cell_length_b 18.584203
_cell_length_c 14.856989
_cell_angle_alpha 90.000000
_cell_angle_beta 90.000000
_cell_angle_gamma 90.000000
_cell_volume 2472.860634
_symmetry_space_group_name_H-M "P M M A"
_symmetry_group_IT_number 51
_symmetry_cell_setting 'orthorhombic'
loop_
_space_group_symop_operation_xyz
x,y,z
1/2-x,-y,z
1/2+x,-y,-z
-x,y,-z
-x,-y,-z
1/2+x,y,-z
1/2-x,y,z
x,-y,z
loop_
_atom_site_type_symbol
_atom_site_label
_atom_site_fract_x
_atom_site_fract_y
_atom_site_fract_z
Si Si1 0.575732 0.081111 0.092084
Si Si2 0.924362 0.704322 0.916528
Si Si3 0.424738 0.275299 0.588733
Si Si4 0.425781 0.581050 0.346548
Si Si5 0.917935 0.580097 0.157416
Si Si6 0.922787 0.205333 0.224992
O O1 0.750000 0.083767 0.072781
O O2 0.535800 0.127421 0.182045
O O3 0.520676 0.000000 0.112691
O O4 0.500000 0.110281 0.000000
O O5 0.750000 0.700434 0.930144
O O6 0.000852 0.626040 0.919230
O O7 0.967704 0.738594 0.821943
O O8 0.000000 0.747805 0.000000
O O9 0.500000 0.240872 0.500000
O O10 0.250000 0.284834 0.573567
O O11 0.491371 0.355632 0.599888
O O12 0.456022 0.217407 0.669132
O O13 0.250000 0.596101 0.349090
O O14 0.461377 0.500000 0.384924
O O15 0.481633 0.585129 0.245378
O O16 0.750000 0.608856 0.178316
O O17 0.909982 0.500000 0.119543
O O18 0.750000 0.223096 0.204383
#
# Coordination Sequence:
#
# PCOD8211980 Si02
#       6
#     8   8   8   8   8   8
#     4   9  18  34  58  89 122 153 186 223 268 326
#     4  12  24  36  54  78 108 145 186 230 277 333
#     4  11  23  38  58  81 110 146 190 240 289 344
#     4  10  20  35  56  81 108 140 183 235 292 349
#     4  10  20  35  54  75 103 140 182 229 280 333
#     4  10  21  38  58  82 113 148 185 228 280 334
#
# _framework density 19.410717000000002
#
# number of rings (size 3 to 8) (size 9 to 14) (size 15 to 20)
#    0.000    1.667    1.667    3.500    0.000    5.333 
#    0.000    0.000    0.000    0.500    0.000    0.000 
#    0.000    0.000    0.000    0.000    0.000    0.167 
#
# Total GULP energy -594837.846302 kJ/mol
# GULP energy per Si atom -12392.455131 kJ/mol
# Density = 1.936654 g / cm^3
# Si number density = 19.410717 Si / 1000 Ang^3
#
#
#
# Elastic Constant Matrix: (Units=GPa)
#
#
# Indices 1 2 3 4 5 6 
#
# 1 112.4363 43.8113 55.5870 0.0000 0.0000 0.0000
# 2 43.8113 99.6020 56.7213 0.0000 0.0000 0.0000
# 3 55.5870 56.7213 126.9183 0.0000 0.0000 0.0000
# 4 0.0000 0.0000 0.0000 20.4439 0.0000 0.0000
# 5 0.0000 0.0000 0.0000 0.0000 33.2410 0.0000
# 6 0.0000 0.0000 0.0000 0.0000 0.0000 11.7857
#
#
#
# Elastic Compliance Matrix: (Units=1/GPa)
#
#
# Indices 1 2 3 4 5 6 
#
# 1 0.012013 -0.003069 -0.003890 0.000000 0.000000 0.000000
# 2 -0.003069 0.014252 -0.005025 0.000000 0.000000 0.000000
# 3 -0.003890 -0.005025 0.011829 0.000000 0.000000 0.000000
# 4 0.000000 0.000000 0.000000 0.048914 0.000000 0.000000
# 5 0.000000 0.000000 0.000000 0.000000 0.030083 0.000000
# 6 0.000000 0.000000 0.000000 0.000000 0.000000 0.084849
#
#
# Mechanical properties :
#
#
# Convention : Reuss Voigt Hill
#
# Bulk Modulus (GPa) = 70.79479 72.35510 71.57494
# Shear Modulus (GPa) = 21.68115 25.28325 23.48220
#
# Velocity S-wave (km/s) = 3.34573 3.61299 3.48193
# Velocity P-wave (km/s) = 7.17471 7.40011 7.28828
#
# Compressibility (1/GPa) = 0.01412533
#
# Stress axis : x y z
#
# Youngs Moduli (GPa) = 83.24472 70.16794 84.54154
#
# Poissons Ratio (x) = 0.21533 0.32885
# Poissons Ratio (y) = 0.25546 0.42483
# Poissons Ratio (z) = 0.32381 0.35260
#
# Static dielectric constant tensor:
#      x y z
#    x 3.572340 0.000000 0.000000 
#    y 0.000000 3.774500 0.000000 
#    z 0.000000 0.000000 3.678900 
# 
# 
# High freq. dielectric constant tensor:
#      x y z
#    x 1.762820 0.000000 0.000000 
#    y 0.000000 1.739010 0.000000 
#    z 0.000000 0.000000 1.747510 
# 
# From -- ./inp_files/21118.got.cif
#   From: 2010.03.12/outbox.cif.g09.slc.cpg/sg51_11_cif.got.tgz:21118.got - 2010.04.16 13:43:02.
