data_PCOD8211249
_publ_section_title
;
Structure prediction by ZEFSAII (Michael W. Deem and Ramdas Pophale) SiO2 
 PCOD8211249
Probable space group: P M M A
;
_chemical_formula_sum "Si O2"
_cell_formula_units_Z 52
_cell_length_a 9.915974
_cell_length_b 8.162423
_cell_length_c 35.254572
_cell_angle_alpha 90.000000
_cell_angle_beta 90.000000
_cell_angle_gamma 90.000000
_cell_volume 2853.447742
_symmetry_space_group_name_H-M "P M M A"
_symmetry_group_IT_number 51
_symmetry_cell_setting 'orthorhombic'
loop_
_space_group_symop_operation_xyz
x,y,z
1/2-x,-y,z
1/2+x,-y,-z
-x,y,-z
-x,-y,-z
1/2+x,y,-z
1/2-x,y,z
x,-y,z
loop_
_atom_site_type_symbol
_atom_site_label
_atom_site_fract_x
_atom_site_fract_y
_atom_site_fract_z
Si Si1 0.089972 0.315786 0.258109
Si Si2 0.410349 0.816310 0.336737
Si Si3 0.400722 0.194904 0.968477
Si Si4 0.599226 0.804984 0.115887
Si Si5 0.911520 0.000000 0.537415
Si Si6 0.090200 0.681423 0.414809
Si Si7 0.600021 0.191169 0.821305
O O1 0.250000 0.302403 0.260648
O O2 0.039178 0.500000 0.254536
O O3 0.026704 0.241367 0.296631
O O4 0.039044 0.221138 0.220663
O O5 0.250000 0.805480 0.334529
O O6 0.463385 0.706425 0.371743
O O7 0.458295 0.000000 0.344795
O O8 0.250000 0.259495 0.976744
O O9 0.446749 0.250425 0.926309
O O10 0.402699 0.000000 0.970851
O O11 0.500000 0.271992 0.000000
O O12 0.750000 0.739180 0.124235
O O13 0.497002 0.728765 0.146897
O O14 0.599709 0.000000 0.118481
O O15 0.957241 0.834035 0.559353
O O16 0.000000 0.000000 0.500000
O O17 0.750000 0.000000 0.529489
O O18 0.250000 0.683469 0.414429
O O19 0.039335 0.500000 0.428943
O O20 0.750000 0.270167 0.824812
O O21 0.610216 0.000000 0.828625
#
# Coordination Sequence:
#
# PCOD8211249 Si02
#       7
#     8   8   8   8   4   8   8
#     4   9  16  24  35  55  84 114 140 170 214 263
#     4   9  14  22  38  61  90 121 150 183 227 275
#     4   8  13  20  30  46  69  96 126 160 200 246
#     4   8  14  24  36  50  71 102 137 169 202 246
#     4  10  20  34  50  72 100 130 166 206 246 292
#     4   9  16  27  44  67  96 128 162 201 244 289
#     4   9  16  25  37  55  78 104 135 169 202 240
#
# _framework density 18.223566999999999
#
# number of rings (size 3 to 8) (size 9 to 14) (size 15 to 20)
#    0.000    3.231    0.769    1.846    0.000    4.615 
#    0.000    3.077    0.000    0.462    0.000    1.077 
#    0.000    3.077    0.000    1.385    0.000    2.769 
#
# Total GULP energy -644225.857219 kJ/mol
# GULP energy per Si atom -12388.958793 kJ/mol
# Density = 1.818209 g / cm^3
# Si number density = 18.223567 Si / 1000 Ang^3
#
#
#
# Elastic Constant Matrix: (Units=GPa)
#
#
# Indices 1 2 3 4 5 6 
#
# 1 45.3512 17.0401 57.9026 0.0000 0.0000 0.0000
# 2 17.0401 72.5690 44.8051 0.0000 0.0000 0.0000
# 3 57.9026 44.8051 167.0012 0.0000 0.0000 0.0000
# 4 0.0000 0.0000 0.0000 5.6773 0.0000 0.0000
# 5 0.0000 0.0000 0.0000 0.0000 20.8852 0.0000
# 6 0.0000 0.0000 0.0000 0.0000 0.0000 3.3784
#
#
#
# Elastic Compliance Matrix: (Units=1/GPa)
#
#
# Indices 1 2 3 4 5 6 
#
# 1 0.039623 -0.000985 -0.013474 0.000000 0.000000 0.000000
# 2 -0.000985 0.016540 -0.004096 0.000000 0.000000 0.000000
# 3 -0.013474 -0.004096 0.011759 0.000000 0.000000 0.000000
# 4 0.000000 0.000000 0.000000 0.176141 0.000000 0.000000
# 5 0.000000 0.000000 0.000000 0.000000 0.047881 0.000000
# 6 0.000000 0.000000 0.000000 0.000000 0.000000 0.296001
#
#
# Mechanical properties :
#
#
# Convention : Reuss Voigt Hill
#
# Bulk Modulus (GPa) = 32.45491 58.26855 45.36173
# Shear Modulus (GPa) = 7.86998 16.99974 12.43486
#
# Velocity S-wave (km/s) = 2.08037 3.05756 2.61502
# Velocity P-wave (km/s) = 4.85989 6.67148 5.83640
#
# Compressibility (1/GPa) = 0.03081198
#
# Stress axis : x y z
#
# Youngs Moduli (GPa) = 25.23777 60.45856 85.04439
#
# Poissons Ratio (x) = 0.05956 1.14587
# Poissons Ratio (y) = 0.02486 0.34835
# Poissons Ratio (z) = 0.34005 0.24764
#
# Static dielectric constant tensor:
#      x y z
#    x 3.046410 0.000000 0.000000 
#    y 0.000000 3.251550 0.000000 
#    z 0.000000 0.000000 3.659790 
# 
# 
# High freq. dielectric constant tensor:
#      x y z
#    x 1.638610 0.000000 0.000000 
#    y 0.000000 1.686760 0.000000 
#    z 0.000000 0.000000 1.719180 
# 
# From -- ./inp_files/37718.got.cif
#   From: 2010.03.12/outbox.cif.g09.slc.cpg/sg51_19_cif.got.tgz:37718.got - 2010.04.16 13:43:02.
