data_PCOD8211498
_publ_section_title
;
Structure prediction by ZEFSAII (Michael W. Deem and Ramdas Pophale) SiO2 
 PCOD8211498
Probable space group: P M M A
;
_chemical_formula_sum "Si O2"
_cell_formula_units_Z 28
_cell_length_a 8.691423
_cell_length_b 17.771951
_cell_length_c 9.763502
_cell_angle_alpha 90.000000
_cell_angle_beta 90.000000
_cell_angle_gamma 90.000000
_cell_volume 1508.105118
_symmetry_space_group_name_H-M "P M M A"
_symmetry_group_IT_number 51
_symmetry_cell_setting 'orthorhombic'
loop_
_space_group_symop_operation_xyz
x,y,z
1/2-x,-y,z
1/2+x,-y,-z
-x,y,-z
-x,-y,-z
1/2+x,y,-z
1/2-x,y,z
x,-y,z
loop_
_atom_site_type_symbol
_atom_site_label
_atom_site_fract_x
_atom_site_fract_y
_atom_site_fract_z
Si Si1 0.067120 0.209179 0.646113
Si Si2 0.432751 0.367970 0.351930
Si Si3 0.068826 0.500000 0.151368
Si Si4 0.568464 0.915747 0.143300
O O1 0.250000 0.215936 0.639258
O O2 0.009278 0.142852 0.744451
O O3 0.000000 0.187616 0.500000
O O4 0.997932 0.287973 0.697773
O O5 0.500000 0.391006 0.500000
O O6 0.250000 0.364322 0.366161
O O7 0.485996 0.427300 0.237068
O O8 0.250000 0.500000 0.135060
O O9 0.000000 0.500000 0.000000
O O10 0.750000 0.913736 0.131694
O O11 0.511124 0.000000 0.181599
O O12 0.500000 0.889202 0.000000
#
# Coordination Sequence:
#
# PCOD8211498 Si02
#       4
#     8   8   4   8
#     4  10  20  34  53  78 105 134 170 211 255 302
#     4  10  20  36  56  78 103 134 172 210 253 304
#     4  10  23  38  54  78 106 136 171 210 252 302
#     4   9  19  35  53  74 102 136 173 211 253 303
#
# _framework density 18.566344000000001
#
# number of rings (size 3 to 8) (size 9 to 14) (size 15 to 20)
#    0.000    2.286    0.000    3.857    0.000    6.286 
#    0.000    5.714    0.000    0.000    0.000    0.000 
#    0.000    0.000    0.000    0.000    0.000    0.000 
#
# Total GULP energy -347202.869070 kJ/mol
# GULP energy per Si atom -12400.102467 kJ/mol
# Density = 1.852409 g / cm^3
# Si number density = 18.566344 Si / 1000 Ang^3
#
#
#
# Elastic Constant Matrix: (Units=GPa)
#
#
# Indices 1 2 3 4 5 6 
#
# 1 58.8175 45.2651 42.7576 0.0000 0.0000 0.0000
# 2 45.2651 165.4682 125.3442 0.0000 0.0000 0.0000
# 3 42.7576 125.3442 154.1161 0.0000 0.0000 0.0000
# 4 0.0000 0.0000 0.0000 28.6005 0.0000 0.0000
# 5 0.0000 0.0000 0.0000 0.0000 33.8890 0.0000
# 6 0.0000 0.0000 0.0000 0.0000 0.0000 27.0701
#
#
#
# Elastic Compliance Matrix: (Units=1/GPa)
#
#
# Indices 1 2 3 4 5 6 
#
# 1 0.022113 -0.003652 -0.003165 0.000000 0.000000 0.000000
# 2 -0.003652 0.016345 -0.012280 0.000000 0.000000 0.000000
# 3 -0.003165 -0.012280 0.017355 0.000000 0.000000 0.000000
# 4 0.000000 0.000000 0.000000 0.034964 0.000000 0.000000
# 5 0.000000 0.000000 0.000000 0.000000 0.029508 0.000000
# 6 0.000000 0.000000 0.000000 0.000000 0.000000 0.036941
#
#
# Mechanical properties :
#
#
# Convention : Reuss Voigt Hill
#
# Bulk Modulus (GPa) = 56.75969 89.45952 73.10960
# Shear Modulus (GPa) = 24.83944 28.91424 26.87684
#
# Velocity S-wave (km/s) = 3.66167 3.95060 3.80888
# Velocity P-wave (km/s) = 6.96525 8.31252 7.66853
#
# Compressibility (1/GPa) = 0.01761814
#
# Stress axis : x y z
#
# Youngs Moduli (GPa) = 45.22277 61.18099 57.62184
#
# Poissons Ratio (x) = 0.22340 0.18238
# Poissons Ratio (y) = 0.16513 0.70762
# Poissons Ratio (z) = 0.14313 0.75133
#
# Static dielectric constant tensor:
#      x y z
#    x 3.383360 0.000000 0.000000 
#    y 0.000000 3.763070 0.000000 
#    z 0.000000 0.000000 3.435160 
# 
# 
# High freq. dielectric constant tensor:
#      x y z
#    x 1.724160 0.000000 0.000000 
#    y 0.000000 1.732900 0.000000 
#    z 0.000000 0.000000 1.718300 
# 
# From -- ./inp_files/4678.got.cif
#   From: 2010.03.12/outbox.cif.g09.slc.cpg/sg51_3_cif.got.tgz:4678.got - 2010.04.16 13:43:02.
