data_PCOD8211385
_publ_section_title
;
Structure prediction by ZEFSAII (Michael W. Deem and Ramdas Pophale) SiO2 
 PCOD8211385
Probable space group: P M M A
;
_chemical_formula_sum "Si O2"
_cell_formula_units_Z 44
_cell_length_a 10.026490
_cell_length_b 12.795973
_cell_length_c 20.622699
_cell_angle_alpha 90.000000
_cell_angle_beta 90.000000
_cell_angle_gamma 90.000000
_cell_volume 2645.865376
_symmetry_space_group_name_H-M "P M M A"
_symmetry_group_IT_number 51
_symmetry_cell_setting 'orthorhombic'
loop_
_space_group_symop_operation_xyz
x,y,z
1/2-x,-y,z
1/2+x,-y,-z
-x,y,-z
-x,-y,-z
1/2+x,y,-z
1/2-x,y,z
x,-y,z
loop_
_atom_site_type_symbol
_atom_site_label
_atom_site_fract_x
_atom_site_fract_y
_atom_site_fract_z
Si Si1 0.401932 0.116483 0.218097
Si Si2 0.596930 0.834319 0.332385
Si Si3 0.994762 0.311632 0.848502
Si Si4 0.750000 0.625747 0.074692
Si Si5 0.597011 0.615093 0.284767
Si Si6 0.250000 0.617576 0.068891
Si Si7 0.902078 0.000000 0.440063
O O1 0.250000 0.150183 0.236227
O O2 0.494414 0.118905 0.281250
O O3 0.461932 0.189901 0.162320
O O4 0.402978 0.000000 0.189470
O O5 0.750000 0.856244 0.310085
O O6 0.572778 0.707996 0.337501
O O7 0.569965 0.893743 0.399673
O O8 0.878062 0.362773 0.888544
O O9 0.125217 0.323562 0.890363
O O10 0.006275 0.366978 0.778435
O O11 0.750000 0.500000 0.081604
O O12 0.750000 0.672876 0.001488
O O13 0.750000 0.617962 0.261290
O O14 0.562957 0.500000 0.314576
O O15 0.250000 0.500000 0.046281
O O16 0.000000 0.000000 0.500000
O O17 0.750000 0.000000 0.465107
#
# Coordination Sequence:
#
# PCOD8211385 Si02
#       7
#     8   8   8   4   8   4   4
#     4  10  20  34  53  76 104 134 167 213 271 317
#     4   9  18  32  52  79 107 134 175 217 250 303
#     4  11  20  34  50  76 101 132 173 216 264 319
#     4  11  22  36  53  71  99 137 174 213 260 324
#     4   9  16  28  50  76 103 132 162 208 262 309
#     4  11  22  34  51  73 101 133 170 217 266 318
#     4  10  20  34  52  80 110 144 179 214 251 293
#
# _framework density 16.629719999999999
#
# number of rings (size 3 to 8) (size 9 to 14) (size 15 to 20)
#    0.000    2.000    2.727    2.182    1.273    2.182 
#    0.000    0.000    0.000    3.818    0.000    0.000 
#    0.000    0.000    0.000    0.000    0.000    0.000 
#
# Total GULP energy -545293.766051 kJ/mol
# GULP energy per Si atom -12393.040138 kJ/mol
# Density = 1.659187 g / cm^3
# Si number density = 16.629720 Si / 1000 Ang^3
#
#
#
# Elastic Constant Matrix: (Units=GPa)
#
#
# Indices 1 2 3 4 5 6 
#
# 1 118.6947 46.2570 54.2258 0.0000 0.0000 0.0000
# 2 46.2570 132.4317 53.3899 0.0000 0.0000 0.0000
# 3 54.2258 53.3899 89.9861 0.0000 0.0000 0.0000
# 4 0.0000 0.0000 0.0000 21.3416 0.0000 0.0000
# 5 0.0000 0.0000 0.0000 0.0000 101.9131 0.0000
# 6 0.0000 0.0000 0.0000 0.0000 0.0000 22.3110
#
#
#
# Elastic Compliance Matrix: (Units=1/GPa)
#
#
# Indices 1 2 3 4 5 6 
#
# 1 0.011898 -0.001663 -0.006183 0.000000 0.000000 0.000000
# 2 -0.001663 0.010158 -0.005024 0.000000 0.000000 0.000000
# 3 -0.006183 -0.005024 0.017820 0.000000 0.000000 0.000000
# 4 0.000000 0.000000 0.000000 0.046857 0.000000 0.000000
# 5 0.000000 0.000000 0.000000 0.000000 0.009812 0.000000
# 6 0.000000 0.000000 0.000000 0.000000 0.000000 0.044821
#
#
# Mechanical properties :
#
#
# Convention : Reuss Voigt Hill
#
# Bulk Modulus (GPa) = 70.75034 72.09532 71.42283
# Shear Modulus (GPa) = 29.10069 41.59581 35.34825
#
# Velocity S-wave (km/s) = 4.18774 5.00672 4.61543
# Velocity P-wave (km/s) = 8.12526 8.76758 8.45252
#
# Compressibility (1/GPa) = 0.01413421
#
# Stress axis : x y z
#
# Youngs Moduli (GPa) = 84.04937 98.44869 56.11776
#
# Poissons Ratio (x) = 0.16373 0.34697
# Poissons Ratio (y) = 0.13979 0.28196
# Poissons Ratio (z) = 0.51966 0.49465
#
# Static dielectric constant tensor:
#      x y z
#    x 3.209870 0.000000 0.000000 
#    y 0.000000 3.448070 0.000000 
#    z 0.000000 0.000000 2.835860 
# 
# 
# High freq. dielectric constant tensor:
#      x y z
#    x 1.651920 0.000000 0.000000 
#    y 0.000000 1.648330 0.000000 
#    z 0.000000 0.000000 1.603700 
# 
# From -- ./inp_files/27440.got.cif
#   From: 2010.03.12/outbox.cif.g09.slc.cpg/sg51_14_cif.got.tgz:27440.got - 2010.04.16 13:43:02.
