data_PCOD8211942
_publ_section_title
;
Structure prediction by ZEFSAII (Michael W. Deem and Ramdas Pophale) SiO2 
 PCOD8211942
Probable space group: P M M A
;
_chemical_formula_sum "Si O2"
_cell_formula_units_Z 36
_cell_length_a 8.945241
_cell_length_b 15.064312
_cell_length_c 14.590597
_cell_angle_alpha 90.000000
_cell_angle_beta 90.000000
_cell_angle_gamma 90.000000
_cell_volume 1966.139869
_symmetry_space_group_name_H-M "P M M A"
_symmetry_group_IT_number 51
_symmetry_cell_setting 'orthorhombic'
loop_
_space_group_symop_operation_xyz
x,y,z
1/2-x,-y,z
1/2+x,-y,-z
-x,y,-z
-x,-y,-z
1/2+x,y,-z
1/2-x,y,z
x,-y,z
loop_
_atom_site_type_symbol
_atom_site_label
_atom_site_fract_x
_atom_site_fract_y
_atom_site_fract_z
Si Si1 0.575178 0.599727 0.907085
Si Si2 0.074226 0.192879 0.599504
Si Si3 0.580469 0.000000 0.406147
Si Si4 0.073321 0.755694 0.225306
Si Si5 0.424633 0.897068 0.903597
O O1 0.750000 0.602149 0.924570
O O2 0.520768 0.500000 0.882422
O O3 0.528896 0.664797 0.825360
O O4 0.500000 0.634344 0.000000
O O5 0.250000 0.214342 0.591927
O O6 0.000000 0.205251 0.500000
O O7 0.994234 0.256515 0.672673
O O8 0.044405 0.093521 0.643135
O O9 0.500000 0.000000 0.500000
O O10 0.750000 0.000000 0.435437
O O11 0.250000 0.770277 0.230507
O O12 0.000193 0.839227 0.174948
O O13 0.250000 0.874141 0.910048
O O14 0.450025 0.000000 0.878120
O O15 0.500000 0.873243 0.000000
#
# Coordination Sequence:
#
# PCOD8211942 Si02
#       5
#     8   8   4   8   8
#     4   9  19  36  57  81 109 138 171 215 266 319
#     4  10  20  35  53  75 105 140 180 223 269 314
#     4   8  16  30  48  68  93 128 169 212 256 300
#     4  11  22  34  53  80 107 139 178 218 265 318
#     4  10  21  36  52  72 104 143 180 217 259 310
#
# _framework density 18.309988000000001
#
# number of rings (size 3 to 8) (size 9 to 14) (size 15 to 20)
#    0.000    2.222    0.000    2.667    1.556    5.778 
#    0.000    0.000    0.000    0.667    0.000    0.000 
#    0.000    0.000    0.000    0.000    0.000    0.000 
#
# Total GULP energy -446213.955222 kJ/mol
# GULP energy per Si atom -12394.832090 kJ/mol
# Density = 1.826831 g / cm^3
# Si number density = 18.309988 Si / 1000 Ang^3
#
#
#
# Elastic Constant Matrix: (Units=GPa)
#
#
# Indices 1 2 3 4 5 6 
#
# 1 94.2750 47.7607 65.9272 0.0000 0.0000 0.0000
# 2 47.7607 79.9434 68.2241 0.0000 0.0000 0.0000
# 3 65.9272 68.2241 139.8232 0.0000 0.0000 0.0000
# 4 0.0000 0.0000 0.0000 49.0283 0.0000 0.0000
# 5 0.0000 0.0000 0.0000 0.0000 35.8569 0.0000
# 6 0.0000 0.0000 0.0000 0.0000 0.0000 19.7128
#
#
#
# Elastic Compliance Matrix: (Units=1/GPa)
#
#
# Indices 1 2 3 4 5 6 
#
# 1 0.017248 -0.005764 -0.005320 0.000000 0.000000 0.000000
# 2 -0.005764 0.023361 -0.008680 0.000000 0.000000 0.000000
# 3 -0.005320 -0.008680 0.013896 0.000000 0.000000 0.000000
# 4 0.000000 0.000000 0.000000 0.020396 0.000000 0.000000
# 5 0.000000 0.000000 0.000000 0.000000 0.027889 0.000000
# 6 0.000000 0.000000 0.000000 0.000000 0.000000 0.050729
#
#
# Mechanical properties :
#
#
# Convention : Reuss Voigt Hill
#
# Bulk Modulus (GPa) = 66.77893 75.31839 71.04866
# Shear Modulus (GPa) = 25.24765 29.72823 27.48794
#
# Velocity S-wave (km/s) = 3.71738 4.03377 3.87881
# Velocity P-wave (km/s) = 7.41456 7.93218 7.67774
#
# Compressibility (1/GPa) = 0.01497478
#
# Stress axis : x y z
#
# Youngs Moduli (GPa) = 57.97875 42.80706 71.96521
#
# Poissons Ratio (x) = 0.24676 0.38283
# Poissons Ratio (y) = 0.33422 0.62469
# Poissons Ratio (z) = 0.30843 0.37158
#
# Static dielectric constant tensor:
#      x y z
#    x 3.451460 0.000000 0.000000 
#    y 0.000000 3.558550 0.000000 
#    z 0.000000 0.000000 3.292670 
# 
# 
# High freq. dielectric constant tensor:
#      x y z
#    x 1.721710 0.000000 0.000000 
#    y 0.000000 1.693940 0.000000 
#    z 0.000000 0.000000 1.705430 
# 
# From -- ./inp_files/20325.got.cif
#   From: 2010.03.12/outbox.cif.g09.slc.cpg/sg51_11_cif.got.tgz:20325.got - 2010.04.16 13:43:02.
