data_PCOD8211039
_publ_section_title
;
Structure prediction by ZEFSAII (Michael W. Deem and Ramdas Pophale) SiO2 
 PCOD8211039
Probable space group: P M M A
;
_chemical_formula_sum "Si O2"
_cell_formula_units_Z 48
_cell_length_a 8.840545
_cell_length_b 9.212888
_cell_length_c 30.760763
_cell_angle_alpha 90.000000
_cell_angle_beta 90.000000
_cell_angle_gamma 90.000000
_cell_volume 2505.370355
_symmetry_space_group_name_H-M "P M M A"
_symmetry_group_IT_number 51
_symmetry_cell_setting 'orthorhombic'
loop_
_space_group_symop_operation_xyz
x,y,z
1/2-x,-y,z
1/2+x,-y,-z
-x,y,-z
-x,-y,-z
1/2+x,y,-z
1/2-x,y,z
x,-y,z
loop_
_atom_site_type_symbol
_atom_site_label
_atom_site_fract_x
_atom_site_fract_y
_atom_site_fract_z
Si Si1 0.574807 0.669564 0.376837
Si Si2 0.422049 0.327847 0.130813
Si Si3 0.072088 0.165422 0.455288
Si Si4 0.920528 0.327162 0.043273
Si Si5 0.074771 0.169271 0.298512
Si Si6 0.425006 0.832935 0.791328
O O1 0.750000 0.703655 0.384579
O O2 0.541349 0.500000 0.374176
O O3 0.480778 0.734166 0.416360
O O4 0.523660 0.740160 0.331985
O O5 0.250000 0.273275 0.135557
O O6 0.431837 0.500000 0.133569
O O7 0.486559 0.271389 0.084913
O O8 0.524553 0.264048 0.168620
O O9 0.250000 0.177588 0.459854
O O10 0.000000 0.222574 0.500000
O O11 0.021035 0.000000 0.445914
O O12 0.750000 0.266541 0.045773
O O13 0.919391 0.500000 0.041931
O O14 0.000000 0.265100 0.000000
O O15 0.250000 0.209363 0.304096
O O16 0.022449 0.213164 0.250403
O O17 0.045409 0.000000 0.307355
O O18 0.250000 0.803576 0.780944
O O19 0.454621 0.000000 0.803300
#
# Coordination Sequence:
#
# PCOD8211039 Si02
#       6
#     8   8   8   8   8   8
#     4  11  24  39  56  82 115 149 183 221 269 321
#     4  10  20  33  51  77 107 139 176 218 265 316
#     4  10  21  38  61  87 113 145 186 228 270 318
#     4   9  16  27  45  70 101 136 174 217 263 312
#     4  10  21  38  60  83 106 137 179 223 267 318
#     4  10  21  37  57  80 106 139 178 219 266 320
#
# _framework density 19.158843000000001
#
# number of rings (size 3 to 8) (size 9 to 14) (size 15 to 20)
#    0.000    2.000    0.000    3.500    0.000   10.333 
#    0.000    0.000    0.000    0.500    0.000    0.000 
#    0.000    0.000    0.000    0.000    0.000    0.000 
#
# Total GULP energy -595418.163988 kJ/mol
# GULP energy per Si atom -12404.545083 kJ/mol
# Density = 1.911524 g / cm^3
# Si number density = 19.158843 Si / 1000 Ang^3
#
#
#
# Elastic Constant Matrix: (Units=GPa)
#
#
# Indices 1 2 3 4 5 6 
#
# 1 75.0900 28.6774 27.5358 0.0000 0.0000 0.0000
# 2 28.6774 43.7773 40.0097 0.0000 0.0000 0.0000
# 3 27.5358 40.0097 120.6236 0.0000 0.0000 0.0000
# 4 0.0000 0.0000 0.0000 21.8096 0.0000 0.0000
# 5 0.0000 0.0000 0.0000 0.0000 43.6501 0.0000
# 6 0.0000 0.0000 0.0000 0.0000 0.0000 23.6765
#
#
#
# Elastic Compliance Matrix: (Units=1/GPa)
#
#
# Indices 1 2 3 4 5 6 
#
# 1 0.017767 -0.011383 -0.000280 0.000000 0.000000 0.000000
# 2 -0.011383 0.040072 -0.010693 0.000000 0.000000 0.000000
# 3 -0.000280 -0.010693 0.011901 0.000000 0.000000 0.000000
# 4 0.000000 0.000000 0.000000 0.045851 0.000000 0.000000
# 5 0.000000 0.000000 0.000000 0.000000 0.022909 0.000000
# 6 0.000000 0.000000 0.000000 0.000000 0.000000 0.042236
#
#
# Mechanical properties :
#
#
# Convention : Reuss Voigt Hill
#
# Bulk Modulus (GPa) = 39.95487 47.99297 43.97392
# Shear Modulus (GPa) = 21.38646 27.37843 24.38244
#
# Velocity S-wave (km/s) = 3.34469 3.78434 3.57129
# Velocity P-wave (km/s) = 5.98462 6.64826 6.32515
#
# Compressibility (1/GPa) = 0.02502824
#
# Stress axis : x y z
#
# Youngs Moduli (GPa) = 56.28316 24.95486 84.02592
#
# Poissons Ratio (x) = 0.28405 0.02356
# Poissons Ratio (y) = 0.64065 0.89851
# Poissons Ratio (z) = 0.01578 0.26685
#
# Static dielectric constant tensor:
#      x y z
#    x 3.706860 0.000000 0.000000 
#    y 0.000000 3.271060 0.000000 
#    z 0.000000 0.000000 3.667720 
# 
# 
# High freq. dielectric constant tensor:
#      x y z
#    x 1.764480 0.000000 0.000000 
#    y 0.000000 1.716290 0.000000 
#    z 0.000000 0.000000 1.760740 
# 
# From -- ./inp_files/36893.got.cif
#   From: 2010.03.12/outbox.cif.g09.slc.cpg/sg51_19_cif.got.tgz:36893.got - 2010.04.16 13:43:02.
