data_PCOD8211031
_publ_section_title
;
Structure prediction by ZEFSAII (Michael W. Deem and Ramdas Pophale) SiO2 
 PCOD8211031
Probable space group: P M M A
;
_chemical_formula_sum "Si O2"
_cell_formula_units_Z 40
_cell_length_a 20.242954
_cell_length_b 9.144979
_cell_length_c 11.536279
_cell_angle_alpha 90.000000
_cell_angle_beta 90.000000
_cell_angle_gamma 90.000000
_cell_volume 2135.611995
_symmetry_space_group_name_H-M "P M M A"
_symmetry_group_IT_number 51
_symmetry_cell_setting 'orthorhombic'
loop_
_space_group_symop_operation_xyz
x,y,z
1/2-x,-y,z
1/2+x,-y,-z
-x,y,-z
-x,-y,-z
1/2+x,y,-z
1/2-x,y,z
x,-y,z
loop_
_atom_site_type_symbol
_atom_site_label
_atom_site_fract_x
_atom_site_fract_y
_atom_site_fract_z
Si Si1 0.327026 0.171906 0.955242
Si Si2 0.940253 0.327653 0.915559
Si Si3 0.464412 0.833846 0.317122
Si Si4 0.172690 0.339185 0.728440
Si Si5 0.399115 0.165016 0.550433
O O1 0.250000 0.208277 0.979836
O O2 0.351462 0.233694 0.831480
O O3 0.339816 0.000000 0.955410
O O4 0.371945 0.247292 0.052401
O O5 0.928129 0.500000 0.920436
O O6 0.958605 0.280751 0.786080
O O7 0.000000 0.280162 0.000000
O O8 0.535033 0.815828 0.375366
O O9 0.410173 0.796209 0.415584
O O10 0.454479 0.000000 0.271978
O O11 0.250000 0.354919 0.733520
O O12 0.140192 0.500000 0.744503
O O13 0.154600 0.274000 0.603367
O O14 0.372637 0.000000 0.560900
#
# Coordination Sequence:
#
# PCOD8211031 Si02
#       5
#     8   8   8   8   8
#     4  10  21  37  57  79 104 139 181 221 264 313
#     4  11  23  36  53  81 112 141 176 217 264 318
#     4   9  19  35  54  77 104 135 172 214 259 305
#     4  10  20  33  51  77 107 136 168 209 257 308
#     4   9  18  34  55  77 102 133 171 214 257 303
#
# _framework density 18.729994999999999
#
# number of rings (size 3 to 8) (size 9 to 14) (size 15 to 20)
#    0.000    2.200    0.000    4.200    0.000    8.800 
#    0.000    3.000    0.000    1.200    0.000    0.000 
#    0.000    0.000    0.000    0.000    0.000    0.000 
#
# Total GULP energy -496010.952915 kJ/mol
# GULP energy per Si atom -12400.273823 kJ/mol
# Density = 1.868737 g / cm^3
# Si number density = 18.729995 Si / 1000 Ang^3
#
#
#
# Elastic Constant Matrix: (Units=GPa)
#
#
# Indices 1 2 3 4 5 6 
#
# 1 39.9947 40.1365 30.6646 0.0000 0.0000 0.0000
# 2 40.1365 113.6667 56.4231 0.0000 0.0000 0.0000
# 3 30.6646 56.4231 109.7117 0.0000 0.0000 0.0000
# 4 0.0000 0.0000 0.0000 22.2718 0.0000 0.0000
# 5 0.0000 0.0000 0.0000 0.0000 29.9243 0.0000
# 6 0.0000 0.0000 0.0000 0.0000 0.0000 25.2293
#
#
#
# Elastic Compliance Matrix: (Units=1/GPa)
#
#
# Indices 1 2 3 4 5 6 
#
# 1 0.040967 -0.011792 -0.005386 0.000000 0.000000 0.000000
# 2 -0.011792 0.015208 -0.004525 0.000000 0.000000 0.000000
# 3 -0.005386 -0.004525 0.012947 0.000000 0.000000 0.000000
# 4 0.000000 0.000000 0.000000 0.044900 0.000000 0.000000
# 5 0.000000 0.000000 0.000000 0.000000 0.033418 0.000000
# 6 0.000000 0.000000 0.000000 0.000000 0.000000 0.039636
#
#
# Mechanical properties :
#
#
# Convention : Reuss Voigt Hill
#
# Bulk Modulus (GPa) = 38.88690 57.53571 48.21131
# Shear Modulus (GPa) = 20.91579 24.56167 22.73873
#
# Velocity S-wave (km/s) = 3.34533 3.62519 3.48807
# Velocity P-wave (km/s) = 5.97734 6.95039 6.48215
#
# Compressibility (1/GPa) = 0.02571560
#
# Stress axis : x y z
#
# Youngs Moduli (GPa) = 24.41013 65.75569 77.23582
#
# Poissons Ratio (x) = 0.77540 0.41597
# Poissons Ratio (y) = 0.28785 0.34951
# Poissons Ratio (z) = 0.13147 0.29756
#
# Static dielectric constant tensor:
#      x y z
#    x 3.343750 0.000000 0.000000 
#    y 0.000000 3.644790 0.000000 
#    z 0.000000 0.000000 3.770290 
# 
# 
# High freq. dielectric constant tensor:
#      x y z
#    x 1.714380 0.000000 0.000000 
#    y 0.000000 1.735280 0.000000 
#    z 0.000000 0.000000 1.723770 
# 
# From -- ./inp_files/17068.got.cif
#   From: 2010.03.12/outbox.cif.g09.slc.cpg/sg51_9_cif.got.tgz:17068.got - 2010.04.16 13:43:02.
