data_PCOD8211739
_publ_section_title
;
Structure prediction by ZEFSAII (Michael W. Deem and Ramdas Pophale) SiO2 
 PCOD8211739
Probable space group: P M M A
;
_chemical_formula_sum "Si O2"
_cell_formula_units_Z 64
_cell_length_a 9.361254
_cell_length_b 18.812379
_cell_length_c 19.484920
_cell_angle_alpha 90.000000
_cell_angle_beta 90.000000
_cell_angle_gamma 90.000000
_cell_volume 3431.439734
_symmetry_space_group_name_H-M "P M M A"
_symmetry_group_IT_number 51
_symmetry_cell_setting 'orthorhombic'
loop_
_space_group_symop_operation_xyz
x,y,z
1/2-x,-y,z
1/2+x,-y,-z
-x,y,-z
-x,-y,-z
1/2+x,y,-z
1/2-x,y,z
x,-y,z
loop_
_atom_site_type_symbol
_atom_site_label
_atom_site_fract_x
_atom_site_fract_y
_atom_site_fract_z
Si Si1 0.917255 0.081947 0.069529
Si Si2 0.410578 0.079161 0.439735
Si Si3 0.588892 0.809158 0.673612
Si Si4 0.921474 0.683192 0.571279
Si Si5 0.916723 0.186902 0.190666
Si Si6 0.916846 0.349046 0.195552
Si Si7 0.417406 0.583537 0.664664
Si Si8 0.908904 0.583574 0.061368
O O1 0.750000 0.093731 0.055634
O O2 0.971742 0.134326 0.130340
O O3 0.948865 0.000000 0.090584
O O4 0.000000 0.102177 0.000000
O O5 0.500000 0.117175 0.500000
O O6 0.250000 0.078520 0.466814
O O7 0.423379 0.119538 0.369161
O O8 0.469702 0.000000 0.426385
O O9 0.750000 0.794330 0.698692
O O10 0.536602 0.743649 0.626646
O O11 0.491944 0.828120 0.737830
O O12 0.750000 0.677767 0.560552
O O13 0.000000 0.701481 0.500000
O O14 0.988073 0.609682 0.600170
O O15 0.750000 0.174431 0.201920
O O16 0.952751 0.268660 0.174003
O O17 0.750000 0.363766 0.201800
O O18 0.979836 0.374510 0.268496
O O19 0.980841 0.396792 0.134125
O O20 0.250000 0.600090 0.651124
O O21 0.442177 0.500000 0.675264
O O22 0.750000 0.616618 0.056934
O O23 0.902612 0.500000 0.053377
O O24 0.000000 0.617867 0.000000
#
# Coordination Sequence:
#
# PCOD8211739 Si02
#       8
#     8   8   8   8   8   8   8   8
#     4   9  19  36  56  80 111 147 187 228 270 317
#     4   9  18  33  52  75 104 137 174 215 258 310
#     4  10  21  36  53  78 110 142 176 218 269 321
#     4  11  23  38  57  80 108 141 178 221 271 326
#     4  10  20  34  55  79 105 138 178 221 263 312
#     4   9  17  32  53  76 102 135 174 215 262 316
#     4  10  20  36  59  82 103 135 180 225 272 328
#     4   9  17  30  48  71 100 132 166 205 250 304
#
# _framework density 18.651063000000001
#
# number of rings (size 3 to 8) (size 9 to 14) (size 15 to 20)
#    0.000    2.375    1.250    1.125    0.000    4.500 
#    0.000    1.250    0.000    1.500    0.000    0.000 
#    0.000    0.000    0.000    0.000    0.000    0.000 
#
# Total GULP energy -793320.875258 kJ/mol
# GULP energy per Si atom -12395.638676 kJ/mol
# Density = 1.860861 g / cm^3
# Si number density = 18.651063 Si / 1000 Ang^3
#
#
#
# Elastic Constant Matrix: (Units=GPa)
#
#
# Indices 1 2 3 4 5 6 
#
# 1 62.3814 35.0299 56.9616 0.0000 0.0000 0.0000
# 2 35.0299 79.9227 52.1221 0.0000 0.0000 0.0000
# 3 56.9616 52.1221 135.3964 0.0000 0.0000 0.0000
# 4 0.0000 0.0000 0.0000 26.1908 0.0000 0.0000
# 5 0.0000 0.0000 0.0000 0.0000 36.8542 0.0000
# 6 0.0000 0.0000 0.0000 0.0000 0.0000 17.8599
#
#
#
# Elastic Compliance Matrix: (Units=1/GPa)
#
#
# Indices 1 2 3 4 5 6 
#
# 1 0.028130 -0.006157 -0.009464 0.000000 0.000000 0.000000
# 2 -0.006157 0.018054 -0.004360 0.000000 0.000000 0.000000
# 3 -0.009464 -0.004360 0.013046 0.000000 0.000000 0.000000
# 4 0.000000 0.000000 0.000000 0.038181 0.000000 0.000000
# 5 0.000000 0.000000 0.000000 0.000000 0.027134 0.000000
# 6 0.000000 0.000000 0.000000 0.000000 0.000000 0.055991
#
#
# Mechanical properties :
#
#
# Convention : Reuss Voigt Hill
#
# Bulk Modulus (GPa) = 51.90083 62.88084 57.39083
# Shear Modulus (GPa) = 22.03420 25.08677 23.56048
#
# Velocity S-wave (km/s) = 3.44087 3.67148 3.55804
# Velocity P-wave (km/s) = 6.60861 7.19448 6.90776
#
# Compressibility (1/GPa) = 0.01926752
#
# Stress axis : x y z
#
# Youngs Moduli (GPa) = 35.54968 55.38946 76.65457
#
# Poissons Ratio (x) = 0.34104 0.72545
# Poissons Ratio (y) = 0.21888 0.33419
# Poissons Ratio (z) = 0.33644 0.24148
#
# Static dielectric constant tensor:
#      x y z
#    x 3.391210 0.000000 0.000000 
#    y 0.000000 3.494990 0.000000 
#    z 0.000000 0.000000 3.539870 
# 
# 
# High freq. dielectric constant tensor:
#      x y z
#    x 1.705800 0.000000 0.000000 
#    y 0.000000 1.724160 0.000000 
#    z 0.000000 0.000000 1.729030 
# 
# From -- ./inp_files/28397.got.cif
#   From: 2010.03.12/outbox.cif.g09.slc.cpg/sg51_15_cif.got.tgz:28397.got - 2010.04.16 13:43:02.
