data_PCOD8211573
_publ_section_title
;
Structure prediction by ZEFSAII (Michael W. Deem and Ramdas Pophale) SiO2 
 PCOD8211573
Probable space group: P M M A
;
_chemical_formula_sum "Si O2"
_cell_formula_units_Z 64
_cell_length_a 9.454965
_cell_length_b 9.144763
_cell_length_c 41.196105
_cell_angle_alpha 90.000000
_cell_angle_beta 90.000000
_cell_angle_gamma 90.000000
_cell_volume 3561.955886
_symmetry_space_group_name_H-M "P M M A"
_symmetry_group_IT_number 51
_symmetry_cell_setting 'orthorhombic'
loop_
_space_group_symop_operation_xyz
x,y,z
1/2-x,-y,z
1/2+x,-y,-z
-x,y,-z
-x,-y,-z
1/2+x,y,-z
1/2-x,y,z
x,-y,z
loop_
_atom_site_type_symbol
_atom_site_label
_atom_site_fract_x
_atom_site_fract_y
_atom_site_fract_z
Si Si1 0.413677 0.832015 0.779806
Si Si2 0.918250 0.335006 0.905426
Si Si3 0.085200 0.670195 0.714534
Si Si4 0.081906 0.335074 0.405175
Si Si5 0.586262 0.170582 0.968833
Si Si6 0.414162 0.829994 0.468640
Si Si7 0.913830 0.170172 0.842178
Si Si8 0.416468 0.829924 0.341306
O O1 0.250000 0.813677 0.788638
O O2 0.457127 0.731239 0.749693
O O3 0.502524 0.776600 0.810521
O O4 0.450119 0.000000 0.771146
O O5 0.750000 0.327586 0.905324
O O6 0.975067 0.500000 0.905632
O O7 0.975042 0.254181 0.937508
O O8 0.975710 0.255665 0.873201
O O9 0.250000 0.697961 0.707486
O O10 0.046342 0.500000 0.713015
O O11 0.994806 0.756807 0.688519
O O12 0.250000 0.333483 0.405507
O O13 0.022710 0.500000 0.403277
O O14 0.025920 0.259169 0.437937
O O15 0.026845 0.245028 0.374216
O O16 0.750000 0.207535 0.974920
O O17 0.562436 0.000000 0.962499
O O18 0.500000 0.225629 0.000000
O O19 0.500000 0.777062 0.500000
O O20 0.250000 0.796665 0.474995
O O21 0.439980 0.000000 0.461355
O O22 0.750000 0.206370 0.836303
O O23 0.938753 0.000000 0.848901
O O24 0.250000 0.804820 0.336826
O O25 0.454983 0.000000 0.342952
#
# Coordination Sequence:
#
# PCOD8211573 Si02
#       8
#     8   8   8   8   8   8   8   8
#     4   9  18  33  51  70  95 128 162 195 236 286
#     4   9  17  29  46  68  93 121 152 187 230 278
#     4  10  21  36  53  74 102 135 167 200 244 297
#     4   9  17  30  49  72  98 128 161 199 245 294
#     4   9  17  30  48  68  90 118 152 188 226 270
#     4   9  17  30  48  69  94 125 161 199 239 286
#     4   9  17  30  49  71  93 119 155 197 235 274
#     4  10  20  34  54  78 101 128 166 209 249 292
#
# _framework density 17.967656000000002
#
# number of rings (size 3 to 8) (size 9 to 14) (size 15 to 20)
#    0.000    2.750    0.000    1.500    0.000    6.000 
#    0.000    2.500    0.000    6.000    0.000    0.000 
#    0.000    0.000    0.000    0.000    0.000    0.000 
#
# Total GULP energy -793700.863769 kJ/mol
# GULP energy per Si atom -12401.575996 kJ/mol
# Density = 1.792676 g / cm^3
# Si number density = 17.967656 Si / 1000 Ang^3
#
#
#
# Elastic Constant Matrix: (Units=GPa)
#
#
# Indices 1 2 3 4 5 6 
#
# 1 40.5903 39.7100 59.7097 0.0000 0.0000 0.0000
# 2 39.7100 116.8258 96.3071 0.0000 0.0000 0.0000
# 3 59.7097 96.3071 190.4445 0.0000 0.0000 0.0000
# 4 0.0000 0.0000 0.0000 18.1791 0.0000 0.0000
# 5 0.0000 0.0000 0.0000 0.0000 31.6762 0.0000
# 6 0.0000 0.0000 0.0000 0.0000 0.0000 17.8219
#
#
#
# Elastic Compliance Matrix: (Units=1/GPa)
#
#
# Indices 1 2 3 4 5 6 
#
# 1 0.048684 -0.006800 -0.011825 0.000000 0.000000 0.000000
# 2 -0.006800 0.015629 -0.005772 0.000000 0.000000 0.000000
# 3 -0.011825 -0.005772 0.011877 0.000000 0.000000 0.000000
# 4 0.000000 0.000000 0.000000 0.055008 0.000000 0.000000
# 5 0.000000 0.000000 0.000000 0.000000 0.031569 0.000000
# 6 0.000000 0.000000 0.000000 0.000000 0.000000 0.056111
#
#
# Mechanical properties :
#
#
# Convention : Reuss Voigt Hill
#
# Bulk Modulus (GPa) = 36.50054 82.14604 59.32329
# Shear Modulus (GPa) = 18.06336 23.67771 20.87053
#
# Velocity S-wave (km/s) = 3.17413 3.63408 3.41187
# Velocity P-wave (km/s) = 5.81310 7.96410 6.97205
#
# Compressibility (1/GPa) = 0.02739686
#
# Stress axis : x y z
#
# Youngs Moduli (GPa) = 20.54066 63.98391 84.19609
#
# Poissons Ratio (x) = 0.43508 0.99563
# Poissons Ratio (y) = 0.13967 0.48594
# Poissons Ratio (z) = 0.24290 0.36929
#
# Static dielectric constant tensor:
#      x y z
#    x 3.015230 0.000000 0.000000 
#    y 0.000000 3.409270 0.000000 
#    z 0.000000 0.000000 3.512050 
# 
# 
# High freq. dielectric constant tensor:
#      x y z
#    x 1.660580 0.000000 0.000000 
#    y 0.000000 1.699660 0.000000 
#    z 0.000000 0.000000 1.709670 
# 
# From -- ./inp_files/37773.got.cif
#   From: 2010.03.12/outbox.cif.g09.slc.cpg/sg51_19_cif.got.tgz:37773.got - 2010.04.16 13:43:02.
