data_PCOD8211391
_publ_section_title
;
Structure prediction by ZEFSAII (Michael W. Deem and Ramdas Pophale) SiO2 
 PCOD8211391
Probable space group: P M M A
;
_chemical_formula_sum "Si O2"
_cell_formula_units_Z 52
_cell_length_a 9.099770
_cell_length_b 14.835024
_cell_length_c 23.047778
_cell_angle_alpha 90.000000
_cell_angle_beta 90.000000
_cell_angle_gamma 90.000000
_cell_volume 3111.341852
_symmetry_space_group_name_H-M "P M M A"
_symmetry_group_IT_number 51
_symmetry_cell_setting 'orthorhombic'
loop_
_space_group_symop_operation_xyz
x,y,z
1/2-x,-y,z
1/2+x,-y,-z
-x,y,-z
-x,-y,-z
1/2+x,y,-z
1/2-x,y,z
x,-y,z
loop_
_atom_site_type_symbol
_atom_site_label
_atom_site_fract_x
_atom_site_fract_y
_atom_site_fract_z
Si Si1 0.583396 0.757223 0.769476
Si Si2 0.418418 0.398376 0.824679
Si Si3 0.588405 0.160360 0.895022
Si Si4 0.080310 0.000000 0.939758
Si Si5 0.079667 0.351322 0.058371
Si Si6 0.414927 0.893082 0.555613
Si Si7 0.576366 0.103157 0.672233
O O1 0.750000 0.727832 0.754928
O O2 0.485481 0.667075 0.775112
O O3 0.576284 0.808777 0.829561
O O4 0.522712 0.827105 0.721533
O O5 0.250000 0.370054 0.836172
O O6 0.429102 0.500000 0.800445
O O7 0.505144 0.394704 0.885322
O O8 0.750000 0.117930 0.906331
O O9 0.461879 0.088097 0.903937
O O10 0.564350 0.243471 0.938508
O O11 0.250000 0.000000 0.952095
O O12 0.000000 0.000000 0.000000
O O13 0.250000 0.381067 0.057048
O O14 0.000000 0.386042 0.000000
O O15 0.500000 0.852537 0.500000
O O16 0.250000 0.853500 0.556937
O O17 0.499442 0.863851 0.613523
O O18 0.410170 0.000000 0.550764
O O19 0.750000 0.108071 0.663162
O O20 0.530634 0.000000 0.688537
#
# Coordination Sequence:
#
# PCOD8211391 Si02
#       7
#     8   8   8   4   8   8   8
#     4   9  19  34  53  73  94 125 159 195 239 282
#     4  10  21  36  53  72  95 123 153 191 240 289
#     4   9  19  34  50  66  87 116 150 189 233 278
#     4  12  24  34  46  64  84 114 153 192 233 276
#     4  10  20  34  53  73  92 116 145 184 234 289
#     4   9  16  26  41  63  94 132 171 207 240 273
#     4   9  17  29  47  71  99 132 167 200 236 280
#
# _framework density 16.713045999999999
#
# number of rings (size 3 to 8) (size 9 to 14) (size 15 to 20)
#    0.000    2.462    0.000    3.462    1.077    8.308 
#    0.000    0.000    0.000    0.000    0.000    0.000 
#    0.000    0.615    0.000    2.000    0.000    2.923 
#
# Total GULP energy -644711.108747 kJ/mol
# GULP energy per Si atom -12398.290553 kJ/mol
# Density = 1.667501 g / cm^3
# Si number density = 16.713046 Si / 1000 Ang^3
#
#
#
# Elastic Constant Matrix: (Units=GPa)
#
#
# Indices 1 2 3 4 5 6 
#
# 1 105.0619 44.7977 40.4132 0.0000 0.0000 0.0000
# 2 44.7977 78.1901 36.6194 0.0000 0.0000 0.0000
# 3 40.4132 36.6194 92.7846 0.0000 0.0000 0.0000
# 4 0.0000 0.0000 0.0000 12.1079 0.0000 0.0000
# 5 0.0000 0.0000 0.0000 0.0000 28.9606 0.0000
# 6 0.0000 0.0000 0.0000 0.0000 0.0000 22.9989
#
#
#
# Elastic Compliance Matrix: (Units=1/GPa)
#
#
# Indices 1 2 3 4 5 6 
#
# 1 0.013440 -0.006083 -0.003453 0.000000 0.000000 0.000000
# 2 -0.006083 0.018443 -0.004629 0.000000 0.000000 0.000000
# 3 -0.003453 -0.004629 0.014109 0.000000 0.000000 0.000000
# 4 0.000000 0.000000 0.000000 0.082591 0.000000 0.000000
# 5 0.000000 0.000000 0.000000 0.000000 0.034530 0.000000
# 6 0.000000 0.000000 0.000000 0.000000 0.000000 0.043480
#
#
# Mechanical properties :
#
#
# Convention : Reuss Voigt Hill
#
# Bulk Modulus (GPa) = 56.62332 57.74413 57.18372
# Shear Modulus (GPa) = 20.76323 23.09391 21.92857
#
# Velocity S-wave (km/s) = 3.52850 3.72128 3.62617
# Velocity P-wave (km/s) = 7.11011 7.28623 7.19871
#
# Compressibility (1/GPa) = 0.01766057
#
# Stress axis : x y z
#
# Youngs Moduli (GPa) = 74.40303 54.22238 70.87812
#
# Poissons Ratio (x) = 0.32984 0.24476
# Poissons Ratio (y) = 0.45260 0.32811
# Poissons Ratio (z) = 0.25693 0.25101
#
# Static dielectric constant tensor:
#      x y z
#    x 3.357450 0.000000 0.000000 
#    y 0.000000 2.992080 0.000000 
#    z 0.000000 0.000000 3.043310 
# 
# 
# High freq. dielectric constant tensor:
#      x y z
#    x 1.654420 0.000000 0.000000 
#    y 0.000000 1.617790 0.000000 
#    z 0.000000 0.000000 1.626410 
# 
# From -- ./inp_files/34686.got.cif
#   From: 2010.03.12/outbox.cif.g09.slc.cpg/sg51_18_cif.got.tgz:34686.got - 2010.04.16 13:43:02.
