data_PCOD8211806
_publ_section_title
;
Structure prediction by ZEFSAII (Michael W. Deem and Ramdas Pophale) SiO2 
 PCOD8211806
Probable space group: P M M A
;
_chemical_formula_sum "Si O2"
_cell_formula_units_Z 40
_cell_length_a 9.196612
_cell_length_b 7.631536
_cell_length_c 29.285928
_cell_angle_alpha 90.000000
_cell_angle_beta 90.000000
_cell_angle_gamma 90.000000
_cell_volume 2055.411641
_symmetry_space_group_name_H-M "P M M A"
_symmetry_group_IT_number 51
_symmetry_cell_setting 'orthorhombic'
loop_
_space_group_symop_operation_xyz
x,y,z
1/2-x,-y,z
1/2+x,-y,-z
-x,y,-z
-x,-y,-z
1/2+x,y,-z
1/2-x,y,z
x,-y,z
loop_
_atom_site_type_symbol
_atom_site_label
_atom_site_fract_x
_atom_site_fract_y
_atom_site_fract_z
Si Si1 0.415973 0.804823 0.633289
Si Si2 0.917901 0.294128 0.545080
Si Si3 0.909304 0.792859 0.958482
Si Si4 0.921770 0.202627 0.856827
Si Si5 0.576123 0.500000 0.198769
Si Si6 0.578051 0.500000 0.301967
O O1 0.250000 0.754259 0.620255
O O2 0.513274 0.800915 0.588295
O O3 0.478309 0.672127 0.671317
O O4 0.423691 0.000000 0.654131
O O5 0.750000 0.241097 0.540860
O O6 0.939554 0.500000 0.551560
O O7 0.000000 0.227068 0.500000
O O8 0.750000 0.709162 0.961932
O O9 0.974158 0.750938 0.908417
O O10 0.899411 0.000000 0.964524
O O11 0.000000 0.708227 0.000000
O O12 0.750000 0.239178 0.851747
O O13 0.013709 0.324152 0.823508
O O14 0.956013 0.000000 0.845278
O O15 0.750000 0.500000 0.195020
O O16 0.517728 0.500000 0.250711
O O17 0.750000 0.500000 0.299515
#
# Coordination Sequence:
#
# PCOD8211806 Si02
#       6
#     8   8   8   8   4   4
#     4  10  20  36  60  84 107 142 183 222 270 325
#     4  10  20  34  55  83 115 151 185 220 264 313
#     4   8  14  26  47  75 106 141 180 221 269 324
#     4   9  19  37  58  80 111 151 189 226 275 338
#     4  11  23  37  58  87 112 141 184 239 292 335
#     4   9  20  39  58  79 110 141 176 227 282 333
#
# _framework density 19.460822
#
# number of rings (size 3 to 8) (size 9 to 14) (size 15 to 20)
#    0.000    2.600    1.000    2.100    0.000    3.600 
#    0.000    6.500    0.000    0.000    0.000    0.000 
#    0.000    0.000    0.000    0.000    0.000    0.000 
#
# Total GULP energy -495897.756104 kJ/mol
# GULP energy per Si atom -12397.443903 kJ/mol
# Density = 1.941653 g / cm^3
# Si number density = 19.460822 Si / 1000 Ang^3
#
#
#
# Elastic Constant Matrix: (Units=GPa)
#
#
# Indices 1 2 3 4 5 6 
#
# 1 82.6985 42.3100 60.3801 0.0000 0.0000 0.0000
# 2 42.3100 102.5886 68.9808 0.0000 0.0000 0.0000
# 3 60.3801 68.9808 169.2191 0.0000 0.0000 0.0000
# 4 0.0000 0.0000 0.0000 11.4627 0.0000 0.0000
# 5 0.0000 0.0000 0.0000 0.0000 29.5785 0.0000
# 6 0.0000 0.0000 0.0000 0.0000 0.0000 22.1607
#
#
#
# Elastic Compliance Matrix: (Units=1/GPa)
#
#
# Indices 1 2 3 4 5 6 
#
# 1 0.017560 -0.004173 -0.004565 0.000000 0.000000 0.000000
# 2 -0.004173 0.014420 -0.004389 0.000000 0.000000 0.000000
# 3 -0.004565 -0.004389 0.009327 0.000000 0.000000 0.000000
# 4 0.000000 0.000000 0.000000 0.087239 0.000000 0.000000
# 5 0.000000 0.000000 0.000000 0.000000 0.033808 0.000000
# 6 0.000000 0.000000 0.000000 0.000000 0.000000 0.045125
#
#
# Mechanical properties :
#
#
# Convention : Reuss Voigt Hill
#
# Bulk Modulus (GPa) = 66.42817 77.53866 71.98342
# Shear Modulus (GPa) = 20.94232 24.82941 22.88587
#
# Velocity S-wave (km/s) = 3.28400 3.57580 3.43300
# Velocity P-wave (km/s) = 6.97050 7.54841 7.26520
#
# Compressibility (1/GPa) = 0.01505385
#
# Stress axis : x y z
#
# Youngs Moduli (GPa) = 56.94858 69.34815 107.21032
#
# Poissons Ratio (x) = 0.28938 0.48937
# Poissons Ratio (y) = 0.23764 0.47058
# Poissons Ratio (z) = 0.25995 0.30439
#
# Static dielectric constant tensor:
#      x y z
#    x 3.530080 0.000000 0.000000 
#    y 0.000000 3.449640 0.000000 
#    z 0.000000 0.000000 3.667670 
# 
# 
# High freq. dielectric constant tensor:
#      x y z
#    x 1.741080 0.000000 0.000000 
#    y 0.000000 1.755470 0.000000 
#    z 0.000000 0.000000 1.755920 
# 
# From -- ./inp_files/36039.got.cif
#   From: 2010.03.12/outbox.cif.g09.slc.cpg/sg51_19_cif.got.tgz:36039.got - 2010.04.16 13:43:02.
