data_PCOD8211760
_publ_section_title
;
Structure prediction by ZEFSAII (Michael W. Deem and Ramdas Pophale) SiO2 
 PCOD8211760
Probable space group: P M M A
;
_chemical_formula_sum "Si O2"
_cell_formula_units_Z 36
_cell_length_a 9.234355
_cell_length_b 14.264113
_cell_length_c 14.397217
_cell_angle_alpha 90.000000
_cell_angle_beta 90.000000
_cell_angle_gamma 90.000000
_cell_volume 1896.399742
_symmetry_space_group_name_H-M "P M M A"
_symmetry_group_IT_number 51
_symmetry_cell_setting 'orthorhombic'
loop_
_space_group_symop_operation_xyz
x,y,z
1/2-x,-y,z
1/2+x,-y,-z
-x,y,-z
-x,-y,-z
1/2+x,y,-z
1/2-x,y,z
x,-y,z
loop_
_atom_site_type_symbol
_atom_site_label
_atom_site_fract_x
_atom_site_fract_y
_atom_site_fract_z
Si Si1 0.084379 0.000000 0.094907
Si Si2 0.579205 0.343567 0.241890
Si Si3 0.581180 0.850143 0.752910
Si Si4 0.580443 0.000000 0.598678
Si Si5 0.417610 0.500000 0.904215
Si Si6 0.091574 0.606365 0.418800
O O1 0.046592 0.090428 0.155709
O O2 0.250000 0.000000 0.066412
O O3 0.000000 0.000000 0.000000
O O4 0.750000 0.341935 0.260817
O O5 0.519986 0.239041 0.234492
O O6 0.541563 0.405362 0.151535
O O7 0.499703 0.393842 0.325796
O O8 0.750000 0.821837 0.749198
O O9 0.539796 0.907881 0.659488
O O10 0.500000 0.000000 0.500000
O O11 0.750000 0.000000 0.577726
O O12 0.250000 0.500000 0.928120
O O13 0.500000 0.500000 0.000000
O O14 0.250000 0.655539 0.406842
O O15 0.118404 0.500000 0.449377
O O16 0.000000 0.658613 0.500000
#
# Coordination Sequence:
#
# PCOD8211760 Si02
#       6
#     4   8   8   4   4   8
#     4   9  19  37  60  82 110 143 179 231 289 344
#     4  11  22  38  58  83 116 151 190 241 287 336
#     4   9  20  38  57  82 114 150 187 227 281 346
#     4   9  19  37  60  84 116 151 187 229 276 332
#     4  10  24  42  59  80 111 150 195 242 292 344
#     4  10  20  34  55  81 109 146 187 228 274 325
#
# _framework density 18.983338
#
# number of rings (size 3 to 8) (size 9 to 14) (size 15 to 20)
#    0.000    2.222    1.111    2.667    0.000    6.222 
#    0.000    8.889    0.000    0.000    0.000    0.000 
#    0.000    0.000    0.000    0.000    0.000    0.000 
#
# Total GULP energy -446233.918127 kJ/mol
# GULP energy per Si atom -12395.386615 kJ/mol
# Density = 1.894013 g / cm^3
# Si number density = 18.983338 Si / 1000 Ang^3
#
#
#
# Elastic Constant Matrix: (Units=GPa)
#
#
# Indices 1 2 3 4 5 6 
#
# 1 126.1256 60.1308 90.1723 0.0000 0.0000 0.0000
# 2 60.1308 105.7136 53.0950 0.0000 0.0000 0.0000
# 3 90.1723 53.0950 175.7101 0.0000 0.0000 0.0000
# 4 0.0000 0.0000 0.0000 -3.7836 0.0000 0.0000
# 5 0.0000 0.0000 0.0000 0.0000 41.8653 0.0000
# 6 0.0000 0.0000 0.0000 0.0000 0.0000 28.4841
#
#
#
# Elastic Compliance Matrix: (Units=1/GPa)
#
#
# Indices 1 2 3 4 5 6 
#
# 1 0.014751 -0.005409 -0.005935 0.000000 0.000000 0.000000
# 2 -0.005409 0.013136 -0.001193 0.000000 0.000000 0.000000
# 3 -0.005935 -0.001193 0.009098 0.000000 0.000000 0.000000
# 4 0.000000 0.000000 0.000000 -0.264301 0.000000 0.000000
# 5 0.000000 0.000000 0.000000 0.000000 0.023886 0.000000
# 6 0.000000 0.000000 0.000000 0.000000 0.000000 0.035107
#
#
# Mechanical properties :
#
#
# Convention : Reuss Voigt Hill
#
# Bulk Modulus (GPa) = 83.97488 90.48283 87.22886
# Shear Modulus (GPa) = -35.89952 26.92324 -4.48814
#
# Velocity S-wave (km/s) = -4.35340 3.77006 -1.53928
# Velocity P-wave (km/s) = 4.36608 8.16817 6.54911
#
# Compressibility (1/GPa) = 0.01190832
#
# Stress axis : x y z
#
# Youngs Moduli (GPa) = 67.79161 76.12813 109.91700
#
# Poissons Ratio (x) = 0.41181 0.65241
# Poissons Ratio (y) = 0.36671 0.13116
# Poissons Ratio (z) = 0.40238 0.09084
#
# Static dielectric constant tensor:
#      x y z
#    x 3.616370 0.000000 0.000000 
#    y 0.000000 3.341630 0.000000 
#    z 0.000000 0.000000 3.489840 
# 
# 
# High freq. dielectric constant tensor:
#      x y z
#    x 1.745310 0.000000 0.000000 
#    y 0.000000 1.731340 0.000000 
#    z 0.000000 0.000000 1.741650 
# 
# From -- ./inp_files/20418.got.cif
#   From: 2010.03.12/outbox.cif.g09.slc.cpg/sg51_11_cif.got.tgz:20418.got - 2010.04.16 13:43:02.
