data_PCOD8211429
_publ_section_title
;
Structure prediction by ZEFSAII (Michael W. Deem and Ramdas Pophale) SiO2 
 PCOD8211429
Probable space group: P M M A
;
_chemical_formula_sum "Si O2"
_cell_formula_units_Z 40
_cell_length_a 7.728324
_cell_length_b 9.282795
_cell_length_c 29.419148
_cell_angle_alpha 90.000000
_cell_angle_beta 90.000000
_cell_angle_gamma 90.000000
_cell_volume 2110.542839
_symmetry_space_group_name_H-M "P M M A"
_symmetry_group_IT_number 51
_symmetry_cell_setting 'orthorhombic'
loop_
_space_group_symop_operation_xyz
x,y,z
1/2-x,-y,z
1/2+x,-y,-z
-x,y,-z
-x,-y,-z
1/2+x,y,-z
1/2-x,y,z
x,-y,z
loop_
_atom_site_type_symbol
_atom_site_label
_atom_site_fract_x
_atom_site_fract_y
_atom_site_fract_z
Si Si1 0.750000 0.329282 0.714034
Si Si2 0.943500 0.671477 0.450759
Si Si3 0.954748 0.834423 0.865030
Si Si4 0.750000 0.327966 0.612389
Si Si5 0.453051 0.339323 0.049114
Si Si6 0.556098 0.334753 0.222254
O O1 0.750000 0.500000 0.710375
O O2 0.750000 0.263592 0.663352
O O3 0.578527 0.275248 0.740332
O O4 0.750000 0.726668 0.438898
O O5 0.947209 0.500000 0.451794
O O6 0.000000 0.731179 0.500000
O O7 0.078170 0.729502 0.413141
O O8 0.750000 0.815698 0.860235
O O9 0.027407 0.762197 0.911222
O O10 0.045987 0.758287 0.823026
O O11 0.010637 0.000000 0.865827
O O12 0.750000 0.500000 0.612873
O O13 0.250000 0.348412 0.054703
O O14 0.534504 0.500000 0.053343
O O15 0.500000 0.272219 0.000000
O O16 0.750000 0.322134 0.242436
O O17 0.510870 0.500000 0.209847
#
# Coordination Sequence:
#
# PCOD8211429 Si02
#       6
#     4   8   8   4   8   8
#     4   9  18  32  47  65  93 123 163 221 266 299
#     4   9  14  20  31  48  74 110 153 198 245 298
#     4  10  20  34  53  76 101 132 170 211 259 308
#     4   9  16  24  36  55  79 113 155 205 256 293
#     4   9  18  32  50  72 101 136 171 207 248 299
#     4  10  20  34  54  75  96 129 171 211 258 314
#
# _framework density 18.952470000000002
#
# number of rings (size 3 to 8) (size 9 to 14) (size 15 to 20)
#    0.000    2.600    2.000    0.600    0.000    3.200 
#    0.000    6.000    0.000    0.000    0.000    0.000 
#    0.000    0.000    0.000    0.000    0.000    4.000 
#
# Total GULP energy -495909.189479 kJ/mol
# GULP energy per Si atom -12397.729737 kJ/mol
# Density = 1.890933 g / cm^3
# Si number density = 18.952470 Si / 1000 Ang^3
#
#
#
# Elastic Constant Matrix: (Units=GPa)
#
#
# Indices 1 2 3 4 5 6 
#
# 1 123.4167 25.8797 73.4272 0.0000 0.0000 0.0000
# 2 25.8797 50.3564 39.9513 0.0000 0.0000 0.0000
# 3 73.4272 39.9513 176.6312 0.0000 0.0000 0.0000
# 4 0.0000 0.0000 0.0000 -1.2783 0.0000 0.0000
# 5 0.0000 0.0000 0.0000 0.0000 27.7032 0.0000
# 6 0.0000 0.0000 0.0000 0.0000 0.0000 10.9855
#
#
#
# Elastic Compliance Matrix: (Units=1/GPa)
#
#
# Indices 1 2 3 4 5 6 
#
# 1 0.011012 -0.002471 -0.004019 0.000000 0.000000 0.000000
# 2 -0.002471 0.024756 -0.004572 0.000000 0.000000 0.000000
# 3 -0.004019 -0.004572 0.008366 0.000000 0.000000 0.000000
# 4 0.000000 0.000000 0.000000 -0.782305 0.000000 0.000000
# 5 0.000000 0.000000 0.000000 0.000000 0.036097 0.000000
# 6 0.000000 0.000000 0.000000 0.000000 0.000000 0.091029
#
#
# Mechanical properties :
#
#
# Convention : Reuss Voigt Hill
#
# Bulk Modulus (GPa) = 45.43372 69.88006 57.65689
# Shear Modulus (GPa) = -8.59720 21.55849 6.48064
#
# Velocity S-wave (km/s) = -2.13214 3.37635 1.85117
# Velocity P-wave (km/s) = 4.23829 7.22156 5.92090
#
# Compressibility (1/GPa) = 0.02201008
#
# Stress axis : x y z
#
# Youngs Moduli (GPa) = 90.81189 40.39460 119.52650
#
# Poissons Ratio (x) = 0.09981 0.48036
# Poissons Ratio (y) = 0.22438 0.54650
# Poissons Ratio (z) = 0.36496 0.18469
#
# Static dielectric constant tensor:
#      x y z
#    x 3.575800 0.000000 0.000000 
#    y 0.000000 3.042740 0.000000 
#    z 0.000000 0.000000 3.620620 
# 
# 
# High freq. dielectric constant tensor:
#      x y z
#    x 1.744120 0.000000 0.000000 
#    y 0.000000 1.676360 0.000000 
#    z 0.000000 0.000000 1.736440 
# 
# From -- ./inp_files/36070.got.cif
#   From: 2010.03.12/outbox.cif.g09.slc.cpg/sg51_19_cif.got.tgz:36070.got - 2010.04.16 13:43:02.
