data_PCOD8211648
_publ_section_title
;
Structure prediction by ZEFSAII (Michael W. Deem and Ramdas Pophale) SiO2 
 PCOD8211648
Probable space group: P M M A
;
_chemical_formula_sum "Si O2"
_cell_formula_units_Z 48
_cell_length_a 9.090638
_cell_length_b 9.106454
_cell_length_c 31.101227
_cell_angle_alpha 90.000000
_cell_angle_beta 90.000000
_cell_angle_gamma 90.000000
_cell_volume 2574.667703
_symmetry_space_group_name_H-M "P M M A"
_symmetry_group_IT_number 51
_symmetry_cell_setting 'orthorhombic'
loop_
_space_group_symop_operation_xyz
x,y,z
1/2-x,-y,z
1/2+x,-y,-z
-x,y,-z
-x,-y,-z
1/2+x,y,-z
1/2-x,y,z
x,-y,z
loop_
_atom_site_type_symbol
_atom_site_label
_atom_site_fract_x
_atom_site_fract_y
_atom_site_fract_z
Si Si1 0.419879 0.672486 0.879706
Si Si2 0.075140 0.834480 0.794703
Si Si3 0.578477 0.671010 0.289558
Si Si4 0.422282 0.831231 0.044054
Si Si5 0.584037 0.674902 0.625553
Si Si6 0.583830 0.324833 0.458012
O O1 0.250000 0.714930 0.887995
O O2 0.439748 0.500000 0.874102
O O3 0.481496 0.748439 0.836579
O O4 0.516761 0.727277 0.919035
O O5 0.250000 0.830775 0.793849
O O6 0.015321 0.756257 0.751801
O O7 0.014201 0.000000 0.796391
O O8 0.750000 0.701764 0.297004
O O9 0.547905 0.500000 0.281833
O O10 0.493757 0.731922 0.331197
O O11 0.250000 0.804307 0.038565
O O12 0.458168 0.000000 0.055662
O O13 0.500000 0.784870 0.000000
O O14 0.750000 0.735076 0.624163
O O15 0.581416 0.500000 0.624654
O O16 0.497310 0.737004 0.584288
O O17 0.500000 0.264803 0.500000
O O18 0.750000 0.264728 0.458546
O O19 0.583052 0.500000 0.457785
#
# Coordination Sequence:
#
# PCOD8211648 Si02
#       6
#     8   8   8   8   8   8
#     4  10  20  34  54  80 108 138 172 210 253 301
#     4   9  17  30  50  74  98 126 162 203 245 291
#     4   9  16  27  44  65  89 118 154 195 237 283
#     4  10  21  37  57  80 106 138 175 213 254 300
#     4   9  16  25  37  55  81 114 151 190 234 283
#     4   9  15  22  33  51  78 113 151 189 230 278
#
# _framework density 18.643181999999999
#
# number of rings (size 3 to 8) (size 9 to 14) (size 15 to 20)
#    0.000    2.667    0.000    2.500    0.000    8.333 
#    0.000    0.833    0.000    3.500    0.000    0.000 
#    0.000    0.667    0.000    1.833    0.000    3.333 
#
# Total GULP energy -595250.190528 kJ/mol
# GULP energy per Si atom -12401.045636 kJ/mol
# Density = 1.860075 g / cm^3
# Si number density = 18.643182 Si / 1000 Ang^3
#
#
#
# Elastic Constant Matrix: (Units=GPa)
#
#
# Indices 1 2 3 4 5 6 
#
# 1 102.1168 32.2240 75.7499 0.0000 0.0000 0.0000
# 2 32.2240 59.2010 56.3412 0.0000 0.0000 0.0000
# 3 75.7499 56.3412 191.6504 0.0000 0.0000 0.0000
# 4 0.0000 0.0000 0.0000 5.3336 0.0000 0.0000
# 5 0.0000 0.0000 0.0000 0.0000 31.4635 0.0000
# 6 0.0000 0.0000 0.0000 0.0000 0.0000 14.1551
#
#
#
# Elastic Compliance Matrix: (Units=1/GPa)
#
#
# Indices 1 2 3 4 5 6 
#
# 1 0.014316 -0.003342 -0.004676 0.000000 0.000000 0.000000
# 2 -0.003342 0.024234 -0.005803 0.000000 0.000000 0.000000
# 3 -0.004676 -0.005803 0.008772 0.000000 0.000000 0.000000
# 4 0.000000 0.000000 0.000000 0.187489 0.000000 0.000000
# 5 0.000000 0.000000 0.000000 0.000000 0.031783 0.000000
# 6 0.000000 0.000000 0.000000 0.000000 0.000000 0.070646
#
#
# Mechanical properties :
#
#
# Convention : Reuss Voigt Hill
#
# Bulk Modulus (GPa) = 50.81579 75.73316 63.27448
# Shear Modulus (GPa) = 13.46105 22.76732 18.11419
#
# Velocity S-wave (km/s) = 2.68999 3.49838 3.12047
# Velocity P-wave (km/s) = 6.07982 7.55174 6.85540
#
# Compressibility (1/GPa) = 0.01967892
#
# Stress axis : x y z
#
# Youngs Moduli (GPa) = 69.85229 41.26476 114.00012
#
# Poissons Ratio (x) = 0.13793 0.53304
# Poissons Ratio (y) = 0.23348 0.66155
# Poissons Ratio (z) = 0.32661 0.23946
#
# Static dielectric constant tensor:
#      x y z
#    x 3.336100 0.000000 0.000000 
#    y 0.000000 3.067130 0.000000 
#    z 0.000000 0.000000 3.658110 
# 
# 
# High freq. dielectric constant tensor:
#      x y z
#    x 1.709210 0.000000 0.000000 
#    y 0.000000 1.681890 0.000000 
#    z 0.000000 0.000000 1.742610 
# 
# From -- ./inp_files/37036.got.cif
#   From: 2010.03.12/outbox.cif.g09.slc.cpg/sg51_19_cif.got.tgz:37036.got - 2010.04.16 13:43:02.
