data_PCOD8211597
_publ_section_title
;
Structure prediction by ZEFSAII (Michael W. Deem and Ramdas Pophale) SiO2 
 PCOD8211597
Probable space group: P M M A
;
_chemical_formula_sum "Si O2"
_cell_formula_units_Z 36
_cell_length_a 8.920688
_cell_length_b 15.686806
_cell_length_c 13.457703
_cell_angle_alpha 90.000000
_cell_angle_beta 90.000000
_cell_angle_gamma 90.000000
_cell_volume 1883.231958
_symmetry_space_group_name_H-M "P M M A"
_symmetry_group_IT_number 51
_symmetry_cell_setting 'orthorhombic'
loop_
_space_group_symop_operation_xyz
x,y,z
1/2-x,-y,z
1/2+x,-y,-z
-x,y,-z
-x,-y,-z
1/2+x,y,-z
1/2-x,y,z
x,-y,z
loop_
_atom_site_type_symbol
_atom_site_label
_atom_site_fract_x
_atom_site_fract_y
_atom_site_fract_z
Si Si1 0.574691 0.500000 0.892952
Si Si2 0.424365 0.163441 0.896548
Si Si3 0.921006 0.658061 0.200171
Si Si4 0.422471 0.097074 0.293841
Si Si5 0.574204 0.752623 0.399799
O O1 0.750000 0.500000 0.910346
O O2 0.530662 0.417171 0.830452
O O3 0.500000 0.500000 0.000000
O O4 0.250000 0.140232 0.900175
O O5 0.448537 0.262977 0.873206
O O6 0.500726 0.105827 0.813157
O O7 0.500000 0.140072 0.000000
O O8 0.750000 0.626126 0.192452
O O9 0.959821 0.685404 0.312542
O O10 0.250000 0.125405 0.284875
O O11 0.503972 0.155646 0.374843
O O12 0.437391 0.000000 0.330144
O O13 0.500000 0.716246 0.500000
O O14 0.750000 0.765604 0.414566
#
# Coordination Sequence:
#
# PCOD8211597 Si02
#       5
#     4   8   8   8   8
#     4  12  24  36  57  86 115 148 181 218 264 314
#     4  10  20  34  54  78 106 144 184 224 273 326
#     4   9  20  38  57  80 110 142 179 223 268 316
#     4  10  21  36  54  78 108 142 182 228 274 322
#     4  10  21  38  61  84 108 142 180 223 274 324
#
# _framework density 19.116074000000001
#
# number of rings (size 3 to 8) (size 9 to 14) (size 15 to 20)
#    0.000    2.000    0.000    5.000    0.000    9.778 
#    0.000    0.556    0.000    0.000    0.000    0.000 
#    0.000    0.000    0.000    0.000    0.000    0.000 
#
# Total GULP energy -446561.281398 kJ/mol
# GULP energy per Si atom -12404.480039 kJ/mol
# Density = 1.907257 g / cm^3
# Si number density = 19.116074 Si / 1000 Ang^3
#
#
#
# Elastic Constant Matrix: (Units=GPa)
#
#
# Indices 1 2 3 4 5 6 
#
# 1 147.9731 53.3763 55.3279 0.0000 0.0000 0.0000
# 2 53.3763 79.7256 27.3871 0.0000 0.0000 0.0000
# 3 55.3279 27.3871 115.5882 0.0000 0.0000 0.0000
# 4 0.0000 0.0000 0.0000 14.6416 0.0000 0.0000
# 5 0.0000 0.0000 0.0000 0.0000 39.9928 0.0000
# 6 0.0000 0.0000 0.0000 0.0000 0.0000 32.6263
#
#
#
# Elastic Compliance Matrix: (Units=1/GPa)
#
#
# Indices 1 2 3 4 5 6 
#
# 1 0.010065 -0.005534 -0.003507 0.000000 0.000000 0.000000
# 2 -0.005534 0.016697 -0.001307 0.000000 0.000000 0.000000
# 3 -0.003507 -0.001307 0.010640 0.000000 0.000000 0.000000
# 4 0.000000 0.000000 0.000000 0.068299 0.000000 0.000000
# 5 0.000000 0.000000 0.000000 0.000000 0.025004 0.000000
# 6 0.000000 0.000000 0.000000 0.000000 0.000000 0.030650
#
#
# Mechanical properties :
#
#
# Convention : Reuss Voigt Hill
#
# Bulk Modulus (GPa) = 59.85819 68.38552 64.12186
# Shear Modulus (GPa) = 26.64953 31.26515 28.95734
#
# Velocity S-wave (km/s) = 3.73780 4.04857 3.89629
# Velocity P-wave (km/s) = 7.07172 7.59645 7.33878
#
# Compressibility (1/GPa) = 0.01670615
#
# Stress axis : x y z
#
# Youngs Moduli (GPa) = 99.34984 59.89027 93.98799
#
# Poissons Ratio (x) = 0.33144 0.32959
# Poissons Ratio (y) = 0.54982 0.12286
# Poissons Ratio (z) = 0.34839 0.07829
#
# Static dielectric constant tensor:
#      x y z
#    x 3.613660 0.000000 0.000000 
#    y 0.000000 3.314210 0.000000 
#    z 0.000000 0.000000 3.522250 
# 
# 
# High freq. dielectric constant tensor:
#      x y z
#    x 1.758140 0.000000 0.000000 
#    y 0.000000 1.730400 0.000000 
#    z 0.000000 0.000000 1.747090 
# 
# From -- ./inp_files/20316.got.cif
#   From: 2010.03.12/outbox.cif.g09.slc.cpg/sg51_11_cif.got.tgz:20316.got - 2010.04.16 13:43:02.
