data_PCOD8211159
_publ_section_title
;
Structure prediction by ZEFSAII (Michael W. Deem and Ramdas Pophale) SiO2 
 PCOD8211159
Probable space group: P M M A
;
_chemical_formula_sum "Si O2"
_cell_formula_units_Z 64
_cell_length_a 13.450763
_cell_length_b 9.238452
_cell_length_c 26.224136
_cell_angle_alpha 90.000000
_cell_angle_beta 90.000000
_cell_angle_gamma 90.000000
_cell_volume 3258.722024
_symmetry_space_group_name_H-M "P M M A"
_symmetry_group_IT_number 51
_symmetry_cell_setting 'orthorhombic'
loop_
_space_group_symop_operation_xyz
x,y,z
1/2-x,-y,z
1/2+x,-y,-z
-x,y,-z
-x,-y,-z
1/2+x,y,-z
1/2-x,y,z
x,-y,z
loop_
_atom_site_type_symbol
_atom_site_label
_atom_site_fract_x
_atom_site_fract_y
_atom_site_fract_z
Si Si1 0.452223 0.832813 0.373975
Si Si2 0.637876 0.834844 0.436284
Si Si3 0.859368 0.170612 0.026332
Si Si4 0.631707 0.837263 0.916936
Si Si5 0.364698 0.668579 0.281762
Si Si6 0.632929 0.338331 0.533065
Si Si7 0.135501 0.169064 0.862237
Si Si8 0.459590 0.330823 0.174518
O O1 0.569375 0.815021 0.386477
O O2 0.432313 0.760203 0.319837
O O3 0.388436 0.755351 0.417286
O O4 0.420306 0.000000 0.371847
O O5 0.750000 0.789343 0.421266
O O6 0.591425 0.736653 0.481478
O O7 0.634842 0.000000 0.455933
O O8 0.750000 0.243356 0.028288
O O9 0.910552 0.208033 0.081043
O O10 0.845167 0.000000 0.024454
O O11 0.913927 0.213639 0.972727
O O12 0.750000 0.837828 0.922969
O O13 0.602383 0.727255 0.873110
O O14 0.593776 0.000000 0.903398
O O15 0.250000 0.712875 0.288385
O O16 0.380357 0.500000 0.293761
O O17 0.398297 0.707726 0.224934
O O18 0.750000 0.345966 0.526866
O O19 0.587863 0.500000 0.538333
O O20 0.250000 0.218561 0.857469
O O21 0.068216 0.256419 0.822159
O O22 0.126657 0.000000 0.850423
O O23 0.474934 0.500000 0.167998
#
# Coordination Sequence:
#
# PCOD8211159 Si02
#       8
#     8   8   8   8   8   8   8   8
#     4  11  22  35  56  84 109 138 180 228 274 314
#     4   9  19  36  55  78 113 150 179 213 260 311
#     4   7  12  26  49  76 104 135 172 214 259 308
#     4   9  17  31  53  79 106 138 178 221 263 314
#     4  10  23  43  61  76 101 139 178 216 263 319
#     4  10  20  33  52  81 116 152 186 218 257 311
#     4   9  18  35  58  80 104 137 178 221 262 311
#     4  11  23  37  54  77 107 141 176 219 273 328
#
# _framework density 19.639600999999999
#
# number of rings (size 3 to 8) (size 9 to 14) (size 15 to 20)
#    0.000    2.500    0.000    3.750    0.000    7.500 
#    0.000    3.750    0.000    4.500    0.000    0.000 
#    0.000    0.000    0.000    0.000    0.000    0.000 
#
# Total GULP energy -793298.528261 kJ/mol
# GULP energy per Si atom -12395.289504 kJ/mol
# Density = 1.959490 g / cm^3
# Si number density = 19.639601 Si / 1000 Ang^3
#
#
#
# Elastic Constant Matrix: (Units=GPa)
#
#
# Indices 1 2 3 4 5 6 
#
# 1 56.7945 39.1682 38.5589 0.0000 0.0000 0.0000
# 2 39.1682 89.2459 61.9470 0.0000 0.0000 0.0000
# 3 38.5589 61.9470 105.9274 0.0000 0.0000 0.0000
# 4 0.0000 0.0000 0.0000 25.0671 0.0000 0.0000
# 5 0.0000 0.0000 0.0000 0.0000 28.3218 0.0000
# 6 0.0000 0.0000 0.0000 0.0000 0.0000 24.0870
#
#
#
# Elastic Compliance Matrix: (Units=1/GPa)
#
#
# Indices 1 2 3 4 5 6 
#
# 1 0.026632 -0.008348 -0.004812 0.000000 0.000000 0.000000
# 2 -0.008348 0.021478 -0.009522 0.000000 0.000000 0.000000
# 3 -0.004812 -0.009522 0.016761 0.000000 0.000000 0.000000
# 4 0.000000 0.000000 0.000000 0.039893 0.000000 0.000000
# 5 0.000000 0.000000 0.000000 0.000000 0.035308 0.000000
# 6 0.000000 0.000000 0.000000 0.000000 0.000000 0.041516
#
#
# Mechanical properties :
#
#
# Convention : Reuss Voigt Hill
#
# Bulk Modulus (GPa) = 51.26550 59.03511 55.15031
# Shear Modulus (GPa) = 21.41757 22.98143 22.19950
#
# Velocity S-wave (km/s) = 3.30590 3.42447 3.36571
# Velocity P-wave (km/s) = 6.38214 6.76465 6.57618
#
# Compressibility (1/GPa) = 0.01950629
#
# Stress axis : x y z
#
# Youngs Moduli (GPa) = 37.54948 46.55974 59.66382
#
# Poissons Ratio (x) = 0.38866 0.28713
# Poissons Ratio (y) = 0.31345 0.56810
# Poissons Ratio (z) = 0.18071 0.44333
#
# Static dielectric constant tensor:
#      x y z
#    x 3.671560 0.000000 0.000000 
#    y 0.000000 3.503160 0.000000 
#    z 0.000000 0.000000 3.551640 
# 
# 
# High freq. dielectric constant tensor:
#      x y z
#    x 1.777860 0.000000 0.000000 
#    y 0.000000 1.744440 0.000000 
#    z 0.000000 0.000000 1.753720 
# 
# From -- ./inp_files/35843.got.cif
#   From: 2010.03.12/outbox.cif.g09.slc.cpg/sg51_18_cif.got.tgz:35843.got - 2010.04.16 13:43:02.
