data_PCOD8211418
_publ_section_title
;
Structure prediction by ZEFSAII (Michael W. Deem and Ramdas Pophale) SiO2 
 PCOD8211418
Probable space group: P M M A
;
_chemical_formula_sum "Si O2"
_cell_formula_units_Z 64
_cell_length_a 9.048147
_cell_length_b 14.116309
_cell_length_c 31.463237
_cell_angle_alpha 90.000000
_cell_angle_beta 90.000000
_cell_angle_gamma 90.000000
_cell_volume 4018.687219
_symmetry_space_group_name_H-M "P M M A"
_symmetry_group_IT_number 51
_symmetry_cell_setting 'orthorhombic'
loop_
_space_group_symop_operation_xyz
x,y,z
1/2-x,-y,z
1/2+x,-y,-z
-x,y,-z
-x,-y,-z
1/2+x,y,-z
1/2-x,y,z
x,-y,z
loop_
_atom_site_type_symbol
_atom_site_label
_atom_site_fract_x
_atom_site_fract_y
_atom_site_fract_z
Si Si1 0.078232 0.892893 0.170463
Si Si2 0.916159 0.612969 0.632740
Si Si3 0.576404 0.721266 0.958384
Si Si4 0.424062 0.392921 0.715228
Si Si5 0.578930 0.610182 0.873031
Si Si6 0.574512 0.280602 0.202306
Si Si7 0.076994 0.609162 0.459490
Si Si8 0.578063 0.892131 0.080930
O O1 0.250000 0.867599 0.164535
O O2 0.002099 0.822456 0.203957
O O3 0.998613 0.876402 0.126000
O O4 0.056904 0.000000 0.187028
O O5 0.750000 0.647759 0.641168
O O6 0.922425 0.500000 0.630883
O O7 0.971576 0.652301 0.586575
O O8 0.015091 0.652094 0.671384
O O9 0.750000 0.733822 0.965921
O O10 0.541660 0.652965 0.918989
O O11 0.502697 0.824365 0.952360
O O12 0.500000 0.675401 0.000000
O O13 0.250000 0.391555 0.712288
O O14 0.483262 0.500000 0.721282
O O15 0.480180 0.332993 0.755225
O O16 0.750000 0.627250 0.861331
O O17 0.538750 0.500000 0.874063
O O18 0.477350 0.660459 0.838412
O O19 0.750000 0.269547 0.200764
O O20 0.250000 0.621163 0.465135
O O21 0.028793 0.500000 0.459575
O O22 0.000000 0.660723 0.500000
O O23 0.750000 0.865302 0.085204
O O24 0.557644 0.000000 0.065334
#
# Coordination Sequence:
#
# PCOD8211418 Si02
#       8
#     8   8   8   8   8   8   8   8
#     4  10  20  34  53  76 100 124 149 179 218 265
#     4   8  14  24  36  51  74 106 145 188 230 271
#     4  11  23  38  56  76 100 127 155 187 222 264
#     4   9  18  30  42  61  89 119 152 189 228 268
#     4  10  22  39  56  74  96 123 156 191 225 264
#     4  11  21  33  52  75  98 122 152 188 226 269
#     4   8  13  20  30  46  68  96 136 184 230 273
#     4  10  20  35  56  80 103 125 149 179 218 264
#
# _framework density 15.925599
#
# number of rings (size 3 to 8) (size 9 to 14) (size 15 to 20)
#    0.000    2.375    1.250    2.625    0.000    4.750 
#    0.000    3.750    0.000    0.000    0.000    0.000 
#    0.000    0.000    0.000    0.000    0.000    0.625 
#
# Total GULP energy -793393.163489 kJ/mol
# GULP energy per Si atom -12396.768180 kJ/mol
# Density = 1.588935 g / cm^3
# Si number density = 15.925599 Si / 1000 Ang^3
#
#
#
# Elastic Constant Matrix: (Units=GPa)
#
#
# Indices 1 2 3 4 5 6 
#
# 1 65.7432 30.7371 48.3990 0.0000 0.0000 0.0000
# 2 30.7371 67.2993 39.6250 0.0000 0.0000 0.0000
# 3 48.3990 39.6250 127.4521 0.0000 0.0000 0.0000
# 4 0.0000 0.0000 0.0000 6.0854 0.0000 0.0000
# 5 0.0000 0.0000 0.0000 0.0000 30.5690 0.0000
# 6 0.0000 0.0000 0.0000 0.0000 0.0000 19.4203
#
#
#
# Elastic Compliance Matrix: (Units=1/GPa)
#
#
# Indices 1 2 3 4 5 6 
#
# 1 0.023317 -0.006654 -0.006786 0.000000 0.000000 0.000000
# 2 -0.006654 0.020087 -0.003718 0.000000 0.000000 0.000000
# 3 -0.006786 -0.003718 0.011579 0.000000 0.000000 0.000000
# 4 0.000000 0.000000 0.000000 0.164328 0.000000 0.000000
# 5 0.000000 0.000000 0.000000 0.000000 0.032713 0.000000
# 6 0.000000 0.000000 0.000000 0.000000 0.000000 0.051493
#
#
# Mechanical properties :
#
#
# Convention : Reuss Voigt Hill
#
# Bulk Modulus (GPa) = 48.38600 55.33519 51.86060
# Shear Modulus (GPa) = 14.50442 20.66382 17.58412
#
# Velocity S-wave (km/s) = 3.02116 3.60602 3.32647
# Velocity P-wave (km/s) = 6.52827 7.22214 6.88396
#
# Compressibility (1/GPa) = 0.02066714
#
# Stress axis : x y z
#
# Youngs Moduli (GPa) = 42.88652 49.78245 86.36345
#
# Poissons Ratio (x) = 0.33126 0.58605
# Poissons Ratio (y) = 0.28537 0.32113
# Poissons Ratio (z) = 0.29102 0.18511
#
# Static dielectric constant tensor:
#      x y z
#    x 3.076760 0.000000 0.000000 
#    y 0.000000 2.893030 0.000000 
#    z 0.000000 0.000000 3.303640 
# 
# 
# High freq. dielectric constant tensor:
#      x y z
#    x 1.620600 0.000000 0.000000 
#    y 0.000000 1.570710 0.000000 
#    z 0.000000 0.000000 1.609720 
# 
# From -- ./inp_files/37657.got.cif
#   From: 2010.03.12/outbox.cif.g09.slc.cpg/sg51_19_cif.got.tgz:37657.got - 2010.04.16 13:43:02.
