data_PCOD8211640
_publ_section_title
;
Structure prediction by ZEFSAII (Michael W. Deem and Ramdas Pophale) SiO2 
 PCOD8211640
Probable space group: P M M A
;
_chemical_formula_sum "Si O2"
_cell_formula_units_Z 64
_cell_length_a 19.920909
_cell_length_b 8.877946
_cell_length_c 19.768805
_cell_angle_alpha 90.000000
_cell_angle_beta 90.000000
_cell_angle_gamma 90.000000
_cell_volume 3496.246690
_symmetry_space_group_name_H-M "P M M A"
_symmetry_group_IT_number 51
_symmetry_cell_setting 'orthorhombic'
loop_
_space_group_symop_operation_xyz
x,y,z
1/2-x,-y,z
1/2+x,-y,-z
-x,y,-z
-x,-y,-z
1/2+x,y,-z
1/2-x,y,z
x,-y,z
loop_
_atom_site_type_symbol
_atom_site_label
_atom_site_fract_x
_atom_site_fract_y
_atom_site_fract_z
Si Si1 0.827819 0.675542 0.065938
Si Si2 0.671763 0.824628 0.925447
Si Si3 0.928838 0.177222 0.167472
Si Si4 0.824252 0.320777 0.571195
Si Si5 0.932307 0.322199 0.828117
Si Si6 0.928888 0.174850 0.323283
Si Si7 0.328683 0.328585 0.580328
Si Si8 0.065238 0.677206 0.326812
O O1 0.750000 0.704564 0.082628
O O2 0.843248 0.500000 0.055977
O O3 0.870013 0.740816 0.127494
O O4 0.849687 0.761910 0.998280
O O5 0.750000 0.794822 0.911930
O O6 0.631907 0.734830 0.868511
O O7 0.653625 0.000000 0.922203
O O8 0.915936 0.218218 0.245493
O O9 0.000874 0.241264 0.143981
O O10 0.926760 0.000000 0.153218
O O11 0.750000 0.256439 0.587834
O O12 0.821579 0.500000 0.574741
O O13 0.846231 0.273049 0.495558
O O14 0.876368 0.254058 0.625695
O O15 0.940979 0.500000 0.837108
O O16 0.919765 0.276356 0.750295
O O17 0.864771 0.221995 0.366292
O O18 0.994501 0.257981 0.351649
O O19 0.942072 0.000000 0.331228
O O20 0.250000 0.314873 0.593563
O O21 0.352829 0.500000 0.591078
O O22 0.062006 0.500000 0.335596
#
# Coordination Sequence:
#
# PCOD8211640 Si02
#       8
#     8   8   8   8   8   8   8   8
#     4  10  21  37  57  81 107 133 167 215 262 302
#     4  10  21  37  56  78 107 142 175 207 249 306
#     4  10  21  37  55  75 103 139 175 210 254 311
#     4   8  15  30  52  77 102 130 169 214 257 302
#     4  10  20  34  54  80 107 135 172 218 262 302
#     4  10  21  35  51  73 104 138 170 209 254 304
#     4   9  18  33  53  75 100 132 171 214 256 302
#     4   9  18  33  54  77 102 134 171 213 257 303
#
# _framework density 18.305344000000002
#
# number of rings (size 3 to 8) (size 9 to 14) (size 15 to 20)
#    0.000    2.500    0.000    2.625    0.000    5.750 
#    0.000    9.375    0.000    1.125    0.000    0.000 
#    0.000    0.000    0.000    0.000    0.000    0.000 
#
# Total GULP energy -793740.024360 kJ/mol
# GULP energy per Si atom -12402.187881 kJ/mol
# Density = 1.826368 g / cm^3
# Si number density = 18.305344 Si / 1000 Ang^3
#
#
#
# Elastic Constant Matrix: (Units=GPa)
#
#
# Indices 1 2 3 4 5 6 
#
# 1 89.0975 26.2752 61.5377 0.0000 0.0000 0.0000
# 2 26.2752 31.8390 24.5887 0.0000 0.0000 0.0000
# 3 61.5377 24.5887 88.0680 0.0000 0.0000 0.0000
# 4 0.0000 0.0000 0.0000 23.9338 0.0000 0.0000
# 5 0.0000 0.0000 0.0000 0.0000 35.9520 0.0000
# 6 0.0000 0.0000 0.0000 0.0000 0.0000 26.5329
#
#
#
# Elastic Compliance Matrix: (Units=1/GPa)
#
#
# Indices 1 2 3 4 5 6 
#
# 1 0.023372 -0.008510 -0.013955 0.000000 0.000000 0.000000
# 2 -0.008510 0.043141 -0.006098 0.000000 0.000000 0.000000
# 3 -0.013955 -0.006098 0.022809 0.000000 0.000000 0.000000
# 4 0.000000 0.000000 0.000000 0.041782 0.000000 0.000000
# 5 0.000000 0.000000 0.000000 0.000000 0.027815 0.000000
# 6 0.000000 0.000000 0.000000 0.000000 0.000000 0.037689
#
#
# Mechanical properties :
#
#
# Convention : Reuss Voigt Hill
#
# Bulk Modulus (GPa) = 31.06183 48.20087 39.63135
# Shear Modulus (GPa) = 18.90603 23.72393 21.31498
#
# Velocity S-wave (km/s) = 3.21723 3.60392 3.41605
# Velocity P-wave (km/s) = 5.55034 6.61108 6.10380
#
# Compressibility (1/GPa) = 0.03219385
#
# Stress axis : x y z
#
# Youngs Moduli (GPa) = 42.78660 23.17982 43.84321
#
# Poissons Ratio (x) = 0.19727 0.61183
# Poissons Ratio (y) = 0.36414 0.26737
# Poissons Ratio (z) = 0.59708 0.14136
#
# Static dielectric constant tensor:
#      x y z
#    x 3.453940 0.000000 0.000000 
#    y 0.000000 3.298060 0.000000 
#    z 0.000000 0.000000 3.435480 
# 
# 
# High freq. dielectric constant tensor:
#      x y z
#    x 1.713320 0.000000 0.000000 
#    y 0.000000 1.703920 0.000000 
#    z 0.000000 0.000000 1.710520 
# 
# From -- ./inp_files/30554.got.cif
#   From: 2010.03.12/outbox.cif.g09.slc.cpg/sg51_16_cif.got.tgz:30554.got - 2010.04.16 13:43:02.
