data_PCOD8211674
_publ_section_title
;
Structure prediction by ZEFSAII (Michael W. Deem and Ramdas Pophale) SiO2 
 PCOD8211674
Probable space group: P M M A
;
_chemical_formula_sum "Si O2"
_cell_formula_units_Z 44
_cell_length_a 9.430462
_cell_length_b 8.143339
_cell_length_c 29.622500
_cell_angle_alpha 90.000000
_cell_angle_beta 90.000000
_cell_angle_gamma 90.000000
_cell_volume 2274.873188
_symmetry_space_group_name_H-M "P M M A"
_symmetry_group_IT_number 51
_symmetry_cell_setting 'orthorhombic'
loop_
_space_group_symop_operation_xyz
x,y,z
1/2-x,-y,z
1/2+x,-y,-z
-x,y,-z
-x,-y,-z
1/2+x,y,-z
1/2-x,y,z
x,-y,z
loop_
_atom_site_type_symbol
_atom_site_label
_atom_site_fract_x
_atom_site_fract_y
_atom_site_fract_z
Si Si1 0.589735 0.688489 0.215033
Si Si2 0.592933 0.691592 0.960040
Si Si3 0.088765 0.810124 0.295142
Si Si4 0.081947 0.182275 0.397173
Si Si5 0.080402 0.500000 0.453196
Si Si6 0.591497 0.810996 0.865894
O O1 0.750000 0.755705 0.219131
O O2 0.588912 0.500000 0.200782
O O3 0.512961 0.707358 0.262960
O O4 0.509006 0.787952 0.176691
O O5 0.750000 0.771056 0.961643
O O6 0.602807 0.500000 0.969137
O O7 0.527030 0.722831 0.910343
O O8 0.500000 0.773470 0.000000
O O9 0.250000 0.744820 0.290538
O O10 0.031599 0.785252 0.346023
O O11 0.082666 0.000000 0.281076
O O12 0.250000 0.177072 0.397651
O O13 0.028304 0.333952 0.427717
O O14 0.026326 0.000000 0.413441
O O15 0.250000 0.500000 0.459778
O O16 0.000000 0.500000 0.500000
O O17 0.750000 0.742521 0.854745
O O18 0.599704 0.000000 0.877794
#
# Coordination Sequence:
#
# PCOD8211674 Si02
#       6
#     8   8   8   8   4   8
#     4  11  24  37  50  75 109 142 174 212 262 319
#     4   9  18  33  53  76 102 132 167 209 257 307
#     4   9  18  34  57  82 104 132 176 224 266 314
#     4   8  16  32  54  80 108 139 181 229 271 320
#     4  10  20  34  54  80 110 146 184 226 275 320
#     4  10  21  37  56  77 102 135 177 220 258 306
#
# _framework density 19.341736999999998
#
# number of rings (size 3 to 8) (size 9 to 14) (size 15 to 20)
#    0.000    2.545    0.000    2.727    1.273    6.545 
#    0.000    2.727    0.000    1.091    0.000    0.000 
#    0.000    0.000    0.000    0.000    0.000    0.000 
#
# Total GULP energy -545434.711891 kJ/mol
# GULP energy per Si atom -12396.243452 kJ/mol
# Density = 1.929771 g / cm^3
# Si number density = 19.341737 Si / 1000 Ang^3
#
#
#
# Elastic Constant Matrix: (Units=GPa)
#
#
# Indices 1 2 3 4 5 6 
#
# 1 77.5670 27.3907 54.0149 0.0000 0.0000 0.0000
# 2 27.3907 76.4629 46.4532 0.0000 0.0000 0.0000
# 3 54.0149 46.4532 136.3306 0.0000 0.0000 0.0000
# 4 0.0000 0.0000 0.0000 22.1210 0.0000 0.0000
# 5 0.0000 0.0000 0.0000 0.0000 33.7815 0.0000
# 6 0.0000 0.0000 0.0000 0.0000 0.0000 18.7420
#
#
#
# Elastic Compliance Matrix: (Units=1/GPa)
#
#
# Indices 1 2 3 4 5 6 
#
# 1 0.018237 -0.002703 -0.006305 0.000000 0.000000 0.000000
# 2 -0.002703 0.016893 -0.004685 0.000000 0.000000 0.000000
# 3 -0.006305 -0.004685 0.011429 0.000000 0.000000 0.000000
# 4 0.000000 0.000000 0.000000 0.045206 0.000000 0.000000
# 5 0.000000 0.000000 0.000000 0.000000 0.029602 0.000000
# 6 0.000000 0.000000 0.000000 0.000000 0.000000 0.053356
#
#
# Mechanical properties :
#
#
# Convention : Reuss Voigt Hill
#
# Bulk Modulus (GPa) = 52.15373 60.67535 56.41454
# Shear Modulus (GPa) = 23.98090 25.76235 24.87163
#
# Velocity S-wave (km/s) = 3.52497 3.65356 3.58984
# Velocity P-wave (km/s) = 6.60228 7.01685 6.81272
#
# Compressibility (1/GPa) = 0.01917408
#
# Stress axis : x y z
#
# Youngs Moduli (GPa) = 54.83432 59.19688 87.49295
#
# Poissons Ratio (x) = 0.15999 0.55161
# Poissons Ratio (y) = 0.14819 0.40993
# Poissons Ratio (z) = 0.34571 0.27735
#
# Static dielectric constant tensor:
#      x y z
#    x 3.630630 0.000000 0.000000 
#    y 0.000000 3.662390 0.000000 
#    z 0.000000 0.000000 3.518470 
# 
# 
# High freq. dielectric constant tensor:
#      x y z
#    x 1.723020 0.000000 0.000000 
#    y 0.000000 1.753490 0.000000 
#    z 0.000000 0.000000 1.755400 
# 
# From -- ./inp_files/36801.got.cif
#   From: 2010.03.12/outbox.cif.g09.slc.cpg/sg51_19_cif.got.tgz:36801.got - 2010.04.16 13:43:02.
