data_PCOD8211990
_publ_section_title
;
Structure prediction by ZEFSAII (Michael W. Deem and Ramdas Pophale) SiO2 
 PCOD8211990
Probable space group: P M M A
;
_chemical_formula_sum "Si O2"
_cell_formula_units_Z 44
_cell_length_a 8.966646
_cell_length_b 13.375754
_cell_length_c 19.167948
_cell_angle_alpha 90.000000
_cell_angle_beta 90.000000
_cell_angle_gamma 90.000000
_cell_volume 2298.920324
_symmetry_space_group_name_H-M "P M M A"
_symmetry_group_IT_number 51
_symmetry_cell_setting 'orthorhombic'
loop_
_space_group_symop_operation_xyz
x,y,z
1/2-x,-y,z
1/2+x,-y,-z
-x,y,-z
-x,-y,-z
1/2+x,y,-z
1/2-x,y,z
x,-y,z
loop_
_atom_site_type_symbol
_atom_site_label
_atom_site_fract_x
_atom_site_fract_y
_atom_site_fract_z
Si Si1 0.916349 0.614285 0.286974
Si Si2 0.576993 0.704573 0.429192
Si Si3 0.576974 0.888504 0.801080
Si Si4 0.922228 0.678502 0.842852
Si Si5 0.927539 0.500000 0.075208
Si Si6 0.073866 0.109457 0.655046
O O1 0.750000 0.661140 0.275334
O O2 0.912543 0.500000 0.265244
O O3 0.960502 0.625581 0.368063
O O4 0.039300 0.666319 0.238742
O O5 0.500000 0.669948 0.500000
O O6 0.750000 0.709054 0.446040
O O7 0.516268 0.812201 0.402599
O O8 0.750000 0.886296 0.780933
O O9 0.545867 0.797890 0.857136
O O10 0.487094 0.864617 0.731176
O O11 0.534181 0.000000 0.830850
O O12 0.750000 0.651423 0.856957
O O13 0.023364 0.603039 0.887430
O O14 0.750000 0.500000 0.070106
O O15 0.000000 0.500000 0.000000
O O16 0.250000 0.116238 0.661532
O O17 0.019813 0.000000 0.630848
#
# Coordination Sequence:
#
# PCOD8211990 Si02
#       6
#     8   8   8   8   4   8
#     4  10  20  35  54  76 104 142 186 234 289 347
#     4  10  21  34  47  67  98 138 187 238 295 350
#     4   9  18  32  53  84 119 152 188 234 284 334
#     4  11  21  35  60  92 122 153 193 234 278 335
#     4  12  26  44  66  94 129 160 189 228 276 328
#     4   9  17  30  48  70  98 134 181 236 289 344
#
# _framework density 19.139419
#
# number of rings (size 3 to 8) (size 9 to 14) (size 15 to 20)
#    0.000    2.000    2.727    1.364    0.000    2.909 
#    0.000    0.000    0.000    0.545    0.000    0.000 
#    0.000    0.000    0.000    0.000    0.000    0.000 
#
# Total GULP energy -545186.784549 kJ/mol
# GULP energy per Si atom -12390.608740 kJ/mol
# Density = 1.909586 g / cm^3
# Si number density = 19.139419 Si / 1000 Ang^3
#
#
#
# Elastic Constant Matrix: (Units=GPa)
#
#
# Indices 1 2 3 4 5 6 
#
# 1 66.5650 30.8496 33.7895 0.0000 0.0000 0.0000
# 2 30.8496 99.5815 42.3165 0.0000 0.0000 0.0000
# 3 33.7895 42.3165 72.1393 0.0000 0.0000 0.0000
# 4 0.0000 0.0000 0.0000 18.8826 0.0000 0.0000
# 5 0.0000 0.0000 0.0000 0.0000 30.0592 0.0000
# 6 0.0000 0.0000 0.0000 0.0000 0.0000 20.0733
#
#
#
# Elastic Compliance Matrix: (Units=1/GPa)
#
#
# Indices 1 2 3 4 5 6 
#
# 1 0.020362 -0.003004 -0.007775 0.000000 0.000000 0.000000
# 2 -0.003004 0.013819 -0.006699 0.000000 0.000000 0.000000
# 3 -0.007775 -0.006699 0.021434 0.000000 0.000000 0.000000
# 4 0.000000 0.000000 0.000000 0.052959 0.000000 0.000000
# 5 0.000000 0.000000 0.000000 0.000000 0.033268 0.000000
# 6 0.000000 0.000000 0.000000 0.000000 0.000000 0.049817
#
#
# Mechanical properties :
#
#
# Convention : Reuss Voigt Hill
#
# Bulk Modulus (GPa) = 48.40750 50.24413 49.32581
# Shear Modulus (GPa) = 21.41306 22.55837 21.98571
#
# Velocity S-wave (km/s) = 3.34847 3.43685 3.39294
# Velocity P-wave (km/s) = 6.34796 6.48520 6.41695
#
# Compressibility (1/GPa) = 0.02065796
#
# Stress axis : x y z
#
# Youngs Moduli (GPa) = 49.11117 72.36153 46.65527
#
# Poissons Ratio (x) = 0.21737 0.36276
# Poissons Ratio (y) = 0.14753 0.31256
# Poissons Ratio (z) = 0.38185 0.48478
#
# Static dielectric constant tensor:
#      x y z
#    x 3.435350 0.000000 0.000000 
#    y 0.000000 4.081550 0.000000 
#    z 0.000000 0.000000 3.202900 
# 
# 
# High freq. dielectric constant tensor:
#      x y z
#    x 1.738320 0.000000 0.000000 
#    y 0.000000 1.768370 0.000000 
#    z 0.000000 0.000000 1.702860 
# 
# From -- ./inp_files/27405.got.cif
#   From: 2010.03.12/outbox.cif.g09.slc.cpg/sg51_14_cif.got.tgz:27405.got - 2010.04.16 13:43:02.
