data_PCOD8211299
_publ_section_title
;
Structure prediction by ZEFSAII (Michael W. Deem and Ramdas Pophale) SiO2 
 PCOD8211299
Probable space group: P M M A
;
_chemical_formula_sum "Si O2"
_cell_formula_units_Z 64
_cell_length_a 9.586512
_cell_length_b 18.308019
_cell_length_c 19.238681
_cell_angle_alpha 90.000000
_cell_angle_beta 90.000000
_cell_angle_gamma 90.000000
_cell_volume 3376.581746
_symmetry_space_group_name_H-M "P M M A"
_symmetry_group_IT_number 51
_symmetry_cell_setting 'orthorhombic'
loop_
_space_group_symop_operation_xyz
x,y,z
1/2-x,-y,z
1/2+x,-y,-z
-x,y,-z
-x,-y,-z
1/2+x,y,-z
1/2-x,y,z
x,-y,z
loop_
_atom_site_type_symbol
_atom_site_label
_atom_site_fract_x
_atom_site_fract_y
_atom_site_fract_z
Si Si1 0.405738 0.743860 0.305263
Si Si2 0.598388 0.417684 0.152319
Si Si3 0.091780 0.231754 0.563069
Si Si4 0.093121 0.181286 0.160824
Si Si5 0.019137 0.420371 0.297490
Si Si6 0.593576 0.318637 0.932856
Si Si7 0.911308 0.086108 0.068047
Si Si8 0.101507 0.401744 0.555729
O O1 0.250000 0.770548 0.324572
O O2 0.511737 0.774954 0.363115
O O3 0.454261 0.779610 0.232306
O O4 0.392960 0.655131 0.299378
O O5 0.750000 0.384693 0.130914
O O6 0.587661 0.500000 0.124425
O O7 0.590776 0.414174 0.235358
O O8 0.468425 0.374529 0.122309
O O9 0.250000 0.197532 0.567508
O O10 0.106845 0.315687 0.545446
O O11 0.000000 0.195290 0.500000
O O12 0.250000 0.148363 0.168751
O O13 0.093619 0.238811 0.098797
O O14 0.982072 0.119801 0.137563
O O15 0.101029 0.500000 0.289613
O O16 0.933761 0.425801 0.367511
O O17 0.750000 0.344062 0.951368
O O18 0.500000 0.319307 0.000000
O O19 0.750000 0.112973 0.060266
O O20 0.915500 0.000000 0.078202
O O21 0.000000 0.109388 0.000000
O O22 0.250000 0.435443 0.537482
O O23 0.000000 0.438034 0.500000
#
# Coordination Sequence:
#
# PCOD8211299 Si02
#       8
#     8   8   8   8   8   8   8   8
#     4  10  20  35  52  76 107 138 177 226 273 324
#     4  10  21  37  56  75  94 124 170 223 276 326
#     4   9  17  30  49  73  99 135 177 222 274 326
#     4  10  21  37  56  82 113 145 180 217 260 309
#     4  10  20  34  52  72  96 130 175 225 275 328
#     4  11  23  39  56  78 103 132 169 213 264 318
#     4  10  21  37  59  88 119 151 184 216 254 305
#     4   9  18  31  46  66  92 123 163 213 267 324
#
# _framework density 18.954080000000001
#
# number of rings (size 3 to 8) (size 9 to 14) (size 15 to 20)
#    0.000    2.125    1.250    1.875    0.000    8.500 
#    0.000    1.250    0.000    0.000    0.000    0.000 
#    0.000    0.500    0.000    1.625    0.000    2.375 
#
# Total GULP energy -792865.635128 kJ/mol
# GULP energy per Si atom -12388.525549 kJ/mol
# Density = 1.891094 g / cm^3
# Si number density = 18.954080 Si / 1000 Ang^3
#
#
#
# Elastic Constant Matrix: (Units=GPa)
#
#
# Indices 1 2 3 4 5 6 
#
# 1 156.4938 33.2625 73.0527 0.0000 0.0000 0.0000
# 2 33.2625 35.6766 31.1790 0.0000 0.0000 0.0000
# 3 73.0527 31.1790 127.4396 0.0000 0.0000 0.0000
# 4 0.0000 0.0000 0.0000 24.0820 0.0000 0.0000
# 5 0.0000 0.0000 0.0000 0.0000 28.8042 0.0000
# 6 0.0000 0.0000 0.0000 0.0000 0.0000 34.1452
#
#
#
# Elastic Compliance Matrix: (Units=1/GPa)
#
#
# Indices 1 2 3 4 5 6 
#
# 1 0.009419 -0.005168 -0.004135 0.000000 0.000000 0.000000
# 2 -0.005168 0.038488 -0.006454 0.000000 0.000000 0.000000
# 3 -0.004135 -0.006454 0.011796 0.000000 0.000000 0.000000
# 4 0.000000 0.000000 0.000000 0.041525 0.000000 0.000000
# 5 0.000000 0.000000 0.000000 0.000000 0.034717 0.000000
# 6 0.000000 0.000000 0.000000 0.000000 0.000000 0.029287
#
#
# Mechanical properties :
#
#
# Convention : Reuss Voigt Hill
#
# Bulk Modulus (GPa) = 35.47401 66.06650 50.77026
# Shear Modulus (GPa) = 24.25524 29.54732 26.90128
#
# Velocity S-wave (km/s) = 3.58115 3.95256 3.77143
# Velocity P-wave (km/s) = 5.98798 7.46740 6.76823
#
# Compressibility (1/GPa) = 0.02818965
#
# Stress axis : x y z
#
# Youngs Moduli (GPa) = 106.17347 25.98205 84.77429
#
# Poissons Ratio (x) = 0.13427 0.35052
# Poissons Ratio (y) = 0.54868 0.54714
# Poissons Ratio (z) = 0.43900 0.16769
#
# Static dielectric constant tensor:
#      x y z
#    x 3.834500 0.000000 0.000000 
#    y 0.000000 3.179520 0.000000 
#    z 0.000000 0.000000 3.516860 
# 
# 
# High freq. dielectric constant tensor:
#      x y z
#    x 1.745230 0.000000 0.000000 
#    y 0.000000 1.688890 0.000000 
#    z 0.000000 0.000000 1.741760 
# 
# From -- ./inp_files/32389.got.cif
#   From: 2010.03.12/outbox.cif.g09.slc.cpg/sg51_17_cif.got.tgz:32389.got - 2010.04.16 13:43:02.
