data_PCOD8211712
_publ_section_title
;
Structure prediction by ZEFSAII (Michael W. Deem and Ramdas Pophale) SiO2 
 PCOD8211712
Probable space group: P M M A
;
_chemical_formula_sum "Si O2"
_cell_formula_units_Z 64
_cell_length_a 17.785822
_cell_length_b 8.923513
_cell_length_c 21.504235
_cell_angle_alpha 90.000000
_cell_angle_beta 90.000000
_cell_angle_gamma 90.000000
_cell_volume 3412.980443
_symmetry_space_group_name_H-M "P M M A"
_symmetry_group_IT_number 51
_symmetry_cell_setting 'orthorhombic'
loop_
_space_group_symop_operation_xyz
x,y,z
1/2-x,-y,z
1/2+x,-y,-z
-x,y,-z
-x,-y,-z
1/2+x,y,-z
1/2-x,y,z
x,-y,z
loop_
_atom_site_type_symbol
_atom_site_label
_atom_site_fract_x
_atom_site_fract_y
_atom_site_fract_z
Si Si1 0.100747 0.827545 0.250596
Si Si2 0.336929 0.671952 0.498653
Si Si3 0.583351 0.176720 0.389820
Si Si4 0.666388 0.328206 0.863607
Si Si5 0.054689 0.826816 0.816688
Si Si6 0.838318 0.672878 0.274255
Si Si7 0.924530 0.327010 0.625884
Si Si8 0.017655 0.324492 0.068905
O O1 0.156932 0.773847 0.196993
O O2 0.115960 0.730194 0.311796
O O3 0.015051 0.802237 0.229527
O O4 0.117458 0.000000 0.265189
O O5 0.250000 0.716402 0.501323
O O6 0.349481 0.500000 0.519515
O O7 0.382733 0.779548 0.543885
O O8 0.365486 0.697689 0.429063
O O9 0.633735 0.245789 0.335864
O O10 0.498409 0.231748 0.387088
O O11 0.583791 0.000000 0.381405
O O12 0.750000 0.301196 0.891242
O O13 0.655168 0.500000 0.842931
O O14 0.604801 0.285972 0.915810
O O15 0.125628 0.742652 0.787575
O O16 0.037640 0.759707 0.884202
O O17 0.074461 0.000000 0.824825
O O18 0.750000 0.695348 0.268667
O O19 0.861363 0.500000 0.278833
O O20 0.947335 0.500000 0.633122
O O21 0.001051 0.500000 0.074618
O O22 0.000000 0.265154 0.000000
#
# Coordination Sequence:
#
# PCOD8211712 Si02
#       8
#     8   8   8   8   8   8   8   8
#     4  10  20  34  54  82 112 143 180 227 283 337
#     4  10  23  42  59  78 107 144 188 235 284 339
#     4  12  24  38  58  84 112 145 186 232 284 342
#     4   9  18  33  54  80 111 149 192 235 281 336
#     4  10  20  35  56  82 114 147 182 228 281 337
#     4  11  23  38  59  85 112 146 188 234 284 338
#     4  11  22  37  60  84 109 146 188 232 279 337
#     4   9  18  34  57  83 113 153 198 240 281 330
#
# _framework density 18.751937999999999
#
# number of rings (size 3 to 8) (size 9 to 14) (size 15 to 20)
#    0.000    1.750    1.250    3.375    0.000    7.250 
#    0.000    1.875    0.000    2.250    0.000    0.000 
#    0.000    0.000    0.000    0.000    0.000    0.000 
#
# Total GULP energy -793902.432365 kJ/mol
# GULP energy per Si atom -12404.725506 kJ/mol
# Density = 1.870926 g / cm^3
# Si number density = 18.751938 Si / 1000 Ang^3
#
#
#
# Elastic Constant Matrix: (Units=GPa)
#
#
# Indices 1 2 3 4 5 6 
#
# 1 69.2690 28.8056 35.8542 0.0000 0.0000 0.0000
# 2 28.8056 95.9526 48.4118 0.0000 0.0000 0.0000
# 3 35.8542 48.4118 122.8896 0.0000 0.0000 0.0000
# 4 0.0000 0.0000 0.0000 10.8296 0.0000 0.0000
# 5 0.0000 0.0000 0.0000 0.0000 20.4860 0.0000
# 6 0.0000 0.0000 0.0000 0.0000 0.0000 13.2209
#
#
#
# Elastic Compliance Matrix: (Units=1/GPa)
#
#
# Indices 1 2 3 4 5 6 
#
# 1 0.017856 -0.003410 -0.003866 0.000000 0.000000 0.000000
# 2 -0.003410 0.013658 -0.004386 0.000000 0.000000 0.000000
# 3 -0.003866 -0.004386 0.010993 0.000000 0.000000 0.000000
# 4 0.000000 0.000000 0.000000 0.092339 0.000000 0.000000
# 5 0.000000 0.000000 0.000000 0.000000 0.048814 0.000000
# 6 0.000000 0.000000 0.000000 0.000000 0.000000 0.075638
#
#
# Mechanical properties :
#
#
# Convention : Reuss Voigt Hill
#
# Bulk Modulus (GPa) = 52.12821 57.13937 54.63379
# Shear Modulus (GPa) = 17.30009 20.57662 18.93836
#
# Velocity S-wave (km/s) = 3.04069 3.31616 3.18140
# Velocity P-wave (km/s) = 6.33931 6.72308 6.53402
#
# Compressibility (1/GPa) = 0.01918347
#
# Stress axis : x y z
#
# Youngs Moduli (GPa) = 56.00478 73.21600 90.96545
#
# Poissons Ratio (x) = 0.24964 0.35170
# Poissons Ratio (y) = 0.19096 0.39896
# Poissons Ratio (z) = 0.21653 0.32111
#
# Static dielectric constant tensor:
#      x y z
#    x 3.438670 0.000000 0.000000 
#    y 0.000000 3.562410 0.000000 
#    z 0.000000 0.000000 3.482700 
# 
# 
# High freq. dielectric constant tensor:
#      x y z
#    x 1.725740 0.000000 0.000000 
#    y 0.000000 1.735260 0.000000 
#    z 0.000000 0.000000 1.725290 
# 
# From -- ./inp_files/33825.got.cif
#   From: 2010.03.12/outbox.cif.g09.slc.cpg/sg51_17_cif.got.tgz:33825.got - 2010.04.16 13:43:02.
