data_PCOD8211989
_publ_section_title
;
Structure prediction by ZEFSAII (Michael W. Deem and Ramdas Pophale) SiO2 
 PCOD8211989
Probable space group: P M M A
;
_chemical_formula_sum "Si O2"
_cell_formula_units_Z 56
_cell_length_a 15.948012
_cell_length_b 15.051170
_cell_length_c 12.250140
_cell_angle_alpha 90.000000
_cell_angle_beta 90.000000
_cell_angle_gamma 90.000000
_cell_volume 2940.477542
_symmetry_space_group_name_H-M "P M M A"
_symmetry_group_IT_number 51
_symmetry_cell_setting 'orthorhombic'
loop_
_space_group_symop_operation_xyz
x,y,z
1/2-x,-y,z
1/2+x,-y,-z
-x,y,-z
-x,-y,-z
1/2+x,y,-z
1/2-x,y,z
x,-y,z
loop_
_atom_site_type_symbol
_atom_site_label
_atom_site_fract_x
_atom_site_fract_y
_atom_site_fract_z
Si Si1 0.151361 0.602145 0.453372
Si Si2 0.656767 0.729690 0.945025
Si Si3 0.572335 0.405564 0.087585
Si Si4 0.406987 0.100503 0.958458
Si Si5 0.064339 0.759714 0.586157
Si Si6 0.653783 0.899599 0.278153
Si Si7 0.953878 0.335913 0.746823
O O1 0.250000 0.624022 0.442496
O O2 0.138100 0.500000 0.493162
O O3 0.109229 0.670308 0.539450
O O4 0.107757 0.611668 0.334997
O O5 0.750000 0.705187 0.908521
O O6 0.597744 0.708081 0.844186
O O7 0.634423 0.674241 0.055161
O O8 0.652994 0.833352 0.975532
O O9 0.621630 0.500000 0.086637
O O10 0.527619 0.397658 0.205013
O O11 0.500000 0.407717 0.000000
O O12 0.402169 0.118615 0.828938
O O13 0.378325 0.000000 0.984869
O O14 0.500000 0.119795 0.000000
O O15 0.131530 0.832990 0.623053
O O16 0.000000 0.802475 0.500000
O O17 0.004348 0.740977 0.687419
O O18 0.750000 0.884150 0.244889
O O19 0.639328 0.000000 0.320525
#
# Coordination Sequence:
#
# PCOD8211989 Si02
#       7
#     8   8   8   8   8   8   8
#     4  10  21  37  57  81 107 135 173 222 271 317
#     4  11  21  33  52  78 110 142 174 217 263 309
#     4   9  18  32  50  72 100 135 173 210 250 304
#     4  10  20  35  56  80 107 140 178 218 260 313
#     4  10  21  35  55  79 105 137 175 222 267 311
#     4  10  20  35  56  80 106 139 178 218 263 315
#     4  10  20  35  54  76 104 141 178 212 258 317
#
# _framework density 19.044526000000001
#
# number of rings (size 3 to 8) (size 9 to 14) (size 15 to 20)
#    0.000    2.000    0.000    4.714    0.000    5.143 
#    0.000    0.714    0.000    0.857    0.000    0.000 
#    0.000    0.000    0.000    0.000    0.000    0.000 
#
# Total GULP energy -694063.844992 kJ/mol
# GULP energy per Si atom -12393.997232 kJ/mol
# Density = 1.900118 g / cm^3
# Si number density = 19.044526 Si / 1000 Ang^3
#
#
#
# Elastic Constant Matrix: (Units=GPa)
#
#
# Indices 1 2 3 4 5 6 
#
# 1 93.9160 47.1866 49.5582 0.0000 0.0000 0.0000
# 2 47.1866 122.0351 55.4431 0.0000 0.0000 0.0000
# 3 49.5582 55.4431 99.1076 0.0000 0.0000 0.0000
# 4 0.0000 0.0000 0.0000 16.9885 0.0000 0.0000
# 5 0.0000 0.0000 0.0000 0.0000 26.0762 0.0000
# 6 0.0000 0.0000 0.0000 0.0000 0.0000 18.3644
#
#
#
# Elastic Compliance Matrix: (Units=1/GPa)
#
#
# Indices 1 2 3 4 5 6 
#
# 1 0.015391 -0.003291 -0.005855 0.000000 0.000000 0.000000
# 2 -0.003291 0.011690 -0.004894 0.000000 0.000000 0.000000
# 3 -0.005855 -0.004894 0.015756 0.000000 0.000000 0.000000
# 4 0.000000 0.000000 0.000000 0.058863 0.000000 0.000000
# 5 0.000000 0.000000 0.000000 0.000000 0.038349 0.000000
# 6 0.000000 0.000000 0.000000 0.000000 0.000000 0.054453
#
#
# Mechanical properties :
#
#
# Convention : Reuss Voigt Hill
#
# Bulk Modulus (GPa) = 67.76681 68.82604 68.29643
# Shear Modulus (GPa) = 21.97776 23.14386 22.56081
#
# Velocity S-wave (km/s) = 3.40077 3.48983 3.44559
# Velocity P-wave (km/s) = 7.14709 7.24269 7.19505
#
# Compressibility (1/GPa) = 0.01475649
#
# Stress axis : x y z
#
# Youngs Moduli (GPa) = 64.97293 85.53988 63.46866
#
# Poissons Ratio (x) = 0.28152 0.37162
# Poissons Ratio (y) = 0.21383 0.31063
# Poissons Ratio (z) = 0.38042 0.41865
#
# Static dielectric constant tensor:
#      x y z
#    x 3.540960 0.000000 0.000000 
#    y 0.000000 3.654850 0.000000 
#    z 0.000000 0.000000 4.256390 
# 
# 
# High freq. dielectric constant tensor:
#      x y z
#    x 1.738530 0.000000 0.000000 
#    y 0.000000 1.743130 0.000000 
#    z 0.000000 0.000000 1.734440 
# 
# From -- ./inp_files/16680.got.cif
#   From: 2010.03.12/outbox.cif.g09.slc.cpg/sg51_9_cif.got.tgz:16680.got - 2010.04.16 13:43:02.
