data_PCOD8211954
_publ_section_title
;
Structure prediction by ZEFSAII (Michael W. Deem and Ramdas Pophale) SiO2 
 PCOD8211954
Probable space group: P M M A
;
_chemical_formula_sum "Si O2"
_cell_formula_units_Z 40
_cell_length_a 9.166317
_cell_length_b 11.727224
_cell_length_c 20.335948
_cell_angle_alpha 90.000000
_cell_angle_beta 90.000000
_cell_angle_gamma 90.000000
_cell_volume 2186.021937
_symmetry_space_group_name_H-M "P M M A"
_symmetry_group_IT_number 51
_symmetry_cell_setting 'orthorhombic'
loop_
_space_group_symop_operation_xyz
x,y,z
1/2-x,-y,z
1/2+x,-y,-z
-x,y,-z
-x,-y,-z
1/2+x,y,-z
1/2-x,y,z
x,-y,z
loop_
_atom_site_type_symbol
_atom_site_label
_atom_site_fract_x
_atom_site_fract_y
_atom_site_fract_z
Si Si1 0.077878 0.500000 0.596736
Si Si2 0.082299 0.629400 0.063955
Si Si3 0.420413 0.717696 0.202153
Si Si4 0.418548 0.133391 0.698290
Si Si5 0.076438 0.500000 0.743629
Si Si6 0.577723 0.747654 0.436820
O O1 0.250000 0.500000 0.599510
O O2 0.017670 0.500000 0.669948
O O3 0.024098 0.384265 0.562115
O O4 0.250000 0.625112 0.044871
O O5 0.029870 0.500000 0.082693
O O6 0.056437 0.719545 0.123258
O O7 0.000000 0.676415 0.000000
O O8 0.250000 0.704548 0.219598
O O9 0.485519 0.828147 0.238953
O O10 0.512331 0.610912 0.224277
O O11 0.250000 0.165196 0.711749
O O12 0.473076 0.194244 0.631322
O O13 0.440834 0.000000 0.688601
O O14 0.250000 0.500000 0.749940
O O15 0.500000 0.806283 0.500000
O O16 0.750000 0.761578 0.445016
#
# Coordination Sequence:
#
# PCOD8211954 Si02
#       6
#     4   8   8   8   4   8
#     4   9  17  32  52  75 106 138 173 213 263 325
#     4   9  18  32  49  77 116 149 176 211 259 317
#     4  11  21  35  55  83 116 143 177 229 277 319
#     4  10  22  40  59  78 103 141 190 235 274 325
#     4  11  19  32  55  81 109 147 185 218 266 329
#     4  10  20  35  53  77 107 140 176 222 273 326
#
# _framework density 18.298078
#
# number of rings (size 3 to 8) (size 9 to 14) (size 15 to 20)
#    0.000    2.000    3.000    1.200    0.000    3.200 
#    0.000    0.000    0.000    0.600    0.000    0.000 
#    0.000    0.000    0.000    0.000    0.000    0.000 
#
# Total GULP energy -495792.517329 kJ/mol
# GULP energy per Si atom -12394.812933 kJ/mol
# Density = 1.825643 g / cm^3
# Si number density = 18.298078 Si / 1000 Ang^3
#
#
#
# Elastic Constant Matrix: (Units=GPa)
#
#
# Indices 1 2 3 4 5 6 
#
# 1 70.1839 29.5275 59.5954 0.0000 0.0000 0.0000
# 2 29.5275 72.9852 40.5961 0.0000 0.0000 0.0000
# 3 59.5954 40.5961 144.3382 0.0000 0.0000 0.0000
# 4 0.0000 0.0000 0.0000 12.4655 0.0000 0.0000
# 5 0.0000 0.0000 0.0000 0.0000 36.1123 0.0000
# 6 0.0000 0.0000 0.0000 0.0000 0.0000 22.4763
#
#
#
# Elastic Compliance Matrix: (Units=1/GPa)
#
#
# Indices 1 2 3 4 5 6 
#
# 1 0.023293 -0.004830 -0.008259 0.000000 0.000000 0.000000
# 2 -0.004830 0.017244 -0.002856 0.000000 0.000000 0.000000
# 3 -0.008259 -0.002856 0.011141 0.000000 0.000000 0.000000
# 4 0.000000 0.000000 0.000000 0.080221 0.000000 0.000000
# 5 0.000000 0.000000 0.000000 0.000000 0.027691 0.000000
# 6 0.000000 0.000000 0.000000 0.000000 0.000000 0.044491
#
#
# Mechanical properties :
#
#
# Convention : Reuss Voigt Hill
#
# Bulk Modulus (GPa) = 50.53250 60.77168 55.65209
# Shear Modulus (GPa) = 20.61273 24.73005 22.67139
#
# Velocity S-wave (km/s) = 3.35997 3.68028 3.52377
# Velocity P-wave (km/s) = 6.53673 7.16543 6.85829
#
# Compressibility (1/GPa) = 0.01978924
#
# Stress axis : x y z
#
# Youngs Moduli (GPa) = 42.93069 57.99164 89.75487
#
# Poissons Ratio (x) = 0.28009 0.74130
# Poissons Ratio (y) = 0.20735 0.25632
# Poissons Ratio (z) = 0.35457 0.16561
#
# Static dielectric constant tensor:
#      x y z
#    x 3.265540 0.000000 0.000000 
#    y 0.000000 3.117030 0.000000 
#    z 0.000000 0.000000 3.579170 
# 
# 
# High freq. dielectric constant tensor:
#      x y z
#    x 1.701580 0.000000 0.000000 
#    y 0.000000 1.682150 0.000000 
#    z 0.000000 0.000000 1.719480 
# 
# From -- ./inp_files/31411.got.cif
#   From: 2010.03.12/outbox.cif.g09.slc.cpg/sg51_16_cif.got.tgz:31411.got - 2010.04.16 13:43:02.
