data_PCOD8211401
_publ_section_title
;
Structure prediction by ZEFSAII (Michael W. Deem and Ramdas Pophale) SiO2 
 PCOD8211401
Probable space group: P M M A
;
_chemical_formula_sum "Si O2"
_cell_formula_units_Z 56
_cell_length_a 19.055194
_cell_length_b 9.202502
_cell_length_c 18.081240
_cell_angle_alpha 90.000000
_cell_angle_beta 90.000000
_cell_angle_gamma 90.000000
_cell_volume 3170.644174
_symmetry_space_group_name_H-M "P M M A"
_symmetry_group_IT_number 51
_symmetry_cell_setting 'orthorhombic'
loop_
_space_group_symop_operation_xyz
x,y,z
1/2-x,-y,z
1/2+x,-y,-z
-x,y,-z
-x,-y,-z
1/2+x,y,-z
1/2-x,y,z
x,-y,z
loop_
_atom_site_type_symbol
_atom_site_label
_atom_site_fract_x
_atom_site_fract_y
_atom_site_fract_z
Si Si1 0.926417 0.171784 0.344096
Si Si2 0.666763 0.840106 0.928484
Si Si3 0.833259 0.340106 0.063602
Si Si4 0.925949 0.672670 0.647864
Si Si5 0.916952 0.159710 0.506049
Si Si6 0.167995 0.330950 0.772024
Si Si7 0.832255 0.831480 0.763912
O O1 0.890640 0.205574 0.424148
O O2 0.873337 0.227272 0.282773
O O3 0.999455 0.255507 0.335173
O O4 0.940304 0.000000 0.335170
O O5 0.750000 0.845656 0.936576
O O6 0.647790 0.779255 0.847148
O O7 0.634802 0.000000 0.936173
O O8 0.633053 0.749727 0.995954
O O9 0.750000 0.346189 0.055709
O O10 0.865346 0.500000 0.056356
O O11 0.852117 0.278339 0.144857
O O12 0.933140 0.500000 0.648039
O O13 0.895276 0.723639 0.568105
O O14 0.871953 0.723566 0.709713
O O15 0.000000 0.149652 0.500000
O O16 0.887084 0.000000 0.528119
O O17 0.250000 0.308733 0.757253
O O18 0.147722 0.500000 0.760747
O O19 0.750000 0.813369 0.749619
O O20 0.854095 0.000000 0.751869
#
# Coordination Sequence:
#
# PCOD8211401 Si02
#       7
#     8   8   8   8   8   8   8
#     4  10  20  34  53  74  96 126 164 201 238 285
#     4   8  14  25  43  67  92 121 159 198 233 273
#     4   8  14  25  42  65  94 127 158 190 233 282
#     4  11  21  32  51  76  99 125 159 199 242 288
#     4   8  16  32  51  70  93 123 160 199 237 282
#     4   9  18  32  49  72 103 133 160 196 243 288
#     4   9  18  33  51  71  99 132 162 197 242 286
#
# _framework density 17.662025
#
# number of rings (size 3 to 8) (size 9 to 14) (size 15 to 20)
#    0.000    3.000    0.000    4.286    0.000    4.857 
#    0.000    3.571    0.000    1.714    0.000    6.000 
#    0.000    0.000    0.000    0.000    0.000    0.000 
#
# Total GULP energy -693945.624830 kJ/mol
# GULP energy per Si atom -12391.886158 kJ/mol
# Density = 1.762183 g / cm^3
# Si number density = 17.662025 Si / 1000 Ang^3
#
#
#
# Elastic Constant Matrix: (Units=GPa)
#
#
# Indices 1 2 3 4 5 6 
#
# 1 33.6821 37.4868 43.9965 0.0000 0.0000 0.0000
# 2 37.4868 116.9760 86.1042 0.0000 0.0000 0.0000
# 3 43.9965 86.1042 167.5516 0.0000 0.0000 0.0000
# 4 0.0000 0.0000 0.0000 28.8334 0.0000 0.0000
# 5 0.0000 0.0000 0.0000 0.0000 69.3941 0.0000
# 6 0.0000 0.0000 0.0000 0.0000 0.0000 22.8708
#
#
#
# Elastic Compliance Matrix: (Units=1/GPa)
#
#
# Indices 1 2 3 4 5 6 
#
# 1 0.052394 -0.010718 -0.008250 0.000000 0.000000 0.000000
# 2 -0.010718 0.015942 -0.005378 0.000000 0.000000 0.000000
# 3 -0.008250 -0.005378 0.010899 0.000000 0.000000 0.000000
# 4 0.000000 0.000000 0.000000 0.034682 0.000000 0.000000
# 5 0.000000 0.000000 0.000000 0.000000 0.014410 0.000000
# 6 0.000000 0.000000 0.000000 0.000000 0.000000 0.043724
#
#
# Mechanical properties :
#
#
# Convention : Reuss Voigt Hill
#
# Bulk Modulus (GPa) = 32.74103 72.59830 52.66967
# Shear Modulus (GPa) = 21.65203 34.26115 27.95659
#
# Velocity S-wave (km/s) = 3.50510 4.40912 3.98284
# Velocity P-wave (km/s) = 5.91259 8.19230 7.14397
#
# Compressibility (1/GPa) = 0.03054271
#
# Stress axis : x y z
#
# Youngs Moduli (GPa) = 19.08603 62.72572 91.75475
#
# Poissons Ratio (x) = 0.67228 0.75699
# Poissons Ratio (y) = 0.20456 0.49350
# Poissons Ratio (z) = 0.15746 0.33737
#
# Static dielectric constant tensor:
#      x y z
#    x 2.768440 0.000000 0.000000 
#    y 0.000000 3.415220 0.000000 
#    z 0.000000 0.000000 3.734080 
# 
# 
# High freq. dielectric constant tensor:
#      x y z
#    x 1.627940 0.000000 0.000000 
#    y 0.000000 1.680180 0.000000 
#    z 0.000000 0.000000 1.703240 
# 
# From -- ./inp_files/25661.got.cif
#   From: 2010.03.12/outbox.cif.g09.slc.cpg/sg51_13_cif.got.tgz:25661.got - 2010.04.16 13:43:02.
