data_PCOD8211102
_publ_section_title
;
Structure prediction by ZEFSAII (Michael W. Deem and Ramdas Pophale) SiO2 
 PCOD8211102
Probable space group: P M M A
;
_chemical_formula_sum "Si O2"
_cell_formula_units_Z 64
_cell_length_a 23.427683
_cell_length_b 9.360006
_cell_length_c 15.394547
_cell_angle_alpha 90.000000
_cell_angle_beta 90.000000
_cell_angle_gamma 90.000000
_cell_volume 3375.766351
_symmetry_space_group_name_H-M "P M M A"
_symmetry_group_IT_number 51
_symmetry_cell_setting 'orthorhombic'
loop_
_space_group_symop_operation_xyz
x,y,z
1/2-x,-y,z
1/2+x,-y,-z
-x,y,-z
-x,-y,-z
1/2+x,y,-z
1/2-x,y,z
x,-y,z
loop_
_atom_site_type_symbol
_atom_site_label
_atom_site_fract_x
_atom_site_fract_y
_atom_site_fract_z
Si Si1 0.374393 0.837047 0.870258
Si Si2 0.612172 0.163642 0.318963
Si Si3 0.685101 0.169821 0.476275
Si Si4 0.183812 0.155886 0.040625
Si Si5 0.514415 0.331218 0.098284
Si Si6 0.317384 0.342704 0.193182
Si Si7 0.511561 0.167748 0.737443
Si Si8 0.869769 0.833885 0.656184
O O1 0.352527 0.818096 0.771270
O O2 0.421532 0.719030 0.887500
O O3 0.398074 0.000000 0.880504
O O4 0.324867 0.804046 0.939553
O O5 0.649518 0.237323 0.395093
O O6 0.547500 0.224716 0.306647
O O7 0.605119 0.000000 0.346132
O O8 0.750000 0.231490 0.478010
O O9 0.649773 0.216985 0.561191
O O10 0.688623 0.000000 0.469023
O O11 0.250000 0.149864 0.059706
O O12 0.155787 0.269563 0.106560
O O13 0.156558 0.000000 0.060052
O O14 0.508193 0.500000 0.111880
O O15 0.476100 0.250859 0.171619
O O16 0.500000 0.285103 0.000000
O O17 0.250000 0.355169 0.184424
O O18 0.344936 0.500000 0.200671
O O19 0.331212 0.250924 0.276856
O O20 0.563168 0.198831 0.670791
O O21 0.506376 0.000000 0.759235
O O22 0.856452 0.000000 0.670108
#
# Coordination Sequence:
#
# PCOD8211102 Si02
#       8
#     8   8   8   8   8   8   8   8
#     4   9  18  32  51  75 103 136 171 212 258 306
#     4   8  15  30  49  72 104 136 170 210 255 308
#     4   9  17  29  50  81 110 135 167 213 267 315
#     4   9  18  32  50  74 103 136 174 213 256 308
#     4  10  21  34  49  72 101 135 175 219 260 305
#     4  10  21  35  50  70 100 138 175 215 263 313
#     4   9  19  34  51  74 103 138 177 215 262 315
#     4  10  20  33  52  78 105 135 173 216 262 313
#
# _framework density 18.958658
#
# number of rings (size 3 to 8) (size 9 to 14) (size 15 to 20)
#    0.000    2.750    0.000    1.875    1.750    4.250 
#    0.000    5.000    0.000    3.000    0.000    4.375 
#    0.000    0.000    0.000    0.000    0.000    0.000 
#
# Total GULP energy -793043.990056 kJ/mol
# GULP energy per Si atom -12391.312345 kJ/mol
# Density = 1.891551 g / cm^3
# Si number density = 18.958658 Si / 1000 Ang^3
#
#
#
# Elastic Constant Matrix: (Units=GPa)
#
#
# Indices 1 2 3 4 5 6 
#
# 1 67.5174 26.1197 64.3097 0.0000 0.0000 0.0000
# 2 26.1197 55.3866 51.8580 0.0000 0.0000 0.0000
# 3 64.3097 51.8580 180.2033 0.0000 0.0000 0.0000
# 4 0.0000 0.0000 0.0000 7.0028 0.0000 0.0000
# 5 0.0000 0.0000 0.0000 0.0000 36.6734 0.0000
# 6 0.0000 0.0000 0.0000 0.0000 0.0000 14.6622
#
#
#
# Elastic Compliance Matrix: (Units=1/GPa)
#
#
# Indices 1 2 3 4 5 6 
#
# 1 0.023183 -0.004362 -0.007018 0.000000 0.000000 0.000000
# 2 -0.004362 0.025535 -0.005792 0.000000 0.000000 0.000000
# 3 -0.007018 -0.005792 0.009721 0.000000 0.000000 0.000000
# 4 0.000000 0.000000 0.000000 0.142799 0.000000 0.000000
# 5 0.000000 0.000000 0.000000 0.000000 0.027268 0.000000
# 6 0.000000 0.000000 0.000000 0.000000 0.000000 0.068203
#
#
# Mechanical properties :
#
#
# Convention : Reuss Voigt Hill
#
# Bulk Modulus (GPa) = 41.50235 65.29801 53.40018
# Shear Modulus (GPa) = 14.74566 22.38900 18.56733
#
# Velocity S-wave (km/s) = 2.79190 3.44021 3.13287
# Velocity P-wave (km/s) = 5.68607 7.09205 6.42762
#
# Compressibility (1/GPa) = 0.02409502
#
# Stress axis : x y z
#
# Youngs Moduli (GPa) = 43.13461 39.16263 102.87447
#
# Poissons Ratio (x) = 0.17082 0.72200
# Poissons Ratio (y) = 0.18815 0.59581
# Poissons Ratio (z) = 0.30273 0.22681
#
# Static dielectric constant tensor:
#      x y z
#    x 3.454030 0.000000 0.000000 
#    y 0.000000 3.338950 0.000000 
#    z 0.000000 0.000000 3.773830 
# 
# 
# High freq. dielectric constant tensor:
#      x y z
#    x 1.725970 0.000000 0.000000 
#    y 0.000000 1.700810 0.000000 
#    z 0.000000 0.000000 1.745370 
# 
# From -- ./inp_files/26311.got.cif
#   From: 2010.03.12/outbox.cif.g09.slc.cpg/sg51_14_cif.got.tgz:26311.got - 2010.04.16 13:43:02.
