data_PCOD8211745
_publ_section_title
;
Structure prediction by ZEFSAII (Michael W. Deem and Ramdas Pophale) SiO2 
 PCOD8211745
Probable space group: P M M A
;
_chemical_formula_sum "Si O2"
_cell_formula_units_Z 48
_cell_length_a 18.984875
_cell_length_b 8.905434
_cell_length_c 15.256630
_cell_angle_alpha 90.000000
_cell_angle_beta 90.000000
_cell_angle_gamma 90.000000
_cell_volume 2579.416332
_symmetry_space_group_name_H-M "P M M A"
_symmetry_group_IT_number 51
_symmetry_cell_setting 'orthorhombic'
loop_
_space_group_symop_operation_xyz
x,y,z
1/2-x,-y,z
1/2+x,-y,-z
-x,y,-z
-x,-y,-z
1/2+x,y,-z
1/2-x,y,z
x,-y,z
loop_
_atom_site_type_symbol
_atom_site_label
_atom_site_fract_x
_atom_site_fract_y
_atom_site_fract_z
Si Si1 0.578802 0.677846 0.151115
Si Si2 0.568485 0.823664 0.848563
Si Si3 0.077916 0.676040 0.653142
Si Si4 0.329301 0.679200 0.496606
Si Si5 0.831185 0.174104 0.007188
Si Si6 0.919032 0.676647 0.666739
O O1 0.569712 0.500000 0.148080
O O2 0.504778 0.749185 0.121670
O O3 0.597864 0.733438 0.249547
O O4 0.641388 0.729216 0.088562
O O5 0.626756 0.781107 0.920166
O O6 0.597357 0.761712 0.756692
O O7 0.556356 0.000000 0.841203
O O8 0.089428 0.500000 0.648922
O O9 0.128324 0.749114 0.579405
O O10 0.997083 0.716836 0.632250
O O11 0.250000 0.741146 0.500298
O O12 0.331161 0.500000 0.499404
O O13 0.364582 0.734269 0.406314
O O14 0.750000 0.214287 0.991058
O O15 0.841919 0.000000 0.030126
O O16 0.912323 0.500000 0.685163
#
# Coordination Sequence:
#
# PCOD8211745 Si02
#       6
#     8   8   8   8   8   8
#     4  10  20  34  55  81 104 129 167 216 261 297
#     4  10  20  35  55  75  98 134 174 209 251 304
#     4   8  15  28  46  69  98 129 159 196 245 299
#     4   9  16  26  44  71 100 129 161 199 245 297
#     4  10  22  38  53  72 102 139 173 204 247 307
#     4   9  17  30  49  73  98 125 162 208 251 289
#
# _framework density 18.60886
#
# number of rings (size 3 to 8) (size 9 to 14) (size 15 to 20)
#    0.000    2.667    0.000    3.000    0.000    7.000 
#    0.000    1.667    0.000    9.000    0.000    0.000 
#    0.000    0.000    0.000    0.000    0.000    0.000 
#
# Total GULP energy -595180.459462 kJ/mol
# GULP energy per Si atom -12399.592905 kJ/mol
# Density = 1.856651 g / cm^3
# Si number density = 18.608860 Si / 1000 Ang^3
#
#
#
# Elastic Constant Matrix: (Units=GPa)
#
#
# Indices 1 2 3 4 5 6 
#
# 1 118.9830 25.7203 72.0709 0.0000 0.0000 0.0000
# 2 25.7203 40.4658 32.0856 0.0000 0.0000 0.0000
# 3 72.0709 32.0856 114.0391 0.0000 0.0000 0.0000
# 4 0.0000 0.0000 0.0000 12.9029 0.0000 0.0000
# 5 0.0000 0.0000 0.0000 0.0000 22.5434 0.0000
# 6 0.0000 0.0000 0.0000 0.0000 0.0000 20.2258
#
#
#
# Elastic Compliance Matrix: (Units=1/GPa)
#
#
# Indices 1 2 3 4 5 6 
#
# 1 0.013794 -0.002388 -0.008046 0.000000 0.000000 0.000000
# 2 -0.002388 0.032222 -0.007557 0.000000 0.000000 0.000000
# 3 -0.008046 -0.007557 0.015980 0.000000 0.000000 0.000000
# 4 0.000000 0.000000 0.000000 0.077502 0.000000 0.000000
# 5 0.000000 0.000000 0.000000 0.000000 0.044359 0.000000
# 6 0.000000 0.000000 0.000000 0.000000 0.000000 0.049442
#
#
# Mechanical properties :
#
#
# Convention : Reuss Voigt Hill
#
# Bulk Modulus (GPa) = 38.43955 59.24905 48.84430
# Shear Modulus (GPa) = 17.98875 20.70850 19.34862
#
# Velocity S-wave (km/s) = 3.11252 3.33953 3.22802
# Velocity P-wave (km/s) = 5.79814 6.83946 6.34022
#
# Compressibility (1/GPa) = 0.02601487
#
# Stress axis : x y z
#
# Youngs Moduli (GPa) = 72.49303 31.03494 62.57858
#
# Poissons Ratio (x) = 0.07412 0.50350
# Poissons Ratio (y) = 0.17312 0.47288
# Poissons Ratio (z) = 0.58327 0.23452
#
# Static dielectric constant tensor:
#      x y z
#    x 3.548920 0.000000 0.000000 
#    y 0.000000 3.077490 0.000000 
#    z 0.000000 0.000000 3.698700 
# 
# 
# High freq. dielectric constant tensor:
#      x y z
#    x 1.720470 0.000000 0.000000 
#    y 0.000000 1.686400 0.000000 
#    z 0.000000 0.000000 1.736160 
# 
# From -- ./inp_files/24707.got.cif
#   From: 2010.03.12/outbox.cif.g09.slc.cpg/sg51_13_cif.got.tgz:24707.got - 2010.04.16 13:43:02.
