data_PCOD8211032
_publ_section_title
;
Structure prediction by ZEFSAII (Michael W. Deem and Ramdas Pophale) SiO2 
 PCOD8211032
Probable space group: P M M A
;
_chemical_formula_sum "Si O2"
_cell_formula_units_Z 48
_cell_length_a 9.035790
_cell_length_b 9.303471
_cell_length_c 30.976148
_cell_angle_alpha 90.000000
_cell_angle_beta 90.000000
_cell_angle_gamma 90.000000
_cell_volume 2603.985417
_symmetry_space_group_name_H-M "P M M A"
_symmetry_group_IT_number 51
_symmetry_cell_setting 'orthorhombic'
loop_
_space_group_symop_operation_xyz
x,y,z
1/2-x,-y,z
1/2+x,-y,-z
-x,y,-z
-x,-y,-z
1/2+x,y,-z
1/2-x,y,z
x,-y,z
loop_
_atom_site_type_symbol
_atom_site_label
_atom_site_fract_x
_atom_site_fract_y
_atom_site_fract_z
Si Si1 0.074054 0.659973 0.702529
Si Si2 0.581505 0.329532 0.880573
Si Si3 0.585193 0.329090 0.203288
Si Si4 0.077580 0.168137 0.620142
Si Si5 0.076461 0.665138 0.455712
Si Si6 0.923210 0.834387 0.043937
O O1 0.250000 0.652746 0.703440
O O2 0.009938 0.500000 0.693569
O O3 0.022369 0.718980 0.749629
O O4 0.018141 0.765898 0.665104
O O5 0.750000 0.278449 0.885920
O O6 0.566779 0.500000 0.884057
O O7 0.523317 0.273469 0.834203
O O8 0.482050 0.261204 0.917352
O O9 0.750000 0.265876 0.195043
O O10 0.593982 0.500000 0.203289
O O11 0.250000 0.204228 0.613053
O O12 0.984471 0.235072 0.581746
O O13 0.047537 0.000000 0.621615
O O14 0.250000 0.689704 0.460808
O O15 0.037854 0.500000 0.444809
O O16 0.000000 0.713253 0.500000
O O17 0.750000 0.808593 0.038778
O O18 0.961680 0.000000 0.053541
O O19 0.000000 0.782406 0.000000
#
# Coordination Sequence:
#
# PCOD8211032 Si02
#       6
#     8   8   8   8   8   8
#     4   8  14  27  49  73  97 131 174 214 250 291
#     4  10  20  33  51  77 107 137 169 207 253 303
#     4   8  14  27  48  72  98 131 171 213 254 294
#     4  10  20  33  51  77 108 140 171 205 250 302
#     4  10  21  37  57  79 101 129 168 212 256 302
#     4  10  21  37  56  76  99 131 170 210 254 304
#
# _framework density 18.433281999999998
#
# number of rings (size 3 to 8) (size 9 to 14) (size 15 to 20)
#    0.000    2.667    0.000    3.000    0.000    4.667 
#    0.000    1.667    0.000    6.000    0.000    0.000 
#    0.000    0.000    0.000    0.000    0.000    0.000 
#
# Total GULP energy -595151.139425 kJ/mol
# GULP energy per Si atom -12398.982071 kJ/mol
# Density = 1.839133 g / cm^3
# Si number density = 18.433282 Si / 1000 Ang^3
#
#
#
# Elastic Constant Matrix: (Units=GPa)
#
#
# Indices 1 2 3 4 5 6 
#
# 1 75.8355 33.5696 58.0920 0.0000 0.0000 0.0000
# 2 33.5696 56.2362 57.4896 0.0000 0.0000 0.0000
# 3 58.0920 57.4896 169.7433 0.0000 0.0000 0.0000
# 4 0.0000 0.0000 0.0000 -14.3304 0.0000 0.0000
# 5 0.0000 0.0000 0.0000 0.0000 32.5405 0.0000
# 6 0.0000 0.0000 0.0000 0.0000 0.0000 22.5990
#
#
#
# Elastic Compliance Matrix: (Units=1/GPa)
#
#
# Indices 1 2 3 4 5 6 
#
# 1 0.019723 -0.007454 -0.004225 0.000000 0.000000 0.000000
# 2 -0.007454 0.030017 -0.007615 0.000000 0.000000 0.000000
# 3 -0.004225 -0.007615 0.009916 0.000000 0.000000 0.000000
# 4 0.000000 0.000000 0.000000 -0.069782 0.000000 0.000000
# 5 0.000000 0.000000 0.000000 0.000000 0.030731 0.000000
# 6 0.000000 0.000000 0.000000 0.000000 0.000000 0.044250
#
#
# Mechanical properties :
#
#
# Convention : Reuss Voigt Hill
#
# Bulk Modulus (GPa) = 47.46746 66.67972 57.07359
# Shear Modulus (GPa) = 45.26313 18.33941 31.80127
#
# Velocity S-wave (km/s) = 4.96069 3.15764 4.15807
# Velocity P-wave (km/s) = 7.65624 7.03891 7.35406
#
# Compressibility (1/GPa) = 0.02106706
#
# Stress axis : x y z
#
# Youngs Moduli (GPa) = 50.70325 33.31501 100.84249
#
# Poissons Ratio (x) = 0.24832 0.42609
# Poissons Ratio (y) = 0.37793 0.76794
# Poissons Ratio (z) = 0.21424 0.25370
#
# Static dielectric constant tensor:
#      x y z
#    x 2.679220 0.000000 0.000000 
#    y 0.000000 3.195100 0.000000 
#    z 0.000000 0.000000 3.788880 
# 
# 
# High freq. dielectric constant tensor:
#      x y z
#    x 1.700760 0.000000 0.000000 
#    y 0.000000 1.689220 0.000000 
#    z 0.000000 0.000000 1.733310 
# 
# From -- ./inp_files/36993.got.cif
#   From: 2010.03.12/outbox.cif.g09.slc.cpg/sg51_19_cif.got.tgz:36993.got - 2010.04.16 13:43:02.
