data_PCOD8211225
_publ_section_title
;
Structure prediction by ZEFSAII (Michael W. Deem and Ramdas Pophale) SiO2 
 PCOD8211225
Probable space group: P M M A
;
_chemical_formula_sum "Si O2"
_cell_formula_units_Z 64
_cell_length_a 18.106821
_cell_length_b 13.133829
_cell_length_c 12.832069
_cell_angle_alpha 90.000000
_cell_angle_beta 90.000000
_cell_angle_gamma 90.000000
_cell_volume 3051.618591
_symmetry_space_group_name_H-M "P M M A"
_symmetry_group_IT_number 51
_symmetry_cell_setting 'orthorhombic'
loop_
_space_group_symop_operation_xyz
x,y,z
1/2-x,-y,z
1/2+x,-y,-z
-x,y,-z
-x,-y,-z
1/2+x,y,-z
1/2-x,y,z
x,-y,z
loop_
_atom_site_type_symbol
_atom_site_label
_atom_site_fract_x
_atom_site_fract_y
_atom_site_fract_z
Si Si1 0.666786 0.379613 0.627658
Si Si2 0.959738 0.887176 0.154413
Si Si3 0.666437 0.315171 0.405965
Si Si4 0.598236 0.618794 0.192189
Si Si5 0.391971 0.113555 0.071027
Si Si6 0.933925 0.382997 0.810865
Si Si7 0.831720 0.314569 0.985858
Si Si8 0.667279 0.116824 0.301564
O O1 0.750000 0.334978 0.639894
O O2 0.669530 0.500000 0.637441
O O3 0.631359 0.347921 0.516342
O O4 0.615450 0.332776 0.718892
O O5 0.896133 0.834762 0.225485
O O6 0.044752 0.844422 0.152870
O O7 0.966653 0.000000 0.201168
O O8 0.931391 0.894237 0.038565
O O9 0.750000 0.356271 0.402279
O O10 0.625238 0.367848 0.310045
O O11 0.664132 0.191553 0.400778
O O12 0.600877 0.500000 0.162255
O O13 0.515586 0.666991 0.181965
O O14 0.647423 0.680035 0.107922
O O15 0.328906 0.198511 0.059314
O O16 0.361664 0.000000 0.101587
O O17 0.947840 0.500000 0.781963
O O18 0.891886 0.377719 0.921070
O O19 0.750000 0.360567 0.970088
O O20 0.750000 0.124698 0.250024
O O21 0.652398 0.000000 0.335001
#
# Coordination Sequence:
#
# PCOD8211225 Si02
#       8
#     8   8   8   8   8   8   8   8
#     4   9  18  36  61  84 109 144 188 235 278 328
#     4   8  15  28  47  70 100 145 188 222 268 321
#     4  10  20  33  55  87 118 149 184 230 288 338
#     4  11  24  39  57  83 116 149 182 231 291 344
#     4   9  19  33  51  76 106 143 187 230 273 326
#     4  10  23  41  60  81 108 149 195 236 275 329
#     4  12  25  37  57  85 113 150 187 228 284 344
#     4   9  17  29  48  79 116 149 185 229 277 337
#
# _framework density 20.972477000000001
#
# number of rings (size 3 to 8) (size 9 to 14) (size 15 to 20)
#    0.000    2.250    0.000    3.375    5.250    6.000 
#    0.000    3.125    0.000    0.750    0.000    2.625 
#    0.000    0.000    0.000    0.000    0.000    0.000 
#
# Total GULP energy -792915.013888 kJ/mol
# GULP energy per Si atom -12389.297092 kJ/mol
# Density = 2.092474 g / cm^3
# Si number density = 20.972477 Si / 1000 Ang^3
#
#
#
# Elastic Constant Matrix: (Units=GPa)
#
#
# Indices 1 2 3 4 5 6 
#
# 1 105.8827 10.7577 34.6396 0.0000 0.0000 0.0000
# 2 10.7577 45.1657 3.7857 0.0000 0.0000 0.0000
# 3 34.6396 3.7857 82.7907 0.0000 0.0000 0.0000
# 4 0.0000 0.0000 0.0000 13.9873 0.0000 0.0000
# 5 0.0000 0.0000 0.0000 0.0000 24.6643 0.0000
# 6 0.0000 0.0000 0.0000 0.0000 0.0000 -14.2906
#
#
#
# Elastic Compliance Matrix: (Units=1/GPa)
#
#
# Indices 1 2 3 4 5 6 
#
# 1 0.011171 -0.002278 -0.004570 0.000000 0.000000 0.000000
# 2 -0.002278 0.022690 -0.000085 0.000000 0.000000 0.000000
# 3 -0.004570 -0.000085 0.013994 0.000000 0.000000 0.000000
# 4 0.000000 0.000000 0.000000 0.071494 0.000000 0.000000
# 5 0.000000 0.000000 0.000000 0.000000 0.040545 0.000000
# 6 0.000000 0.000000 0.000000 0.000000 0.000000 -0.069976
#
#
# Mechanical properties :
#
#
# Convention : Reuss Voigt Hill
#
# Bulk Modulus (GPa) = 29.41893 36.91165 33.16529
# Shear Modulus (GPa) = 43.43588 17.18258 30.30923
#
# Velocity S-wave (km/s) = 4.55586 2.86543 3.80569
# Velocity P-wave (km/s) = 6.46006 5.34657 5.92951
#
# Compressibility (1/GPa) = 0.03399172
#
# Stress axis : x y z
#
# Youngs Moduli (GPa) = 89.51901 44.07172 71.45669
#
# Poissons Ratio (x) = 0.10038 0.32654
# Poissons Ratio (y) = 0.20389 0.00604
# Poissons Ratio (z) = 0.40908 0.00373
#
# Static dielectric constant tensor:
#      x y z
#    x 4.029700 0.000000 0.000000 
#    y 0.000000 3.967380 0.000000 
#    z 0.000000 0.000000 3.537250 
# 
# 
# High freq. dielectric constant tensor:
#      x y z
#    x 1.819220 0.000000 0.000000 
#    y 0.000000 1.827540 0.000000 
#    z 0.000000 0.000000 1.786050 
# 
# From -- ./inp_files/17622.got.cif
#   From: 2010.03.12/outbox.cif.g09.slc.cpg/sg51_9_cif.got.tgz:17622.got - 2010.04.16 13:43:02.
