data_PCOD8211518
_publ_section_title
;
Structure prediction by ZEFSAII (Michael W. Deem and Ramdas Pophale) SiO2 
 PCOD8211518
Probable space group: P M M A
;
_chemical_formula_sum "Si O2"
_cell_formula_units_Z 64
_cell_length_a 27.758818
_cell_length_b 9.187120
_cell_length_c 12.980729
_cell_angle_alpha 90.000000
_cell_angle_beta 90.000000
_cell_angle_gamma 90.000000
_cell_volume 3310.392137
_symmetry_space_group_name_H-M "P M M A"
_symmetry_group_IT_number 51
_symmetry_cell_setting 'orthorhombic'
loop_
_space_group_symop_operation_xyz
x,y,z
1/2-x,-y,z
1/2+x,-y,-z
-x,y,-z
-x,-y,-z
1/2+x,y,-z
1/2-x,y,z
x,-y,z
loop_
_atom_site_type_symbol
_atom_site_label
_atom_site_fract_x
_atom_site_fract_y
_atom_site_fract_z
Si Si1 0.195322 0.329388 0.100984
Si Si2 0.853830 0.832709 0.307970
Si Si3 0.138355 0.671358 0.303410
Si Si4 0.552898 0.166437 0.197194
Si Si5 0.943351 0.171867 0.792876
Si Si6 0.804905 0.672247 0.493901
Si Si7 0.442821 0.663949 0.002053
Si Si8 0.806439 0.832253 0.097189
O O1 0.250000 0.275090 0.113866
O O2 0.192670 0.500000 0.084409
O O3 0.168064 0.280741 0.203289
O O4 0.171567 0.255530 0.999998
O O5 0.911703 0.814137 0.295162
O O6 0.835316 0.735602 0.400425
O O7 0.829541 0.776270 0.202934
O O8 0.839765 0.000000 0.329715
O O9 0.127644 0.500000 0.306495
O O10 0.087842 0.758885 0.300110
O O11 0.169166 0.722169 0.401436
O O12 0.499049 0.212447 0.229930
O O13 0.552776 0.000000 0.158328
O O14 0.574497 0.260673 0.103273
O O15 0.925211 0.245139 0.899176
O O16 0.935180 0.000000 0.798996
O O17 0.750000 0.731391 0.493184
O O18 0.804866 0.500000 0.484218
O O19 0.421753 0.500000 0.009908
O O20 0.500000 0.661516 0.000000
O O21 0.750000 0.802663 0.105889
O O22 0.819127 0.000000 0.079374
#
# Coordination Sequence:
#
# PCOD8211518 Si02
#       8
#     8   8   8   8   8   8   8   8
#     4   9  18  33  53  77 106 139 174 217 273 335
#     4  10  21  37  58  82 110 145 187 231 279 330
#     4  10  21  37  57  81 109 142 185 232 281 332
#     4   9  19  35  53  78 113 152 190 230 275 326
#     4  10  20  34  53  78 112 151 191 230 273 328
#     4  10  22  41  63  85 110 142 183 233 286 341
#     4   9  17  30  50  77 110 148 187 228 273 322
#     4   9  18  32  50  76 110 141 170 214 272 329
#
# _framework density 19.333055999999999
#
# number of rings (size 3 to 8) (size 9 to 14) (size 15 to 20)
#    0.000    2.500    0.000    1.500    1.750    6.250 
#    0.000    1.875    0.000    6.000    0.000    0.000 
#    0.000    0.000    0.000    0.000    0.000    0.000 
#
# Total GULP energy -793644.572773 kJ/mol
# GULP energy per Si atom -12400.696450 kJ/mol
# Density = 1.928905 g / cm^3
# Si number density = 19.333056 Si / 1000 Ang^3
#
#
#
# Elastic Constant Matrix: (Units=GPa)
#
#
# Indices 1 2 3 4 5 6 
#
# 1 93.4574 35.1048 68.4474 0.0000 0.0000 0.0000
# 2 35.1048 56.2358 46.9704 0.0000 0.0000 0.0000
# 3 68.4474 46.9704 137.6425 0.0000 0.0000 0.0000
# 4 0.0000 0.0000 0.0000 6.1627 0.0000 0.0000
# 5 0.0000 0.0000 0.0000 0.0000 32.7662 0.0000
# 6 0.0000 0.0000 0.0000 0.0000 0.0000 25.3295
#
#
#
# Elastic Compliance Matrix: (Units=1/GPa)
#
#
# Indices 1 2 3 4 5 6 
#
# 1 0.017861 -0.005218 -0.007101 0.000000 0.000000 0.000000
# 2 -0.005218 0.026396 -0.006412 0.000000 0.000000 0.000000
# 3 -0.007101 -0.006412 0.012985 0.000000 0.000000 0.000000
# 4 0.000000 0.000000 0.000000 0.162266 0.000000 0.000000
# 5 0.000000 0.000000 0.000000 0.000000 0.030519 0.000000
# 6 0.000000 0.000000 0.000000 0.000000 0.000000 0.039480
#
#
# Mechanical properties :
#
#
# Convention : Reuss Voigt Hill
#
# Bulk Modulus (GPa) = 50.56293 65.37567 57.96930
# Shear Modulus (GPa) = 14.98964 21.97256 18.48110
#
# Velocity S-wave (km/s) = 2.78751 3.37490 3.09517
# Velocity P-wave (km/s) = 6.04737 7.00539 6.54393
#
# Compressibility (1/GPa) = 0.01977734
#
# Stress axis : x y z
#
# Youngs Moduli (GPa) = 55.98741 37.88482 77.01304
#
# Poissons Ratio (x) = 0.19770 0.54689
# Poissons Ratio (y) = 0.29217 0.49385
# Poissons Ratio (z) = 0.39758 0.24294
#
# Static dielectric constant tensor:
#      x y z
#    x 3.728060 0.000000 0.000000 
#    y 0.000000 3.459890 0.000000 
#    z 0.000000 0.000000 3.451680 
# 
# 
# High freq. dielectric constant tensor:
#      x y z
#    x 1.766990 0.000000 0.000000 
#    y 0.000000 1.743610 0.000000 
#    z 0.000000 0.000000 1.733990 
# 
# From -- ./inp_files/19558.got.cif
#   From: 2010.03.12/outbox.cif.g09.slc.cpg/sg51_10_cif.got.tgz:19558.got - 2010.04.16 13:43:02.
