data_PCOD8211598
_publ_section_title
;
Structure prediction by ZEFSAII (Michael W. Deem and Ramdas Pophale) SiO2 
 PCOD8211598
Probable space group: P M M A
;
_chemical_formula_sum "Si O2"
_cell_formula_units_Z 56
_cell_length_a 14.547389
_cell_length_b 8.719756
_cell_length_c 22.500913
_cell_angle_alpha 90.000000
_cell_angle_beta 90.000000
_cell_angle_gamma 90.000000
_cell_volume 2854.233670
_symmetry_space_group_name_H-M "P M M A"
_symmetry_group_IT_number 51
_symmetry_cell_setting 'orthorhombic'
loop_
_space_group_symop_operation_xyz
x,y,z
1/2-x,-y,z
1/2+x,-y,-z
-x,y,-z
-x,-y,-z
1/2+x,y,-z
1/2-x,y,z
x,-y,z
loop_
_atom_site_type_symbol
_atom_site_label
_atom_site_fract_x
_atom_site_fract_y
_atom_site_fract_z
Si Si1 0.250000 0.182317 0.458901
Si Si2 0.912108 0.320648 0.332671
Si Si3 0.653702 0.173745 0.757809
Si Si4 0.463514 0.318476 0.910767
Si Si5 0.905146 0.825802 0.627582
Si Si6 0.041356 0.182579 0.788305
Si Si7 0.646011 0.681520 0.973570
Si Si8 0.750000 0.818374 0.406708
O O1 0.342612 0.240069 0.425945
O O2 0.250000 0.244604 0.525817
O O3 0.250000 0.000000 0.454844
O O4 0.894353 0.500000 0.329005
O O5 0.900971 0.252645 0.266023
O O6 0.838809 0.242246 0.374285
O O7 0.009126 0.286039 0.363280
O O8 0.750000 0.253079 0.779430
O O9 0.655422 0.176526 0.686726
O O10 0.562425 0.252953 0.783554
O O11 0.653322 0.000000 0.780867
O O12 0.461242 0.500000 0.902031
O O13 0.422849 0.236345 0.852243
O O14 0.393367 0.266996 0.962441
O O15 0.569232 0.264464 0.925151
O O16 0.939832 0.000000 0.614886
O O17 0.044316 0.000000 0.781586
O O18 0.750000 0.749504 0.962671
O O19 0.651904 0.500000 0.971866
O O20 0.750000 0.000000 0.406495
#
# Coordination Sequence:
#
# PCOD8211598 Si02
#       8
#     4   8   8   8   8   8   8   4
#     4   9  18  33  61  91 113 143 186 229 274 337
#     4  11  23  40  58  79 111 150 188 231 284 336
#     4   8  13  24  46  73 101 133 171 215 265 321
#     4   9  17  31  52  77 105 137 178 223 264 317
#     4   9  16  32  58  85 110 141 180 225 275 333
#     4  10  20  34  54  78 107 144 183 228 280 328
#     4   8  15  30  52  76 105 142 177 214 264 321
#     4  11  23  41  61  83 109 143 190 239 282 329
#
# _framework density 19.619976999999999
#
# number of rings (size 3 to 8) (size 9 to 14) (size 15 to 20)
#    0.000    2.714    0.714    3.643    0.000    1.143 
#    1.286    6.071    0.000    1.714    0.000    0.000 
#    0.000    0.000    0.000    0.000    0.000    0.000 
#
# Total GULP energy -693874.512827 kJ/mol
# GULP energy per Si atom -12390.616300 kJ/mol
# Density = 1.957532 g / cm^3
# Si number density = 19.619977 Si / 1000 Ang^3
#
#
#
# Elastic Constant Matrix: (Units=GPa)
#
#
# Indices 1 2 3 4 5 6 
#
# 1 63.7064 8.2385 20.4439 0.0000 0.0000 0.0000
# 2 8.2385 50.6863 25.0729 0.0000 0.0000 0.0000
# 3 20.4439 25.0729 122.9786 0.0000 0.0000 0.0000
# 4 0.0000 0.0000 0.0000 24.9070 0.0000 0.0000
# 5 0.0000 0.0000 0.0000 0.0000 23.9813 0.0000
# 6 0.0000 0.0000 0.0000 0.0000 0.0000 38.5441
#
#
#
# Elastic Compliance Matrix: (Units=1/GPa)
#
#
# Indices 1 2 3 4 5 6 
#
# 1 0.016682 -0.001490 -0.002469 0.000000 0.000000 0.000000
# 2 -0.001490 0.022075 -0.004253 0.000000 0.000000 0.000000
# 3 -0.002469 -0.004253 0.009409 0.000000 0.000000 0.000000
# 4 0.000000 0.000000 0.000000 0.040149 0.000000 0.000000
# 5 0.000000 0.000000 0.000000 0.000000 0.041699 0.000000
# 6 0.000000 0.000000 0.000000 0.000000 0.000000 0.025944
#
#
# Mechanical properties :
#
#
# Convention : Reuss Voigt Hill
#
# Bulk Modulus (GPa) = 31.50435 38.32023 34.91229
# Shear Modulus (GPa) = 27.32766 29.72753 28.52760
#
# Velocity S-wave (km/s) = 3.73614 3.89674 3.81728
# Velocity P-wave (km/s) = 5.89099 6.31029 6.10424
#
# Compressibility (1/GPa) = 0.03174165
#
# Stress axis : x y z
#
# Youngs Moduli (GPa) = 59.94427 45.29965 106.27984
#
# Poissons Ratio (x) = 0.06749 0.26245
# Poissons Ratio (y) = 0.08931 0.45201
# Poissons Ratio (z) = 0.14803 0.19266
#
# Static dielectric constant tensor:
#      x y z
#    x 4.103040 0.000000 0.000000 
#    y 0.000000 3.130530 0.000000 
#    z 0.000000 0.000000 3.625210 
# 
# 
# High freq. dielectric constant tensor:
#      x y z
#    x 1.765450 0.000000 0.000000 
#    y 0.000000 1.722360 0.000000 
#    z 0.000000 0.000000 1.762830 
# 
# From -- ./inp_files/33603.got.cif
#   From: 2010.03.12/outbox.cif.g09.slc.cpg/sg51_17_cif.got.tgz:33603.got - 2010.04.16 13:43:02.
