data_PCOD8211725
_publ_section_title
;
Structure prediction by ZEFSAII (Michael W. Deem and Ramdas Pophale) SiO2 
 PCOD8211725
Probable space group: P M M A
;
_chemical_formula_sum "Si O2"
_cell_formula_units_Z 48
_cell_length_a 8.908448
_cell_length_b 9.809547
_cell_length_c 29.228106
_cell_angle_alpha 90.000000
_cell_angle_beta 90.000000
_cell_angle_gamma 90.000000
_cell_volume 2554.181032
_symmetry_space_group_name_H-M "P M M A"
_symmetry_group_IT_number 51
_symmetry_cell_setting 'orthorhombic'
loop_
_space_group_symop_operation_xyz
x,y,z
1/2-x,-y,z
1/2+x,-y,-z
-x,y,-z
-x,-y,-z
1/2+x,y,-z
1/2-x,y,z
x,-y,z
loop_
_atom_site_type_symbol
_atom_site_label
_atom_site_fract_x
_atom_site_fract_y
_atom_site_fract_z
Si Si1 0.078366 0.339920 0.192075
Si Si2 0.425180 0.264924 0.896076
Si Si3 0.428019 0.841667 0.375546
Si Si4 0.577611 0.000000 0.048583
Si Si5 0.573438 0.654865 0.451269
Si Si6 0.571796 0.348522 0.705848
Si Si7 0.425713 0.500000 0.049065
O O1 0.250000 0.291102 0.186291
O O2 0.065860 0.500000 0.181861
O O3 0.018088 0.307748 0.243206
O O4 0.972770 0.258141 0.157062
O O5 0.250000 0.302207 0.899891
O O6 0.467602 0.125672 0.920229
O O7 0.527163 0.370907 0.922185
O O8 0.250000 0.828595 0.380995
O O9 0.505427 0.766367 0.417560
O O10 0.485414 0.765671 0.329595
O O11 0.477566 0.000000 0.373721
O O12 0.750000 0.000000 0.036136
O O13 0.500000 0.000000 0.000000
O O14 0.500000 0.682133 0.500000
O O15 0.750000 0.678182 0.455371
O O16 0.537126 0.500000 0.434699
O O17 0.750000 0.355646 0.706058
O O18 0.509876 0.500000 0.692642
O O19 0.250000 0.500000 0.041352
O O20 0.500000 0.500000 0.000000
#
# Coordination Sequence:
#
# PCOD8211725 Si02
#       7
#     8   8   8   4   8   8   4
#     4   9  17  32  55  83 112 142 182 229 274 323
#     4  11  22  38  58  82 112 146 182 225 275 328
#     4  10  20  34  54  82 116 152 189 230 278 332
#     4  10  24  42  58  78 108 144 184 224 267 326
#     4  10  21  37  58  83 110 144 189 238 285 337
#     4   8  15  30  53  78 107 145 186 229 272 318
#     4  12  24  38  58  86 114 142 180 226 273 328
#
# _framework density 18.792718000000001
#
# number of rings (size 3 to 8) (size 9 to 14) (size 15 to 20)
#    0.000    2.167    0.833    3.750    0.000    5.000 
#    1.500    0.833    0.000    1.000    0.000    0.000 
#    0.000    0.000    0.000    0.000    0.000    0.000 
#
# Total GULP energy -595125.833962 kJ/mol
# GULP energy per Si atom -12398.454874 kJ/mol
# Density = 1.874994 g / cm^3
# Si number density = 18.792718 Si / 1000 Ang^3
#
#
#
# Elastic Constant Matrix: (Units=GPa)
#
#
# Indices 1 2 3 4 5 6 
#
# 1 72.3350 53.2410 51.9326 0.0000 0.0000 0.0000
# 2 53.2410 145.5628 94.0372 0.0000 0.0000 0.0000
# 3 51.9326 94.0372 161.7237 0.0000 0.0000 0.0000
# 4 0.0000 0.0000 0.0000 40.9515 0.0000 0.0000
# 5 0.0000 0.0000 0.0000 0.0000 31.7585 0.0000
# 6 0.0000 0.0000 0.0000 0.0000 0.0000 28.8728
#
#
#
# Elastic Compliance Matrix: (Units=1/GPa)
#
#
# Indices 1 2 3 4 5 6 
#
# 1 0.020074 -0.005090 -0.003487 0.000000 0.000000 0.000000
# 2 -0.005090 0.012294 -0.005514 0.000000 0.000000 0.000000
# 3 -0.003487 -0.005514 0.010509 0.000000 0.000000 0.000000
# 4 0.000000 0.000000 0.000000 0.024419 0.000000 0.000000
# 5 0.000000 0.000000 0.000000 0.000000 0.031488 0.000000
# 6 0.000000 0.000000 0.000000 0.000000 0.000000 0.034635
#
#
# Mechanical properties :
#
#
# Convention : Reuss Voigt Hill
#
# Bulk Modulus (GPa) = 68.04496 86.44923 77.24710
# Shear Modulus (GPa) = 30.03043 32.34395 31.18719
#
# Velocity S-wave (km/s) = 4.00181 4.15310 4.07816
# Velocity P-wave (km/s) = 7.59206 8.31258 7.96048
#
# Compressibility (1/GPa) = 0.01469617
#
# Stress axis : x y z
#
# Youngs Moduli (GPa) = 49.81559 81.34244 95.15495
#
# Poissons Ratio (x) = 0.41402 0.33176
# Poissons Ratio (y) = 0.25355 0.52468
# Poissons Ratio (z) = 0.17369 0.44852
#
# Static dielectric constant tensor:
#      x y z
#    x 3.260230 0.000000 0.000000 
#    y 0.000000 3.344020 0.000000 
#    z 0.000000 0.000000 2.294400 
# 
# 
# High freq. dielectric constant tensor:
#      x y z
#    x 1.713170 0.000000 0.000000 
#    y 0.000000 1.723280 0.000000 
#    z 0.000000 0.000000 1.745960 
# 
# From -- ./inp_files/37212.got.cif
#   From: 2010.03.12/outbox.cif.g09.slc.cpg/sg51_19_cif.got.tgz:37212.got - 2010.04.16 13:43:02.
