data_PCOD8211828
_publ_section_title
;
Structure prediction by ZEFSAII (Michael W. Deem and Ramdas Pophale) SiO2 
 PCOD8211828
Probable space group: P M M A
;
_chemical_formula_sum "Si O2"
_cell_formula_units_Z 48
_cell_length_a 27.767890
_cell_length_b 8.938776
_cell_length_c 10.210283
_cell_angle_alpha 90.000000
_cell_angle_beta 90.000000
_cell_angle_gamma 90.000000
_cell_volume 2534.304030
_symmetry_space_group_name_H-M "P M M A"
_symmetry_group_IT_number 51
_symmetry_cell_setting 'orthorhombic'
loop_
_space_group_symop_operation_xyz
x,y,z
1/2-x,-y,z
1/2+x,-y,-z
-x,y,-z
-x,-y,-z
1/2+x,y,-z
1/2-x,y,z
x,-y,z
loop_
_atom_site_type_symbol
_atom_site_label
_atom_site_fract_x
_atom_site_fract_y
_atom_site_fract_z
Si Si1 0.445961 0.327897 0.246025
Si Si2 0.195580 0.676010 0.394088
Si Si3 0.695260 0.827520 0.880133
Si Si4 0.105120 0.175998 0.484353
Si Si5 0.887725 0.326705 0.012300
Si Si6 0.942789 0.326066 0.272491
O O1 0.436978 0.500000 0.286627
O O2 0.419768 0.222668 0.349412
O O3 0.425544 0.293128 0.102677
O O4 0.502074 0.289651 0.241579
O O5 0.250000 0.720385 0.434528
O O6 0.187730 0.500000 0.397530
O O7 0.183767 0.731162 0.248246
O O8 0.158599 0.752637 0.494681
O O9 0.750000 0.803404 0.927219
O O10 0.660614 0.770540 0.995353
O O11 0.685043 0.000000 0.846938
O O12 0.072797 0.229848 0.603887
O O13 0.110393 0.000000 0.489565
O O14 0.873210 0.500000 0.015046
O O15 0.911585 0.276648 0.147914
O O16 0.935477 0.500000 0.305377
#
# Coordination Sequence:
#
# PCOD8211828 Si02
#       6
#     8   8   8   8   8   8
#     4  10  20  37  61  85 111 148 195 242 283 330
#     4  10  20  36  60  86 110 142 188 237 281 331
#     4  10  20  34  55  85 118 149 182 225 280 339
#     4  12  24  37  56  85 119 153 188 231 286 343
#     4  10  20  36  60  87 113 147 192 238 283 331
#     4  10  22  39  58  82 115 154 195 238 282 332
#
# _framework density 18.940111000000002
#
# number of rings (size 3 to 8) (size 9 to 14) (size 15 to 20)
#    0.000    1.667    1.667    3.500    0.000    7.333 
#    0.000    0.833    0.000    4.000    0.000    0.000 
#    0.000    0.000    0.000    0.000    0.000    0.000 
#
# Total GULP energy -595429.332305 kJ/mol
# GULP energy per Si atom -12404.777756 kJ/mol
# Density = 1.889700 g / cm^3
# Si number density = 18.940111 Si / 1000 Ang^3
#
#
#
# Elastic Constant Matrix: (Units=GPa)
#
#
# Indices 1 2 3 4 5 6 
#
# 1 103.3446 37.3148 11.8921 0.0000 0.0000 0.0000
# 2 37.3148 82.3903 19.6425 0.0000 0.0000 0.0000
# 3 11.8921 19.6425 44.1877 0.0000 0.0000 0.0000
# 4 0.0000 0.0000 0.0000 2.2713 0.0000 0.0000
# 5 0.0000 0.0000 0.0000 0.0000 7.9793 0.0000
# 6 0.0000 0.0000 0.0000 0.0000 0.0000 23.6656
#
#
#
# Elastic Compliance Matrix: (Units=1/GPa)
#
#
# Indices 1 2 3 4 5 6 
#
# 1 0.011599 -0.005043 -0.000880 0.000000 0.000000 0.000000
# 2 -0.005043 0.015769 -0.005652 0.000000 0.000000 0.000000
# 3 -0.000880 -0.005652 0.025380 0.000000 0.000000 0.000000
# 4 0.000000 0.000000 0.000000 0.440282 0.000000 0.000000
# 5 0.000000 0.000000 0.000000 0.000000 0.125324 0.000000
# 6 0.000000 0.000000 0.000000 0.000000 0.000000 0.042255
#
#
# Mechanical properties :
#
#
# Convention : Reuss Voigt Hill
#
# Bulk Modulus (GPa) = 33.78721 40.84685 37.31703
# Shear Modulus (GPa) = 7.20850 17.52144 12.36497
#
# Velocity S-wave (km/s) = 1.95300 3.04484 2.55786
# Velocity P-wave (km/s) = 4.79200 5.82877 5.33563
#
# Compressibility (1/GPa) = 0.02959699
#
# Stress axis : x y z
#
# Youngs Moduli (GPa) = 86.21743 63.41524 39.40090
#
# Poissons Ratio (x) = 0.31982 0.03466
# Poissons Ratio (y) = 0.43482 0.22271
# Poissons Ratio (z) = 0.07584 0.35845
#
# Static dielectric constant tensor:
#      x y z
#    x 3.752560 0.000000 0.000000 
#    y 0.000000 3.434430 0.000000 
#    z 0.000000 0.000000 3.297700 
# 
# 
# High freq. dielectric constant tensor:
#      x y z
#    x 1.754700 0.000000 0.000000 
#    y 0.000000 1.734200 0.000000 
#    z 0.000000 0.000000 1.716810 
# 
# From -- ./inp_files/12775.got.cif
#   From: 2010.03.12/outbox.cif.g09.slc.cpg/sg51_7_cif.got.tgz:12775.got - 2010.04.16 13:43:02.
