data_PCOD8211671
_publ_section_title
;
Structure prediction by ZEFSAII (Michael W. Deem and Ramdas Pophale) SiO2 
 PCOD8211671
Probable space group: P M M A
;
_chemical_formula_sum "Si O2"
_cell_formula_units_Z 44
_cell_length_a 9.304374
_cell_length_b 7.829288
_cell_length_c 29.989081
_cell_angle_alpha 90.000000
_cell_angle_beta 90.000000
_cell_angle_gamma 90.000000
_cell_volume 2184.603299
_symmetry_space_group_name_H-M "P M M A"
_symmetry_group_IT_number 51
_symmetry_cell_setting 'orthorhombic'
loop_
_space_group_symop_operation_xyz
x,y,z
1/2-x,-y,z
1/2+x,-y,-z
-x,y,-z
-x,-y,-z
1/2+x,y,-z
1/2-x,y,z
x,-y,z
loop_
_atom_site_type_symbol
_atom_site_label
_atom_site_fract_x
_atom_site_fract_y
_atom_site_fract_z
Si Si1 0.583669 0.701213 0.306225
Si Si2 0.588796 0.298380 0.778594
Si Si3 0.589698 0.800158 0.874705
Si Si4 0.585474 0.191903 0.609086
Si Si5 0.418554 0.500000 0.453884
Si Si6 0.911809 0.796231 0.042517
O O1 0.750000 0.750024 0.304665
O O2 0.558991 0.500000 0.311877
O O3 0.511621 0.771770 0.260898
O O4 0.511760 0.796584 0.347370
O O5 0.750000 0.223414 0.772691
O O6 0.592180 0.500000 0.776766
O O7 0.523680 0.239594 0.826038
O O8 0.750000 0.719014 0.878327
O O9 0.487230 0.722227 0.912855
O O10 0.600458 0.000000 0.882433
O O11 0.750000 0.231121 0.622753
O O12 0.533891 0.330007 0.572768
O O13 0.570220 0.000000 0.589213
O O14 0.250000 0.500000 0.463641
O O15 0.500000 0.500000 0.500000
O O16 0.750000 0.723919 0.040193
O O17 0.909287 0.000000 0.042972
O O18 0.000000 0.728238 0.000000
#
# Coordination Sequence:
#
# PCOD8211671 Si02
#       6
#     8   8   8   8   4   8
#     4  10  20  34  54  80 110 144 183 228 278 328
#     4   9  18  32  50  71  99 138 177 212 257 317
#     4   9  17  29  45  66  92 121 157 203 252 304
#     4  10  21  38  61  87 115 152 196 237 281 336
#     4  10  22  40  62  88 120 156 194 238 285 336
#     4   9  16  26  42  64  89 118 153 196 249 306
#
# _framework density 20.140955000000002
#
# number of rings (size 3 to 8) (size 9 to 14) (size 15 to 20)
#    0.000    2.545    0.909    1.091    0.000    5.818 
#    0.000    1.818    0.000    0.545    0.000    0.000 
#    0.000    0.000    0.000    0.000    0.000    0.000 
#
# Total GULP energy -545580.256351 kJ/mol
# GULP energy per Si atom -12399.551281 kJ/mol
# Density = 2.009511 g / cm^3
# Si number density = 20.140955 Si / 1000 Ang^3
#
#
#
# Elastic Constant Matrix: (Units=GPa)
#
#
# Indices 1 2 3 4 5 6 
#
# 1 117.5058 30.3266 88.2111 0.0000 0.0000 0.0000
# 2 30.3266 57.8924 43.5297 0.0000 0.0000 0.0000
# 3 88.2111 43.5297 185.3423 0.0000 0.0000 0.0000
# 4 0.0000 0.0000 0.0000 23.8605 0.0000 0.0000
# 5 0.0000 0.0000 0.0000 0.0000 42.2693 0.0000
# 6 0.0000 0.0000 0.0000 0.0000 0.0000 14.7829
#
#
#
# Elastic Compliance Matrix: (Units=1/GPa)
#
#
# Indices 1 2 3 4 5 6 
#
# 1 0.013590 -0.002739 -0.005824 0.000000 0.000000 0.000000
# 2 -0.002739 0.021530 -0.003753 0.000000 0.000000 0.000000
# 3 -0.005824 -0.003753 0.009049 0.000000 0.000000 0.000000
# 4 0.000000 0.000000 0.000000 0.041910 0.000000 0.000000
# 5 0.000000 0.000000 0.000000 0.000000 0.023658 0.000000
# 6 0.000000 0.000000 0.000000 0.000000 0.000000 0.067646
#
#
# Mechanical properties :
#
#
# Convention : Reuss Voigt Hill
#
# Bulk Modulus (GPa) = 51.18916 76.09724 63.64320
# Shear Modulus (GPa) = 23.97765 29.42741 26.70253
#
# Velocity S-wave (km/s) = 3.45409 3.82655 3.64508
# Velocity P-wave (km/s) = 6.43260 7.57546 7.02730
#
# Compressibility (1/GPa) = 0.01953539
#
# Stress axis : x y z
#
# Youngs Moduli (GPa) = 73.58589 46.44631 110.51132
#
# Poissons Ratio (x) = 0.12724 0.64366
# Poissons Ratio (y) = 0.20158 0.41473
# Poissons Ratio (z) = 0.42859 0.17430
#
# Static dielectric constant tensor:
#      x y z
#    x 3.782750 0.000000 0.000000 
#    y 0.000000 3.411020 0.000000 
#    z 0.000000 0.000000 3.701460 
# 
# 
# High freq. dielectric constant tensor:
#      x y z
#    x 1.779860 0.000000 0.000000 
#    y 0.000000 1.765860 0.000000 
#    z 0.000000 0.000000 1.787630 
# 
# From -- ./inp_files/36747.got.cif
#   From: 2010.03.12/outbox.cif.g09.slc.cpg/sg51_19_cif.got.tgz:36747.got - 2010.04.16 13:43:02.
