data_PCOD8211672
_publ_section_title
;
Structure prediction by ZEFSAII (Michael W. Deem and Ramdas Pophale) SiO2 
 PCOD8211672
Probable space group: P M M A
;
_chemical_formula_sum "Si O2"
_cell_formula_units_Z 56
_cell_length_a 9.692812
_cell_length_b 15.714343
_cell_length_c 19.247434
_cell_angle_alpha 90.000000
_cell_angle_beta 90.000000
_cell_angle_gamma 90.000000
_cell_volume 2931.695475
_symmetry_space_group_name_H-M "P M M A"
_symmetry_group_IT_number 51
_symmetry_cell_setting 'orthorhombic'
loop_
_space_group_symop_operation_xyz
x,y,z
1/2-x,-y,z
1/2+x,-y,-z
-x,y,-z
-x,-y,-z
1/2+x,y,-z
1/2-x,y,z
x,-y,z
loop_
_atom_site_type_symbol
_atom_site_label
_atom_site_fract_x
_atom_site_fract_y
_atom_site_fract_z
Si Si1 0.587924 0.250000 0.930878
Si Si2 0.907405 0.847639 0.286911
Si Si3 0.406587 0.100560 0.562352
Si Si4 0.406587 0.600560 0.562352
Si Si5 0.592595 0.347639 0.286911
Si Si6 0.407315 0.404979 0.166634
Si Si7 0.592685 0.904979 0.833366
O O1 0.750000 0.250000 0.948931
O O2 0.544638 0.334776 0.888950
O O3 0.544638 0.165224 0.888950
O O4 0.500000 0.250000 0.000000
O O5 0.750000 0.880467 0.280992
O O6 0.959925 0.859343 0.365656
O O7 0.919755 0.750000 0.264829
O O8 0.001035 0.902254 0.235642
O O9 0.500000 0.136641 0.500000
O O10 0.250000 0.128959 0.547342
O O11 0.420221 0.000000 0.568410
O O12 0.500000 0.636641 0.500000
O O13 0.250000 0.628958 0.547342
O O14 0.420222 0.500000 0.568410
O O15 0.459924 0.640657 0.634344
O O16 0.750000 0.380467 0.280992
O O17 0.498965 0.402254 0.235642
O O18 0.250000 0.386167 0.188636
O O19 0.421994 0.500000 0.134302
O O20 0.750000 0.886167 0.811364
O O21 0.578006 0.000000 0.865698
#
# Coordination Sequence:
#
# PCOD8211672 Si02
#       7
#     8   8   8   8   8   8   8
#     4  10  22  40  60  86 119 148 181 224 269 324
#     4  10  20  34  54  80 110 144 186 234 281 330
#     4   9  18  32  48  69 101 140 183 231 279 328
#     4   9  18  32  48  69 101 140 183 231 279 328
#     4  10  20  34  54  80 110 144 186 234 281 330
#     4  10  21  38  60  85 114 149 187 227 274 327
#     4  10  21  38  60  85 114 149 187 227 274 327
#
# _framework density 19.101575
#
# number of rings (size 3 to 8) (size 9 to 14) (size 15 to 20)
#    0.000    2.286    1.429    0.857    0.000    5.143 
#    0.000    2.857    0.000    0.000    0.000    0.000 
#    0.000    0.000    0.000    0.000    0.000    0.000 
#
# Total GULP energy -694490.219341 kJ/mol
# GULP energy per Si atom -12401.611060 kJ/mol
# Density = 1.905810 g / cm^3
# Si number density = 19.101575 Si / 1000 Ang^3
#
#
#
# Elastic Constant Matrix: (Units=GPa)
#
#
# Indices 1 2 3 4 5 6 
#
# 1 74.7558 33.4737 74.5379 0.0000 0.0000 0.0000
# 2 33.4737 95.7071 55.6205 0.0000 0.0000 0.0000
# 3 74.5379 55.6205 137.2607 0.0000 0.0000 0.0000
# 4 0.0000 0.0000 0.0000 25.8086 0.0000 0.0000
# 5 0.0000 0.0000 0.0000 0.0000 42.4613 0.0000
# 6 0.0000 0.0000 0.0000 0.0000 0.0000 13.3328
#
#
#
# Elastic Compliance Matrix: (Units=1/GPa)
#
#
# Indices 1 2 3 4 5 6 
#
# 1 0.029297 -0.001309 -0.015379 0.000000 0.000000 0.000000
# 2 -0.001309 0.013726 -0.004851 0.000000 0.000000 0.000000
# 3 -0.015379 -0.004851 0.017603 0.000000 0.000000 0.000000
# 4 0.000000 0.000000 0.000000 0.038747 0.000000 0.000000
# 5 0.000000 0.000000 0.000000 0.000000 0.023551 0.000000
# 6 0.000000 0.000000 0.000000 0.000000 0.000000 0.075003
#
#
# Mechanical properties :
#
#
# Convention : Reuss Voigt Hill
#
# Bulk Modulus (GPa) = 56.98952 70.55421 63.77187
# Shear Modulus (GPa) = 20.25491 25.92662 23.09077
#
# Velocity S-wave (km/s) = 3.25988 3.68816 3.48061
# Velocity P-wave (km/s) = 6.63844 7.42652 7.04351
#
# Compressibility (1/GPa) = 0.01754709
#
# Stress axis : x y z
#
# Youngs Moduli (GPa) = 34.13262 72.85678 56.80986
#
# Poissons Ratio (x) = 0.09538 0.87369
# Poissons Ratio (y) = 0.04469 0.27558
# Poissons Ratio (z) = 0.52493 0.35342
#
# Static dielectric constant tensor:
#      x y z
#    x 3.515860 0.000000 0.000000 
#    y 0.000000 3.592050 0.000000 
#    z 0.000000 0.000000 3.345490 
# 
# 
# High freq. dielectric constant tensor:
#      x y z
#    x 1.735730 0.000000 0.000000 
#    y 0.000000 1.751640 0.000000 
#    z 0.000000 0.000000 1.731770 
# 
# From -- ./inp_files/23329.got.cif
#   From: 2010.03.12/outbox.cif.g09.slc.cpg/sg51_12_cif.got.tgz:23329.got - 2010.04.16 13:43:02.
