data_PCOD8211228
_publ_section_title
;
Structure prediction by ZEFSAII (Michael W. Deem and Ramdas Pophale) SiO2 
 PCOD8211228
Probable space group: P M M A
;
_chemical_formula_sum "Si O2"
_cell_formula_units_Z 64
_cell_length_a 22.293818
_cell_length_b 9.358143
_cell_length_c 20.297022
_cell_angle_alpha 90.000000
_cell_angle_beta 90.000000
_cell_angle_gamma 90.000000
_cell_volume 4234.542062
_symmetry_space_group_name_H-M "P M M A"
_symmetry_group_IT_number 51
_symmetry_cell_setting 'orthorhombic'
loop_
_space_group_symop_operation_xyz
x,y,z
1/2-x,-y,z
1/2+x,-y,-z
-x,y,-z
-x,-y,-z
1/2+x,y,-z
1/2-x,y,z
x,-y,z
loop_
_atom_site_type_symbol
_atom_site_label
_atom_site_fract_x
_atom_site_fract_y
_atom_site_fract_z
Si Si1 0.069892 0.157730 0.483683
Si Si2 0.971355 0.163861 0.795012
Si Si3 0.606982 0.834833 0.173519
Si Si4 0.320526 0.164929 0.699780
Si Si5 0.555379 0.661286 0.912905
Si Si6 0.583935 0.338255 0.053520
Si Si7 0.479045 0.833262 0.351020
Si Si8 0.903647 0.328975 0.395056
O O1 0.072642 0.197953 0.405734
O O2 0.102674 0.274924 0.529065
O O3 0.000000 0.153405 0.500000
O O4 0.098128 0.000000 0.496241
O O5 0.930141 0.248337 0.847360
O O6 0.950813 0.200379 0.720507
O O7 0.041220 0.205856 0.799950
O O8 0.961491 0.000000 0.812384
O O9 0.654197 0.788153 0.229098
O O10 0.622284 0.754364 0.105131
O O11 0.612403 0.000000 0.156774
O O12 0.250000 0.186614 0.700664
O O13 0.346749 0.268916 0.644183
O O14 0.338403 0.000000 0.685055
O O15 0.574899 0.500000 0.898267
O O16 0.485313 0.671430 0.927483
O O17 0.591135 0.717674 0.977857
O O18 0.607016 0.500000 0.058190
O O19 0.536396 0.733116 0.362278
O O20 0.500004 0.000000 0.354539
O O21 0.904623 0.500000 0.393729
#
# Coordination Sequence:
#
# PCOD8211228 Si02
#       8
#     8   8   8   8   8   8   8   8
#     4   8  15  27  43  57  74 103 134 162 193 236
#     4   9  15  23  37  55  77 100 128 165 195 222
#     4   9  16  26  40  56  71  92 128 169 200 230
#     4  10  20  34  48  58  74 103 137 171 207 247
#     4   8  14  23  33  49  73 100 129 154 182 226
#     4   8  14  24  36  49  70  99 127 155 188 228
#     4   9  16  28  42  57  79 107 137 164 194 238
#     4  11  20  28  41  59  80 101 127 169 208 241
#
# _framework density 15.113795
#
# number of rings (size 3 to 8) (size 9 to 14) (size 15 to 20)
#    0.000    3.000    1.250    2.625    0.000    4.000 
#    0.000    2.500    0.000    0.000    0.000    0.000 
#    0.000    0.000    0.000    1.125    0.000   18.500 
#
# Total GULP energy -793074.566104 kJ/mol
# GULP energy per Si atom -12391.790095 kJ/mol
# Density = 1.507940 g / cm^3
# Si number density = 15.113795 Si / 1000 Ang^3
#
#
#
# Elastic Constant Matrix: (Units=GPa)
#
#
# Indices 1 2 3 4 5 6 
#
# 1 27.5333 25.5081 31.7092 0.0000 0.0000 0.0000
# 2 25.5081 82.7407 70.7262 0.0000 0.0000 0.0000
# 3 31.7092 70.7262 161.9379 0.0000 0.0000 0.0000
# 4 0.0000 0.0000 0.0000 20.9058 0.0000 0.0000
# 5 0.0000 0.0000 0.0000 0.0000 12.0607 0.0000
# 6 0.0000 0.0000 0.0000 0.0000 0.0000 8.8714
#
#
#
# Elastic Compliance Matrix: (Units=1/GPa)
#
#
# Indices 1 2 3 4 5 6 
#
# 1 0.053468 -0.012023 -0.005219 0.000000 0.000000 0.000000
# 2 -0.012023 0.021989 -0.007250 0.000000 0.000000 0.000000
# 3 -0.005219 -0.007250 0.010363 0.000000 0.000000 0.000000
# 4 0.000000 0.000000 0.000000 0.047834 0.000000 0.000000
# 5 0.000000 0.000000 0.000000 0.000000 0.082914 0.000000
# 6 0.000000 0.000000 0.000000 0.000000 0.000000 0.112722
#
#
# Mechanical properties :
#
#
# Convention : Reuss Voigt Hill
#
# Bulk Modulus (GPa) = 27.14532 58.67767 42.91149
# Shear Modulus (GPa) = 12.80238 17.98548 15.39393
#
# Velocity S-wave (km/s) = 2.91360 3.45339 3.19491
# Velocity P-wave (km/s) = 5.41464 7.40333 6.48567
#
# Compressibility (1/GPa) = 0.03683876
#
# Stress axis : x y z
#
# Youngs Moduli (GPa) = 18.70264 45.47649 96.49368
#
# Poissons Ratio (x) = 0.54675 0.50358
# Poissons Ratio (y) = 0.22486 0.69954
# Poissons Ratio (z) = 0.09760 0.32969
#
# Static dielectric constant tensor:
#      x y z
#    x 2.326960 0.000000 0.000000 
#    y 0.000000 2.925510 0.000000 
#    z 0.000000 0.000000 3.508060 
# 
# 
# High freq. dielectric constant tensor:
#      x y z
#    x 1.496160 0.000000 0.000000 
#    y 0.000000 1.575580 0.000000 
#    z 0.000000 0.000000 1.598650 
# 
# From -- ./inp_files/34111.got.cif
#   From: 2010.03.12/outbox.cif.g09.slc.cpg/sg51_18_cif.got.tgz:34111.got - 2010.04.16 13:43:02.
