data_PCOD8211414
_publ_section_title
;
Structure prediction by ZEFSAII (Michael W. Deem and Ramdas Pophale) SiO2 
 PCOD8211414
Probable space group: P M M A
;
_chemical_formula_sum "Si O2"
_cell_formula_units_Z 56
_cell_length_a 18.274459
_cell_length_b 9.139021
_cell_length_c 18.735114
_cell_angle_alpha 90.000000
_cell_angle_beta 90.000000
_cell_angle_gamma 90.000000
_cell_volume 3128.963840
_symmetry_space_group_name_H-M "P M M A"
_symmetry_group_IT_number 51
_symmetry_cell_setting 'orthorhombic'
loop_
_space_group_symop_operation_xyz
x,y,z
1/2-x,-y,z
1/2+x,-y,-z
-x,y,-z
-x,-y,-z
1/2+x,y,-z
1/2-x,y,z
x,-y,z
loop_
_atom_site_type_symbol
_atom_site_label
_atom_site_fract_x
_atom_site_fract_y
_atom_site_fract_z
Si Si1 0.663050 0.665039 0.434465
Si Si2 0.036963 0.328937 0.072287
Si Si3 0.835250 0.828964 0.293022
Si Si4 0.914068 0.829780 0.717653
Si Si5 0.544450 0.328442 0.216189
Si Si6 0.832657 0.170714 0.861157
Si Si7 0.334633 0.169946 0.426882
O O1 0.750000 0.667234 0.436825
O O2 0.632767 0.500000 0.428525
O O3 0.636192 0.757709 0.366640
O O4 0.632885 0.739011 0.506705
O O5 0.053076 0.500000 0.067699
O O6 0.114895 0.251399 0.082766
O O7 0.981932 0.290851 0.136527
O O8 0.000000 0.270045 0.000000
O O9 0.750000 0.797956 0.280067
O O10 0.878500 0.753196 0.228027
O O11 0.852539 0.000000 0.295847
O O12 0.856347 0.794711 0.780173
O O13 0.878163 0.782846 0.643360
O O14 0.986258 0.732911 0.726973
O O15 0.936162 0.000000 0.718491
O O16 0.554755 0.500000 0.228282
O O17 0.750000 0.228194 0.871602
O O18 0.837852 0.000000 0.877398
O O19 0.250000 0.206812 0.413245
O O20 0.345136 0.000000 0.444704
#
# Coordination Sequence:
#
# PCOD8211414 Si02
#       7
#     8   8   8   8   8   8   8
#     4   9  17  29  46  69  97 128 162 203 249 291
#     4   9  19  36  55  75 102 136 169 199 239 294
#     4  10  20  35  55  75  95 123 161 204 248 296
#     4   9  17  30  48  70 100 135 166 199 241 290
#     4  10  20  34  53  75  98 125 159 200 244 291
#     4   9  17  30  50  77 105 133 168 207 245 287
#     4   9  16  27  45  69  97 131 169 204 240 286
#
# _framework density 17.897297999999999
#
# number of rings (size 3 to 8) (size 9 to 14) (size 15 to 20)
#    0.000    2.714    0.000    1.714    0.000    6.000 
#    0.000    1.429    0.000   11.143    0.000    0.000 
#    0.000    0.000    0.000    0.000    0.000    0.000 
#
# Total GULP energy -694484.349777 kJ/mol
# GULP energy per Si atom -12401.506246 kJ/mol
# Density = 1.785656 g / cm^3
# Si number density = 17.897298 Si / 1000 Ang^3
#
#
#
# Elastic Constant Matrix: (Units=GPa)
#
#
# Indices 1 2 3 4 5 6 
#
# 1 99.6108 55.7748 63.6311 0.0000 0.0000 0.0000
# 2 55.7748 87.1741 52.2679 0.0000 0.0000 0.0000
# 3 63.6311 52.2679 105.0936 0.0000 0.0000 0.0000
# 4 0.0000 0.0000 0.0000 29.0675 0.0000 0.0000
# 5 0.0000 0.0000 0.0000 0.0000 27.1968 0.0000
# 6 0.0000 0.0000 0.0000 0.0000 0.0000 27.8331
#
#
#
# Elastic Compliance Matrix: (Units=1/GPa)
#
#
# Indices 1 2 3 4 5 6 
#
# 1 0.019392 -0.007648 -0.007938 0.000000 0.000000 0.000000
# 2 -0.007648 0.019362 -0.004999 0.000000 0.000000 0.000000
# 3 -0.007938 -0.004999 0.016807 0.000000 0.000000 0.000000
# 4 0.000000 0.000000 0.000000 0.034403 0.000000 0.000000
# 5 0.000000 0.000000 0.000000 0.000000 0.036769 0.000000
# 6 0.000000 0.000000 0.000000 0.000000 0.000000 0.035928
#
#
# Mechanical properties :
#
#
# Convention : Reuss Voigt Hill
#
# Bulk Modulus (GPa) = 69.48134 70.58069 70.03101
# Shear Modulus (GPa) = 23.96618 24.83312 24.39965
#
# Velocity S-wave (km/s) = 3.66333 3.72900 3.69631
# Velocity P-wave (km/s) = 7.53657 7.61989 7.57835
#
# Compressibility (1/GPa) = 0.01439235
#
# Stress axis : x y z
#
# Youngs Moduli (GPa) = 51.56821 51.64822 59.49735
#
# Poissons Ratio (x) = 0.39500 0.47226
# Poissons Ratio (y) = 0.39439 0.29742
# Poissons Ratio (z) = 0.40932 0.25819
#
# Static dielectric constant tensor:
#      x y z
#    x 3.219840 0.000000 0.000000 
#    y 0.000000 3.328170 0.000000 
#    z 0.000000 0.000000 3.324600 
# 
# 
# High freq. dielectric constant tensor:
#      x y z
#    x 1.678370 0.000000 0.000000 
#    y 0.000000 1.694890 0.000000 
#    z 0.000000 0.000000 1.685790 
# 
# From -- ./inp_files/33696.got.cif
#   From: 2010.03.12/outbox.cif.g09.slc.cpg/sg51_17_cif.got.tgz:33696.got - 2010.04.16 13:43:02.
