data_PCOD8211661
_publ_section_title
;
Structure prediction by ZEFSAII (Michael W. Deem and Ramdas Pophale) SiO2 
 PCOD8211661
Probable space group: P M M A
;
_chemical_formula_sum "Si O2"
_cell_formula_units_Z 64
_cell_length_a 33.834090
_cell_length_b 8.743435
_cell_length_c 11.162405
_cell_angle_alpha 90.000000
_cell_angle_beta 90.000000
_cell_angle_gamma 90.000000
_cell_volume 3302.131482
_symmetry_space_group_name_H-M "P M M A"
_symmetry_group_IT_number 51
_symmetry_cell_setting 'orthorhombic'
loop_
_space_group_symop_operation_xyz
x,y,z
1/2-x,-y,z
1/2+x,-y,-z
-x,y,-z
-x,-y,-z
1/2+x,y,-z
1/2-x,y,z
x,-y,z
loop_
_atom_site_type_symbol
_atom_site_label
_atom_site_fract_x
_atom_site_fract_y
_atom_site_fract_z
Si Si1 0.626099 0.180565 0.138610
Si Si2 0.293829 0.820021 0.747897
Si Si3 0.867532 0.674976 0.647403
Si Si4 0.937949 0.175392 0.527252
Si Si5 0.944499 0.320603 0.278549
Si Si6 0.706129 0.675576 0.500748
Si Si7 0.403135 0.677380 0.102688
Si Si8 0.476952 0.822120 0.222388
O O1 0.671343 0.236351 0.163004
O O2 0.597744 0.260697 0.234772
O O3 0.622126 0.000000 0.155770
O O4 0.614206 0.225686 0.005391
O O5 0.250000 0.751068 0.780887
O O6 0.306195 0.774212 0.613816
O O7 0.290969 0.000000 0.753919
O O8 0.879801 0.500000 0.618625
O O9 0.893573 0.787465 0.567147
O O10 0.822323 0.709328 0.613052
O O11 0.873366 0.708347 0.787457
O O12 0.950615 0.281928 0.417848
O O13 0.966848 0.207889 0.638449
O O14 0.940651 0.000000 0.485179
O O15 0.947269 0.500000 0.258483
O O16 0.979044 0.241273 0.200041
O O17 0.750000 0.718525 0.545010
O O18 0.703261 0.500000 0.460419
O O19 0.405097 0.500000 0.066565
O O20 0.447039 0.732455 0.136136
O O21 0.474726 0.000000 0.189371
#
# Coordination Sequence:
#
# PCOD8211661 Si02
#       8
#     8   8   8   8   8   8   8   8
#     4  11  23  39  58  79 106 142 184 227 270 318
#     4   9  19  36  57  81 109 140 174 216 266 316
#     4   9  18  33  53  76 105 141 177 217 266 318
#     4  10  20  34  54  80 109 140 176 220 268 321
#     4  12  24  36  54  81 112 143 178 222 270 321
#     4   9  17  30  51  80 111 140 171 210 260 319
#     4  10  21  38  57  78 106 141 183 227 270 317
#     4  10  21  38  58  80 108 143 182 222 268 320
#
# _framework density 19.381421
#
# number of rings (size 3 to 8) (size 9 to 14) (size 15 to 20)
#    0.000    2.000    0.000    3.750    0.000    7.500 
#    0.000    3.125    0.000    0.750    0.000    0.000 
#    0.000    0.000    0.000    0.000    0.000    0.000 
#
# Total GULP energy -793666.113828 kJ/mol
# GULP energy per Si atom -12401.033029 kJ/mol
# Density = 1.933731 g / cm^3
# Si number density = 19.381421 Si / 1000 Ang^3
#
#
#
# Elastic Constant Matrix: (Units=GPa)
#
#
# Indices 1 2 3 4 5 6 
#
# 1 124.3922 34.3600 40.4385 0.0000 0.0000 0.0000
# 2 34.3600 48.1204 18.0406 0.0000 0.0000 0.0000
# 3 40.4385 18.0406 58.0213 0.0000 0.0000 0.0000
# 4 0.0000 0.0000 0.0000 30.5840 0.0000 0.0000
# 5 0.0000 0.0000 0.0000 0.0000 16.6444 0.0000
# 6 0.0000 0.0000 0.0000 0.0000 0.0000 26.1453
#
#
#
# Elastic Compliance Matrix: (Units=1/GPa)
#
#
# Indices 1 2 3 4 5 6 
#
# 1 0.011759 -0.006026 -0.006322 0.000000 0.000000 0.000000
# 2 -0.006026 0.026612 -0.004074 0.000000 0.000000 0.000000
# 3 -0.006322 -0.004074 0.022908 0.000000 0.000000 0.000000
# 4 0.000000 0.000000 0.000000 0.032697 0.000000 0.000000
# 5 0.000000 0.000000 0.000000 0.000000 0.060080 0.000000
# 6 0.000000 0.000000 0.000000 0.000000 0.000000 0.038248
#
#
# Mechanical properties :
#
#
# Convention : Reuss Voigt Hill
#
# Bulk Modulus (GPa) = 35.16939 46.24578 40.70759
# Shear Modulus (GPa) = 21.31056 23.85440 22.58248
#
# Velocity S-wave (km/s) = 3.31952 3.51206 3.41715
# Velocity P-wave (km/s) = 5.73390 6.35286 6.05130
#
# Compressibility (1/GPa) = 0.02843381
#
# Stress axis : x y z
#
# Youngs Moduli (GPa) = 85.04287 37.57749 43.65323
#
# Poissons Ratio (x) = 0.22645 0.27596
# Poissons Ratio (y) = 0.51249 0.17786
# Poissons Ratio (z) = 0.53761 0.15310
#
# Static dielectric constant tensor:
#      x y z
#    x 3.856960 0.000000 0.000000 
#    y 0.000000 3.535390 0.000000 
#    z 0.000000 0.000000 3.377920 
# 
# 
# High freq. dielectric constant tensor:
#      x y z
#    x 1.763200 0.000000 0.000000 
#    y 0.000000 1.757110 0.000000 
#    z 0.000000 0.000000 1.738500 
# 
# From -- ./inp_files/19478.got.cif
#   From: 2010.03.12/outbox.cif.g09.slc.cpg/sg51_10_cif.got.tgz:19478.got - 2010.04.16 13:43:02.
