data_PCOD8211689
_publ_section_title
;
Structure prediction by ZEFSAII (Michael W. Deem and Ramdas Pophale) SiO2 
 PCOD8211689
Probable space group: P M M A
;
_chemical_formula_sum "Si O2"
_cell_formula_units_Z 56
_cell_length_a 19.278695
_cell_length_b 9.541607
_cell_length_c 15.878839
_cell_angle_alpha 90.000000
_cell_angle_beta 90.000000
_cell_angle_gamma 90.000000
_cell_volume 2920.908165
_symmetry_space_group_name_H-M "P M M A"
_symmetry_group_IT_number 51
_symmetry_cell_setting 'orthorhombic'
loop_
_space_group_symop_operation_xyz
x,y,z
1/2-x,-y,z
1/2+x,-y,-z
-x,y,-z
-x,-y,-z
1/2+x,y,-z
1/2-x,y,z
x,-y,z
loop_
_atom_site_type_symbol
_atom_site_label
_atom_site_fract_x
_atom_site_fract_y
_atom_site_fract_z
Si Si1 0.829070 0.840923 0.998068
Si Si2 0.169944 0.163937 0.652749
Si Si3 0.559084 0.340751 0.258240
Si Si4 0.670493 0.338720 0.512881
Si Si5 0.444793 0.338719 0.932583
Si Si6 0.587408 0.661323 0.676131
Si Si7 0.328606 0.161724 0.194531
O O1 0.750000 0.827492 0.027455
O O2 0.837442 0.791930 0.901876
O O3 0.854858 0.000000 0.008322
O O4 0.872911 0.742456 0.058513
O O5 0.250000 0.187224 0.678663
O O6 0.121433 0.233580 0.723429
O O7 0.153300 0.238752 0.564759
O O8 0.152487 0.000000 0.644596
O O9 0.586874 0.500000 0.267846
O O10 0.530131 0.317106 0.163446
O O11 0.495473 0.314335 0.322748
O O12 0.750000 0.319286 0.542829
O O13 0.656570 0.500000 0.486571
O O14 0.619041 0.290387 0.587106
O O15 0.430744 0.500000 0.953752
O O16 0.500000 0.277271 0.000000
O O17 0.606148 0.500000 0.692490
O O18 0.619845 0.748071 0.751056
O O19 0.250000 0.188617 0.224369
O O20 0.348220 0.000000 0.205865
#
# Coordination Sequence:
#
# PCOD8211689 Si02
#       7
#     8   8   8   8   8   8   8
#     4   9  19  35  53  75 104 138 178 224 272 321
#     4  10  22  40  60  81 106 139 181 225 267 316
#     4  10  22  38  56  80 110 143 176 218 273 321
#     4   9  18  34  57  83 110 141 176 215 261 312
#     4  10  21  37  56  79 108 141 179 222 268 320
#     4  10  20  34  54  81 111 143 181 220 260 315
#     4   9  18  32  50  75 109 146 180 218 268 320
#
# _framework density 19.172118999999999
#
# number of rings (size 3 to 8) (size 9 to 14) (size 15 to 20)
#    0.000    2.429    0.000    2.571    0.000    6.857 
#    0.000    8.571    0.000    0.000    0.000    0.000 
#    0.000    0.000    0.000    0.000    0.000    0.000 
#
# Total GULP energy -694490.031888 kJ/mol
# GULP energy per Si atom -12401.607712 kJ/mol
# Density = 1.912848 g / cm^3
# Si number density = 19.172119 Si / 1000 Ang^3
#
#
#
# Elastic Constant Matrix: (Units=GPa)
#
#
# Indices 1 2 3 4 5 6 
#
# 1 86.4087 47.4173 48.4557 0.0000 0.0000 0.0000
# 2 47.4173 76.3337 41.2218 0.0000 0.0000 0.0000
# 3 48.4557 41.2218 82.4875 0.0000 0.0000 0.0000
# 4 0.0000 0.0000 0.0000 29.9291 0.0000 0.0000
# 5 0.0000 0.0000 0.0000 0.0000 37.1452 0.0000
# 6 0.0000 0.0000 0.0000 0.0000 0.0000 32.3757
#
#
#
# Elastic Compliance Matrix: (Units=1/GPa)
#
#
# Indices 1 2 3 4 5 6 
#
# 1 0.020710 -0.008622 -0.007857 0.000000 0.000000 0.000000
# 2 -0.008622 0.021532 -0.005695 0.000000 0.000000 0.000000
# 3 -0.007857 -0.005695 0.019585 0.000000 0.000000 0.000000
# 4 0.000000 0.000000 0.000000 0.033412 0.000000 0.000000
# 5 0.000000 0.000000 0.000000 0.000000 0.026921 0.000000
# 6 0.000000 0.000000 0.000000 0.000000 0.000000 0.030887
#
#
# Mechanical properties :
#
#
# Convention : Reuss Voigt Hill
#
# Bulk Modulus (GPa) = 57.21512 57.71327 57.46419
# Shear Modulus (GPa) = 24.60354 27.09903 25.85128
#
# Velocity S-wave (km/s) = 3.58620 3.76368 3.67601
# Velocity P-wave (km/s) = 6.85970 7.00394 6.93219
#
# Compressibility (1/GPa) = 0.01747790
#
# Stress axis : x y z
#
# Youngs Moduli (GPa) = 48.28513 46.44306 51.05997
#
# Poissons Ratio (x) = 0.40042 0.40119
# Poissons Ratio (y) = 0.41631 0.29081
# Poissons Ratio (z) = 0.37939 0.26451
#
# Static dielectric constant tensor:
#      x y z
#    x 3.468930 0.000000 0.000000 
#    y 0.000000 3.436110 0.000000 
#    z 0.000000 0.000000 3.393490 
# 
# 
# High freq. dielectric constant tensor:
#      x y z
#    x 1.744480 0.000000 0.000000 
#    y 0.000000 1.741590 0.000000 
#    z 0.000000 0.000000 1.741460 
# 
# From -- ./inp_files/25698.got.cif
#   From: 2010.03.12/outbox.cif.g09.slc.cpg/sg51_13_cif.got.tgz:25698.got - 2010.04.16 13:43:02.
