data_PCOD8211181
_publ_section_title
;
Structure prediction by ZEFSAII (Michael W. Deem and Ramdas Pophale) SiO2 
 PCOD8211181
Probable space group: P M M A
;
_chemical_formula_sum "Si O2"
_cell_formula_units_Z 64
_cell_length_a 8.873898
_cell_length_b 14.092321
_cell_length_c 26.156408
_cell_angle_alpha 90.000000
_cell_angle_beta 90.000000
_cell_angle_gamma 90.000000
_cell_volume 3270.958715
_symmetry_space_group_name_H-M "P M M A"
_symmetry_group_IT_number 51
_symmetry_cell_setting 'orthorhombic'
loop_
_space_group_symop_operation_xyz
x,y,z
1/2-x,-y,z
1/2+x,-y,-z
-x,y,-z
-x,-y,-z
1/2+x,y,-z
1/2-x,y,z
x,-y,z
loop_
_atom_site_type_symbol
_atom_site_label
_atom_site_fract_x
_atom_site_fract_y
_atom_site_fract_z
Si Si1 0.922630 0.894133 0.202728
Si Si2 0.418184 0.887556 0.303779
Si Si3 0.575980 0.705952 0.153879
Si Si4 0.572826 0.391466 0.051794
Si Si5 0.573190 0.890809 0.406285
Si Si6 0.923710 0.387640 0.353834
Si Si7 0.924737 0.389202 0.749958
Si Si8 0.071655 0.284340 0.448567
O O1 0.750000 0.898357 0.220883
O O2 0.943091 0.820602 0.155952
O O3 0.017695 0.851126 0.249898
O O4 0.976643 0.000000 0.186046
O O5 0.250000 0.846427 0.312411
O O6 0.526380 0.855280 0.349704
O O7 0.415103 0.000000 0.301416
O O8 0.750000 0.675619 0.160243
O O9 0.513046 0.670457 0.099448
O O10 0.483043 0.659045 0.198948
O O11 0.750000 0.382248 0.045837
O O12 0.522499 0.500000 0.061035
O O13 0.500000 0.350963 0.000000
O O14 0.750000 0.875657 0.413312
O O15 0.482953 0.825285 0.445790
O O16 0.526105 0.000000 0.415735
O O17 0.750000 0.357012 0.358022
O O18 0.944392 0.500000 0.356796
O O19 0.989763 0.348797 0.300116
O O20 0.015621 0.343200 0.400223
O O21 0.750000 0.366347 0.742773
O O22 0.957041 0.500000 0.755714
O O23 0.250000 0.289311 0.452070
O O24 0.000000 0.329014 0.500000
#
# Coordination Sequence:
#
# PCOD8211181 Si02
#       8
#     8   8   8   8   8   8   8   8
#     4   9  18  32  49  72 105 145 187 229 272 322
#     4   9  17  30  49  74 104 139 179 222 270 324
#     4  10  20  33  53  80 110 148 189 231 277 330
#     4   9  18  33  53  77 106 141 183 231 283 337
#     4  10  21  38  60  84 112 147 186 229 278 335
#     4  10  22  42  66  88 113 147 185 228 280 337
#     4  10  21  36  55  83 117 148 179 220 274 335
#     4  12  26  43  63  86 113 145 185 234 282 337
#
# _framework density 19.566127999999999
#
# number of rings (size 3 to 8) (size 9 to 14) (size 15 to 20)
#    0.000    2.125    0.000    3.000    1.750    5.750 
#    0.000    1.250    0.000    0.375    0.000    0.000 
#    0.000    0.000    0.000    0.000    0.000    0.000 
#
# Total GULP energy -793664.534306 kJ/mol
# GULP energy per Si atom -12401.008349 kJ/mol
# Density = 1.952159 g / cm^3
# Si number density = 19.566128 Si / 1000 Ang^3
#
#
#
# Elastic Constant Matrix: (Units=GPa)
#
#
# Indices 1 2 3 4 5 6 
#
# 1 103.9768 38.7762 51.7904 0.0000 0.0000 0.0000
# 2 38.7762 43.9858 57.5871 0.0000 0.0000 0.0000
# 3 51.7904 57.5871 146.3254 0.0000 0.0000 0.0000
# 4 0.0000 0.0000 0.0000 29.1368 0.0000 0.0000
# 5 0.0000 0.0000 0.0000 0.0000 33.8243 0.0000
# 6 0.0000 0.0000 0.0000 0.0000 0.0000 24.3485
#
#
#
# Elastic Compliance Matrix: (Units=1/GPa)
#
#
# Indices 1 2 3 4 5 6 
#
# 1 0.014331 -0.012363 -0.000207 0.000000 0.000000 0.000000
# 2 -0.012363 0.057564 -0.018279 0.000000 0.000000 0.000000
# 3 -0.000207 -0.018279 0.014101 0.000000 0.000000 0.000000
# 4 0.000000 0.000000 0.000000 0.034321 0.000000 0.000000
# 5 0.000000 0.000000 0.000000 0.000000 0.029565 0.000000
# 6 0.000000 0.000000 0.000000 0.000000 0.000000 0.041070
#
#
# Mechanical properties :
#
#
# Convention : Reuss Voigt Hill
#
# Bulk Modulus (GPa) = 41.15385 65.62172 53.38779
# Shear Modulus (GPa) = 19.17548 27.20421 23.18984
#
# Velocity S-wave (km/s) = 3.13395 3.73282 3.44641
# Velocity P-wave (km/s) = 5.84588 7.22425 6.57131
#
# Compressibility (1/GPa) = 0.02429906
#
# Stress axis : x y z
#
# Youngs Moduli (GPa) = 69.77845 17.37182 70.91633
#
# Poissons Ratio (x) = 0.21477 0.01467
# Poissons Ratio (y) = 0.86266 1.29628
# Poissons Ratio (z) = 0.01444 0.31754
#
# Static dielectric constant tensor:
#      x y z
#    x 3.662800 0.000000 0.000000 
#    y 0.000000 3.678180 0.000000 
#    z 0.000000 0.000000 3.574980 
# 
# 
# High freq. dielectric constant tensor:
#      x y z
#    x 1.764970 0.000000 0.000000 
#    y 0.000000 1.763070 0.000000 
#    z 0.000000 0.000000 1.748010 
# 
# From -- ./inp_files/34897.got.cif
#   From: 2010.03.12/outbox.cif.g09.slc.cpg/sg51_18_cif.got.tgz:34897.got - 2010.04.16 13:43:02.
