data_PCOD8211651
_publ_section_title
;
Structure prediction by ZEFSAII (Michael W. Deem and Ramdas Pophale) SiO2 
 PCOD8211651
Probable space group: P M M A
;
_chemical_formula_sum "Si O2"
_cell_formula_units_Z 48
_cell_length_a 9.034653
_cell_length_b 9.177386
_cell_length_c 30.859156
_cell_angle_alpha 90.000000
_cell_angle_beta 90.000000
_cell_angle_gamma 90.000000
_cell_volume 2558.671427
_symmetry_space_group_name_H-M "P M M A"
_symmetry_group_IT_number 51
_symmetry_cell_setting 'orthorhombic'
loop_
_space_group_symop_operation_xyz
x,y,z
1/2-x,-y,z
1/2+x,-y,-z
-x,y,-z
-x,-y,-z
1/2+x,y,-z
1/2-x,y,z
x,-y,z
loop_
_atom_site_type_symbol
_atom_site_label
_atom_site_fract_x
_atom_site_fract_y
_atom_site_fract_z
Si Si1 0.920364 0.328891 0.120691
Si Si2 0.918795 0.826953 0.378145
Si Si3 0.577135 0.331338 0.544298
Si Si4 0.077854 0.831460 0.792714
Si Si5 0.583162 0.826644 0.707119
Si Si6 0.423563 0.167078 0.044170
O O1 0.750000 0.287424 0.111458
O O2 0.943864 0.500000 0.124097
O O3 0.974203 0.258344 0.165555
O O4 0.020707 0.268047 0.082581
O O5 0.750000 0.772385 0.380680
O O6 0.011591 0.763647 0.417412
O O7 0.989173 0.767736 0.333481
O O8 0.928173 0.000000 0.380451
O O9 0.500000 0.281611 0.500000
O O10 0.750000 0.298914 0.540003
O O11 0.544482 0.500000 0.554055
O O12 0.250000 0.808444 0.782739
O O13 0.988880 0.769193 0.751573
O O14 0.040783 0.000000 0.801508
O O15 0.750000 0.766619 0.703482
O O16 0.580450 0.000000 0.707187
O O17 0.250000 0.188099 0.038481
O O18 0.465778 0.000000 0.054524
O O19 0.500000 0.219461 0.000000
#
# Coordination Sequence:
#
# PCOD8211651 Si02
#       6
#     8   8   8   8   8   8
#     4  10  21  36  54  78 109 143 177 214 259 310
#     4  10  20  34  54  80 108 138 174 216 262 312
#     4  10  21  37  56  77 103 137 176 216 260 312
#     4   9  17  31  52  75 100 134 175 216 258 307
#     4   9  17  30  50  76 104 134 171 217 265 310
#     4  10  21  37  58  82 106 135 174 218 262 310
#
# _framework density 18.759736
#
# number of rings (size 3 to 8) (size 9 to 14) (size 15 to 20)
#    0.000    2.333    0.000    2.500    0.000    7.333 
#    0.000    2.500    0.000    3.000    0.000    0.000 
#    0.000    0.000    0.000    0.000    0.000    0.000 
#
# Total GULP energy -595372.707661 kJ/mol
# GULP energy per Si atom -12403.598076 kJ/mol
# Density = 1.871704 g / cm^3
# Si number density = 18.759736 Si / 1000 Ang^3
#
#
#
# Elastic Constant Matrix: (Units=GPa)
#
#
# Indices 1 2 3 4 5 6 
#
# 1 107.7873 32.7750 73.1377 0.0000 0.0000 0.0000
# 2 32.7750 43.5916 46.6761 0.0000 0.0000 0.0000
# 3 73.1377 46.6761 164.5200 0.0000 0.0000 0.0000
# 4 0.0000 0.0000 0.0000 -15.4453 0.0000 0.0000
# 5 0.0000 0.0000 0.0000 0.0000 41.0824 0.0000
# 6 0.0000 0.0000 0.0000 0.0000 0.0000 23.7574
#
#
#
# Elastic Compliance Matrix: (Units=1/GPa)
#
#
# Indices 1 2 3 4 5 6 
#
# 1 0.014183 -0.005619 -0.004711 0.000000 0.000000 0.000000
# 2 -0.005619 0.035176 -0.007482 0.000000 0.000000 0.000000
# 3 -0.004711 -0.007482 0.010295 0.000000 0.000000 0.000000
# 4 0.000000 0.000000 0.000000 -0.064745 0.000000 0.000000
# 5 0.000000 0.000000 0.000000 0.000000 0.024341 0.000000
# 6 0.000000 0.000000 0.000000 0.000000 0.000000 0.042092
#
#
# Mechanical properties :
#
#
# Convention : Reuss Voigt Hill
#
# Bulk Modulus (GPa) = 41.61400 69.00850 55.31125
# Shear Modulus (GPa) = 47.62963 20.76625 34.19794
#
# Velocity S-wave (km/s) = 5.04424 3.33071 4.27423
# Velocity P-wave (km/s) = 7.49377 7.18727 7.34212
#
# Compressibility (1/GPa) = 0.02403038
#
# Stress axis : x y z
#
# Youngs Moduli (GPa) = 70.50919 28.42813 97.13412
#
# Poissons Ratio (x) = 0.15975 0.45756
# Poissons Ratio (y) = 0.39622 0.72674
# Poissons Ratio (z) = 0.33214 0.21269
#
# Static dielectric constant tensor:
#      x y z
#    x 3.619330 0.000000 0.000000 
#    y 0.000000 3.191800 0.000000 
#    z 0.000000 0.000000 3.611370 
# 
# 
# High freq. dielectric constant tensor:
#      x y z
#    x 1.737720 0.000000 0.000000 
#    y 0.000000 1.700990 0.000000 
#    z 0.000000 0.000000 1.743670 
# 
# From -- ./inp_files/36900.got.cif
#   From: 2010.03.12/outbox.cif.g09.slc.cpg/sg51_19_cif.got.tgz:36900.got - 2010.04.16 13:43:02.
