data_PCOD8211838
_publ_section_title
;
Structure prediction by ZEFSAII (Michael W. Deem and Ramdas Pophale) SiO2 
 PCOD8211838
Probable space group: P M M A
;
_chemical_formula_sum "Si O2"
_cell_formula_units_Z 40
_cell_length_a 17.718684
_cell_length_b 7.769891
_cell_length_c 15.316677
_cell_angle_alpha 90.000000
_cell_angle_beta 90.000000
_cell_angle_gamma 90.000000
_cell_volume 2108.681283
_symmetry_space_group_name_H-M "P M M A"
_symmetry_group_IT_number 51
_symmetry_cell_setting 'orthorhombic'
loop_
_space_group_symop_operation_xyz
x,y,z
1/2-x,-y,z
1/2+x,-y,-z
-x,y,-z
-x,-y,-z
1/2+x,y,-z
1/2-x,y,z
x,-y,z
loop_
_atom_site_type_symbol
_atom_site_label
_atom_site_fract_x
_atom_site_fract_y
_atom_site_fract_z
Si Si1 0.338963 0.500000 0.827233
Si Si2 0.529610 0.798164 0.591329
Si Si3 0.585159 0.809343 0.862558
Si Si4 0.435946 0.801599 0.760631
Si Si5 0.411381 0.500000 0.014577
Si Si6 0.165533 0.695926 0.303878
O O1 0.250000 0.500000 0.820786
O O2 0.367681 0.672697 0.779495
O O3 0.363978 0.500000 0.927065
O O4 0.500000 0.720179 0.500000
O O5 0.469711 0.752413 0.666441
O O6 0.611284 0.717916 0.612633
O O7 0.541495 0.000000 0.583607
O O8 0.499194 0.769846 0.834548
O O9 0.612658 0.670597 0.932559
O O10 0.637254 0.810485 0.776683
O O11 0.590739 0.000000 0.904470
O O12 0.407957 0.000000 0.762216
O O13 0.500000 0.500000 0.000000
O O14 0.250000 0.752715 0.330762
O O15 0.163662 0.500000 0.271846
#
# Coordination Sequence:
#
# PCOD8211838 Si02
#       6
#     4   8   8   8   4   8
#     4  12  26  40  57  82 114 156 197 237 288 334
#     4   9  19  36  60  88 114 150 198 239 282 340
#     4  10  20  36  62  88 110 148 193 231 289 356
#     4   9  19  38  61  84 112 148 192 234 280 344
#     4  12  22  38  60  84 115 148 186 243 288 337
#     4  10  20  34  55  86 124 154 184 236 296 347
#
# _framework density 18.969200000000001
#
# number of rings (size 3 to 8) (size 9 to 14) (size 15 to 20)
#    0.000    2.000    3.000    1.800    4.200    4.400 
#    0.000    1.000    0.000    3.600    0.000    0.000 
#    0.000    0.000    0.000    0.000    0.000    0.000 
#
# Total GULP energy -496041.162496 kJ/mol
# GULP energy per Si atom -12401.029062 kJ/mol
# Density = 1.892603 g / cm^3
# Si number density = 18.969200 Si / 1000 Ang^3
#
#
#
# Elastic Constant Matrix: (Units=GPa)
#
#
# Indices 1 2 3 4 5 6 
#
# 1 146.7128 55.9260 52.6029 0.0000 0.0000 0.0000
# 2 55.9260 110.7538 48.4325 0.0000 0.0000 0.0000
# 3 52.6029 48.4325 100.1672 0.0000 0.0000 0.0000
# 4 0.0000 0.0000 0.0000 24.1590 0.0000 0.0000
# 5 0.0000 0.0000 0.0000 0.0000 19.3011 0.0000
# 6 0.0000 0.0000 0.0000 0.0000 0.0000 17.4554
#
#
#
# Elastic Compliance Matrix: (Units=1/GPa)
#
#
# Indices 1 2 3 4 5 6 
#
# 1 0.009221 -0.003219 -0.003286 0.000000 0.000000 0.000000
# 2 -0.003219 0.012574 -0.004389 0.000000 0.000000 0.000000
# 3 -0.003286 -0.004389 0.013831 0.000000 0.000000 0.000000
# 4 0.000000 0.000000 0.000000 0.041392 0.000000 0.000000
# 5 0.000000 0.000000 0.000000 0.000000 0.051810 0.000000
# 6 0.000000 0.000000 0.000000 0.000000 0.000000 0.057289
#
#
# Mechanical properties :
#
#
# Convention : Reuss Voigt Hill
#
# Bulk Modulus (GPa) = 72.26686 74.61741 73.44213
# Shear Modulus (GPa) = 23.52718 25.56125 24.54422
#
# Velocity S-wave (km/s) = 3.52559 3.67483 3.60098
# Velocity P-wave (km/s) = 7.39950 7.57808 7.48933
#
# Compressibility (1/GPa) = 0.01383760
#
# Stress axis : x y z
#
# Youngs Moduli (GPa) = 108.44272 79.52878 72.30072
#
# Poissons Ratio (x) = 0.25604 0.23758
# Poissons Ratio (y) = 0.34913 0.31733
# Poissons Ratio (z) = 0.35634 0.34906
#
# Static dielectric constant tensor:
#      x y z
#    x 3.323200 0.000000 0.000000 
#    y 0.000000 3.578330 0.000000 
#    z 0.000000 0.000000 3.548540 
# 
# 
# High freq. dielectric constant tensor:
#      x y z
#    x 1.713780 0.000000 0.000000 
#    y 0.000000 1.751190 0.000000 
#    z 0.000000 0.000000 1.725400 
# 
# From -- ./inp_files/23799.got.cif
#   From: 2010.03.12/outbox.cif.g09.slc.cpg/sg51_12_cif.got.tgz:23799.got - 2010.04.16 13:43:02.
