data_PCOD8211334
_publ_section_title
;
Structure prediction by ZEFSAII (Michael W. Deem and Ramdas Pophale) SiO2 
 PCOD8211334
Probable space group: P M M A
;
_chemical_formula_sum "Si O2"
_cell_formula_units_Z 36
_cell_length_a 9.787349
_cell_length_b 7.794500
_cell_length_c 24.956753
_cell_angle_alpha 90.000000
_cell_angle_beta 90.000000
_cell_angle_gamma 90.000000
_cell_volume 1903.888089
_symmetry_space_group_name_H-M "P M M A"
_symmetry_group_IT_number 51
_symmetry_cell_setting 'orthorhombic'
loop_
_space_group_symop_operation_xyz
x,y,z
1/2-x,-y,z
1/2+x,-y,-z
-x,y,-z
-x,-y,-z
1/2+x,y,-z
1/2-x,y,z
x,-y,z
loop_
_atom_site_type_symbol
_atom_site_label
_atom_site_fract_x
_atom_site_fract_y
_atom_site_fract_z
Si Si1 0.912072 0.309598 0.871448
Si Si2 0.402705 0.202230 0.545802
Si Si3 0.598335 0.296928 0.753042
Si Si4 0.412928 0.000000 0.053424
Si Si5 0.402474 0.702036 0.662093
O O1 0.750000 0.318086 0.869126
O O2 0.969026 0.500000 0.886951
O O3 0.962260 0.253792 0.812069
O O4 0.960053 0.169251 0.914326
O O5 0.500000 0.282694 0.500000
O O6 0.250000 0.280347 0.539586
O O7 0.463344 0.251126 0.603891
O O8 0.397042 0.000000 0.539280
O O9 0.750000 0.217066 0.745713
O O10 0.608034 0.500000 0.746544
O O11 0.498918 0.216526 0.707998
O O12 0.250000 0.000000 0.042083
O O13 0.500000 0.000000 0.000000
O O14 0.250000 0.780809 0.667798
O O15 0.396671 0.500000 0.669418
#
# Coordination Sequence:
#
# PCOD8211334 Si02
#       5
#     8   8   8   4   8
#     4   8  15  30  51  72  97 131 165 198 241 287
#     4   9  18  32  46  59  82 116 150 183 223 271
#     4   8  14  27  47  68  90 117 149 184 223 271
#     4  10  20  34  52  74 102 132 165 204 241 280
#     4   9  17  29  45  66  91 116 143 181 231 279
#
# _framework density 18.908673
#
# number of rings (size 3 to 8) (size 9 to 14) (size 15 to 20)
#    0.000    3.333    0.000    1.333    0.000    1.778 
#    2.000    1.111    0.000    1.333    0.000    0.000 
#    0.000    0.000    0.000    0.000    0.000    0.000 
#
# Total GULP energy -446152.935067 kJ/mol
# GULP energy per Si atom -12393.137085 kJ/mol
# Density = 1.886564 g / cm^3
# Si number density = 18.908673 Si / 1000 Ang^3
#
#
#
# Elastic Constant Matrix: (Units=GPa)
#
#
# Indices 1 2 3 4 5 6 
#
# 1 69.9535 23.2555 77.4575 0.0000 0.0000 0.0000
# 2 23.2555 54.1223 49.1422 0.0000 0.0000 0.0000
# 3 77.4575 49.1422 192.1061 0.0000 0.0000 0.0000
# 4 0.0000 0.0000 0.0000 -26.6173 0.0000 0.0000
# 5 0.0000 0.0000 0.0000 0.0000 35.4776 0.0000
# 6 0.0000 0.0000 0.0000 0.0000 0.0000 9.9977
#
#
#
# Elastic Compliance Matrix: (Units=1/GPa)
#
#
# Indices 1 2 3 4 5 6 
#
# 1 0.026016 -0.002155 -0.009939 0.000000 0.000000 0.000000
# 2 -0.002155 0.024245 -0.005333 0.000000 0.000000 0.000000
# 3 -0.009939 -0.005333 0.010577 0.000000 0.000000 0.000000
# 4 0.000000 0.000000 0.000000 -0.037570 0.000000 0.000000
# 5 0.000000 0.000000 0.000000 0.000000 0.028187 0.000000
# 6 0.000000 0.000000 0.000000 0.000000 0.000000 0.100023
#
#
# Mechanical properties :
#
#
# Convention : Reuss Voigt Hill
#
# Bulk Modulus (GPa) = 38.48355 68.43247 53.45801
# Shear Modulus (GPa) = 25.64191 14.86006 20.25099
#
# Velocity S-wave (km/s) = 3.68651 2.80641 3.27615
# Velocity P-wave (km/s) = 6.20621 6.83892 6.53023
#
# Compressibility (1/GPa) = 0.02598513
#
# Stress axis : x y z
#
# Youngs Moduli (GPa) = 38.43753 41.24552 94.54469
#
# Poissons Ratio (x) = 0.08887 0.93964
# Poissons Ratio (y) = 0.08282 0.50423
# Poissons Ratio (z) = 0.38202 0.21997
#
# Static dielectric constant tensor:
#      x y z
#    x 3.585870 0.000000 0.000000 
#    y 0.000000 3.429540 0.000000 
#    z 0.000000 0.000000 3.641550 
# 
# 
# High freq. dielectric constant tensor:
#      x y z
#    x 1.701180 0.000000 0.000000 
#    y 0.000000 1.718530 0.000000 
#    z 0.000000 0.000000 1.738000 
# 
# From -- ./inp_files/32750.got.cif
#   From: 2010.03.12/outbox.cif.g09.slc.cpg/sg51_17_cif.got.tgz:32750.got - 2010.04.16 13:43:02.
