data_PCOD8211869
_publ_section_title
;
Structure prediction by ZEFSAII (Michael W. Deem and Ramdas Pophale) SiO2 
 PCOD8211869
Probable space group: P M M A
;
_chemical_formula_sum "Si O2"
_cell_formula_units_Z 40
_cell_length_a 9.209508
_cell_length_b 7.641233
_cell_length_c 29.085056
_cell_angle_alpha 90.000000
_cell_angle_beta 90.000000
_cell_angle_gamma 90.000000
_cell_volume 2046.773457
_symmetry_space_group_name_H-M "P M M A"
_symmetry_group_IT_number 51
_symmetry_cell_setting 'orthorhombic'
loop_
_space_group_symop_operation_xyz
x,y,z
1/2-x,-y,z
1/2+x,-y,-z
-x,y,-z
-x,-y,-z
1/2+x,y,-z
1/2-x,y,z
x,-y,z
loop_
_atom_site_type_symbol
_atom_site_label
_atom_site_fract_x
_atom_site_fract_y
_atom_site_fract_z
Si Si1 0.917581 0.794376 0.045233
Si Si2 0.579321 0.000000 0.799688
Si Si3 0.913133 0.707815 0.543539
Si Si4 0.418887 0.700524 0.634064
Si Si5 0.581140 0.000000 0.295950
Si Si6 0.915065 0.304768 0.866262
O O1 0.750000 0.741674 0.040739
O O2 0.984788 0.700219 0.089096
O O3 0.939586 0.000000 0.051499
O O4 0.000000 0.726407 0.000000
O O5 0.527914 0.171236 0.827677
O O6 0.750000 0.000000 0.791445
O O7 0.505147 0.000000 0.750856
O O8 0.750000 0.783706 0.543270
O O9 0.910578 0.500000 0.540360
O O10 0.000000 0.785893 0.500000
O O11 0.991973 0.766923 0.590097
O O12 0.250000 0.719127 0.621494
O O13 0.457554 0.500000 0.647265
O O14 0.461846 0.825101 0.676262
O O15 0.750000 0.000000 0.284103
O O16 0.750000 0.255341 0.880447
O O17 0.922962 0.500000 0.845387
#
# Coordination Sequence:
#
# PCOD8211869 Si02
#       6
#     8   4   8   8   4   8
#     4  10  20  34  56  85 117 153 189 225 269 321
#     4  10  22  40  59  80 109 140 175 226 280 328
#     4   9  16  27  47  76 108 142 178 215 258 311
#     4   9  18  34  54  76 105 139 175 218 265 313
#     4  10  22  38  57  80 105 136 177 222 272 328
#     4  10  21  38  60  84 111 146 186 227 274 326
#
# _framework density 19.542953000000001
#
# number of rings (size 3 to 8) (size 9 to 14) (size 15 to 20)
#    0.000    2.400    1.000    1.200    0.000    6.400 
#    0.000    0.500    0.000    0.000    0.000    0.000 
#    0.000    0.000    0.000    0.000    0.000    0.000 
#
# Total GULP energy -496081.708080 kJ/mol
# GULP energy per Si atom -12402.042702 kJ/mol
# Density = 1.949847 g / cm^3
# Si number density = 19.542953 Si / 1000 Ang^3
#
#
#
# Elastic Constant Matrix: (Units=GPa)
#
#
# Indices 1 2 3 4 5 6 
#
# 1 101.4644 39.9147 77.0543 0.0000 0.0000 0.0000
# 2 39.9147 98.3097 66.7042 0.0000 0.0000 0.0000
# 3 77.0543 66.7042 171.6668 0.0000 0.0000 0.0000
# 4 0.0000 0.0000 0.0000 1.1141 0.0000 0.0000
# 5 0.0000 0.0000 0.0000 0.0000 43.7885 0.0000
# 6 0.0000 0.0000 0.0000 0.0000 0.0000 13.6230
#
#
#
# Elastic Compliance Matrix: (Units=1/GPa)
#
#
# Indices 1 2 3 4 5 6 
#
# 1 0.015266 -0.002103 -0.006035 0.000000 0.000000 0.000000
# 2 -0.002103 0.014104 -0.004536 0.000000 0.000000 0.000000
# 3 -0.006035 -0.004536 0.010297 0.000000 0.000000 0.000000
# 4 0.000000 0.000000 0.000000 0.897580 0.000000 0.000000
# 5 0.000000 0.000000 0.000000 0.000000 0.022837 0.000000
# 6 0.000000 0.000000 0.000000 0.000000 0.000000 0.073405
#
#
# Mechanical properties :
#
#
# Convention : Reuss Voigt Hill
#
# Bulk Modulus (GPa) = 69.84443 82.08747 75.96595
# Shear Modulus (GPa) = 4.70097 24.22297 14.46197
#
# Velocity S-wave (km/s) = 1.55264 3.52444 2.72326
# Velocity P-wave (km/s) = 6.24746 7.65879 6.98884
#
# Compressibility (1/GPa) = 0.01431753
#
# Stress axis : x y z
#
# Youngs Moduli (GPa) = 65.50370 70.90316 97.11793
#
# Poissons Ratio (x) = 0.14914 0.58612
# Poissons Ratio (y) = 0.13778 0.44054
# Poissons Ratio (z) = 0.39532 0.32163
#
# Static dielectric constant tensor:
#      x y z
#    x 3.600520 0.000000 0.000000 
#    y 0.000000 3.578890 0.000000 
#    z 0.000000 0.000000 3.419710 
# 
# 
# High freq. dielectric constant tensor:
#      x y z
#    x 1.760740 0.000000 0.000000 
#    y 0.000000 1.759220 0.000000 
#    z 0.000000 0.000000 1.752320 
# 
# From -- ./inp_files/36037.got.cif
#   From: 2010.03.12/outbox.cif.g09.slc.cpg/sg51_19_cif.got.tgz:36037.got - 2010.04.16 13:43:02.
