data_PCOD8211545
_publ_section_title
;
Structure prediction by ZEFSAII (Michael W. Deem and Ramdas Pophale) SiO2 
 PCOD8211545
Probable space group: P M M A
;
_chemical_formula_sum "Si O2"
_cell_formula_units_Z 56
_cell_length_a 15.288208
_cell_length_b 23.430833
_cell_length_c 8.081580
_cell_angle_alpha 90.000000
_cell_angle_beta 90.000000
_cell_angle_gamma 90.000000
_cell_volume 2894.946804
_symmetry_space_group_name_H-M "P M M A"
_symmetry_group_IT_number 51
_symmetry_cell_setting 'orthorhombic'
loop_
_space_group_symop_operation_xyz
x,y,z
1/2-x,-y,z
1/2+x,-y,-z
-x,y,-z
-x,-y,-z
1/2+x,y,-z
1/2-x,y,z
x,-y,z
loop_
_atom_site_type_symbol
_atom_site_label
_atom_site_fract_x
_atom_site_fract_y
_atom_site_fract_z
Si Si1 0.845940 0.337977 0.882761
Si Si2 0.850641 0.739785 0.196436
Si Si3 0.478807 0.348040 0.680491
Si Si4 0.649242 0.132336 0.182553
Si Si5 0.602634 0.064346 0.509747
Si Si6 0.092083 0.437431 0.915688
Si Si7 0.647449 0.936397 0.871646
O O1 0.750000 0.330794 0.795686
O O2 0.928774 0.332508 0.764431
O O3 0.858655 0.288068 0.016082
O O4 0.844333 0.400448 0.967850
O O5 0.750000 0.737421 0.260379
O O6 0.889052 0.803921 0.191740
O O7 0.914736 0.706505 0.320970
O O8 0.500000 0.368311 0.500000
O O9 0.425529 0.401574 0.751044
O O10 0.750000 0.138765 0.139391
O O11 0.639435 0.100982 0.358292
O O12 0.605378 0.099060 0.025760
O O13 0.500000 0.063568 0.500000
O O14 0.628389 0.090902 0.689713
O O15 0.641142 0.000000 0.495177
O O16 0.133845 0.500000 0.877731
O O17 0.000000 0.446833 0.000000
O O18 0.750000 0.940143 0.899526
O O19 0.606001 0.000000 0.876907
#
# Coordination Sequence:
#
# PCOD8211545 Si02
#       7
#     8   8   8   8   8   8   8
#     4   9  18  35  56  76 105 145 186 226 269 321
#     4   9  19  37  55  74 103 139 184 235 276 324
#     4  10  20  34  53  80 113 147 180 223 281 333
#     4  10  20  36  57  79 102 135 181 228 277 328
#     4  10  21  36  52  77 112 142 171 214 272 337
#     4   8  15  30  53  79 106 140 182 221 259 311
#     4   9  18  34  56  79 102 133 175 220 271 333
#
# _framework density 19.344052000000001
#
# number of rings (size 3 to 8) (size 9 to 14) (size 15 to 20)
#    0.000    2.714    0.000    2.143    0.000    3.714 
#    7.714    2.143    0.000    0.000    0.000    4.000 
#    0.000    0.000    0.000    0.000    0.000    0.000 
#
# Total GULP energy -693901.590794 kJ/mol
# GULP energy per Si atom -12391.099836 kJ/mol
# Density = 1.930002 g / cm^3
# Si number density = 19.344052 Si / 1000 Ang^3
#
#
#
# Elastic Constant Matrix: (Units=GPa)
#
#
# Indices 1 2 3 4 5 6 
#
# 1 57.3521 13.6092 8.1123 0.0000 0.0000 0.0000
# 2 13.6092 135.9715 51.7716 0.0000 0.0000 0.0000
# 3 8.1123 51.7716 113.1763 0.0000 0.0000 0.0000
# 4 0.0000 0.0000 0.0000 12.8615 0.0000 0.0000
# 5 0.0000 0.0000 0.0000 0.0000 18.6816 0.0000
# 6 0.0000 0.0000 0.0000 0.0000 0.0000 17.1366
#
#
#
# Elastic Compliance Matrix: (Units=1/GPa)
#
#
# Indices 1 2 3 4 5 6 
#
# 1 0.017890 -0.001577 -0.000561 0.000000 0.000000 0.000000
# 2 -0.001577 0.009045 -0.004024 0.000000 0.000000 0.000000
# 3 -0.000561 -0.004024 0.010717 0.000000 0.000000 0.000000
# 4 0.000000 0.000000 0.000000 0.077751 0.000000 0.000000
# 5 0.000000 0.000000 0.000000 0.000000 0.053528 0.000000
# 6 0.000000 0.000000 0.000000 0.000000 0.000000 0.058355
#
#
# Mechanical properties :
#
#
# Convention : Reuss Voigt Hill
#
# Bulk Modulus (GPa) = 39.48405 50.38735 44.93570
# Shear Modulus (GPa) = 20.15703 25.26974 22.71338
#
# Velocity S-wave (km/s) = 3.23155 3.61824 3.43035
# Velocity P-wave (km/s) = 5.86342 6.60001 6.24258
#
# Compressibility (1/GPa) = 0.02532668
#
# Stress axis : x y z
#
# Youngs Moduli (GPa) = 55.89808 110.56318 93.31069
#
# Poissons Ratio (x) = 0.17436 0.05234
# Poissons Ratio (y) = 0.08815 0.37551
# Poissons Ratio (z) = 0.03135 0.44494
#
# Static dielectric constant tensor:
#      x y z
#    x 3.417050 0.000000 0.000000 
#    y 0.000000 3.917090 0.000000 
#    z 0.000000 0.000000 3.323680 
# 
# 
# High freq. dielectric constant tensor:
#      x y z
#    x 1.748740 0.000000 0.000000 
#    y 0.000000 1.749970 0.000000 
#    z 0.000000 0.000000 1.736130 
# 
# From -- ./inp_files/8521.got.cif
#   From: 2010.03.12/outbox.cif.g09.slc.cpg/sg51_5_cif.got.tgz:8521.got - 2010.04.16 13:43:02.
