data_PCOD8211569
_publ_section_title
;
Structure prediction by ZEFSAII (Michael W. Deem and Ramdas Pophale) SiO2 
 PCOD8211569
Probable space group: P M M A
;
_chemical_formula_sum "Si O2"
_cell_formula_units_Z 48
_cell_length_a 9.733712
_cell_length_b 7.791151
_cell_length_c 34.111905
_cell_angle_alpha 90.000000
_cell_angle_beta 90.000000
_cell_angle_gamma 90.000000
_cell_volume 2586.938399
_symmetry_space_group_name_H-M "P M M A"
_symmetry_group_IT_number 51
_symmetry_cell_setting 'orthorhombic'
loop_
_space_group_symop_operation_xyz
x,y,z
1/2-x,-y,z
1/2+x,-y,-z
-x,y,-z
-x,-y,-z
1/2+x,y,-z
1/2-x,y,z
x,-y,z
loop_
_atom_site_type_symbol
_atom_site_label
_atom_site_fract_x
_atom_site_fract_y
_atom_site_fract_z
Si Si1 0.585946 0.000000 0.460640
Si Si2 0.101258 0.303113 0.679376
Si Si3 0.913149 0.692389 0.405334
Si Si4 0.096664 0.196069 0.253725
Si Si5 0.409015 0.000000 0.961713
Si Si6 0.408915 0.302575 0.902927
Si Si7 0.405039 0.298223 0.169182
O O1 0.500000 0.000000 0.500000
O O2 0.537570 0.829370 0.437458
O O3 0.750000 0.000000 0.468438
O O4 0.250000 0.215119 0.689073
O O5 0.129475 0.500000 0.671391
O O6 0.038839 0.236851 0.637829
O O7 0.999536 0.289066 0.715604
O O8 0.750000 0.685513 0.404591
O O9 0.971623 0.500000 0.414901
O O10 0.250000 0.276652 0.255626
O O11 0.039682 0.216071 0.209531
O O12 0.100051 0.000000 0.266032
O O13 0.444821 0.826168 0.938138
O O14 0.250000 0.000000 0.973930
O O15 0.500000 0.000000 0.000000
O O16 0.250000 0.286709 0.891050
O O17 0.444893 0.500000 0.914955
O O18 0.496970 0.239086 0.865931
O O19 0.250000 0.234802 0.160005
O O20 0.410515 0.500000 0.174380
#
# Coordination Sequence:
#
# PCOD8211569 Si02
#       7
#     4   8   8   8   4   8   8
#     4  10  20  34  54  77 102 133 163 202 257 308
#     4   9  18  33  53  75  97 128 175 221 255 297
#     4   8  16  32  53  76 101 131 169 210 253 304
#     4  10  21  33  46  72 108 142 173 210 257 306
#     4  10  22  38  56  81 108 135 167 206 257 310
#     4   9  19  36  56  78 106 137 170 212 258 302
#     4   9  18  33  52  73  99 135 176 212 249 298
#
# _framework density 18.554751
#
# number of rings (size 3 to 8) (size 9 to 14) (size 15 to 20)
#    0.000    2.833    0.000    1.500    2.333    3.333 
#    0.000    2.500    0.000    1.000    0.000    0.000 
#    0.000    0.000    0.000    0.000    0.000    0.000 
#
# Total GULP energy -594880.121826 kJ/mol
# GULP energy per Si atom -12393.335871 kJ/mol
# Density = 1.851252 g / cm^3
# Si number density = 18.554751 Si / 1000 Ang^3
#
#
#
# Elastic Constant Matrix: (Units=GPa)
#
#
# Indices 1 2 3 4 5 6 
#
# 1 66.9940 30.4044 76.0224 0.0000 0.0000 0.0000
# 2 30.4044 79.2179 59.2208 0.0000 0.0000 0.0000
# 3 76.0224 59.2208 162.9316 0.0000 0.0000 0.0000
# 4 0.0000 0.0000 0.0000 31.0808 0.0000 0.0000
# 5 0.0000 0.0000 0.0000 0.0000 37.7757 0.0000
# 6 0.0000 0.0000 0.0000 0.0000 0.0000 15.5782
#
#
#
# Elastic Compliance Matrix: (Units=1/GPa)
#
#
# Indices 1 2 3 4 5 6 
#
# 1 0.031858 -0.001531 -0.014308 0.000000 0.000000 0.000000
# 2 -0.001531 0.017407 -0.005612 0.000000 0.000000 0.000000
# 3 -0.014308 -0.005612 0.014854 0.000000 0.000000 0.000000
# 4 0.000000 0.000000 0.000000 0.032174 0.000000 0.000000
# 5 0.000000 0.000000 0.000000 0.000000 0.026472 0.000000
# 6 0.000000 0.000000 0.000000 0.000000 0.000000 0.064192
#
#
# Mechanical properties :
#
#
# Convention : Reuss Voigt Hill
#
# Bulk Modulus (GPa) = 47.13651 71.15987 59.14819
# Shear Modulus (GPa) = 21.10312 26.45332 23.77822
#
# Velocity S-wave (km/s) = 3.37611 3.77993 3.58371
# Velocity P-wave (km/s) = 6.37626 7.58189 7.00506
#
# Compressibility (1/GPa) = 0.02121498
#
# Stress axis : x y z
#
# Youngs Moduli (GPa) = 31.38939 57.44907 67.32391
#
# Poissons Ratio (x) = 0.08795 0.96328
# Poissons Ratio (y) = 0.04806 0.37785
# Poissons Ratio (z) = 0.44912 0.32243
#
# Static dielectric constant tensor:
#      x y z
#    x 3.259560 0.000000 0.000000 
#    y 0.000000 3.593900 0.000000 
#    z 0.000000 0.000000 3.393640 
# 
# 
# High freq. dielectric constant tensor:
#      x y z
#    x 1.694550 0.000000 0.000000 
#    y 0.000000 1.725760 0.000000 
#    z 0.000000 0.000000 1.717370 
# 
# From -- ./inp_files/37094.got.cif
#   From: 2010.03.12/outbox.cif.g09.slc.cpg/sg51_19_cif.got.tgz:37094.got - 2010.04.16 13:43:02.
