data_PCOD8211786
_publ_section_title
;
Structure prediction by ZEFSAII (Michael W. Deem and Ramdas Pophale) SiO2 
 PCOD8211786
Probable space group: P M M A
;
_chemical_formula_sum "Si O2"
_cell_formula_units_Z 64
_cell_length_a 23.384762
_cell_length_b 9.112415
_cell_length_c 15.084403
_cell_angle_alpha 90.000000
_cell_angle_beta 90.000000
_cell_angle_gamma 90.000000
_cell_volume 3214.360415
_symmetry_space_group_name_H-M "P M M A"
_symmetry_group_IT_number 51
_symmetry_cell_setting 'orthorhombic'
loop_
_space_group_symop_operation_xyz
x,y,z
1/2-x,-y,z
1/2+x,-y,-z
-x,y,-z
-x,-y,-z
1/2+x,y,-z
1/2-x,y,z
x,-y,z
loop_
_atom_site_type_symbol
_atom_site_label
_atom_site_fract_x
_atom_site_fract_y
_atom_site_fract_z
Si Si1 0.316435 0.669318 0.300832
Si Si2 0.009107 0.166285 0.599500
Si Si3 0.640095 0.836301 0.350761
Si Si4 0.684191 0.657712 0.504876
Si Si5 0.614672 0.172085 0.845280
Si Si6 0.009226 0.672955 0.224570
Si Si7 0.316324 0.827484 0.979579
Si Si8 0.120438 0.327978 0.819628
O O1 0.250000 0.707930 0.292167
O O2 0.328029 0.500000 0.273733
O O3 0.341721 0.700171 0.399412
O O4 0.349792 0.781781 0.239863
O O5 0.075682 0.169445 0.617796
O O6 0.000000 0.231119 0.500000
O O7 0.979545 0.263315 0.676270
O O8 0.984853 0.000000 0.604545
O O9 0.677220 0.783794 0.433293
O O10 0.652224 0.731923 0.267554
O O11 0.659163 0.000000 0.324684
O O12 0.750000 0.633180 0.524718
O O13 0.658123 0.500000 0.472357
O O14 0.553967 0.256616 0.844555
O O15 0.601999 0.000000 0.843346
O O16 0.651926 0.217404 0.930264
O O17 0.018610 0.500000 0.229833
O O18 0.946641 0.712919 0.186564
O O19 0.250000 0.776311 0.983631
O O20 0.350562 0.745875 0.903265
O O21 0.319943 0.000000 0.962038
O O22 0.130319 0.500000 0.825338
#
# Coordination Sequence:
#
# PCOD8211786 Si02
#       8
#     8   8   8   8   8   8   8   8
#     4   9  19  36  56  80 114 155 196 242 295 350
#     4   9  19  35  54  80 115 151 191 239 286 336
#     4  10  20  34  55  82 113 149 187 235 288 338
#     4   9  19  35  53  76 110 151 193 236 284 340
#     4  11  23  38  60  88 120 155 194 242 295 354
#     4  10  22  39  58  86 120 156 199 241 292 352
#     4  10  23  43  65  90 118 150 192 242 298 359
#     4  10  22  41  63  86 116 153 195 244 295 351
#
# _framework density 19.910647999999998
#
# number of rings (size 3 to 8) (size 9 to 14) (size 15 to 20)
#    0.000    2.250    0.000    2.625    1.750    6.000 
#    0.000    3.750    0.000    0.000    0.000    0.000 
#    0.000    0.000    0.000    0.000    0.000    0.000 
#
# Total GULP energy -793489.623493 kJ/mol
# GULP energy per Si atom -12398.275367 kJ/mol
# Density = 1.986533 g / cm^3
# Si number density = 19.910648 Si / 1000 Ang^3
#
#
#
# Elastic Constant Matrix: (Units=GPa)
#
#
# Indices 1 2 3 4 5 6 
#
# 1 76.4625 49.0557 64.3584 0.0000 0.0000 0.0000
# 2 49.0557 75.2407 66.8740 0.0000 0.0000 0.0000
# 3 64.3584 66.8740 147.3116 0.0000 0.0000 0.0000
# 4 0.0000 0.0000 0.0000 33.0987 0.0000 0.0000
# 5 0.0000 0.0000 0.0000 0.0000 31.7141 0.0000
# 6 0.0000 0.0000 0.0000 0.0000 0.0000 31.0977
#
#
#
# Elastic Compliance Matrix: (Units=1/GPa)
#
#
# Indices 1 2 3 4 5 6 
#
# 1 0.025268 -0.011169 -0.005969 0.000000 0.000000 0.000000
# 2 -0.011169 0.027218 -0.007476 0.000000 0.000000 0.000000
# 3 -0.005969 -0.007476 0.012790 0.000000 0.000000 0.000000
# 4 0.000000 0.000000 0.000000 0.030213 0.000000 0.000000
# 5 0.000000 0.000000 0.000000 0.000000 0.031532 0.000000
# 6 0.000000 0.000000 0.000000 0.000000 0.000000 0.032157
#
#
# Mechanical properties :
#
#
# Convention : Reuss Voigt Hill
#
# Bulk Modulus (GPa) = 62.31614 73.28790 67.80202
# Shear Modulus (GPa) = 23.39136 27.09722 25.24429
#
# Velocity S-wave (km/s) = 3.43128 3.69310 3.56459
# Velocity P-wave (km/s) = 6.86033 7.42116 7.14625
#
# Compressibility (1/GPa) = 0.01604721
#
# Stress axis : x y z
#
# Youngs Moduli (GPa) = 39.57563 36.74093 78.18657
#
# Poissons Ratio (x) = 0.41037 0.46668
# Poissons Ratio (y) = 0.44203 0.58453
# Poissons Ratio (z) = 0.23622 0.27468
#
# Static dielectric constant tensor:
#      x y z
#    x 4.041910 0.000000 0.000000 
#    y 0.000000 3.688150 0.000000 
#    z 0.000000 0.000000 3.739780 
# 
# 
# High freq. dielectric constant tensor:
#      x y z
#    x 1.772960 0.000000 0.000000 
#    y 0.000000 1.777860 0.000000 
#    z 0.000000 0.000000 1.779410 
# 
# From -- ./inp_files/26193.got.cif
#   From: 2010.03.12/outbox.cif.g09.slc.cpg/sg51_14_cif.got.tgz:26193.got - 2010.04.16 13:43:02.
