data_PCOD8211687
_publ_section_title
;
Structure prediction by ZEFSAII (Michael W. Deem and Ramdas Pophale) SiO2 
 PCOD8211687
Probable space group: P M M A
;
_chemical_formula_sum "Si O2"
_cell_formula_units_Z 40
_cell_length_a 19.365353
_cell_length_b 8.724369
_cell_length_c 12.686939
_cell_angle_alpha 90.000000
_cell_angle_beta 90.000000
_cell_angle_gamma 90.000000
_cell_volume 2143.464502
_symmetry_space_group_name_H-M "P M M A"
_symmetry_group_IT_number 51
_symmetry_cell_setting 'orthorhombic'
loop_
_space_group_symop_operation_xyz
x,y,z
1/2-x,-y,z
1/2+x,-y,-z
-x,y,-z
-x,-y,-z
1/2+x,y,-z
1/2-x,y,z
x,-y,z
loop_
_atom_site_type_symbol
_atom_site_label
_atom_site_fract_x
_atom_site_fract_y
_atom_site_fract_z
Si Si1 0.331380 0.825576 0.723570
Si Si2 0.830163 0.679229 0.719629
Si Si3 0.075107 0.320360 0.893410
Si Si4 0.430139 0.179807 0.115220
Si Si5 0.668134 0.669296 0.485846
O O1 0.250000 0.798683 0.734118
O O2 0.367590 0.715037 0.806520
O O3 0.356957 0.784519 0.605305
O O4 0.352214 0.000000 0.746745
O O5 0.750000 0.719522 0.734324
O O6 0.843391 0.500000 0.741215
O O7 0.871828 0.782827 0.800400
O O8 0.856323 0.723622 0.601753
O O9 0.072836 0.500000 0.915702
O O10 0.000682 0.264738 0.852490
O O11 0.095668 0.234901 0.000980
O O12 0.444261 0.000000 0.111993
O O13 0.750000 0.659696 0.489140
O O14 0.638240 0.500000 0.461001
#
# Coordination Sequence:
#
# PCOD8211687 Si02
#       5
#     8   8   8   8   8
#     4  10  20  34  54  81 111 139 171 215 264 311
#     4   9  18  34  56  81 109 141 178 216 254 305
#     4  11  22  38  58  76 101 139 180 217 259 315
#     4  11  22  37  56  78 107 138 172 217 268 317
#     4   8  15  30  52  77 106 140 175 211 254 305
#
# _framework density 18.661379
#
# number of rings (size 3 to 8) (size 9 to 14) (size 15 to 20)
#    0.000    2.200    0.000    6.600    0.000    3.200 
#    0.000    3.000    0.000    6.000    0.000    0.000 
#    0.000    0.000    0.000    0.000    0.000    0.000 
#
# Total GULP energy -496001.584375 kJ/mol
# GULP energy per Si atom -12400.039609 kJ/mol
# Density = 1.861890 g / cm^3
# Si number density = 18.661379 Si / 1000 Ang^3
#
#
#
# Elastic Constant Matrix: (Units=GPa)
#
#
# Indices 1 2 3 4 5 6 
#
# 1 48.8516 25.9755 46.2371 0.0000 0.0000 0.0000
# 2 25.9755 77.6938 30.9955 0.0000 0.0000 0.0000
# 3 46.2371 30.9955 108.8281 0.0000 0.0000 0.0000
# 4 0.0000 0.0000 0.0000 28.8464 0.0000 0.0000
# 5 0.0000 0.0000 0.0000 0.0000 -16.9562 0.0000
# 6 0.0000 0.0000 0.0000 0.0000 0.0000 26.5289
#
#
#
# Elastic Compliance Matrix: (Units=1/GPa)
#
#
# Indices 1 2 3 4 5 6 
#
# 1 0.037278 -0.006932 -0.013864 0.000000 0.000000 0.000000
# 2 -0.006932 0.015810 -0.001558 0.000000 0.000000 0.000000
# 3 -0.013864 -0.001558 0.015523 0.000000 0.000000 0.000000
# 4 0.000000 0.000000 0.000000 0.034666 0.000000 0.000000
# 5 0.000000 0.000000 0.000000 0.000000 -0.058976 0.000000
# 6 0.000000 0.000000 0.000000 0.000000 0.000000 0.037695
#
#
# Mechanical properties :
#
#
# Convention : Reuss Voigt Hill
#
# Bulk Modulus (GPa) = 41.83492 49.08774 45.46133
# Shear Modulus (GPa) = 37.12749 16.49486 26.81117
#
# Velocity S-wave (km/s) = 4.46526 2.97628 3.79452
# Velocity P-wave (km/s) = 7.00366 6.17839 6.60393
#
# Compressibility (1/GPa) = 0.02390347
#
# Stress axis : x y z
#
# Youngs Moduli (GPa) = 26.82551 63.25059 64.42232
#
# Poissons Ratio (x) = 0.43848 0.89313
# Poissons Ratio (y) = 0.18596 0.10034
# Poissons Ratio (z) = 0.37190 0.09852
#
# Static dielectric constant tensor:
#      x y z
#    x 3.139380 0.000000 0.000000 
#    y 0.000000 3.480900 0.000000 
#    z 0.000000 0.000000 3.602750 
# 
# 
# High freq. dielectric constant tensor:
#      x y z
#    x 1.697080 0.000000 0.000000 
#    y 0.000000 1.730220 0.000000 
#    z 0.000000 0.000000 1.735410 
# 
# From -- ./inp_files/17894.got.cif
#   From: 2010.03.12/outbox.cif.g09.slc.cpg/sg51_9_cif.got.tgz:17894.got - 2010.04.16 13:43:02.
