data_PCOD8211255
_publ_section_title
;
Structure prediction by ZEFSAII (Michael W. Deem and Ramdas Pophale) SiO2 
 PCOD8211255
Probable space group: P M M A
;
_chemical_formula_sum "Si O2"
_cell_formula_units_Z 64
_cell_length_a 8.767553
_cell_length_b 14.352753
_cell_length_c 25.515986
_cell_angle_alpha 90.000000
_cell_angle_beta 90.000000
_cell_angle_gamma 90.000000
_cell_volume 3210.893982
_symmetry_space_group_name_H-M "P M M A"
_symmetry_group_IT_number 51
_symmetry_cell_setting 'orthorhombic'
loop_
_space_group_symop_operation_xyz
x,y,z
1/2-x,-y,z
1/2+x,-y,-z
-x,y,-z
-x,-y,-z
1/2+x,y,-z
1/2-x,y,z
x,-y,z
loop_
_atom_site_type_symbol
_atom_site_label
_atom_site_fract_x
_atom_site_fract_y
_atom_site_fract_z
Si Si1 0.575342 0.103722 0.108974
Si Si2 0.929747 0.284338 0.257576
Si Si3 0.930097 0.714812 0.442481
Si Si4 0.072502 0.393199 0.352799
Si Si5 0.428524 0.899102 0.443009
Si Si6 0.427844 0.287544 0.945748
Si Si7 0.431421 0.604820 0.844590
Si Si8 0.572630 0.894535 0.780947
O O1 0.750000 0.119260 0.127908
O O2 0.533308 0.178674 0.064473
O O3 0.467311 0.119900 0.158308
O O4 0.552595 0.000000 0.085435
O O5 0.750000 0.294504 0.265461
O O6 0.988495 0.335949 0.205076
O O7 0.013288 0.329415 0.306314
O O8 0.975331 0.175772 0.254666
O O9 0.750000 0.715721 0.446772
O O10 0.000000 0.702040 0.500000
O O11 0.984189 0.630083 0.406349
O O12 0.988575 0.811787 0.415043
O O13 0.250000 0.374395 0.361849
O O14 0.038771 0.500000 0.338351
O O15 0.500000 0.905972 0.500000
O O16 0.250000 0.877057 0.447427
O O17 0.454949 0.000000 0.414493
O O18 0.250000 0.305004 0.950631
O O19 0.495047 0.348623 0.897860
O O20 0.500000 0.320758 0.000000
O O21 0.250000 0.605085 0.845513
O O22 0.495796 0.500000 0.840254
O O23 0.750000 0.873276 0.772998
O O24 0.532168 0.000000 0.763558
#
# Coordination Sequence:
#
# PCOD8211255 Si02
#       8
#     8   8   8   8   8   8   8   8
#     4   9  17  32  53  76 105 143 188 234 283 345
#     4  11  21  38  64  90 116 150 192 238 288 347
#     4  11  22  38  62  90 123 163 205 248 294 350
#     4  11  25  44  64  89 122 156 193 244 300 350
#     4   9  16  28  50  81 117 156 197 241 288 339
#     4  10  20  34  50  75 108 146 188 234 288 344
#     4   9  18  34  56  80 107 142 185 232 286 345
#     4  10  20  34  56  87 120 152 187 231 286 347
#
# _framework density 19.932144000000001
#
# number of rings (size 3 to 8) (size 9 to 14) (size 15 to 20)
#    0.000    2.000    1.250    3.750    0.000    4.250 
#    0.000    0.625    0.000    5.250    0.000    0.000 
#    0.000    0.000    0.000    0.000    0.000    0.000 
#
# Total GULP energy -793501.778784 kJ/mol
# GULP energy per Si atom -12398.465294 kJ/mol
# Density = 1.988678 g / cm^3
# Si number density = 19.932144 Si / 1000 Ang^3
#
#
#
# Elastic Constant Matrix: (Units=GPa)
#
#
# Indices 1 2 3 4 5 6 
#
# 1 85.0250 38.2719 31.5898 0.0000 0.0000 0.0000
# 2 38.2719 115.3621 48.3902 0.0000 0.0000 0.0000
# 3 31.5898 48.3902 98.5917 0.0000 0.0000 0.0000
# 4 0.0000 0.0000 0.0000 27.9694 0.0000 0.0000
# 5 0.0000 0.0000 0.0000 0.0000 31.6964 0.0000
# 6 0.0000 0.0000 0.0000 0.0000 0.0000 26.6571
#
#
#
# Elastic Compliance Matrix: (Units=1/GPa)
#
#
# Indices 1 2 3 4 5 6 
#
# 1 0.014441 -0.003589 -0.002866 0.000000 0.000000 0.000000
# 2 -0.003589 0.011808 -0.004645 0.000000 0.000000 0.000000
# 3 -0.002866 -0.004645 0.013341 0.000000 0.000000 0.000000
# 4 0.000000 0.000000 0.000000 0.035753 0.000000 0.000000
# 5 0.000000 0.000000 0.000000 0.000000 0.031549 0.000000
# 6 0.000000 0.000000 0.000000 0.000000 0.000000 0.037513
#
#
# Mechanical properties :
#
#
# Convention : Reuss Voigt Hill
#
# Bulk Modulus (GPa) = 57.50422 59.49806 58.50114
# Shear Modulus (GPa) = 29.00182 29.31303 29.15743
#
# Velocity S-wave (km/s) = 3.81862 3.83905 3.82885
# Velocity P-wave (km/s) = 6.95378 7.04033 6.99719
#
# Compressibility (1/GPa) = 0.01739003
#
# Stress axis : x y z
#
# Youngs Moduli (GPa) = 69.24520 84.69133 74.95667
#
# Poissons Ratio (x) = 0.30395 0.21480
# Poissons Ratio (y) = 0.24852 0.34820
# Poissons Ratio (z) = 0.19843 0.39342
#
# Static dielectric constant tensor:
#      x y z
#    x 3.517460 0.000000 0.000000 
#    y 0.000000 4.190060 0.000000 
#    z 0.000000 0.000000 3.385910 
# 
# 
# High freq. dielectric constant tensor:
#      x y z
#    x 1.769130 0.000000 0.000000 
#    y 0.000000 1.794240 0.000000 
#    z 0.000000 0.000000 1.753160 
# 
# From -- ./inp_files/34826.got.cif
#   From: 2010.03.12/outbox.cif.g09.slc.cpg/sg51_18_cif.got.tgz:34826.got - 2010.04.16 13:43:02.
