data_PCOD8211444
_publ_section_title
;
Structure prediction by ZEFSAII (Michael W. Deem and Ramdas Pophale) SiO2 
 PCOD8211444
Probable space group: P M M A
;
_chemical_formula_sum "Si O2"
_cell_formula_units_Z 44
_cell_length_a 9.358140
_cell_length_b 8.071448
_cell_length_c 29.981883
_cell_angle_alpha 90.000000
_cell_angle_beta 90.000000
_cell_angle_gamma 90.000000
_cell_volume 2264.643767
_symmetry_space_group_name_H-M "P M M A"
_symmetry_group_IT_number 51
_symmetry_cell_setting 'orthorhombic'
loop_
_space_group_symop_operation_xyz
x,y,z
1/2-x,-y,z
1/2+x,-y,-z
-x,y,-z
-x,-y,-z
1/2+x,y,-z
1/2-x,y,z
x,-y,z
loop_
_atom_site_type_symbol
_atom_site_label
_atom_site_fract_x
_atom_site_fract_y
_atom_site_fract_z
Si Si1 0.417228 0.690345 0.892896
Si Si2 0.591838 0.808188 0.459886
Si Si3 0.416637 0.188301 0.286839
Si Si4 0.417628 0.000000 0.954115
Si Si5 0.587050 0.310692 0.620219
Si Si6 0.090235 0.305696 0.193977
O O1 0.250000 0.698055 0.883390
O O2 0.460329 0.500000 0.907348
O O3 0.461576 0.828999 0.929096
O O4 0.494749 0.746647 0.847785
O O5 0.500000 0.724960 0.500000
O O6 0.750000 0.725361 0.458016
O O7 0.512364 0.790723 0.412943
O O8 0.610708 0.000000 0.470474
O O9 0.250000 0.225090 0.281181
O O10 0.473479 0.291774 0.329309
O O11 0.485473 0.239395 0.239385
O O12 0.452423 0.000000 0.297648
O O13 0.250000 0.000000 0.963659
O O14 0.500000 0.000000 0.000000
O O15 0.750000 0.242005 0.617632
O O16 0.581322 0.500000 0.605644
O O17 0.250000 0.231014 0.187269
O O18 0.099472 0.500000 0.198204
#
# Coordination Sequence:
#
# PCOD8211444 Si02
#       6
#     8   8   8   4   8   8
#     4   9  19  36  55  76 107 144 177 216 270 324
#     4  10  21  37  57  79 102 130 167 212 262 315
#     4   9  17  29  48  75 105 138 174 213 257 304
#     4  10  22  38  56  80 108 140 180 224 269 320
#     4  10  20  34  53  76 104 139 175 212 257 309
#     4   9  17  30  50  77 106 137 177 220 258 304
#
# _framework density 19.429106000000001
#
# number of rings (size 3 to 8) (size 9 to 14) (size 15 to 20)
#    0.000    2.545    0.000    1.636    1.273    5.818 
#    0.000    0.909    0.000    3.273    0.000    0.000 
#    0.000    0.000    0.000    0.000    0.000    0.000 
#
# Total GULP energy -545375.199611 kJ/mol
# GULP energy per Si atom -12394.890900 kJ/mol
# Density = 1.938488 g / cm^3
# Si number density = 19.429106 Si / 1000 Ang^3
#
#
#
# Elastic Constant Matrix: (Units=GPa)
#
#
# Indices 1 2 3 4 5 6 
#
# 1 72.3414 24.2047 66.5230 0.0000 0.0000 0.0000
# 2 24.2047 58.8986 50.0146 0.0000 0.0000 0.0000
# 3 66.5230 50.0146 166.9496 0.0000 0.0000 0.0000
# 4 0.0000 0.0000 0.0000 25.7650 0.0000 0.0000
# 5 0.0000 0.0000 0.0000 0.0000 30.2173 0.0000
# 6 0.0000 0.0000 0.0000 0.0000 0.0000 16.5088
#
#
#
# Elastic Compliance Matrix: (Units=1/GPa)
#
#
# Indices 1 2 3 4 5 6 
#
# 1 0.022018 -0.002144 -0.008131 0.000000 0.000000 0.000000
# 2 -0.002144 0.022980 -0.006030 0.000000 0.000000 0.000000
# 3 -0.008131 -0.006030 0.011036 0.000000 0.000000 0.000000
# 4 0.000000 0.000000 0.000000 0.038812 0.000000 0.000000
# 5 0.000000 0.000000 0.000000 0.000000 0.033094 0.000000
# 6 0.000000 0.000000 0.000000 0.000000 0.000000 0.060574
#
#
# Mechanical properties :
#
#
# Convention : Reuss Voigt Hill
#
# Bulk Modulus (GPa) = 42.69111 64.40824 53.54967
# Shear Modulus (GPa) = 21.84066 24.99471 23.41768
#
# Velocity S-wave (km/s) = 3.35643 3.59061 3.47549
# Velocity P-wave (km/s) = 6.08615 7.10017 6.61263
#
# Compressibility (1/GPa) = 0.02342408
#
# Stress axis : x y z
#
# Youngs Moduli (GPa) = 45.41825 43.51635 90.61110
#
# Poissons Ratio (x) = 0.09329 0.73675
# Poissons Ratio (y) = 0.09737 0.54639
# Poissons Ratio (z) = 0.36929 0.26241
#
# Static dielectric constant tensor:
#      x y z
#    x 4.479460 0.000000 0.000000 
#    y 0.000000 3.542090 0.000000 
#    z 0.000000 0.000000 3.613140 
# 
# 
# High freq. dielectric constant tensor:
#      x y z
#    x 1.726290 0.000000 0.000000 
#    y 0.000000 1.754310 0.000000 
#    z 0.000000 0.000000 1.762860 
# 
# From -- ./inp_files/36773.got.cif
#   From: 2010.03.12/outbox.cif.g09.slc.cpg/sg51_19_cif.got.tgz:36773.got - 2010.04.16 13:43:02.
