data_PCOD8211382
_publ_section_title
;
Structure prediction by ZEFSAII (Michael W. Deem and Ramdas Pophale) SiO2 
 PCOD8211382
Probable space group: P M M A
;
_chemical_formula_sum "Si O2"
_cell_formula_units_Z 56
_cell_length_a 21.712645
_cell_length_b 8.806833
_cell_length_c 14.758323
_cell_angle_alpha 90.000000
_cell_angle_beta 90.000000
_cell_angle_gamma 90.000000
_cell_volume 2822.081189
_symmetry_space_group_name_H-M "P M M A"
_symmetry_group_IT_number 51
_symmetry_cell_setting 'orthorhombic'
loop_
_space_group_symop_operation_xyz
x,y,z
1/2-x,-y,z
1/2+x,-y,-z
-x,y,-z
-x,-y,-z
1/2+x,y,-z
1/2-x,y,z
x,-y,z
loop_
_atom_site_type_symbol
_atom_site_label
_atom_site_fract_x
_atom_site_fract_y
_atom_site_fract_z
Si Si1 0.820861 0.322375 0.974159
Si Si2 0.923492 0.322206 0.637620
Si Si3 0.250000 0.827502 0.748837
Si Si4 0.376386 0.179180 0.534870
Si Si5 0.250000 0.322021 0.559851
Si Si6 0.373449 0.175091 0.857462
Si Si7 0.058642 0.323148 0.702941
Si Si8 0.818341 0.319487 0.770561
O O1 0.750000 0.284948 0.998178
O O2 0.833742 0.500000 0.984906
O O3 0.835081 0.265920 0.872148
O O4 0.867368 0.233339 0.039842
O O5 0.915354 0.500000 0.618339
O O6 0.923629 0.235743 0.541825
O O7 0.868772 0.256050 0.700533
O O8 0.987311 0.286865 0.686975
O O9 0.250000 0.710681 0.666535
O O10 0.191157 0.795018 0.809313
O O11 0.250000 0.000000 0.710632
O O12 0.309938 0.250553 0.512804
O O13 0.399100 0.230789 0.633266
O O14 0.371406 0.000000 0.534595
O O15 0.250000 0.500000 0.541187
O O16 0.425775 0.269363 0.804550
O O17 0.392587 0.000000 0.858146
O O18 0.073366 0.500000 0.690631
O O19 0.750000 0.260274 0.743306
O O20 0.818657 0.500000 0.769434
#
# Coordination Sequence:
#
# PCOD8211382 Si02
#       8
#     8   8   4   8   4   8   8   8
#     4   9  17  31  55  85 115 145 184 232 286 349
#     4  10  22  40  62  86 112 149 199 245 287 341
#     4  10  20  34  52  79 116 151 184 233 288 340
#     4  12  25  40  59  85 120 154 191 236 290 348
#     4  12  24  38  60  87 116 151 190 237 288 336
#     4  11  21  34  55  82 116 152 188 231 289 348
#     4  11  23  39  58  83 115 153 199 242 281 340
#     4   8  16  34  60  88 113 142 186 241 293 338
#
# _framework density 19.843512
#
# number of rings (size 3 to 8) (size 9 to 14) (size 15 to 20)
#    0.000    1.714    2.143    4.071    1.000    3.429 
#    0.000    1.429    0.000    5.143    0.000    0.000 
#    0.000    0.000    0.000    0.000    0.000    0.000 
#
# Total GULP energy -694592.623227 kJ/mol
# GULP energy per Si atom -12403.439700 kJ/mol
# Density = 1.979835 g / cm^3
# Si number density = 19.843512 Si / 1000 Ang^3
#
#
#
# Elastic Constant Matrix: (Units=GPa)
#
#
# Indices 1 2 3 4 5 6 
#
# 1 86.7655 34.7719 22.0189 0.0000 0.0000 0.0000
# 2 34.7719 87.3548 18.5048 0.0000 0.0000 0.0000
# 3 22.0189 18.5048 72.3843 0.0000 0.0000 0.0000
# 4 0.0000 0.0000 0.0000 10.5550 0.0000 0.0000
# 5 0.0000 0.0000 0.0000 0.0000 26.2016 0.0000
# 6 0.0000 0.0000 0.0000 0.0000 0.0000 18.0343
#
#
#
# Elastic Compliance Matrix: (Units=1/GPa)
#
#
# Indices 1 2 3 4 5 6 
#
# 1 0.014329 -0.005054 -0.003067 0.000000 0.000000 0.000000
# 2 -0.005054 0.013886 -0.002012 0.000000 0.000000 0.000000
# 3 -0.003067 -0.002012 0.015263 0.000000 0.000000 0.000000
# 4 0.000000 0.000000 0.000000 0.094741 0.000000 0.000000
# 5 0.000000 0.000000 0.000000 0.000000 0.038166 0.000000
# 6 0.000000 0.000000 0.000000 0.000000 0.000000 0.055450
#
#
# Mechanical properties :
#
#
# Convention : Reuss Voigt Hill
#
# Bulk Modulus (GPa) = 43.08350 44.12174 43.60262
# Shear Modulus (GPa) = 19.24280 22.37213 20.80746
#
# Velocity S-wave (km/s) = 3.11742 3.36136 3.24169
# Velocity P-wave (km/s) = 5.89207 6.11131 6.00269
#
# Compressibility (1/GPa) = 0.02321074
#
# Stress axis : x y z
#
# Youngs Moduli (GPa) = 69.78832 72.01671 65.52005
#
# Poissons Ratio (x) = 0.36398 0.20093
# Poissons Ratio (y) = 0.35272 0.13185
# Poissons Ratio (z) = 0.21402 0.14493
#
# Static dielectric constant tensor:
#      x y z
#    x 3.694540 0.000000 0.000000 
#    y 0.000000 3.386560 0.000000 
#    z 0.000000 0.000000 3.679610 
# 
# 
# High freq. dielectric constant tensor:
#      x y z
#    x 1.767250 0.000000 0.000000 
#    y 0.000000 1.757860 0.000000 
#    z 0.000000 0.000000 1.776870 
# 
# From -- ./inp_files/25891.got.cif
#   From: 2010.03.12/outbox.cif.g09.slc.cpg/sg51_13_cif.got.tgz:25891.got - 2010.04.16 13:43:02.
