data_PCOD8211981
_publ_section_title
;
Structure prediction by ZEFSAII (Michael W. Deem and Ramdas Pophale) SiO2 
 PCOD8211981
Probable space group: P M M A
;
_chemical_formula_sum "Si O2"
_cell_formula_units_Z 52
_cell_length_a 9.210125
_cell_length_b 10.468321
_cell_length_c 30.426062
_cell_angle_alpha 90.000000
_cell_angle_beta 90.000000
_cell_angle_gamma 90.000000
_cell_volume 2933.514922
_symmetry_space_group_name_H-M "P M M A"
_symmetry_group_IT_number 51
_symmetry_cell_setting 'orthorhombic'
loop_
_space_group_symop_operation_xyz
x,y,z
1/2-x,-y,z
1/2+x,-y,-z
-x,y,-z
-x,-y,-z
1/2+x,y,-z
1/2-x,y,z
x,-y,z
loop_
_atom_site_type_symbol
_atom_site_label
_atom_site_fract_x
_atom_site_fract_y
_atom_site_fract_z
Si Si1 0.079803 0.276726 0.546664
Si Si2 0.085756 0.847768 0.042396
Si Si3 0.586777 0.847559 0.127096
Si Si4 0.589050 0.150581 0.790547
Si Si5 0.583267 0.641173 0.627529
Si Si6 0.913042 0.000000 0.456489
Si Si7 0.576927 0.857115 0.693185
O O1 0.250000 0.308823 0.540595
O O2 0.054728 0.133790 0.567921
O O3 0.000000 0.293976 0.500000
O O4 0.007691 0.367808 0.582467
O O5 0.250000 0.794844 0.041594
O O6 0.005751 0.796280 0.085913
O O7 0.086898 0.000000 0.042090
O O8 0.000000 0.795325 0.000000
O O9 0.750000 0.794066 0.123453
O O10 0.515979 0.792855 0.171958
O O11 0.588298 0.000000 0.127389
O O12 0.750000 0.211398 0.795723
O O13 0.522691 0.179499 0.742216
O O14 0.602841 0.000000 0.796728
O O15 0.750000 0.674530 0.616167
O O16 0.572101 0.500000 0.649386
O O17 0.517435 0.748696 0.660108
O O18 0.000000 0.000000 0.500000
O O19 0.750000 0.000000 0.473196
O O20 0.750000 0.857842 0.693823
O O21 0.521170 0.000000 0.679671
#
# Coordination Sequence:
#
# PCOD8211981 Si02
#       7
#     8   8   8   8   8   4   8
#     4  10  20  35  54  75  99 126 156 189 227 269
#     4   9  15  21  28  39  59  91 132 174 215 260
#     4   9  15  21  30  46  69  95 125 167 219 266
#     4   8  13  23  39  56  73  96 132 174 214 258
#     4  10  21  35  51  74 101 127 156 190 228 272
#     4   8  16  30  48  72  98 120 148 186 224 262
#     4   8  15  29  49  70  90 117 152 188 227 273
#
# _framework density 17.726175000000001
#
# number of rings (size 3 to 8) (size 9 to 14) (size 15 to 20)
#    0.000    3.077    0.000    2.308    1.077    4.923 
#    0.000    0.769    0.000    0.923    0.000    0.000 
#    0.000    0.000    0.000    0.000    0.000    0.769 
#
# Total GULP energy -644271.044494 kJ/mol
# GULP energy per Si atom -12389.827779 kJ/mol
# Density = 1.768583 g / cm^3
# Si number density = 17.726175 Si / 1000 Ang^3
#
#
#
# Elastic Constant Matrix: (Units=GPa)
#
#
# Indices 1 2 3 4 5 6 
#
# 1 101.1972 21.5197 58.7206 0.0000 0.0000 0.0000
# 2 21.5197 53.1695 40.3353 0.0000 0.0000 0.0000
# 3 58.7206 40.3353 138.8052 0.0000 0.0000 0.0000
# 4 0.0000 0.0000 0.0000 4.1808 0.0000 0.0000
# 5 0.0000 0.0000 0.0000 0.0000 27.3937 0.0000
# 6 0.0000 0.0000 0.0000 0.0000 0.0000 8.5510
#
#
#
# Elastic Compliance Matrix: (Units=1/GPa)
#
#
# Indices 1 2 3 4 5 6 
#
# 1 0.013179 -0.001417 -0.005164 0.000000 0.000000 0.000000
# 2 -0.001417 0.024279 -0.006456 0.000000 0.000000 0.000000
# 3 -0.005164 -0.006456 0.011265 0.000000 0.000000 0.000000
# 4 0.000000 0.000000 0.000000 0.239187 0.000000 0.000000
# 5 0.000000 0.000000 0.000000 0.000000 0.036505 0.000000
# 6 0.000000 0.000000 0.000000 0.000000 0.000000 0.116945
#
#
# Mechanical properties :
#
#
# Convention : Reuss Voigt Hill
#
# Bulk Modulus (GPa) = 44.14982 59.36923 51.75952
# Shear Modulus (GPa) = 10.52671 19.53153 15.02912
#
# Velocity S-wave (km/s) = 2.43955 3.32301 2.91494
# Velocity P-wave (km/s) = 5.73549 6.94898 6.37119
#
# Compressibility (1/GPa) = 0.02265015
#
# Stress axis : x y z
#
# Youngs Moduli (GPa) = 75.87682 41.18842 88.77244
#
# Poissons Ratio (x) = 0.05836 0.45839
# Poissons Ratio (y) = 0.10751 0.57309
# Poissons Ratio (z) = 0.39180 0.26590
#
# Static dielectric constant tensor:
#      x y z
#    x 3.298480 0.000000 0.000000 
#    y 0.000000 2.925080 0.000000 
#    z 0.000000 0.000000 3.379680 
# 
# 
# High freq. dielectric constant tensor:
#      x y z
#    x 1.678220 0.000000 0.000000 
#    y 0.000000 1.623130 0.000000 
#    z 0.000000 0.000000 1.686120 
# 
# From -- ./inp_files/37351.got.cif
#   From: 2010.03.12/outbox.cif.g09.slc.cpg/sg51_19_cif.got.tgz:37351.got - 2010.04.16 13:43:02.
