data_PCOD8211296
_publ_section_title
;
Structure prediction by ZEFSAII (Michael W. Deem and Ramdas Pophale) SiO2 
 PCOD8211296
Probable space group: P M M A
;
_chemical_formula_sum "Si O2"
_cell_formula_units_Z 52
_cell_length_a 10.049010
_cell_length_b 7.676507
_cell_length_c 35.127435
_cell_angle_alpha 90.000000
_cell_angle_beta 90.000000
_cell_angle_gamma 90.000000
_cell_volume 2709.775847
_symmetry_space_group_name_H-M "P M M A"
_symmetry_group_IT_number 51
_symmetry_cell_setting 'orthorhombic'
loop_
_space_group_symop_operation_xyz
x,y,z
1/2-x,-y,z
1/2+x,-y,-z
-x,y,-z
-x,-y,-z
1/2+x,y,-z
1/2-x,y,z
x,-y,z
loop_
_atom_site_type_symbol
_atom_site_label
_atom_site_fract_x
_atom_site_fract_y
_atom_site_fract_z
Si Si1 0.398777 0.792732 0.530866
Si Si2 0.592411 0.807461 0.091972
Si Si3 0.898638 0.207228 0.677325
Si Si4 0.601238 0.207274 0.384351
Si Si5 0.591233 0.500000 0.036815
Si Si6 0.601205 0.792749 0.762215
Si Si7 0.601782 0.793242 0.176012
O O1 0.500000 0.711346 0.500000
O O2 0.250000 0.726589 0.521349
O O3 0.440167 0.730201 0.573258
O O4 0.402450 0.000000 0.529145
O O5 0.750000 0.819110 0.093525
O O6 0.547078 0.670227 0.060356
O O7 0.545624 0.745168 0.133975
O O8 0.534155 0.000000 0.081967
O O9 0.750000 0.273637 0.667728
O O10 0.939696 0.269180 0.719755
O O11 0.000108 0.288699 0.646535
O O12 0.902201 0.000000 0.675527
O O13 0.750000 0.273441 0.374837
O O14 0.597572 0.000000 0.382630
O O15 0.750000 0.500000 0.027555
O O16 0.500000 0.500000 0.000000
O O17 0.750000 0.725795 0.771832
O O18 0.497570 0.712198 0.792542
O O19 0.598709 0.000000 0.764265
O O20 0.750000 0.715159 0.182419
O O21 0.608663 0.000000 0.179736
#
# Coordination Sequence:
#
# PCOD8211296 Si02
#       7
#     8   8   8   8   4   8   8
#     4   8  13  19  24  29  36  47  68 103 148 198
#     4   8  15  29  48  69  93 121 153 188 226 269
#     4   8  13  19  25  34  50  72  95 119 153 202
#     4   8  13  19  24  30  41  57  80 113 153 199
#     4  10  20  34  52  72  96 126 156 190 232 272
#     4   8  13  20  29  44  67  90 112 142 180 222
#     4   8  13  22  37  55  73  96 128 161 191 230
#
# _framework density 19.189779000000001
#
# number of rings (size 3 to 8) (size 9 to 14) (size 15 to 20)
#    0.000    3.846    0.000    2.769    0.000    1.538 
#    0.000    6.923    0.000    0.923    0.000    0.000 
#    0.000    0.000    0.000    0.000    0.000    0.000 
#
# Total GULP energy -644267.053762 kJ/mol
# GULP energy per Si atom -12389.751034 kJ/mol
# Density = 1.914610 g / cm^3
# Si number density = 19.189779 Si / 1000 Ang^3
#
#
#
# Elastic Constant Matrix: (Units=GPa)
#
#
# Indices 1 2 3 4 5 6 
#
# 1 115.1417 18.5965 112.3345 0.0000 0.0000 0.0000
# 2 18.5965 35.4813 31.2496 0.0000 0.0000 0.0000
# 3 112.3345 31.2496 193.2911 0.0000 0.0000 0.0000
# 4 0.0000 0.0000 0.0000 -9.5728 0.0000 0.0000
# 5 0.0000 0.0000 0.0000 0.0000 44.1810 0.0000
# 6 0.0000 0.0000 0.0000 0.0000 0.0000 -0.3799
#
#
#
# Elastic Compliance Matrix: (Units=1/GPa)
#
#
# Indices 1 2 3 4 5 6 
#
# 1 0.020060 -0.000287 -0.011612 0.000000 0.000000 0.000000
# 2 -0.000287 0.032867 -0.005147 0.000000 0.000000 0.000000
# 3 -0.011612 -0.005147 0.012754 0.000000 0.000000 0.000000
# 4 0.000000 0.000000 0.000000 -0.104463 0.000000 0.000000
# 5 0.000000 0.000000 0.000000 0.000000 0.022634 0.000000
# 6 0.000000 0.000000 0.000000 0.000000 0.000000 -2.632470
#
#
# Mechanical properties :
#
#
# Convention : Reuss Voigt Hill
#
# Bulk Modulus (GPa) = 31.65556 74.25280 52.95418
# Shear Modulus (GPa) = -1.92013 18.96123 8.52055
#
# Velocity S-wave (km/s) = -1.00138 3.14680 2.10945
# Velocity P-wave (km/s) = 3.89806 7.20979 5.79551
#
# Compressibility (1/GPa) = 0.03159003
#
# Stress axis : x y z
#
# Youngs Moduli (GPa) = 49.85033 30.42529 78.40628
#
# Poissons Ratio (x) = 0.00873 0.91044
# Poissons Ratio (y) = 0.01431 0.40355
# Poissons Ratio (z) = 0.57885 0.15660
#
# Static dielectric constant tensor:
#      x y z
#    x 3.668510 0.000000 0.000000 
#    y 0.000000 3.168790 0.000000 
#    z 0.000000 0.000000 3.834700 
# 
# 
# High freq. dielectric constant tensor:
#      x y z
#    x 1.724710 0.000000 0.000000 
#    y 0.000000 1.702940 0.000000 
#    z 0.000000 0.000000 1.748330 
# 
# From -- ./inp_files/37691.got.cif
#   From: 2010.03.12/outbox.cif.g09.slc.cpg/sg51_19_cif.got.tgz:37691.got - 2010.04.16 13:43:02.
