data_PCOD8211785
_publ_section_title
;
Structure prediction by ZEFSAII (Michael W. Deem and Ramdas Pophale) SiO2 
 PCOD8211785
Probable space group: P M M A
;
_chemical_formula_sum "Si O2"
_cell_formula_units_Z 48
_cell_length_a 10.275343
_cell_length_b 8.855007
_cell_length_c 27.736532
_cell_angle_alpha 90.000000
_cell_angle_beta 90.000000
_cell_angle_gamma 90.000000
_cell_volume 2523.698069
_symmetry_space_group_name_H-M "P M M A"
_symmetry_group_IT_number 51
_symmetry_cell_setting 'orthorhombic'
loop_
_space_group_symop_operation_xyz
x,y,z
1/2-x,-y,z
1/2+x,-y,-z
-x,y,-z
-x,-y,-z
1/2+x,y,-z
1/2-x,y,z
x,-y,z
loop_
_atom_site_type_symbol
_atom_site_label
_atom_site_fract_x
_atom_site_fract_y
_atom_site_fract_z
Si Si1 0.496529 0.175190 0.232049
Si Si2 0.750000 0.175348 0.703786
Si Si3 0.601911 0.178555 0.960264
Si Si4 0.750000 0.321069 0.395121
Si Si5 0.250000 0.678152 0.397909
Si Si6 0.498460 0.826357 0.557060
Si Si7 0.750000 0.176711 0.291482
Si Si8 0.898479 0.323203 0.860230
O O1 0.375757 0.217482 0.265506
O O2 0.625328 0.222381 0.260360
O O3 0.491189 0.267854 0.182606
O O4 0.496051 0.000000 0.218303
O O5 0.750000 0.283084 0.658112
O O6 0.750000 0.000000 0.687883
O O7 0.750000 0.230214 0.973090
O O8 0.555994 0.246347 0.909587
O O9 0.594535 0.000000 0.956124
O O10 0.500000 0.239174 0.000000
O O11 0.750000 0.500000 0.398603
O O12 0.874817 0.257734 0.422008
O O13 0.750000 0.273110 0.339739
O O14 0.250000 0.500000 0.405178
O O15 0.374721 0.747802 0.422855
O O16 0.500000 0.813183 0.500000
O O17 0.495232 0.000000 0.574050
O O18 0.750000 0.000000 0.304997
O O19 0.750000 0.276305 0.848269
O O20 0.913720 0.500000 0.866656
#
# Coordination Sequence:
#
# PCOD8211785 Si02
#       8
#     8   4   8   4   4   8   4   8
#     4  10  20  36  58  83 109 146 194 238 280 332
#     4  10  20  35  59  84 111 150 194 236 281 341
#     4   9  18  34  56  80 107 142 185 232 279 331
#     4  12  25  41  64  93 124 159 195 244 307 360
#     4  12  25  39  60  93 126 153 191 248 303 348
#     4  11  24  43  66  89 118 160 204 243 289 353
#     4  10  22  39  59  84 117 156 194 236 287 349
#     4  10  20  34  55  82 112 148 187 233 288 341
#
# _framework density 19.019708000000001
#
# number of rings (size 3 to 8) (size 9 to 14) (size 15 to 20)
#    0.000    1.667    0.833    4.000    0.000    7.000 
#    1.500    0.000    0.000    0.000    0.000    0.000 
#    0.000    0.000    0.000    0.000    0.000    0.000 
#
# Total GULP energy -595425.637152 kJ/mol
# GULP energy per Si atom -12404.700774 kJ/mol
# Density = 1.897642 g / cm^3
# Si number density = 19.019708 Si / 1000 Ang^3
#
#
#
# Elastic Constant Matrix: (Units=GPa)
#
#
# Indices 1 2 3 4 5 6 
#
# 1 159.8928 58.3607 75.7203 0.0000 0.0000 0.0000
# 2 58.3607 92.7802 61.2887 0.0000 0.0000 0.0000
# 3 75.7203 61.2887 131.3335 0.0000 0.0000 0.0000
# 4 0.0000 0.0000 0.0000 0.3898 0.0000 0.0000
# 5 0.0000 0.0000 0.0000 0.0000 25.6790 0.0000
# 6 0.0000 0.0000 0.0000 0.0000 0.0000 28.8586
#
#
#
# Elastic Compliance Matrix: (Units=1/GPa)
#
#
# Indices 1 2 3 4 5 6 
#
# 1 0.009261 -0.003323 -0.003789 0.000000 0.000000 0.000000
# 2 -0.003323 0.016773 -0.005912 0.000000 0.000000 0.000000
# 3 -0.003789 -0.005912 0.012558 0.000000 0.000000 0.000000
# 4 0.000000 0.000000 0.000000 2.565592 0.000000 0.000000
# 5 0.000000 0.000000 0.000000 0.000000 0.038942 0.000000
# 6 0.000000 0.000000 0.000000 0.000000 0.000000 0.034652
#
#
# Mechanical properties :
#
#
# Convention : Reuss Voigt Hill
#
# Bulk Modulus (GPa) = 79.71144 86.08287 82.89715
# Shear Modulus (GPa) = 1.84638 23.56125 12.70381
#
# Velocity S-wave (km/s) = 0.98635 3.52345 2.58724
# Velocity P-wave (km/s) = 6.58013 7.86836 7.25290
#
# Compressibility (1/GPa) = 0.01254525
#
# Stress axis : x y z
#
# Youngs Moduli (GPa) = 107.97594 59.61812 79.63247
#
# Poissons Ratio (x) = 0.19809 0.30173
# Poissons Ratio (y) = 0.35876 0.47078
# Poissons Ratio (z) = 0.40913 0.35246
#
# Static dielectric constant tensor:
#      x y z
#    x 3.637650 0.000000 0.000000 
#    y 0.000000 3.468270 0.000000 
#    z 0.000000 0.000000 3.520410 
# 
# 
# High freq. dielectric constant tensor:
#      x y z
#    x 1.745040 0.000000 0.000000 
#    y 0.000000 1.738790 0.000000 
#    z 0.000000 0.000000 1.750950 
# 
# From -- ./inp_files/37239.got.cif
#   From: 2010.03.12/outbox.cif.g09.slc.cpg/sg51_19_cif.got.tgz:37239.got - 2010.04.16 13:43:02.
