data_PCOD8211722
_publ_section_title
;
Structure prediction by ZEFSAII (Michael W. Deem and Ramdas Pophale) SiO2 
 PCOD8211722
Probable space group: P M M A
;
_chemical_formula_sum "Si O2"
_cell_formula_units_Z 56
_cell_length_a 22.799609
_cell_length_b 8.723511
_cell_length_c 15.119438
_cell_angle_alpha 90.000000
_cell_angle_beta 90.000000
_cell_angle_gamma 90.000000
_cell_volume 3007.144938
_symmetry_space_group_name_H-M "P M M A"
_symmetry_group_IT_number 51
_symmetry_cell_setting 'orthorhombic'
loop_
_space_group_symop_operation_xyz
x,y,z
1/2-x,-y,z
1/2+x,-y,-z
-x,y,-z
-x,-y,-z
1/2+x,y,-z
1/2-x,y,z
x,-y,z
loop_
_atom_site_type_symbol
_atom_site_label
_atom_site_fract_x
_atom_site_fract_y
_atom_site_fract_z
Si Si1 0.129277 0.677634 0.334380
Si Si2 0.250000 0.180532 0.616924
Si Si3 0.067492 0.177847 0.490113
Si Si4 0.750000 0.675642 0.572869
Si Si5 0.569269 0.327528 0.011245
Si Si6 0.871051 0.319609 0.347173
Si Si7 0.944702 0.820242 0.190727
Si Si8 0.919429 0.178871 0.832095
O O1 0.112853 0.500000 0.345123
O O2 0.084438 0.781216 0.390270
O O3 0.194777 0.712488 0.365942
O O4 0.123150 0.728203 0.232947
O O5 0.250000 0.217874 0.512884
O O6 0.193366 0.249478 0.665969
O O7 0.250000 0.000000 0.629496
O O8 0.106725 0.280785 0.554623
O O9 0.000000 0.220164 0.500000
O O10 0.079490 0.000000 0.510879
O O11 0.750000 0.500000 0.539418
O O12 0.594123 0.500000 0.009674
O O13 0.586499 0.249841 0.104087
O O14 0.500000 0.326109 0.000000
O O15 0.597218 0.231182 0.931139
O O16 0.867539 0.500000 0.334962
O O17 0.916384 0.250641 0.277641
O O18 0.013446 0.779986 0.191450
O O19 0.933888 0.000000 0.190213
O O20 0.907110 0.000000 0.822978
#
# Coordination Sequence:
#
# PCOD8211722 Si02
#       8
#     8   4   8   4   8   8   8   8
#     4  11  22  36  56  79 108 143 184 231 278 329
#     4  12  24  40  62  81 104 143 190 234 280 330
#     4  11  23  37  53  78 112 146 181 224 276 332
#     4  10  22  40  58  79 106 141 186 236 280 324
#     4   9  17  31  53  81 112 146 184 224 272 332
#     4  12  24  38  57  81 111 145 186 232 277 329
#     4  10  20  35  55  82 115 149 184 225 276 332
#     4  10  20  34  54  82 116 149 184 226 275 333
#
# _framework density 18.622315
#
# number of rings (size 3 to 8) (size 9 to 14) (size 15 to 20)
#    0.000    1.429    1.429    4.929    0.000    8.571 
#    0.000    0.000    0.000    0.857    0.000    5.000 
#    0.000    0.000    0.000    0.000    0.000    0.000 
#
# Total GULP energy -694712.558869 kJ/mol
# GULP energy per Si atom -12405.581408 kJ/mol
# Density = 1.857993 g / cm^3
# Si number density = 18.622315 Si / 1000 Ang^3
#
#
#
# Elastic Constant Matrix: (Units=GPa)
#
#
# Indices 1 2 3 4 5 6 
#
# 1 53.4970 34.9619 6.8295 0.0000 0.0000 0.0000
# 2 34.9619 87.7199 18.1240 0.0000 0.0000 0.0000
# 3 6.8295 18.1240 81.8449 0.0000 0.0000 0.0000
# 4 0.0000 0.0000 0.0000 40.0263 0.0000 0.0000
# 5 0.0000 0.0000 0.0000 0.0000 14.9683 0.0000
# 6 0.0000 0.0000 0.0000 0.0000 0.0000 22.3012
#
#
#
# Elastic Compliance Matrix: (Units=1/GPa)
#
#
# Indices 1 2 3 4 5 6 
#
# 1 0.025278 -0.010101 0.000128 0.000000 0.000000 0.000000
# 2 -0.010101 0.015983 -0.002696 0.000000 0.000000 0.000000
# 3 0.000128 -0.002696 0.012805 0.000000 0.000000 0.000000
# 4 0.000000 0.000000 0.000000 0.024984 0.000000 0.000000
# 5 0.000000 0.000000 0.000000 0.000000 0.066808 0.000000
# 6 0.000000 0.000000 0.000000 0.000000 0.000000 0.044841
#
#
# Mechanical properties :
#
#
# Convention : Reuss Voigt Hill
#
# Bulk Modulus (GPa) = 34.81244 38.09919 36.45581
# Shear Modulus (GPa) = 22.16187 26.33558 24.24872
#
# Velocity S-wave (km/s) = 3.45348 3.76466 3.61242
# Velocity P-wave (km/s) = 5.88528 6.27696 6.08427
#
# Compressibility (1/GPa) = 0.02872536
#
# Stress axis : x y z
#
# Youngs Moduli (GPa) = 39.56051 62.56657 78.09633
#
# Poissons Ratio (x) = 0.63199 -0.00996
# Poissons Ratio (y) = 0.39961 0.21058
# Poissons Ratio (z) = -0.00505 0.16871
#
# Static dielectric constant tensor:
#      x y z
#    x 3.321880 0.000000 0.000000 
#    y 0.000000 3.520310 0.000000 
#    z 0.000000 0.000000 3.485280 
# 
# 
# High freq. dielectric constant tensor:
#      x y z
#    x 1.696880 0.000000 0.000000 
#    y 0.000000 1.739550 0.000000 
#    z 0.000000 0.000000 1.726820 
# 
# From -- ./inp_files/25904.got.cif
#   From: 2010.03.12/outbox.cif.g09.slc.cpg/sg51_13_cif.got.tgz:25904.got - 2010.04.16 13:43:02.
