data_PCOD8211638
_publ_section_title
;
Structure prediction by ZEFSAII (Michael W. Deem and Ramdas Pophale) SiO2 
 PCOD8211638
Probable space group: P M M A
;
_chemical_formula_sum "Si O2"
_cell_formula_units_Z 48
_cell_length_a 8.927724
_cell_length_b 9.065726
_cell_length_c 31.001180
_cell_angle_alpha 90.000000
_cell_angle_beta 90.000000
_cell_angle_gamma 90.000000
_cell_volume 2509.120792
_symmetry_space_group_name_H-M "P M M A"
_symmetry_group_IT_number 51
_symmetry_cell_setting 'orthorhombic'
loop_
_space_group_symop_operation_xyz
x,y,z
1/2-x,-y,z
1/2+x,-y,-z
-x,y,-z
-x,-y,-z
1/2+x,y,-z
1/2-x,y,z
x,-y,z
loop_
_atom_site_type_symbol
_atom_site_label
_atom_site_fract_x
_atom_site_fract_y
_atom_site_fract_z
Si Si1 0.073847 0.330517 0.043501
Si Si2 0.574160 0.831031 0.544942
Si Si3 0.071883 0.665948 0.211647
Si Si4 0.576451 0.826615 0.702141
Si Si5 0.928662 0.833675 0.871979
Si Si6 0.575322 0.670856 0.376880
O O1 0.250000 0.311010 0.039019
O O2 0.028088 0.500000 0.050599
O O3 0.010690 0.240314 0.084230
O O4 0.000000 0.267125 0.000000
O O5 0.500000 0.785566 0.500000
O O6 0.750000 0.807716 0.540675
O O7 0.512101 0.723150 0.581084
O O8 0.534778 0.000000 0.557086
O O9 0.250000 0.664944 0.209549
O O10 0.008288 0.500000 0.213565
O O11 0.017927 0.753670 0.253757
O O12 0.006907 0.745372 0.169115
O O13 0.750000 0.787947 0.693335
O O14 0.477632 0.764412 0.663746
O O15 0.551887 0.000000 0.705969
O O16 0.750000 0.829561 0.871375
O O17 0.989052 0.000000 0.869681
O O18 0.750000 0.698603 0.384361
O O19 0.538801 0.500000 0.368483
#
# Coordination Sequence:
#
# PCOD8211638 Si02
#       6
#     8   8   8   8   8   8
#     4   9  17  29  45  65  90 121 157 197 243 295
#     4  10  21  38  61  87 113 143 180 221 266 315
#     4   9  16  27  46  72 101 131 163 203 252 303
#     4  10  20  34  54  80 107 135 170 213 261 311
#     4   9  16  26  42  66  95 125 159 201 247 295
#     4  11  24  39  55  78 109 145 183 220 260 308
#
# _framework density 19.130208
#
# number of rings (size 3 to 8) (size 9 to 14) (size 15 to 20)
#    0.000    2.333    0.000    3.000    0.000   10.000 
#    0.000    0.000    0.000    1.000    0.000    2.333 
#    0.000    0.000    0.000    0.000    0.000    0.000 
#
# Total GULP energy -595319.748561 kJ/mol
# GULP energy per Si atom -12402.494762 kJ/mol
# Density = 1.908667 g / cm^3
# Si number density = 19.130208 Si / 1000 Ang^3
#
#
#
# Elastic Constant Matrix: (Units=GPa)
#
#
# Indices 1 2 3 4 5 6 
#
# 1 37.6115 27.8851 36.0618 0.0000 0.0000 0.0000
# 2 27.8851 118.2733 74.2646 0.0000 0.0000 0.0000
# 3 36.0618 74.2646 166.5993 0.0000 0.0000 0.0000
# 4 0.0000 0.0000 0.0000 42.6202 0.0000 0.0000
# 5 0.0000 0.0000 0.0000 0.0000 27.7661 0.0000
# 6 0.0000 0.0000 0.0000 0.0000 0.0000 19.4213
#
#
#
# Elastic Compliance Matrix: (Units=1/GPa)
#
#
# Indices 1 2 3 4 5 6 
#
# 1 0.035501 -0.004923 -0.005490 0.000000 0.000000 0.000000
# 2 -0.004923 0.012424 -0.004473 0.000000 0.000000 0.000000
# 3 -0.005490 -0.004473 0.009185 0.000000 0.000000 0.000000
# 4 0.000000 0.000000 0.000000 0.023463 0.000000 0.000000
# 5 0.000000 0.000000 0.000000 0.000000 0.036015 0.000000
# 6 0.000000 0.000000 0.000000 0.000000 0.000000 0.051490
#
#
# Mechanical properties :
#
#
# Convention : Reuss Voigt Hill
#
# Bulk Modulus (GPa) = 36.57811 66.54525 51.56168
# Shear Modulus (GPa) = 24.15900 30.24634 27.20267
#
# Velocity S-wave (km/s) = 3.55755 3.98059 3.77500
# Velocity P-wave (km/s) = 6.00308 7.48250 6.78324
#
# Compressibility (1/GPa) = 0.02733876
#
# Stress axis : x y z
#
# Youngs Moduli (GPa) = 28.16796 80.48909 108.87815
#
# Poissons Ratio (x) = 0.39623 0.59776
# Poissons Ratio (y) = 0.13867 0.48697
# Poissons Ratio (z) = 0.15465 0.36000
#
# Static dielectric constant tensor:
#      x y z
#    x 3.127020 0.000000 0.000000 
#    y 0.000000 3.634940 0.000000 
#    z 0.000000 0.000000 3.937560 
# 
# 
# High freq. dielectric constant tensor:
#      x y z
#    x 1.703260 0.000000 0.000000 
#    y 0.000000 1.752080 0.000000 
#    z 0.000000 0.000000 1.762270 
# 
# From -- ./inp_files/36884.got.cif
#   From: 2010.03.12/outbox.cif.g09.slc.cpg/sg51_19_cif.got.tgz:36884.got - 2010.04.16 13:43:02.
