data_PCOD8211205
_publ_section_title
;
Structure prediction by ZEFSAII (Michael W. Deem and Ramdas Pophale) SiO2 
 PCOD8211205
Probable space group: P M M A
;
_chemical_formula_sum "Si O2"
_cell_formula_units_Z 64
_cell_length_a 8.966346
_cell_length_b 15.006751
_cell_length_c 24.986200
_cell_angle_alpha 90.000000
_cell_angle_beta 90.000000
_cell_angle_gamma 90.000000
_cell_volume 3362.036176
_symmetry_space_group_name_H-M "P M M A"
_symmetry_group_IT_number 51
_symmetry_cell_setting 'orthorhombic'
loop_
_space_group_symop_operation_xyz
x,y,z
1/2-x,-y,z
1/2+x,-y,-z
-x,y,-z
-x,-y,-z
1/2+x,y,-z
1/2-x,y,z
x,-y,z
loop_
_atom_site_type_symbol
_atom_site_label
_atom_site_fract_x
_atom_site_fract_y
_atom_site_fract_z
Si Si1 0.422479 0.400081 0.635406
Si Si2 0.573756 0.729438 0.553996
Si Si3 0.582804 0.867810 0.285846
Si Si4 0.575882 0.095889 0.819616
Si Si5 0.073782 0.287550 0.148741
Si Si6 0.575137 0.397740 0.055676
Si Si7 0.923550 0.099751 0.404851
Si Si8 0.082868 0.331949 0.746187
O O1 0.250000 0.371515 0.627891
O O2 0.450586 0.500000 0.614102
O O3 0.525852 0.332106 0.603398
O O4 0.462583 0.399927 0.698959
O O5 0.500000 0.690802 0.500000
O O6 0.750000 0.727175 0.548223
O O7 0.520999 0.831294 0.561295
O O8 0.750000 0.903321 0.277322
O O9 0.483370 0.911621 0.240314
O O10 0.522317 0.898060 0.343339
O O11 0.575680 0.762120 0.283185
O O12 0.750000 0.109871 0.815137
O O13 0.514757 0.184061 0.850095
O O14 0.537957 0.000000 0.848354
O O15 0.250000 0.295034 0.140263
O O16 0.990891 0.333987 0.100364
O O17 0.030325 0.337094 0.203981
O O18 0.750000 0.381233 0.050521
O O19 0.538732 0.500000 0.070611
O O20 0.500000 0.371154 0.000000
O O21 0.750000 0.127625 0.408583
O O22 0.949441 0.000000 0.427499
O O23 0.250000 0.351657 0.768059
#
# Coordination Sequence:
#
# PCOD8211205 Si02
#       8
#     8   8   8   8   8   8   8   8
#     4  10  21  40  65  88 112 144 183 228 281 340
#     4  12  26  43  63  82 109 143 182 231 281 338
#     4   9  16  29  51  77 108 144 182 222 265 319
#     4   9  18  31  47  73 113 155 191 228 270 317
#     4  10  20  33  53  83 118 154 192 232 276 325
#     4  10  21  38  60  84 111 145 187 235 287 339
#     4  10  20  36  59  85 113 144 181 226 277 334
#     4   9  17  32  54  81 116 151 184 222 269 327
#
# _framework density 19.036083000000001
#
# number of rings (size 3 to 8) (size 9 to 14) (size 15 to 20)
#    0.000    2.125    1.250    2.250    0.000    4.500 
#    0.000    1.250    0.000    0.375    0.000    0.000 
#    0.000    0.000    0.000    0.000    0.000    0.000 
#
# Total GULP energy -793428.840581 kJ/mol
# GULP energy per Si atom -12397.325634 kJ/mol
# Density = 1.899276 g / cm^3
# Si number density = 19.036083 Si / 1000 Ang^3
#
#
#
# Elastic Constant Matrix: (Units=GPa)
#
#
# Indices 1 2 3 4 5 6 
#
# 1 82.8003 44.8840 48.9972 0.0000 0.0000 0.0000
# 2 44.8840 90.6427 47.9545 0.0000 0.0000 0.0000
# 3 48.9972 47.9545 97.4736 0.0000 0.0000 0.0000
# 4 0.0000 0.0000 0.0000 6.8470 0.0000 0.0000
# 5 0.0000 0.0000 0.0000 0.0000 33.3421 0.0000
# 6 0.0000 0.0000 0.0000 0.0000 0.0000 19.8914
#
#
#
# Elastic Compliance Matrix: (Units=1/GPa)
#
#
# Indices 1 2 3 4 5 6 
#
# 1 0.019331 -0.005990 -0.006770 0.000000 0.000000 0.000000
# 2 -0.005990 0.016771 -0.005239 0.000000 0.000000 0.000000
# 3 -0.006770 -0.005239 0.016240 0.000000 0.000000 0.000000
# 4 0.000000 0.000000 0.000000 0.146048 0.000000 0.000000
# 5 0.000000 0.000000 0.000000 0.000000 0.029992 0.000000
# 6 0.000000 0.000000 0.000000 0.000000 0.000000 0.050273
#
#
# Mechanical properties :
#
#
# Convention : Reuss Voigt Hill
#
# Bulk Modulus (GPa) = 61.19355 61.62092 61.40723
# Shear Modulus (GPa) = 15.62007 20.62151 18.12079
#
# Velocity S-wave (km/s) = 2.86763 3.29490 3.08866
# Velocity P-wave (km/s) = 6.57117 6.84953 6.71179
#
# Compressibility (1/GPa) = 0.01634159
#
# Stress axis : x y z
#
# Youngs Moduli (GPa) = 51.73154 59.62814 61.57697
#
# Poissons Ratio (x) = 0.35720 0.41686
# Poissons Ratio (y) = 0.30990 0.32263
# Poissons Ratio (z) = 0.35021 0.31242
#
# Static dielectric constant tensor:
#      x y z
#    x 3.538670 0.000000 0.000000 
#    y 0.000000 3.761620 0.000000 
#    z 0.000000 0.000000 3.342560 
# 
# 
# High freq. dielectric constant tensor:
#      x y z
#    x 1.732690 0.000000 0.000000 
#    y 0.000000 1.748080 0.000000 
#    z 0.000000 0.000000 1.720150 
# 
# From -- ./inp_files/34967.got.cif
#   From: 2010.03.12/outbox.cif.g09.slc.cpg/sg51_18_cif.got.tgz:34967.got - 2010.04.16 13:43:02.
