data_PCOD8211169
_publ_section_title
;
Structure prediction by ZEFSAII (Michael W. Deem and Ramdas Pophale) SiO2 
 PCOD8211169
Probable space group: P M M A
;
_chemical_formula_sum "Si O2"
_cell_formula_units_Z 64
_cell_length_a 13.388537
_cell_length_b 9.128211
_cell_length_c 26.226211
_cell_angle_alpha 90.000000
_cell_angle_beta 90.000000
_cell_angle_gamma 90.000000
_cell_volume 3205.194172
_symmetry_space_group_name_H-M "P M M A"
_symmetry_group_IT_number 51
_symmetry_cell_setting 'orthorhombic'
loop_
_space_group_symop_operation_xyz
x,y,z
1/2-x,-y,z
1/2+x,-y,-z
-x,y,-z
-x,-y,-z
1/2+x,y,-z
1/2-x,y,z
x,-y,z
loop_
_atom_site_type_symbol
_atom_site_label
_atom_site_fract_x
_atom_site_fract_y
_atom_site_fract_z
Si Si1 0.367573 0.663452 0.532789
Si Si2 0.636004 0.329743 0.973391
Si Si3 0.137528 0.167181 0.435046
Si Si4 0.946497 0.830960 0.178977
Si Si5 0.048676 0.830916 0.627235
Si Si6 0.134301 0.327282 0.723090
Si Si7 0.861624 0.168689 0.876127
Si Si8 0.131800 0.336538 0.914942
O O1 0.250000 0.656079 0.526121
O O2 0.412266 0.500000 0.539924
O O3 0.409756 0.734479 0.480425
O O4 0.388321 0.762975 0.581425
O O5 0.750000 0.273368 0.974266
O O6 0.629674 0.500000 0.961842
O O7 0.586544 0.249256 0.924646
O O8 0.585353 0.296707 0.028831
O O9 0.250000 0.214398 0.420221
O O10 0.069075 0.186699 0.385099
O O11 0.135041 0.000000 0.454555
O O12 0.905127 0.729015 0.223183
O O13 0.894634 0.785598 0.126244
O O14 0.066055 0.807591 0.172699
O O15 0.920452 0.000000 0.190764
O O16 0.069765 0.746958 0.679154
O O17 0.079421 0.000000 0.633526
O O18 0.250000 0.284842 0.716316
O O19 0.118837 0.500000 0.720287
O O20 0.750000 0.227875 0.862614
O O21 0.856977 0.000000 0.891051
O O22 0.250000 0.341994 0.922267
O O23 0.094830 0.500000 0.898429
#
# Coordination Sequence:
#
# PCOD8211169 Si02
#       8
#     8   8   8   8   8   8   8   8
#     4  10  20  33  52  82 119 156 191 228 273 322
#     4   8  15  29  50  76 105 139 178 216 257 311
#     4   9  19  36  56  81 116 154 189 225 267 317
#     4  11  23  37  56  81 105 135 178 224 269 317
#     4  11  22  36  58  85 111 145 188 230 273 320
#     4  11  25  44  63  82 107 139 174 217 271 326
#     4   9  19  36  55  76 106 141 175 215 264 316
#     4   9  18  33  52  76 109 145 177 213 263 321
#
# _framework density 19.967589
#
# number of rings (size 3 to 8) (size 9 to 14) (size 15 to 20)
#    0.000    2.250    0.000    3.375    0.000    9.500 
#    0.000    4.375    0.000    3.750    0.000    0.000 
#    0.000    0.000    0.000    0.000    0.000    0.000 
#
# Total GULP energy -793509.150829 kJ/mol
# GULP energy per Si atom -12398.580482 kJ/mol
# Density = 1.992214 g / cm^3
# Si number density = 19.967589 Si / 1000 Ang^3
#
#
#
# Elastic Constant Matrix: (Units=GPa)
#
#
# Indices 1 2 3 4 5 6 
#
# 1 51.2030 38.8971 36.2469 0.0000 0.0000 0.0000
# 2 38.8971 95.8002 55.4096 0.0000 0.0000 0.0000
# 3 36.2469 55.4096 108.6292 0.0000 0.0000 0.0000
# 4 0.0000 0.0000 0.0000 40.0249 0.0000 0.0000
# 5 0.0000 0.0000 0.0000 0.0000 28.6836 0.0000
# 6 0.0000 0.0000 0.0000 0.0000 0.0000 23.3332
#
#
#
# Elastic Compliance Matrix: (Units=1/GPa)
#
#
# Indices 1 2 3 4 5 6 
#
# 1 0.030357 -0.009173 -0.005450 0.000000 0.000000 0.000000
# 2 -0.009173 0.017579 -0.005906 0.000000 0.000000 0.000000
# 3 -0.005450 -0.005906 0.014037 0.000000 0.000000 0.000000
# 4 0.000000 0.000000 0.000000 0.024984 0.000000 0.000000
# 5 0.000000 0.000000 0.000000 0.000000 0.034863 0.000000
# 6 0.000000 0.000000 0.000000 0.000000 0.000000 0.042857
#
#
# Mechanical properties :
#
#
# Convention : Reuss Voigt Hill
#
# Bulk Modulus (GPa) = 47.81507 57.41551 52.61529
# Shear Modulus (GPa) = 23.50651 26.74692 25.12671
#
# Velocity S-wave (km/s) = 3.43481 3.66391 3.55121
# Velocity P-wave (km/s) = 6.30308 6.83489 6.57437
#
# Compressibility (1/GPa) = 0.02091391
#
# Stress axis : x y z
#
# Youngs Moduli (GPa) = 32.94131 56.88705 71.24235
#
# Poissons Ratio (x) = 0.52184 0.38829
# Poissons Ratio (y) = 0.30218 0.42073
# Poissons Ratio (z) = 0.17954 0.33595
#
# Static dielectric constant tensor:
#      x y z
#    x 3.847150 0.000000 0.000000 
#    y 0.000000 3.734770 0.000000 
#    z 0.000000 0.000000 3.501760 
# 
# 
# High freq. dielectric constant tensor:
#      x y z
#    x 1.791210 0.000000 0.000000 
#    y 0.000000 1.780410 0.000000 
#    z 0.000000 0.000000 1.761820 
# 
# From -- ./inp_files/35874.got.cif
#   From: 2010.03.12/outbox.cif.g09.slc.cpg/sg51_18_cif.got.tgz:35874.got - 2010.04.16 13:43:02.
