data_PCOD8211513
_publ_section_title
;
Structure prediction by ZEFSAII (Michael W. Deem and Ramdas Pophale) SiO2 
 PCOD8211513
Probable space group: P M M A
;
_chemical_formula_sum "Si O2"
_cell_formula_units_Z 40
_cell_length_a 8.918379
_cell_length_b 13.721982
_cell_length_c 18.619770
_cell_angle_alpha 90.000000
_cell_angle_beta 90.000000
_cell_angle_gamma 90.000000
_cell_volume 2278.647161
_symmetry_space_group_name_H-M "P M M A"
_symmetry_group_IT_number 51
_symmetry_cell_setting 'orthorhombic'
loop_
_space_group_symop_operation_xyz
x,y,z
1/2-x,-y,z
1/2+x,-y,-z
-x,y,-z
-x,-y,-z
1/2+x,y,-z
1/2-x,y,z
x,-y,z
loop_
_atom_site_type_symbol
_atom_site_label
_atom_site_fract_x
_atom_site_fract_y
_atom_site_fract_z
Si Si1 0.074000 0.611255 0.780916
Si Si2 0.072512 0.212357 0.291756
Si Si3 0.574694 0.887786 0.424420
Si Si4 0.576042 0.890115 0.161991
Si Si5 0.076804 0.291873 0.926469
O O1 0.250000 0.632675 0.771298
O O2 0.033019 0.500000 0.763963
O O3 0.025603 0.636120 0.862584
O O4 0.982952 0.678660 0.726092
O O5 0.250000 0.211035 0.297939
O O6 0.001692 0.181846 0.366825
O O7 0.021596 0.136104 0.231159
O O8 0.500000 0.863062 0.500000
O O9 0.750000 0.864546 0.428921
O O10 0.545766 0.000000 0.402960
O O11 0.750000 0.876528 0.183710
O O12 0.535014 0.819077 0.095928
O O13 0.540301 0.000000 0.137574
O O14 0.250000 0.303263 0.941644
O O15 0.000000 0.322665 0.000000
#
# Coordination Sequence:
#
# PCOD8211513 Si02
#       5
#     8   8   8   8   8
#     4   9  19  37  57  73  93 127 169 209 252 303
#     4  11  21  32  50  77 106 132 163 207 253 298
#     4  10  20  34  53  78 109 143 175 205 239 283
#     4   9  18  33  50  67  93 133 175 209 244 292
#     4   9  18  31  47  70  98 127 161 203 253 305
#
# _framework density 17.554276000000002
#
# number of rings (size 3 to 8) (size 9 to 14) (size 15 to 20)
#    0.000    2.400    0.000    4.200    0.000    8.400 
#    0.000    0.000    0.000    0.600    0.000    0.000 
#    0.000    0.000    0.000    0.000    0.000    0.000 
#
# Total GULP energy -496030.231949 kJ/mol
# GULP energy per Si atom -12400.755799 kJ/mol
# Density = 1.751432 g / cm^3
# Si number density = 17.554276 Si / 1000 Ang^3
#
#
#
# Elastic Constant Matrix: (Units=GPa)
#
#
# Indices 1 2 3 4 5 6 
#
# 1 96.1284 39.4435 62.5457 0.0000 0.0000 0.0000
# 2 39.4435 89.0293 41.8920 0.0000 0.0000 0.0000
# 3 62.5457 41.8920 116.5495 0.0000 0.0000 0.0000
# 4 0.0000 0.0000 0.0000 14.3040 0.0000 0.0000
# 5 0.0000 0.0000 0.0000 0.0000 34.6039 0.0000
# 6 0.0000 0.0000 0.0000 0.0000 0.0000 19.5279
#
#
#
# Elastic Compliance Matrix: (Units=1/GPa)
#
#
# Indices 1 2 3 4 5 6 
#
# 1 0.017043 -0.003908 -0.007741 0.000000 0.000000 0.000000
# 2 -0.003908 0.014415 -0.003084 0.000000 0.000000 0.000000
# 3 -0.007741 -0.003084 0.013843 0.000000 0.000000 0.000000
# 4 0.000000 0.000000 0.000000 0.069910 0.000000 0.000000
# 5 0.000000 0.000000 0.000000 0.000000 0.028898 0.000000
# 6 0.000000 0.000000 0.000000 0.000000 0.000000 0.051209
#
#
# Mechanical properties :
#
#
# Convention : Reuss Voigt Hill
#
# Bulk Modulus (GPa) = 63.15528 65.49663 64.32595
# Shear Modulus (GPa) = 21.73310 24.20890 22.97100
#
# Velocity S-wave (km/s) = 3.52241 3.71764 3.62134
# Velocity P-wave (km/s) = 7.25248 7.47126 7.36268
#
# Compressibility (1/GPa) = 0.01583399
#
# Stress axis : x y z
#
# Youngs Moduli (GPa) = 58.67394 69.37294 72.23905
#
# Poissons Ratio (x) = 0.27112 0.55924
# Poissons Ratio (y) = 0.22931 0.22278
# Poissons Ratio (z) = 0.45422 0.21394
#
# Static dielectric constant tensor:
#      x y z
#    x 3.200220 0.000000 0.000000 
#    y 0.000000 3.311590 0.000000 
#    z 0.000000 0.000000 3.214650 
# 
# 
# High freq. dielectric constant tensor:
#      x y z
#    x 1.678510 0.000000 0.000000 
#    y 0.000000 1.673580 0.000000 
#    z 0.000000 0.000000 1.669060 
# 
# From -- ./inp_files/20495.got.cif
#   From: 2010.03.12/outbox.cif.g09.slc.cpg/sg51_11_cif.got.tgz:20495.got - 2010.04.16 13:43:02.
