data_PCOD8211041
_publ_section_title
;
Structure prediction by ZEFSAII (Michael W. Deem and Ramdas Pophale) SiO2 
 PCOD8211041
Probable space group: P M M A
;
_chemical_formula_sum "Si O2"
_cell_formula_units_Z 48
_cell_length_a 15.219165
_cell_length_b 9.306840
_cell_length_c 18.513082
_cell_angle_alpha 90.000000
_cell_angle_beta 90.000000
_cell_angle_gamma 90.000000
_cell_volume 2622.236136
_symmetry_space_group_name_H-M "P M M A"
_symmetry_group_IT_number 51
_symmetry_cell_setting 'orthorhombic'
loop_
_space_group_symop_operation_xyz
x,y,z
1/2-x,-y,z
1/2+x,-y,-z
-x,y,-z
-x,-y,-z
1/2+x,y,-z
1/2-x,y,z
x,-y,z
loop_
_atom_site_type_symbol
_atom_site_label
_atom_site_fract_x
_atom_site_fract_y
_atom_site_fract_z
Si Si1 0.397308 0.343195 0.186865
Si Si2 0.956646 0.340365 0.302955
Si Si3 0.250000 0.843948 0.421948
Si Si4 0.999987 0.834423 0.083976
Si Si5 0.944160 0.831023 0.571441
Si Si6 0.149982 0.833397 0.803890
Si Si7 0.250000 0.157025 0.253052
O O1 0.356109 0.500000 0.169478
O O2 0.482456 0.362769 0.234568
O O3 0.420935 0.263311 0.112973
O O4 0.334308 0.244485 0.232116
O O5 0.928176 0.500000 0.331215
O O6 0.874642 0.251959 0.269925
O O7 0.006686 0.254081 0.365505
O O8 0.156047 0.768821 0.442436
O O9 0.250000 0.862607 0.337311
O O10 0.250000 0.000000 0.460396
O O11 0.908997 0.795760 0.125420
O O12 0.023843 0.000000 0.097520
O O13 0.000000 0.797814 0.000000
O O14 0.000000 0.806246 0.500000
O O15 0.938271 0.000000 0.592602
O O16 0.250000 0.794938 0.824647
O O17 0.139002 0.000000 0.784079
O O18 0.250000 0.000000 0.215740
#
# Coordination Sequence:
#
# PCOD8211041 Si02
#       7
#     8   8   4   8   8   8   4
#     4  10  20  33  51  77 107 139 176 218 268 324
#     4  10  20  34  54  78 107 139 175 221 271 324
#     4   9  18  33  55  81 105 138 181 224 275 327
#     4   9  18  34  54  78 108 142 181 223 271 321
#     4  10  20  36  57  80 110 145 183 228 273 326
#     4   9  18  34  56  78 103 140 186 229 268 318
#     4  11  19  31  55  79 105 136 177 228 269 315
#
# _framework density 18.304988999999999
#
# number of rings (size 3 to 8) (size 9 to 14) (size 15 to 20)
#    0.000    2.333    1.667    1.250    0.000    2.333 
#    3.000    0.417    0.000    0.000    0.000    0.000 
#    0.000    0.000    0.000    0.000    0.000    0.000 
#
# Total GULP energy -594708.533084 kJ/mol
# GULP energy per Si atom -12389.761106 kJ/mol
# Density = 1.826333 g / cm^3
# Si number density = 18.304989 Si / 1000 Ang^3
#
#
#
# Elastic Constant Matrix: (Units=GPa)
#
#
# Indices 1 2 3 4 5 6 
#
# 1 102.4256 33.2471 41.1893 0.0000 0.0000 0.0000
# 2 33.2471 86.6185 38.3101 0.0000 0.0000 0.0000
# 3 41.1893 38.3101 89.6421 0.0000 0.0000 0.0000
# 4 0.0000 0.0000 0.0000 18.5995 0.0000 0.0000
# 5 0.0000 0.0000 0.0000 0.0000 24.6355 0.0000
# 6 0.0000 0.0000 0.0000 0.0000 0.0000 46.6686
#
#
#
# Elastic Compliance Matrix: (Units=1/GPa)
#
#
# Indices 1 2 3 4 5 6 
#
# 1 0.012498 -0.002783 -0.004553 0.000000 0.000000 0.000000
# 2 -0.002783 0.014856 -0.005070 0.000000 0.000000 0.000000
# 3 -0.004553 -0.005070 0.015414 0.000000 0.000000 0.000000
# 4 0.000000 0.000000 0.000000 0.053765 0.000000 0.000000
# 5 0.000000 0.000000 0.000000 0.000000 0.040592 0.000000
# 6 0.000000 0.000000 0.000000 0.000000 0.000000 0.021428
#
#
# Mechanical properties :
#
#
# Convention : Reuss Voigt Hill
#
# Bulk Modulus (GPa) = 55.69476 56.01993 55.85735
# Shear Modulus (GPa) = 26.40626 29.04336 27.72481
#
# Velocity S-wave (km/s) = 3.80224 3.98758 3.89601
# Velocity P-wave (km/s) = 7.05465 7.20216 7.12879
#
# Compressibility (1/GPa) = 0.01795501
#
# Stress axis : x y z
#
# Youngs Moduli (GPa) = 80.01563 67.31506 64.87524
#
# Poissons Ratio (x) = 0.18736 0.29538
# Poissons Ratio (y) = 0.22271 0.32891
# Poissons Ratio (z) = 0.36431 0.34128
#
# Static dielectric constant tensor:
#      x y z
#    x 3.737230 0.000000 0.000000 
#    y 0.000000 3.762570 0.000000 
#    z 0.000000 0.000000 3.204590 
# 
# 
# High freq. dielectric constant tensor:
#      x y z
#    x 1.707770 0.000000 0.000000 
#    y 0.000000 1.707920 0.000000 
#    z 0.000000 0.000000 1.692460 
# 
# From -- ./inp_files/29613.got.cif
#   From: 2010.03.12/outbox.cif.g09.slc.cpg/sg51_15_cif.got.tgz:29613.got - 2010.04.16 13:43:02.
