data_PCOD8211836
_publ_section_title
;
Structure prediction by ZEFSAII (Michael W. Deem and Ramdas Pophale) SiO2 
 PCOD8211836
Probable space group: P M M A
;
_chemical_formula_sum "Si O2"
_cell_formula_units_Z 40
_cell_length_a 15.227570
_cell_length_b 9.046022
_cell_length_c 14.446551
_cell_angle_alpha 90.000000
_cell_angle_beta 90.000000
_cell_angle_gamma 90.000000
_cell_volume 1989.996989
_symmetry_space_group_name_H-M "P M M A"
_symmetry_group_IT_number 51
_symmetry_cell_setting 'orthorhombic'
loop_
_space_group_symop_operation_xyz
x,y,z
1/2-x,-y,z
1/2+x,-y,-z
-x,y,-z
-x,-y,-z
1/2+x,y,-z
1/2-x,y,z
x,-y,z
loop_
_atom_site_type_symbol
_atom_site_label
_atom_site_fract_x
_atom_site_fract_y
_atom_site_fract_z
Si Si1 0.250000 0.674153 0.893411
Si Si2 0.145999 0.330793 0.599621
Si Si3 0.901400 0.830348 0.783973
Si Si4 0.146655 0.167942 0.417353
Si Si5 0.400616 0.170514 0.781541
Si Si6 0.250000 0.673343 0.107371
O O1 0.250000 0.500000 0.876009
O O2 0.162782 0.739357 0.848225
O O3 0.250000 0.717787 0.000315
O O4 0.250000 0.312798 0.609600
O O5 0.116701 0.500000 0.610287
O O6 0.113123 0.271443 0.500438
O O7 0.101051 0.233036 0.678047
O O8 0.897579 0.776184 0.677513
O O9 0.838244 0.735156 0.847777
O O10 0.000677 0.812544 0.820632
O O11 0.869679 0.000000 0.788608
O O12 0.250000 0.182851 0.403661
O O13 0.119476 0.000000 0.440574
O O14 0.371170 0.000000 0.779284
O O15 0.250000 0.500000 0.122039
#
# Coordination Sequence:
#
# PCOD8211836 Si02
#       6
#     4   8   8   8   8   4
#     4  11  25  45  64  87 122 157 195 248 308 363
#     4  10  20  34  55  85 124 164 200 244 295 349
#     4  10  22  41  64  92 124 157 199 251 299 351
#     4   9  17  33  58  84 117 161 201 240 291 350
#     4  11  23  39  64  93 120 157 204 249 298 356
#     4  11  25  43  66  91 118 157 197 244 306 367
#
# _framework density 20.100532999999999
#
# number of rings (size 3 to 8) (size 9 to 14) (size 15 to 20)
#    0.000    1.800    2.000    1.800    0.000    6.400 
#    0.000    8.000    0.000    0.000    0.000    0.000 
#    0.000    0.000    0.000    0.000    0.000    0.000 
#
# Total GULP energy -496166.827510 kJ/mol
# GULP energy per Si atom -12404.170688 kJ/mol
# Density = 2.005478 g / cm^3
# Si number density = 20.100533 Si / 1000 Ang^3
#
#
#
# Elastic Constant Matrix: (Units=GPa)
#
#
# Indices 1 2 3 4 5 6 
#
# 1 89.3006 42.2876 60.1801 0.0000 0.0000 0.0000
# 2 42.2876 94.4718 70.4452 0.0000 0.0000 0.0000
# 3 60.1801 70.4452 137.8132 0.0000 0.0000 0.0000
# 4 0.0000 0.0000 0.0000 27.5787 0.0000 0.0000
# 5 0.0000 0.0000 0.0000 0.0000 1.0356 0.0000
# 6 0.0000 0.0000 0.0000 0.0000 0.0000 21.0086
#
#
#
# Elastic Compliance Matrix: (Units=1/GPa)
#
#
# Indices 1 2 3 4 5 6 
#
# 1 0.016461 -0.003245 -0.005529 0.000000 0.000000 0.000000
# 2 -0.003245 0.017745 -0.007653 0.000000 0.000000 0.000000
# 3 -0.005529 -0.007653 0.013583 0.000000 0.000000 0.000000
# 4 0.000000 0.000000 0.000000 0.036260 0.000000 0.000000
# 5 0.000000 0.000000 0.000000 0.000000 0.965633 0.000000
# 6 0.000000 0.000000 0.000000 0.000000 0.000000 0.047600
#
#
# Mechanical properties :
#
#
# Convention : Reuss Voigt Hill
#
# Bulk Modulus (GPa) = 66.96661 74.15681 70.56171
# Shear Modulus (GPa) = 4.40484 19.83608 12.12046
#
# Velocity S-wave (km/s) = 1.48195 3.14481 2.45825
# Velocity P-wave (km/s) = 6.02631 7.08234 6.57556
#
# Compressibility (1/GPa) = 0.01493282
#
# Stress axis : x y z
#
# Youngs Moduli (GPa) = 60.74895 56.35487 73.62221
#
# Poissons Ratio (x) = 0.18289 0.40709
# Poissons Ratio (y) = 0.19715 0.56345
# Poissons Ratio (z) = 0.33590 0.43130
#
# Static dielectric constant tensor:
#      x y z
#    x 3.574730 0.000000 0.000000 
#    y 0.000000 3.684460 0.000000 
#    z 0.000000 0.000000 3.674340 
# 
# 
# High freq. dielectric constant tensor:
#      x y z
#    x 1.786020 0.000000 0.000000 
#    y 0.000000 1.787090 0.000000 
#    z 0.000000 0.000000 1.783560 
# 
# From -- ./inp_files/23807.got.cif
#   From: 2010.03.12/outbox.cif.g09.slc.cpg/sg51_12_cif.got.tgz:23807.got - 2010.04.16 13:43:02.
