data_PCOD8211618
_publ_section_title
;
Structure prediction by ZEFSAII (Michael W. Deem and Ramdas Pophale) SiO2 
 PCOD8211618
Probable space group: P M M A
;
_chemical_formula_sum "Si O2"
_cell_formula_units_Z 48
_cell_length_a 9.062802
_cell_length_b 9.281747
_cell_length_c 30.479541
_cell_angle_alpha 90.000000
_cell_angle_beta 90.000000
_cell_angle_gamma 90.000000
_cell_volume 2563.897393
_symmetry_space_group_name_H-M "P M M A"
_symmetry_group_IT_number 51
_symmetry_cell_setting 'orthorhombic'
loop_
_space_group_symop_operation_xyz
x,y,z
1/2-x,-y,z
1/2+x,-y,-z
-x,y,-z
-x,-y,-z
1/2+x,y,-z
1/2-x,y,z
x,-y,z
loop_
_atom_site_type_symbol
_atom_site_label
_atom_site_fract_x
_atom_site_fract_y
_atom_site_fract_z
Si Si1 0.083703 0.328594 0.042535
Si Si2 0.578193 0.834257 0.543241
Si Si3 0.921178 0.830677 0.791867
Si Si4 0.923152 0.667166 0.130247
Si Si5 0.420424 0.333689 0.717671
Si Si6 0.583449 0.667477 0.383276
O O1 0.250000 0.267689 0.043242
O O2 0.084559 0.500000 0.040399
O O3 0.999753 0.276018 0.085964
O O4 0.000000 0.265640 0.000000
O O5 0.500000 0.769708 0.500000
O O6 0.750000 0.811916 0.536523
O O7 0.529550 0.752669 0.586739
O O8 0.533680 0.000000 0.549331
O O9 0.750000 0.793760 0.799113
O O10 0.016604 0.759183 0.829816
O O11 0.973116 0.767776 0.745487
O O12 0.950299 0.000000 0.792009
O O13 0.750000 0.692170 0.125306
O O14 0.960236 0.500000 0.138899
O O15 0.250000 0.299088 0.728471
O O16 0.453585 0.500000 0.728880
O O17 0.455784 0.300693 0.667115
O O18 0.750000 0.718421 0.393369
O O19 0.566579 0.500000 0.393537
#
# Coordination Sequence:
#
# PCOD8211618 Si02
#       6
#     8   8   8   8   8   8
#     4   9  16  27  46  74 107 139 172 213 259 306
#     4  10  21  36  54  77 106 141 180 219 259 306
#     4  11  24  38  52  75 107 140 175 216 261 311
#     4  10  20  34  54  79 105 136 176 219 263 312
#     4   9  19  37  59  81 105 135 173 215 259 311
#     4   9  19  36  57  81 108 137 171 213 261 312
#
# _framework density 18.721499000000001
#
# number of rings (size 3 to 8) (size 9 to 14) (size 15 to 20)
#    0.000    2.333    0.000    3.500    0.000    9.667 
#    0.000    5.000    0.000    0.500    0.000    0.000 
#    0.000    0.000    0.000    0.000    0.000    0.000 
#
# Total GULP energy -595334.699351 kJ/mol
# GULP energy per Si atom -12402.806236 kJ/mol
# Density = 1.867889 g / cm^3
# Si number density = 18.721499 Si / 1000 Ang^3
#
#
#
# Elastic Constant Matrix: (Units=GPa)
#
#
# Indices 1 2 3 4 5 6 
#
# 1 104.9246 44.6755 62.4884 0.0000 0.0000 0.0000
# 2 44.6755 56.1040 49.2333 0.0000 0.0000 0.0000
# 3 62.4884 49.2333 125.7183 0.0000 0.0000 0.0000
# 4 0.0000 0.0000 0.0000 -15.2141 0.0000 0.0000
# 5 0.0000 0.0000 0.0000 0.0000 42.7675 0.0000
# 6 0.0000 0.0000 0.0000 0.0000 0.0000 28.4669
#
#
#
# Elastic Compliance Matrix: (Units=1/GPa)
#
#
# Indices 1 2 3 4 5 6 
#
# 1 0.015929 -0.008740 -0.004495 0.000000 0.000000 0.000000
# 2 -0.008740 0.031952 -0.008169 0.000000 0.000000 0.000000
# 3 -0.004495 -0.008169 0.013387 0.000000 0.000000 0.000000
# 4 0.000000 0.000000 0.000000 -0.065729 0.000000 0.000000
# 5 0.000000 0.000000 0.000000 0.000000 0.023382 0.000000
# 6 0.000000 0.000000 0.000000 0.000000 0.000000 0.035129
#
#
# Mechanical properties :
#
#
# Convention : Reuss Voigt Hill
#
# Bulk Modulus (GPa) = 54.16672 66.61570 60.39121
# Shear Modulus (GPa) = 48.53856 19.89404 34.21630
#
# Velocity S-wave (km/s) = 5.09734 3.26334 4.27974
# Velocity P-wave (km/s) = 7.97744 7.06108 7.53321
#
# Compressibility (1/GPa) = 0.01846152
#
# Stress axis : x y z
#
# Youngs Moduli (GPa) = 62.77926 31.29707 74.69665
#
# Poissons Ratio (x) = 0.27353 0.33575
# Poissons Ratio (y) = 0.54867 0.61018
# Poissons Ratio (z) = 0.28218 0.25566
#
# Static dielectric constant tensor:
#      x y z
#    x 3.526850 0.000000 0.000000 
#    y 0.000000 3.176320 0.000000 
#    z 0.000000 0.000000 3.539480 
# 
# 
# High freq. dielectric constant tensor:
#      x y z
#    x 1.736300 0.000000 0.000000 
#    y 0.000000 1.698480 0.000000 
#    z 0.000000 0.000000 1.741730 
# 
# From -- ./inp_files/36956.got.cif
#   From: 2010.03.12/outbox.cif.g09.slc.cpg/sg51_19_cif.got.tgz:36956.got - 2010.04.16 13:43:02.
