data_PCOD8211361
_publ_section_title
;
Structure prediction by ZEFSAII (Michael W. Deem and Ramdas Pophale) SiO2 
 PCOD8211361
Probable space group: P M M A
;
_chemical_formula_sum "Si O2"
_cell_formula_units_Z 48
_cell_length_a 8.728197
_cell_length_b 13.996322
_cell_length_c 19.424612
_cell_angle_alpha 90.000000
_cell_angle_beta 90.000000
_cell_angle_gamma 90.000000
_cell_volume 2372.962188
_symmetry_space_group_name_H-M "P M M A"
_symmetry_group_IT_number 51
_symmetry_cell_setting 'orthorhombic'
loop_
_space_group_symop_operation_xyz
x,y,z
1/2-x,-y,z
1/2+x,-y,-z
-x,y,-z
-x,-y,-z
1/2+x,y,-z
1/2-x,y,z
x,-y,z
loop_
_atom_site_type_symbol
_atom_site_label
_atom_site_fract_x
_atom_site_fract_y
_atom_site_fract_z
Si Si1 0.080075 0.112476 0.201938
Si Si2 0.568712 0.390544 0.785850
Si Si3 0.071662 0.232649 0.690977
Si Si4 0.925164 0.612697 0.070368
Si Si5 0.930716 0.108264 0.574870
Si Si6 0.420158 0.113315 0.932852
O O1 0.250000 0.154370 0.217828
O O2 0.955949 0.146217 0.256485
O O3 0.025982 0.150521 0.128383
O O4 0.085866 0.000000 0.203220
O O5 0.750000 0.382338 0.787727
O O6 0.515845 0.500000 0.773774
O O7 0.505785 0.328375 0.721686
O O8 0.505715 0.350658 0.859137
O O9 0.250000 0.252313 0.680027
O O10 0.999242 0.194599 0.620094
O O11 0.750000 0.646243 0.072677
O O12 0.942173 0.500000 0.068405
O O13 0.000000 0.654999 0.000000
O O14 0.750000 0.122181 0.572037
O O15 0.000000 0.121520 0.500000
O O16 0.969234 0.000000 0.602291
O O17 0.250000 0.156412 0.925581
O O18 0.411334 0.000000 0.935337
O O19 0.500000 0.155561 0.000000
#
# Coordination Sequence:
#
# PCOD8211361 Si02
#       6
#     8   8   8   8   8   8
#     4  10  20  34  52  75 105 141 181 226 275 327
#     4  10  21  38  59  82 111 150 196 245 296 348
#     4  12  24  37  57  85 117 151 187 229 279 337
#     4   9  16  28  49  77 108 143 186 237 294 353
#     4  10  21  39  64  94 127 160 193 230 274 328
#     4   9  16  27  44  66  94 132 178 224 271 325
#
# _framework density 20.227882000000001
#
# number of rings (size 3 to 8) (size 9 to 14) (size 15 to 20)
#    0.000    2.000    0.000    4.500    0.000    9.000 
#    0.000    0.833    0.000    0.500    0.000    0.000 
#    0.000    0.000    0.000    0.000    0.000    0.000 
#
# Total GULP energy -594921.035264 kJ/mol
# GULP energy per Si atom -12394.188235 kJ/mol
# Density = 2.018184 g / cm^3
# Si number density = 20.227882 Si / 1000 Ang^3
#
#
#
# Elastic Constant Matrix: (Units=GPa)
#
#
# Indices 1 2 3 4 5 6 
#
# 1 116.2444 44.4313 47.8042 0.0000 0.0000 0.0000
# 2 44.4313 84.8976 52.1689 0.0000 0.0000 0.0000
# 3 47.8042 52.1689 121.2471 0.0000 0.0000 0.0000
# 4 0.0000 0.0000 0.0000 65.3957 0.0000 0.0000
# 5 0.0000 0.0000 0.0000 0.0000 35.9296 0.0000
# 6 0.0000 0.0000 0.0000 0.0000 0.0000 15.5668
#
#
#
# Elastic Compliance Matrix: (Units=1/GPa)
#
#
# Indices 1 2 3 4 5 6 
#
# 1 0.011328 -0.004328 -0.002604 0.000000 0.000000 0.000000
# 2 -0.004328 0.017666 -0.005895 0.000000 0.000000 0.000000
# 3 -0.002604 -0.005895 0.011811 0.000000 0.000000 0.000000
# 4 0.000000 0.000000 0.000000 0.015292 0.000000 0.000000
# 5 0.000000 0.000000 0.000000 0.000000 0.027832 0.000000
# 6 0.000000 0.000000 0.000000 0.000000 0.000000 0.064239
#
#
# Mechanical properties :
#
#
# Convention : Reuss Voigt Hill
#
# Bulk Modulus (GPa) = 66.00305 67.91089 66.95697
# Shear Modulus (GPa) = 27.95292 35.24405 31.59849
#
# Velocity S-wave (km/s) = 3.72143 4.17868 3.95666
# Velocity P-wave (km/s) = 7.15304 7.54504 7.35165
#
# Compressibility (1/GPa) = 0.01515081
#
# Stress axis : x y z
#
# Youngs Moduli (GPa) = 88.27864 56.60443 84.66973
#
# Poissons Ratio (x) = 0.24500 0.22047
# Poissons Ratio (y) = 0.38210 0.49911
# Poissons Ratio (z) = 0.22986 0.33367
#
# Static dielectric constant tensor:
#      x y z
#    x 3.972150 0.000000 0.000000 
#    y 0.000000 3.607450 0.000000 
#    z 0.000000 0.000000 3.752430 
# 
# 
# High freq. dielectric constant tensor:
#      x y z
#    x 1.804250 0.000000 0.000000 
#    y 0.000000 1.784680 0.000000 
#    z 0.000000 0.000000 1.776680 
# 
# From -- ./inp_files/27600.got.cif
#   From: 2010.03.12/outbox.cif.g09.slc.cpg/sg51_14_cif.got.tgz:27600.got - 2010.04.16 13:43:02.
