data_PCOD8211231
_publ_section_title
;
Structure prediction by ZEFSAII (Michael W. Deem and Ramdas Pophale) SiO2 
 PCOD8211231
Probable space group: P M M A
;
_chemical_formula_sum "Si O2"
_cell_formula_units_Z 52
_cell_length_a 8.596263
_cell_length_b 26.641452
_cell_length_c 13.546384
_cell_angle_alpha 90.000000
_cell_angle_beta 90.000000
_cell_angle_gamma 90.000000
_cell_volume 3102.351250
_symmetry_space_group_name_H-M "P M M A"
_symmetry_group_IT_number 51
_symmetry_cell_setting 'orthorhombic'
loop_
_space_group_symop_operation_xyz
x,y,z
1/2-x,-y,z
1/2+x,-y,-z
-x,y,-z
-x,-y,-z
1/2+x,y,-z
1/2-x,y,z
x,-y,z
loop_
_atom_site_type_symbol
_atom_site_label
_atom_site_fract_x
_atom_site_fract_y
_atom_site_fract_z
Si Si1 0.433450 0.155004 0.110248
Si Si2 0.067576 0.500000 0.390976
Si Si3 0.568207 0.348585 0.104064
Si Si4 0.933838 0.303214 0.603591
Si Si5 0.566099 0.599374 0.301517
Si Si6 0.068173 0.945645 0.891838
Si Si7 0.065991 0.749503 0.786416
O O1 0.250000 0.163030 0.108763
O O2 0.478396 0.100952 0.159388
O O3 0.513424 0.196521 0.177250
O O4 0.500000 0.158446 0.000000
O O5 0.250000 0.500000 0.401620
O O6 0.000000 0.500000 0.500000
O O7 0.014988 0.451959 0.329848
O O8 0.750000 0.349651 0.092385
O O9 0.515679 0.387222 0.189431
O O10 0.513775 0.292398 0.133477
O O11 0.500000 0.365695 0.000000
O O12 0.750000 0.309491 0.599876
O O13 0.000000 0.283649 0.500000
O O14 0.011125 0.356833 0.625896
O O15 0.981045 0.261642 0.683695
O O16 0.750000 0.593663 0.311937
O O17 0.250000 0.932498 0.897856
O O18 0.042203 0.000000 0.837742
O O19 0.000000 0.950869 0.000000
O O20 0.250000 0.747464 0.769054
#
# Coordination Sequence:
#
# PCOD8211231 Si02
#       7
#     8   4   8   8   8   8   8
#     4  11  20  29  43  65  94 129 165 203 245 288
#     4  12  24  38  57  80 101 126 157 198 246 292
#     4   9  19  33  52  73  97 128 161 196 235 276
#     4  11  21  35  54  76 100 128 159 194 238 289
#     4  10  21  38  55  76 103 131 161 197 237 282
#     4   9  16  26  40  58  83 119 161 202 243 287
#     4  10  20  34  49  70  98 128 163 203 242 285
#
# _framework density 16.761479999999999
#
# number of rings (size 3 to 8) (size 9 to 14) (size 15 to 20)
#    0.000    1.846    0.000    7.615    0.000    5.846 
#    0.000    0.385    0.000    0.000    0.000    0.000 
#    0.000    0.615    0.000    2.308    0.000    3.846 
#
# Total GULP energy -644692.907466 kJ/mol
# GULP energy per Si atom -12397.940528 kJ/mol
# Density = 1.672333 g / cm^3
# Si number density = 16.761480 Si / 1000 Ang^3
#
#
#
# Elastic Constant Matrix: (Units=GPa)
#
#
# Indices 1 2 3 4 5 6 
#
# 1 82.1999 25.2921 28.7551 0.0000 0.0000 0.0000
# 2 25.2921 123.4768 46.5844 0.0000 0.0000 0.0000
# 3 28.7551 46.5844 98.0024 0.0000 0.0000 0.0000
# 4 0.0000 0.0000 0.0000 15.4862 0.0000 0.0000
# 5 0.0000 0.0000 0.0000 0.0000 27.6493 0.0000
# 6 0.0000 0.0000 0.0000 0.0000 0.0000 27.4572
#
#
#
# Elastic Compliance Matrix: (Units=1/GPa)
#
#
# Indices 1 2 3 4 5 6 
#
# 1 0.013807 -0.001584 -0.003298 0.000000 0.000000 0.000000
# 2 -0.001584 0.010050 -0.004313 0.000000 0.000000 0.000000
# 3 -0.003298 -0.004313 0.013221 0.000000 0.000000 0.000000
# 4 0.000000 0.000000 0.000000 0.064573 0.000000 0.000000
# 5 0.000000 0.000000 0.000000 0.000000 0.036167 0.000000
# 6 0.000000 0.000000 0.000000 0.000000 0.000000 0.036420
#
#
# Mechanical properties :
#
#
# Convention : Reuss Voigt Hill
#
# Bulk Modulus (GPa) = 53.50676 56.10468 54.80572
# Shear Modulus (GPa) = 25.14359 27.65503 26.39931
#
# Velocity S-wave (km/s) = 3.87729 4.06632 3.97293
# Velocity P-wave (km/s) = 7.21362 7.45598 7.33580
#
# Compressibility (1/GPa) = 0.01868923
#
# Stress axis : x y z
#
# Youngs Moduli (GPa) = 72.42943 99.50172 75.63448
#
# Poissons Ratio (x) = 0.15758 0.24946
# Poissons Ratio (y) = 0.11471 0.32617
# Poissons Ratio (z) = 0.23889 0.42910
#
# Static dielectric constant tensor:
#      x y z
#    x 3.274000 0.000000 0.000000 
#    y 0.000000 3.535650 0.000000 
#    z 0.000000 0.000000 3.128870 
# 
# 
# High freq. dielectric constant tensor:
#      x y z
#    x 1.665180 0.000000 0.000000 
#    y 0.000000 1.648400 0.000000 
#    z 0.000000 0.000000 1.615460 
# 
# From -- ./inp_files/14619.got.cif
#   From: 2010.03.12/outbox.cif.g09.slc.cpg/sg51_8_cif.got.tgz:14619.got - 2010.04.16 13:43:02.
