data_PCOD8211582
_publ_section_title
;
Structure prediction by ZEFSAII (Michael W. Deem and Ramdas Pophale) SiO2 
 PCOD8211582
Probable space group: P M M A
;
_chemical_formula_sum "Si O2"
_cell_formula_units_Z 40
_cell_length_a 26.256703
_cell_length_b 9.083845
_cell_length_c 9.059368
_cell_angle_alpha 90.000000
_cell_angle_beta 90.000000
_cell_angle_gamma 90.000000
_cell_volume 2160.766352
_symmetry_space_group_name_H-M "P M M A"
_symmetry_group_IT_number 51
_symmetry_cell_setting 'orthorhombic'
loop_
_space_group_symop_operation_xyz
x,y,z
1/2-x,-y,z
1/2+x,-y,-z
-x,y,-z
-x,-y,-z
1/2+x,y,-z
1/2-x,y,z
x,-y,z
loop_
_atom_site_type_symbol
_atom_site_label
_atom_site_fract_x
_atom_site_fract_y
_atom_site_fract_z
Si Si1 0.997538 0.328020 0.329424
Si Si2 0.304315 0.833459 0.143250
Si Si3 0.404949 0.830304 0.826450
Si Si4 0.694086 0.671106 0.156382
Si Si5 0.086657 0.166302 0.175609
O O1 0.989887 0.500000 0.304877
O O2 0.050106 0.281256 0.253314
O O3 0.000000 0.284965 0.500000
O O4 0.950921 0.245316 0.256762
O O5 0.250000 0.819481 0.232024
O O6 0.355573 0.807767 0.239790
O O7 0.308868 0.000000 0.075915
O O8 0.303156 0.715138 0.014203
O O9 0.351621 0.761829 0.767300
O O10 0.405113 0.000000 0.783676
O O11 0.412166 0.804433 0.000580
O O12 0.750000 0.703595 0.228842
O O13 0.680626 0.500000 0.168121
O O14 0.067783 0.000000 0.208249
#
# Coordination Sequence:
#
# PCOD8211582 Si02
#       5
#     8   8   8   8   8
#     4  11  24  38  51  70  98 132 170 211 256 304
#     4   8  14  26  45  71 103 133 160 196 241 289
#     4  10  20  34  54  78 102 130 167 208 248 295
#     4   9  16  26  44  73 106 135 162 196 241 291
#     4   9  18  32  52  78 103 129 165 205 246 294
#
# _framework density 18.511952000000001
#
# number of rings (size 3 to 8) (size 9 to 14) (size 15 to 20)
#    0.000    2.600    0.000    3.600    0.000    9.200 
#    0.000    0.000    0.000    1.200    0.000    5.600 
#    0.000    0.000    0.000    0.000    0.000    0.000 
#
# Total GULP energy -495588.595069 kJ/mol
# GULP energy per Si atom -12389.714877 kJ/mol
# Density = 1.846982 g / cm^3
# Si number density = 18.511952 Si / 1000 Ang^3
#
#
#
# Elastic Constant Matrix: (Units=GPa)
#
#
# Indices 1 2 3 4 5 6 
#
# 1 195.9982 73.0062 45.0366 0.0000 0.0000 0.0000
# 2 73.0062 84.3684 35.9206 0.0000 0.0000 0.0000
# 3 45.0366 35.9206 40.4995 0.0000 0.0000 0.0000
# 4 0.0000 0.0000 0.0000 16.8709 0.0000 0.0000
# 5 0.0000 0.0000 0.0000 0.0000 -6.9853 0.0000
# 6 0.0000 0.0000 0.0000 0.0000 0.0000 36.2654
#
#
#
# Elastic Compliance Matrix: (Units=1/GPa)
#
#
# Indices 1 2 3 4 5 6 
#
# 1 0.007994 -0.005033 -0.004425 0.000000 0.000000 0.000000
# 2 -0.005033 0.022213 -0.014105 0.000000 0.000000 0.000000
# 3 -0.004425 -0.014105 0.042123 0.000000 0.000000 0.000000
# 4 0.000000 0.000000 0.000000 0.059274 0.000000 0.000000
# 5 0.000000 0.000000 0.000000 0.000000 -0.143158 0.000000
# 6 0.000000 0.000000 0.000000 0.000000 0.000000 0.027575
#
#
# Mechanical properties :
#
#
# Convention : Reuss Voigt Hill
#
# Bulk Modulus (GPa) = 39.67713 69.86587 54.77150
# Shear Modulus (GPa) = 69.88398 20.35706 45.12052
#
# Velocity S-wave (km/s) = 6.15083 3.31973 4.94233
# Velocity P-wave (km/s) = 8.48076 7.24686 7.88798
#
# Compressibility (1/GPa) = 0.02520344
#
# Stress axis : x y z
#
# Youngs Moduli (GPa) = 125.09963 45.01802 23.74014
#
# Poissons Ratio (x) = 0.22658 0.10505
# Poissons Ratio (y) = 0.62964 0.33485
# Poissons Ratio (z) = 0.55358 0.63498
#
# Static dielectric constant tensor:
#      x y z
#    x 4.093670 0.000000 0.000000 
#    y 0.000000 3.482300 0.000000 
#    z 0.000000 0.000000 2.840090 
# 
# 
# High freq. dielectric constant tensor:
#      x y z
#    x 1.754640 0.000000 0.000000 
#    y 0.000000 1.727900 0.000000 
#    z 0.000000 0.000000 1.643990 
# 
# From -- ./inp_files/12105.got.cif
#   From: 2010.03.12/outbox.cif.g09.slc.cpg/sg51_7_cif.got.tgz:12105.got - 2010.04.16 13:43:02.
