data_PCOD8211437
_publ_section_title
;
Structure prediction by ZEFSAII (Michael W. Deem and Ramdas Pophale) SiO2 
 PCOD8211437
Probable space group: P M M A
;
_chemical_formula_sum "Si O2"
_cell_formula_units_Z 44
_cell_length_a 9.304478
_cell_length_b 17.694240
_cell_length_c 14.214290
_cell_angle_alpha 90.000000
_cell_angle_beta 90.000000
_cell_angle_gamma 90.000000
_cell_volume 2340.179112
_symmetry_space_group_name_H-M "P M M A"
_symmetry_group_IT_number 51
_symmetry_cell_setting 'orthorhombic'
loop_
_space_group_symop_operation_xyz
x,y,z
1/2-x,-y,z
1/2+x,-y,-z
-x,y,-z
-x,-y,-z
1/2+x,y,-z
1/2-x,y,z
x,-y,z
loop_
_atom_site_type_symbol
_atom_site_label
_atom_site_fract_x
_atom_site_fract_y
_atom_site_fract_z
Si Si1 0.082635 0.350876 0.210441
Si Si2 0.578948 0.227888 0.097112
Si Si3 0.583679 0.500000 0.903755
Si Si4 0.420439 0.083313 0.791001
Si Si5 0.091480 0.089550 0.585214
Si Si6 0.916698 0.586137 0.589924
O O1 0.250000 0.329854 0.194537
O O2 0.041672 0.426833 0.155745
O O3 0.047910 0.362549 0.320084
O O4 0.978509 0.285081 0.175280
O O5 0.750000 0.237042 0.085071
O O6 0.534503 0.143592 0.130106
O O7 0.500000 0.245880 0.000000
O O8 0.750000 0.500000 0.929070
O O9 0.500000 0.500000 0.000000
O O10 0.250000 0.079247 0.780816
O O11 0.479483 0.107661 0.687527
O O12 0.479914 0.000000 0.819980
O O13 0.250000 0.125543 0.577939
O O14 0.000000 0.125517 0.500000
O O15 0.101161 0.000000 0.573614
O O16 0.750000 0.588834 0.565866
O O17 0.965034 0.500000 0.611025
O O18 0.000000 0.619388 0.500000
#
# Coordination Sequence:
#
# PCOD8211437 Si02
#       6
#     8   8   4   8   8   8
#     4  10  20  37  57  78 109 144 178 218 265 315
#     4  11  23  38  56  78 105 138 178 225 278 330
#     4  10  20  34  53  76 102 136 177 218 259 308
#     4   8  16  33  55  76 101 137 178 218 265 324
#     4   8  13  24  45  72  99 127 160 200 248 301
#     4   9  17  32  55  82 111 144 180 219 262 309
#
# _framework density 18.80198
#
# number of rings (size 3 to 8) (size 9 to 14) (size 15 to 20)
#    0.000    2.727    0.909    2.182    0.000    3.273 
#    0.000    2.727    0.000    8.182    0.000    0.000 
#    0.000    0.000    0.000    0.000    0.000    0.000 
#
# Total GULP energy -545443.765888 kJ/mol
# GULP energy per Si atom -12396.449225 kJ/mol
# Density = 1.875919 g / cm^3
# Si number density = 18.801980 Si / 1000 Ang^3
#
#
#
# Elastic Constant Matrix: (Units=GPa)
#
#
# Indices 1 2 3 4 5 6 
#
# 1 65.5377 39.1873 55.1126 0.0000 0.0000 0.0000
# 2 39.1873 86.7370 48.1436 0.0000 0.0000 0.0000
# 3 55.1126 48.1436 131.7668 0.0000 0.0000 0.0000
# 4 0.0000 0.0000 0.0000 25.3088 0.0000 0.0000
# 5 0.0000 0.0000 0.0000 0.0000 33.7807 0.0000
# 6 0.0000 0.0000 0.0000 0.0000 0.0000 19.9829
#
#
#
# Elastic Compliance Matrix: (Units=1/GPa)
#
#
# Indices 1 2 3 4 5 6 
#
# 1 0.026855 -0.007399 -0.008529 0.000000 0.000000 0.000000
# 2 -0.007399 0.016500 -0.002934 0.000000 0.000000 0.000000
# 3 -0.008529 -0.002934 0.012228 0.000000 0.000000 0.000000
# 4 0.000000 0.000000 0.000000 0.039512 0.000000 0.000000
# 5 0.000000 0.000000 0.000000 0.000000 0.029603 0.000000
# 6 0.000000 0.000000 0.000000 0.000000 0.000000 0.050043
#
#
# Mechanical properties :
#
#
# Convention : Reuss Voigt Hill
#
# Bulk Modulus (GPa) = 55.99138 63.21427 59.60283
# Shear Modulus (GPa) = 22.89190 25.25435 24.07313
#
# Velocity S-wave (km/s) = 3.49309 3.66891 3.58208
# Velocity P-wave (km/s) = 6.79066 7.18623 6.99125
#
# Compressibility (1/GPa) = 0.01785989
#
# Stress axis : x y z
#
# Youngs Moduli (GPa) = 37.23762 60.60445 81.77627
#
# Poissons Ratio (x) = 0.44840 0.69746
# Poissons Ratio (y) = 0.27551 0.23994
# Poissons Ratio (z) = 0.31759 0.17782
#
# Static dielectric constant tensor:
#      x y z
#    x 3.321230 0.000000 0.000000 
#    y 0.000000 3.688580 0.000000 
#    z 0.000000 0.000000 2.977560 
# 
# 
# High freq. dielectric constant tensor:
#      x y z
#    x 1.707840 0.000000 0.000000 
#    y 0.000000 1.709330 0.000000 
#    z 0.000000 0.000000 1.742030 
# 
# From -- ./inp_files/20963.got.cif
#   From: 2010.03.12/outbox.cif.g09.slc.cpg/sg51_11_cif.got.tgz:20963.got - 2010.04.16 13:43:02.
