data_PCOD8211679
_publ_section_title
;
Structure prediction by ZEFSAII (Michael W. Deem and Ramdas Pophale) SiO2 
 PCOD8211679
Probable space group: P M M A
;
_chemical_formula_sum "Si O2"
_cell_formula_units_Z 64
_cell_length_a 28.994038
_cell_length_b 8.912968
_cell_length_c 12.449362
_cell_angle_alpha 90.000000
_cell_angle_beta 90.000000
_cell_angle_gamma 90.000000
_cell_volume 3217.200641
_symmetry_space_group_name_H-M "P M M A"
_symmetry_group_IT_number 51
_symmetry_cell_setting 'orthorhombic'
loop_
_space_group_symop_operation_xyz
x,y,z
1/2-x,-y,z
1/2+x,-y,-z
-x,y,-z
-x,-y,-z
1/2+x,y,-z
1/2-x,y,z
x,-y,z
loop_
_atom_site_type_symbol
_atom_site_label
_atom_site_fract_x
_atom_site_fract_y
_atom_site_fract_z
Si Si1 0.353497 0.829555 0.777096
Si Si2 0.135802 0.322494 0.164550
Si Si3 0.931535 0.675946 0.513861
Si Si4 0.947881 0.172788 0.740415
Si Si5 0.660670 0.170093 0.460910
Si Si6 0.047530 0.173017 0.697704
Si Si7 0.800341 0.330340 0.642785
Si Si8 0.697529 0.677695 0.031526
O O1 0.326087 0.817964 0.664226
O O2 0.406635 0.773118 0.761594
O O3 0.326275 0.724094 0.857859
O O4 0.353021 0.000000 0.820550
O O5 0.131020 0.500000 0.156118
O O6 0.084458 0.252622 0.170584
O O7 0.162043 0.272483 0.272545
O O8 0.165274 0.259123 0.064427
O O9 0.939765 0.500000 0.528441
O O10 0.943706 0.757656 0.623344
O O11 0.878962 0.711321 0.487161
O O12 0.961421 0.734615 0.412509
O O13 0.002126 0.191228 0.772726
O O14 0.933388 0.000000 0.736116
O O15 0.701899 0.222568 0.538391
O O16 0.645526 0.000000 0.487703
O O17 0.055562 0.000000 0.663873
O O18 0.750000 0.323577 0.698102
O O19 0.811873 0.500000 0.607569
O O20 0.750000 0.741840 0.023255
O O21 0.699587 0.500000 0.025499
#
# Coordination Sequence:
#
# PCOD8211679 Si02
#       8
#     8   8   8   8   8   8   8   8
#     4   9  20  39  60  82 112 148 190 238 285 334
#     4  10  21  38  58  82 114 149 189 238 288 339
#     4  11  20  31  51  81 116 153 192 233 276 330
#     4  11  21  34  55  82 115 154 193 232 280 340
#     4  10  20  35  54  79 114 152 188 231 284 340
#     4   9  20  37  55  80 116 156 193 233 283 337
#     4  10  20  34  54  80 111 147 184 228 289 353
#     4  10  22  41  64  87 111 145 190 239 292 347
#
# _framework density 19.893070999999999
#
# number of rings (size 3 to 8) (size 9 to 14) (size 15 to 20)
#    0.000    2.000    1.250    3.375    0.000    8.000 
#    0.000    3.125    0.000    6.000    0.000    0.000 
#    0.000    0.000    0.000    0.000    0.000    0.000 
#
# Total GULP energy -793316.445553 kJ/mol
# GULP energy per Si atom -12395.569462 kJ/mol
# Density = 1.984779 g / cm^3
# Si number density = 19.893071 Si / 1000 Ang^3
#
#
#
# Elastic Constant Matrix: (Units=GPa)
#
#
# Indices 1 2 3 4 5 6 
#
# 1 83.2926 18.5601 41.6911 0.0000 0.0000 0.0000
# 2 18.5601 51.9591 28.8886 0.0000 0.0000 0.0000
# 3 41.6911 28.8886 88.7453 0.0000 0.0000 0.0000
# 4 0.0000 0.0000 0.0000 26.0153 0.0000 0.0000
# 5 0.0000 0.0000 0.0000 0.0000 22.8515 0.0000
# 6 0.0000 0.0000 0.0000 0.0000 0.0000 27.7764
#
#
#
# Elastic Compliance Matrix: (Units=1/GPa)
#
#
# Indices 1 2 3 4 5 6 
#
# 1 0.015842 -0.001857 -0.006838 0.000000 0.000000 0.000000
# 2 -0.001857 0.023717 -0.006848 0.000000 0.000000 0.000000
# 3 -0.006838 -0.006848 0.016710 0.000000 0.000000 0.000000
# 4 0.000000 0.000000 0.000000 0.038439 0.000000 0.000000
# 5 0.000000 0.000000 0.000000 0.000000 0.043761 0.000000
# 6 0.000000 0.000000 0.000000 0.000000 0.000000 0.036002
#
#
# Mechanical properties :
#
#
# Convention : Reuss Voigt Hill
#
# Bulk Modulus (GPa) = 39.70968 44.69739 42.20354
# Shear Modulus (GPa) = 23.36994 24.31914 23.84454
#
# Velocity S-wave (km/s) = 3.43122 3.50021 3.46589
# Velocity P-wave (km/s) = 5.97517 6.23321 6.10555
#
# Compressibility (1/GPa) = 0.02518278
#
# Stress axis : x y z
#
# Youngs Moduli (GPa) = 63.12204 42.16455 59.84565
#
# Poissons Ratio (x) = 0.07831 0.40922
# Poissons Ratio (y) = 0.11723 0.40981
# Poissons Ratio (z) = 0.43162 0.28873
#
# Static dielectric constant tensor:
#      x y z
#    x 3.887210 0.000000 0.000000 
#    y 0.000000 3.517000 0.000000 
#    z 0.000000 0.000000 3.461170 
# 
# 
# High freq. dielectric constant tensor:
#      x y z
#    x 1.786200 0.000000 0.000000 
#    y 0.000000 1.767550 0.000000 
#    z 0.000000 0.000000 1.750900 
# 
# From -- ./inp_files/19597.got.cif
#   From: 2010.03.12/outbox.cif.g09.slc.cpg/sg51_10_cif.got.tgz:19597.got - 2010.04.16 13:43:02.
