data_PCOD8211464
_publ_section_title
;
Structure prediction by ZEFSAII (Michael W. Deem and Ramdas Pophale) SiO2 
 PCOD8211464
Probable space group: P M M A
;
_chemical_formula_sum "Si O2"
_cell_formula_units_Z 48
_cell_length_a 8.876639
_cell_length_b 30.690003
_cell_length_c 9.436452
_cell_angle_alpha 90.000000
_cell_angle_beta 90.000000
_cell_angle_gamma 90.000000
_cell_volume 2570.716731
_symmetry_space_group_name_H-M "P M M A"
_symmetry_group_IT_number 51
_symmetry_cell_setting 'orthorhombic'
loop_
_space_group_symop_operation_xyz
x,y,z
1/2-x,-y,z
1/2+x,-y,-z
-x,y,-z
-x,-y,-z
1/2+x,y,-z
1/2-x,y,z
x,-y,z
loop_
_atom_site_type_symbol
_atom_site_label
_atom_site_fract_x
_atom_site_fract_y
_atom_site_fract_z
Si Si1 0.572835 0.450828 0.146115
Si Si2 0.428724 0.214277 0.652308
Si Si3 0.926877 0.048564 0.852708
Si Si4 0.927870 0.374493 0.346847
Si Si5 0.429338 0.125437 0.348822
Si Si6 0.073087 0.704915 0.846505
O O1 0.750000 0.447999 0.124137
O O2 0.520195 0.500000 0.182515
O O3 0.520977 0.419893 0.274649
O O4 0.500000 0.434430 0.000000
O O5 0.500000 0.225809 0.500000
O O6 0.250000 0.209358 0.633509
O O7 0.500001 0.169781 0.714416
O O8 0.472387 0.251333 0.764026
O O9 0.750000 0.050809 0.872972
O O10 0.982857 0.084136 0.741440
O O11 0.976953 0.000000 0.803207
O O12 0.000000 0.061297 0.000000
O O13 0.750000 0.371910 0.366368
O O14 0.986255 0.335576 0.246580
O O15 0.000000 0.370334 0.500000
O O16 0.500000 0.116813 0.500000
O O17 0.250000 0.130011 0.357437
O O18 0.250000 0.701412 0.868453
O O19 0.000000 0.704455 0.000000
#
# Coordination Sequence:
#
# PCOD8211464 Si02
#       6
#     8   8   8   8   8   8
#     4   9  18  33  53  77 105 136 171 212 256 303
#     4  10  20  35  54  76 102 132 168 207 250 300
#     4   9  19  35  53  74 101 133 169 208 250 297
#     4  10  21  36  53  76 105 136 172 212 255 303
#     4  10  20  34  53  77 104 134 168 206 250 299
#     4  10  22  37  54  77 103 133 170 211 253 301
#
# _framework density 18.671834
#
# number of rings (size 3 to 8) (size 9 to 14) (size 15 to 20)
#    0.000    2.333    0.000    3.000    0.000    5.333 
#    0.000    3.333    0.000    0.000    0.000    0.000 
#    0.000    0.000    0.000    0.000    0.000    0.000 
#
# Total GULP energy -595197.145684 kJ/mol
# GULP energy per Si atom -12399.940535 kJ/mol
# Density = 1.862934 g / cm^3
# Si number density = 18.671834 Si / 1000 Ang^3
#
#
#
# Elastic Constant Matrix: (Units=GPa)
#
#
# Indices 1 2 3 4 5 6 
#
# 1 48.7987 47.7419 45.2850 0.0000 0.0000 0.0000
# 2 47.7419 163.1159 106.9547 0.0000 0.0000 0.0000
# 3 45.2850 106.9547 145.6508 0.0000 0.0000 0.0000
# 4 0.0000 0.0000 0.0000 37.4080 0.0000 0.0000
# 5 0.0000 0.0000 0.0000 0.0000 35.5032 0.0000
# 6 0.0000 0.0000 0.0000 0.0000 0.0000 17.7935
#
#
#
# Elastic Compliance Matrix: (Units=1/GPa)
#
#
# Indices 1 2 3 4 5 6 
#
# 1 0.031020 -0.005314 -0.005743 0.000000 0.000000 0.000000
# 2 -0.005314 0.012734 -0.007699 0.000000 0.000000 0.000000
# 3 -0.005743 -0.007699 0.014304 0.000000 0.000000 0.000000
# 4 0.000000 0.000000 0.000000 0.026732 0.000000 0.000000
# 5 0.000000 0.000000 0.000000 0.000000 0.028166 0.000000
# 6 0.000000 0.000000 0.000000 0.000000 0.000000 0.056200
#
#
# Mechanical properties :
#
#
# Convention : Reuss Voigt Hill
#
# Bulk Modulus (GPa) = 48.66538 84.16984 66.41761
# Shear Modulus (GPa) = 23.41732 28.64652 26.03192
#
# Velocity S-wave (km/s) = 3.54524 3.92115 3.73792
# Velocity P-wave (km/s) = 6.54816 8.10413 7.36734
#
# Compressibility (1/GPa) = 0.02054849
#
# Stress axis : x y z
#
# Youngs Moduli (GPa) = 32.23706 78.53073 69.90825
#
# Poissons Ratio (x) = 0.41730 0.40145
# Poissons Ratio (y) = 0.17130 0.53820
# Poissons Ratio (z) = 0.18512 0.60458
#
# Static dielectric constant tensor:
#      x y z
#    x 3.362490 0.000000 0.000000 
#    y 0.000000 3.882090 0.000000 
#    z 0.000000 0.000000 3.360650 
# 
# 
# High freq. dielectric constant tensor:
#      x y z
#    x 1.721660 0.000000 0.000000 
#    y 0.000000 1.742900 0.000000 
#    z 0.000000 0.000000 1.721450 
# 
# From -- ./inp_files/6057.got.cif
#   From: 2010.03.12/outbox.cif.g09.slc.cpg/sg51_4_cif.got.tgz:6057.got - 2010.04.16 13:43:02.
