data_PCOD8211517
_publ_section_title
;
Structure prediction by ZEFSAII (Michael W. Deem and Ramdas Pophale) SiO2 
 PCOD8211517
Probable space group: P M M A
;
_chemical_formula_sum "Si O2"
_cell_formula_units_Z 40
_cell_length_a 16.347573
_cell_length_b 14.390462
_cell_length_c 8.551201
_cell_angle_alpha 90.000000
_cell_angle_beta 90.000000
_cell_angle_gamma 90.000000
_cell_volume 2011.662579
_symmetry_space_group_name_H-M "P M M A"
_symmetry_group_IT_number 51
_symmetry_cell_setting 'orthorhombic'
loop_
_space_group_symop_operation_xyz
x,y,z
1/2-x,-y,z
1/2+x,-y,-z
-x,y,-z
-x,-y,-z
1/2+x,y,-z
1/2-x,y,z
x,-y,z
loop_
_atom_site_type_symbol
_atom_site_label
_atom_site_fract_x
_atom_site_fract_y
_atom_site_fract_z
Si Si1 0.482011 0.608484 0.679217
Si Si2 0.159533 0.896317 0.285670
Si Si3 0.924414 0.258119 0.896308
Si Si4 0.845032 0.266180 0.206601
Si Si5 0.919253 0.895317 0.403110
O O1 0.500000 0.631856 0.500000
O O2 0.483443 0.500000 0.714355
O O3 0.552163 0.653230 0.789717
O O4 0.391117 0.646185 0.716453
O O5 0.250000 0.864570 0.235389
O O6 0.093266 0.828030 0.214658
O O7 0.154920 0.894047 0.473396
O O8 0.141006 0.000000 0.223569
O O9 0.850094 0.276938 0.017519
O O10 0.000000 0.227098 0.000000
O O11 0.750000 0.264944 0.256955
O O12 0.894222 0.173925 0.263255
O O13 0.000000 0.863474 0.500000
O O14 0.932074 0.000000 0.335254
#
# Coordination Sequence:
#
# PCOD8211517 Si02
#       5
#     8   8   8   8   8
#     4  10  22  42  65  84 105 142 192 240 286 341
#     4  10  20  34  53  78 111 150 188 228 273 321
#     4  10  21  36  57  83 112 145 185 229 280 342
#     4  11  22  35  56  87 120 152 185 232 294 349
#     4  10  20  35  56  82 114 156 203 240 273 324
#
# _framework density 19.884049999999998
#
# number of rings (size 3 to 8) (size 9 to 14) (size 15 to 20)
#    0.000    1.800    0.000    5.400    0.000    6.400 
#    0.000    1.000    0.000    4.200    0.000    0.000 
#    0.000    0.000    0.000    0.000    0.000    0.000 
#
# Total GULP energy -495819.905586 kJ/mol
# GULP energy per Si atom -12395.497640 kJ/mol
# Density = 1.983879 g / cm^3
# Si number density = 19.884050 Si / 1000 Ang^3
#
#
#
# Elastic Constant Matrix: (Units=GPa)
#
#
# Indices 1 2 3 4 5 6 
#
# 1 97.4087 58.2457 40.1718 0.0000 0.0000 0.0000
# 2 58.2457 127.3557 64.3325 0.0000 0.0000 0.0000
# 3 40.1718 64.3325 107.1963 0.0000 0.0000 0.0000
# 4 0.0000 0.0000 0.0000 11.3427 0.0000 0.0000
# 5 0.0000 0.0000 0.0000 0.0000 26.9838 0.0000
# 6 0.0000 0.0000 0.0000 0.0000 0.0000 17.5507
#
#
#
# Elastic Compliance Matrix: (Units=1/GPa)
#
#
# Indices 1 2 3 4 5 6 
#
# 1 0.014446 -0.005557 -0.002079 0.000000 0.000000 0.000000
# 2 -0.005557 0.013405 -0.005963 0.000000 0.000000 0.000000
# 3 -0.002079 -0.005963 0.013686 0.000000 0.000000 0.000000
# 4 0.000000 0.000000 0.000000 0.088163 0.000000 0.000000
# 5 0.000000 0.000000 0.000000 0.000000 0.037059 0.000000
# 6 0.000000 0.000000 0.000000 0.000000 0.000000 0.056978
#
#
# Mechanical properties :
#
#
# Convention : Reuss Voigt Hill
#
# Bulk Modulus (GPa) = 69.72998 73.05118 71.39058
# Shear Modulus (GPa) = 19.55309 22.45615 21.00462
#
# Velocity S-wave (km/s) = 3.13925 3.36423 3.25369
# Velocity P-wave (km/s) = 6.94869 7.20480 7.07790
#
# Compressibility (1/GPa) = 0.01434103
#
# Stress axis : x y z
#
# Youngs Moduli (GPa) = 69.22337 74.59697 73.06656
#
# Poissons Ratio (x) = 0.41451 0.15189
# Poissons Ratio (y) = 0.38466 0.43567
# Poissons Ratio (z) = 0.14390 0.44480
#
# Static dielectric constant tensor:
#      x y z
#    x 3.670910 0.000000 0.000000 
#    y 0.000000 3.492700 0.000000 
#    z 0.000000 0.000000 3.874840 
# 
# 
# High freq. dielectric constant tensor:
#      x y z
#    x 1.774600 0.000000 0.000000 
#    y 0.000000 1.766980 0.000000 
#    z 0.000000 0.000000 1.778850 
# 
# From -- ./inp_files/7972.got.cif
#   From: 2010.03.12/outbox.cif.g09.slc.cpg/sg51_4_cif.got.tgz:7972.got - 2010.04.16 13:43:02.
