data_PCOD8211176
_publ_section_title
;
Structure prediction by ZEFSAII (Michael W. Deem and Ramdas Pophale) SiO2 
 PCOD8211176
Probable space group: P M M A
;
_chemical_formula_sum "Si O2"
_cell_formula_units_Z 48
_cell_length_a 25.384364
_cell_length_b 9.029014
_cell_length_c 11.828234
_cell_angle_alpha 90.000000
_cell_angle_beta 90.000000
_cell_angle_gamma 90.000000
_cell_volume 2710.981293
_symmetry_space_group_name_H-M "P M M A"
_symmetry_group_IT_number 51
_symmetry_cell_setting 'orthorhombic'
loop_
_space_group_symop_operation_xyz
x,y,z
1/2-x,-y,z
1/2+x,-y,-z
-x,y,-z
-x,-y,-z
1/2+x,y,-z
1/2-x,y,z
x,-y,z
loop_
_atom_site_type_symbol
_atom_site_label
_atom_site_fract_x
_atom_site_fract_y
_atom_site_fract_z
Si Si1 0.617018 0.670325 0.159222
Si Si2 0.969678 0.335001 0.346322
Si Si3 0.377926 0.670183 0.483828
Si Si4 0.187931 0.170720 0.669473
Si Si5 0.928857 0.827682 0.707975
Si Si6 0.941397 0.825704 0.967101
O O1 0.632726 0.500000 0.140765
O O2 0.566308 0.687388 0.237454
O O3 0.666071 0.752153 0.217469
O O4 0.603189 0.744527 0.040071
O O5 0.994894 0.500000 0.345405
O O6 0.935182 0.313686 0.458580
O O7 0.014524 0.212141 0.344173
O O8 0.360404 0.500000 0.475220
O O9 0.334063 0.754627 0.555954
O O10 0.382737 0.740621 0.358798
O O11 0.250000 0.190071 0.669498
O O12 0.170527 0.000000 0.670255
O O13 0.928194 0.781780 0.838831
O O14 0.918809 0.000000 0.691168
O O15 0.937167 0.000000 0.988678
O O16 0.000000 0.769776 0.000000
#
# Coordination Sequence:
#
# PCOD8211176 Si02
#       6
#     8   8   8   8   8   8
#     4  10  20  33  53  80 108 141 179 221 266 312
#     4   9  18  31  46  69 103 140 175 214 258 307
#     4  10  21  35  51  75 106 138 173 217 266 316
#     4  10  21  38  61  84 105 132 169 218 273 324
#     4  11  21  31  48  73 104 145 184 217 257 307
#     4  10  20  34  50  73 108 149 188 222 259 308
#
# _framework density 17.705766000000001
#
# number of rings (size 3 to 8) (size 9 to 14) (size 15 to 20)
#    0.000    2.000    1.667    3.500    0.000    8.333 
#    0.000    0.000    0.000    1.000    0.000    7.000 
#    0.000    0.000    0.000    0.000    0.000    0.000 
#
# Total GULP energy -595303.295272 kJ/mol
# GULP energy per Si atom -12402.151985 kJ/mol
# Density = 1.766547 g / cm^3
# Si number density = 17.705766 Si / 1000 Ang^3
#
#
#
# Elastic Constant Matrix: (Units=GPa)
#
#
# Indices 1 2 3 4 5 6 
#
# 1 64.5867 50.8341 46.1547 0.0000 0.0000 0.0000
# 2 50.8341 109.3919 63.0177 0.0000 0.0000 0.0000
# 3 46.1547 63.0177 118.4992 0.0000 0.0000 0.0000
# 4 0.0000 0.0000 0.0000 29.3439 0.0000 0.0000
# 5 0.0000 0.0000 0.0000 0.0000 9.5146 0.0000
# 6 0.0000 0.0000 0.0000 0.0000 0.0000 20.7917
#
#
#
# Elastic Compliance Matrix: (Units=1/GPa)
#
#
# Indices 1 2 3 4 5 6 
#
# 1 0.026666 -0.009239 -0.005473 0.000000 0.000000 0.000000
# 2 -0.009239 0.016380 -0.005112 0.000000 0.000000 0.000000
# 3 -0.005473 -0.005112 0.013289 0.000000 0.000000 0.000000
# 4 0.000000 0.000000 0.000000 0.034079 0.000000 0.000000
# 5 0.000000 0.000000 0.000000 0.000000 0.105101 0.000000
# 6 0.000000 0.000000 0.000000 0.000000 0.000000 0.048096
#
#
# Mechanical properties :
#
#
# Convention : Reuss Voigt Hill
#
# Bulk Modulus (GPa) = 59.92784 68.05452 63.99118
# Shear Modulus (GPa) = 17.31180 20.76147 19.03664
#
# Velocity S-wave (km/s) = 3.13029 3.42801 3.28253
# Velocity P-wave (km/s) = 6.85456 7.36126 7.11242
#
# Compressibility (1/GPa) = 0.01668673
#
# Stress axis : x y z
#
# Youngs Moduli (GPa) = 37.50158 61.05145 75.24851
#
# Poissons Ratio (x) = 0.56403 0.41184
# Poissons Ratio (y) = 0.34646 0.38469
# Poissons Ratio (z) = 0.20525 0.31211
#
# Static dielectric constant tensor:
#      x y z
#    x 2.929550 0.000000 0.000000 
#    y 0.000000 3.393960 0.000000 
#    z 0.000000 0.000000 3.408650 
# 
# 
# High freq. dielectric constant tensor:
#      x y z
#    x 1.647570 0.000000 0.000000 
#    y 0.000000 1.697240 0.000000 
#    z 0.000000 0.000000 1.689710 
# 
# From -- ./inp_files/18546.got.cif
#   From: 2010.03.12/outbox.cif.g09.slc.cpg/sg51_10_cif.got.tgz:18546.got - 2010.04.16 13:43:02.
