data_PCOD8211889
_publ_section_title
;
Structure prediction by ZEFSAII (Michael W. Deem and Ramdas Pophale) SiO2 
 PCOD8211889
Probable space group: P M M A
;
_chemical_formula_sum "Si O2"
_cell_formula_units_Z 48
_cell_length_a 13.769186
_cell_length_b 12.962023
_cell_length_c 15.097352
_cell_angle_alpha 90.000000
_cell_angle_beta 90.000000
_cell_angle_gamma 90.000000
_cell_volume 2694.522629
_symmetry_space_group_name_H-M "P M M A"
_symmetry_group_IT_number 51
_symmetry_cell_setting 'orthorhombic'
loop_
_space_group_symop_operation_xyz
x,y,z
1/2-x,-y,z
1/2+x,-y,-z
-x,y,-z
-x,-y,-z
1/2+x,y,-z
1/2-x,y,z
x,-y,z
loop_
_atom_site_type_symbol
_atom_site_label
_atom_site_fract_x
_atom_site_fract_y
_atom_site_fract_z
Si Si1 0.027819 0.305656 0.862687
Si Si2 0.250000 0.878008 0.305399
Si Si3 0.541149 0.880220 0.754037
Si Si4 0.139495 0.383240 0.698978
Si Si5 0.250000 0.118437 0.500998
Si Si6 0.638604 0.380299 0.974045
Si Si7 0.437116 0.204746 0.585966
O O1 0.077853 0.374460 0.788182
O O2 0.012580 0.188321 0.828609
O O3 0.923895 0.356657 0.886247
O O4 0.098730 0.306932 0.947652
O O5 0.346276 0.844314 0.251813
O O6 0.250000 0.826049 0.404060
O O7 0.250000 0.000000 0.315230
O O8 0.493895 0.863492 0.657818
O O9 0.530638 0.000000 0.781139
O O10 0.250000 0.347010 0.717678
O O11 0.137151 0.500000 0.665157
O O12 0.091011 0.316300 0.622600
O O13 0.341966 0.143376 0.560141
O O14 0.250000 0.000000 0.478624
O O15 0.750000 0.352919 0.954229
O O16 0.626154 0.500000 0.001600
O O17 0.500000 0.224559 0.500000
#
# Coordination Sequence:
#
# PCOD8211889 Si02
#       7
#     8   4   8   8   4   8   8
#     4  10  20  34  57  81 107 135 174 216 259 316
#     4   9  18  32  52  75 100 139 182 219 264 309
#     4  10  21  35  53  78 109 143 177 218 264 313
#     4  10  20  35  55  78 107 141 177 217 268 326
#     4  11  20  32  53  77 106 137 183 231 267 305
#     4  10  20  36  59  84 108 134 170 216 263 312
#     4  11  21  34  53  79 105 141 185 230 267 307
#
# _framework density 17.813917
#
# number of rings (size 3 to 8) (size 9 to 14) (size 15 to 20)
#    0.000    1.833    2.500    3.000    1.167    2.333 
#    0.000    1.667    0.000    1.000    0.000    0.000 
#    0.000    0.000    0.000    0.000    0.000    0.000 
#
# Total GULP energy -595186.746054 kJ/mol
# GULP energy per Si atom -12399.723876 kJ/mol
# Density = 1.777337 g / cm^3
# Si number density = 17.813917 Si / 1000 Ang^3
#
#
#
# Elastic Constant Matrix: (Units=GPa)
#
#
# Indices 1 2 3 4 5 6 
#
# 1 137.3431 36.5255 47.0648 0.0000 0.0000 0.0000
# 2 36.5255 75.9555 33.8141 0.0000 0.0000 0.0000
# 3 47.0648 33.8141 83.3139 0.0000 0.0000 0.0000
# 4 0.0000 0.0000 0.0000 16.1265 0.0000 0.0000
# 5 0.0000 0.0000 0.0000 0.0000 42.6759 0.0000
# 6 0.0000 0.0000 0.0000 0.0000 0.0000 29.4167
#
#
#
# Elastic Compliance Matrix: (Units=1/GPa)
#
#
# Indices 1 2 3 4 5 6 
#
# 1 0.009445 -0.002644 -0.004262 0.000000 0.000000 0.000000
# 2 -0.002644 0.016809 -0.005328 0.000000 0.000000 0.000000
# 3 -0.004262 -0.005328 0.016573 0.000000 0.000000 0.000000
# 4 0.000000 0.000000 0.000000 0.062010 0.000000 0.000000
# 5 0.000000 0.000000 0.000000 0.000000 0.023432 0.000000
# 6 0.000000 0.000000 0.000000 0.000000 0.000000 0.033994
#
#
# Mechanical properties :
#
#
# Convention : Reuss Voigt Hill
#
# Bulk Modulus (GPa) = 54.47433 59.04681 56.76057
# Shear Modulus (GPa) = 25.92645 29.59103 27.75874
#
# Velocity S-wave (km/s) = 3.81911 4.08010 3.95176
# Velocity P-wave (km/s) = 7.07768 7.44411 7.26320
#
# Compressibility (1/GPa) = 0.01835727
#
# Stress axis : x y z
#
# Youngs Moduli (GPa) = 105.87752 59.49057 60.33837
#
# Poissons Ratio (x) = 0.15732 0.25718
# Poissons Ratio (y) = 0.27998 0.32151
# Poissons Ratio (z) = 0.45127 0.31699
#
# Static dielectric constant tensor:
#      x y z
#    x 3.597270 0.000000 0.000000 
#    y 0.000000 3.110060 0.000000 
#    z 0.000000 0.000000 3.296610 
# 
# 
# High freq. dielectric constant tensor:
#      x y z
#    x 1.708460 0.000000 0.000000 
#    y 0.000000 1.673050 0.000000 
#    z 0.000000 0.000000 1.682480 
# 
# From -- ./inp_files/24089.got.cif
#   From: 2010.03.12/outbox.cif.g09.slc.cpg/sg51_13_cif.got.tgz:24089.got - 2010.04.16 13:43:02.
