data_PCOD8211532
_publ_section_title
;
Structure prediction by ZEFSAII (Michael W. Deem and Ramdas Pophale) SiO2 
 PCOD8211532
Probable space group: P M M A
;
_chemical_formula_sum "Si O2"
_cell_formula_units_Z 48
_cell_length_a 9.460042
_cell_length_b 9.261848
_cell_length_c 29.173849
_cell_angle_alpha 90.000000
_cell_angle_beta 90.000000
_cell_angle_gamma 90.000000
_cell_volume 2556.138871
_symmetry_space_group_name_H-M "P M M A"
_symmetry_group_IT_number 51
_symmetry_cell_setting 'orthorhombic'
loop_
_space_group_symop_operation_xyz
x,y,z
1/2-x,-y,z
1/2+x,-y,-z
-x,y,-z
-x,-y,-z
1/2+x,y,-z
1/2-x,y,z
x,-y,z
loop_
_atom_site_type_symbol
_atom_site_label
_atom_site_fract_x
_atom_site_fract_y
_atom_site_fract_z
Si Si1 0.750000 0.831170 0.949611
Si Si2 0.411273 0.671319 0.543019
Si Si3 0.587206 0.663960 0.200256
Si Si4 0.750000 0.341465 0.041386
Si Si5 0.978684 0.662855 0.897869
Si Si6 0.915504 0.330478 0.632274
Si Si7 0.913117 0.829662 0.290637
O O1 0.617263 0.781331 0.920827
O O2 0.750000 0.000000 0.954165
O O3 0.750000 0.772912 0.001040
O O4 0.500000 0.733425 0.500000
O O5 0.250000 0.733163 0.543550
O O6 0.404082 0.500000 0.539768
O O7 0.496539 0.720264 0.587933
O O8 0.750000 0.682921 0.186709
O O9 0.557590 0.500000 0.216574
O O10 0.496180 0.702181 0.155527
O O11 0.544071 0.772755 0.240522
O O12 0.750000 0.500000 0.018111
O O13 0.621609 0.322139 0.075023
O O14 0.917605 0.500000 0.902418
O O15 0.750000 0.292703 0.625637
O O16 0.935796 0.500000 0.641273
O O17 0.979528 0.243588 0.674422
O O18 0.750000 0.787686 0.301990
O O19 0.935131 0.000000 0.292089
#
# Coordination Sequence:
#
# PCOD8211532 Si02
#       7
#     4   8   8   4   8   8   8
#     4  12  26  38  50  80 120 154 184 218 267 326
#     4   9  16  27  47  77 112 147 184 232 286 332
#     4   9  17  34  61  88 108 132 177 231 278 328
#     4  10  20  38  64  86 106 138 186 232 275 326
#     4  10  20  38  62  85 108 140 182 229 277 326
#     4  10  20  34  53  79 110 146 190 233 275 325
#     4  10  21  36  55  80 109 142 179 221 275 335
#
# _framework density 18.778323
#
# number of rings (size 3 to 8) (size 9 to 14) (size 15 to 20)
#    0.000    2.167    0.833    2.750    0.000    7.333 
#    1.500    0.000    0.000    0.500    0.000    0.000 
#    0.000    0.000    0.000    0.000    0.000    0.000 
#
# Total GULP energy -595119.532705 kJ/mol
# GULP energy per Si atom -12398.323598 kJ/mol
# Density = 1.873558 g / cm^3
# Si number density = 18.778323 Si / 1000 Ang^3
#
#
#
# Elastic Constant Matrix: (Units=GPa)
#
#
# Indices 1 2 3 4 5 6 
#
# 1 120.6840 49.4209 66.6896 0.0000 0.0000 0.0000
# 2 49.4209 85.8622 58.0425 0.0000 0.0000 0.0000
# 3 66.6896 58.0425 139.8155 0.0000 0.0000 0.0000
# 4 0.0000 0.0000 0.0000 -1.1930 0.0000 0.0000
# 5 0.0000 0.0000 0.0000 0.0000 46.9743 0.0000
# 6 0.0000 0.0000 0.0000 0.0000 0.0000 14.8720
#
#
#
# Elastic Compliance Matrix: (Units=1/GPa)
#
#
# Indices 1 2 3 4 5 6 
#
# 1 0.012311 -0.004332 -0.004074 0.000000 0.000000 0.000000
# 2 -0.004332 0.017715 -0.005287 0.000000 0.000000 0.000000
# 3 -0.004074 -0.005287 0.011290 0.000000 0.000000 0.000000
# 4 0.000000 0.000000 0.000000 -0.838222 0.000000 0.000000
# 5 0.000000 0.000000 0.000000 0.000000 0.021288 0.000000
# 6 0.000000 0.000000 0.000000 0.000000 0.000000 0.067240
#
#
# Mechanical properties :
#
#
# Convention : Reuss Voigt Hill
#
# Bulk Modulus (GPa) = 71.79232 77.18530 74.48881
# Shear Modulus (GPa) = -7.39266 23.61125 8.10929
#
# Velocity S-wave (km/s) = -1.98629 3.54978 2.08034
# Velocity P-wave (km/s) = 5.74926 7.61537 6.74715
#
# Compressibility (1/GPa) = 0.01392907
#
# Stress axis : x y z
#
# Youngs Moduli (GPa) = 81.22542 56.45079 88.57044
#
# Poissons Ratio (x) = 0.24457 0.36082
# Poissons Ratio (y) = 0.35190 0.46831
# Poissons Ratio (z) = 0.33090 0.29848
#
# Static dielectric constant tensor:
#      x y z
#    x 3.488080 0.000000 0.000000 
#    y 0.000000 3.225700 0.000000 
#    z 0.000000 0.000000 3.583580 
# 
# 
# High freq. dielectric constant tensor:
#      x y z
#    x 1.732460 0.000000 0.000000 
#    y 0.000000 1.700550 0.000000 
#    z 0.000000 0.000000 1.742870 
# 
# From -- ./inp_files/37163.got.cif
#   From: 2010.03.12/outbox.cif.g09.slc.cpg/sg51_19_cif.got.tgz:37163.got - 2010.04.16 13:43:02.
