data_PCOD8211613
_publ_section_title
;
Structure prediction by ZEFSAII (Michael W. Deem and Ramdas Pophale) SiO2 
 PCOD8211613
Probable space group: P M M A
;
_chemical_formula_sum "Si O2"
_cell_formula_units_Z 48
_cell_length_a 9.273363
_cell_length_b 7.786702
_cell_length_c 34.135752
_cell_angle_alpha 90.000000
_cell_angle_beta 90.000000
_cell_angle_gamma 90.000000
_cell_volume 2464.905588
_symmetry_space_group_name_H-M "P M M A"
_symmetry_group_IT_number 51
_symmetry_cell_setting 'orthorhombic'
loop_
_space_group_symop_operation_xyz
x,y,z
1/2-x,-y,z
1/2+x,-y,-z
-x,y,-z
-x,-y,-z
1/2+x,y,-z
1/2-x,y,z
x,-y,z
loop_
_atom_site_type_symbol
_atom_site_label
_atom_site_fract_x
_atom_site_fract_y
_atom_site_fract_z
Si Si1 0.911522 0.298605 0.817670
Si Si2 0.578710 0.309861 0.905006
Si Si3 0.421975 0.000000 0.041111
Si Si4 0.414995 0.693162 0.596554
Si Si5 0.415463 0.796295 0.328301
Si Si6 0.591447 0.802504 0.254991
Si Si7 0.080983 0.000000 0.540612
O O1 0.750000 0.222729 0.812334
O O2 0.908261 0.500000 0.810360
O O3 0.971641 0.258053 0.861252
O O4 0.017975 0.212355 0.787136
O O5 0.750000 0.316295 0.904568
O O6 0.518966 0.500000 0.916505
O O7 0.523522 0.168851 0.935769
O O8 0.250000 0.000000 0.035674
O O9 0.500000 0.000000 0.000000
O O10 0.250000 0.733368 0.608608
O O11 0.429982 0.500000 0.579400
O O12 0.512951 0.707105 0.634633
O O13 0.466792 0.829555 0.564147
O O14 0.250000 0.739158 0.325890
O O15 0.492927 0.722165 0.289285
O O16 0.430749 0.000000 0.332264
O O17 0.750000 0.713928 0.254350
O O18 0.611120 0.000000 0.265016
O O19 0.000000 0.000000 0.500000
O O20 0.250000 0.000000 0.532088
#
# Coordination Sequence:
#
# PCOD8211613 Si02
#       7
#     8   8   4   8   8   8   4
#     4   9  18  33  53  76 101 133 178 228 270 313
#     4   8  16  32  53  77 104 135 174 217 262 316
#     4  10  20  34  54  79 104 135 170 211 264 319
#     4  10  21  38  61  87 115 151 190 228 278 334
#     4  10  20  35  56  81 110 147 191 236 279 323
#     4  10  21  34  50  76 110 148 185 222 268 321
#     4  10  22  40  62  87 118 151 184 227 276 333
#
# _framework density 19.473364
#
# number of rings (size 3 to 8) (size 9 to 14) (size 15 to 20)
#    0.000    2.500    0.833    2.000    1.167    4.333 
#    0.000    0.833    0.000    1.000    0.000    0.000 
#    0.000    0.000    0.000    0.000    0.000    0.000 
#
# Total GULP energy -595113.624420 kJ/mol
# GULP energy per Si atom -12398.200509 kJ/mol
# Density = 1.942904 g / cm^3
# Si number density = 19.473364 Si / 1000 Ang^3
#
#
#
# Elastic Constant Matrix: (Units=GPa)
#
#
# Indices 1 2 3 4 5 6 
#
# 1 94.6197 37.7253 64.7039 0.0000 0.0000 0.0000
# 2 37.7253 95.3920 67.4336 0.0000 0.0000 0.0000
# 3 64.7039 67.4336 162.1882 0.0000 0.0000 0.0000
# 4 0.0000 0.0000 0.0000 10.6094 0.0000 0.0000
# 5 0.0000 0.0000 0.0000 0.0000 36.9150 0.0000
# 6 0.0000 0.0000 0.0000 0.0000 0.0000 16.6004
#
#
#
# Elastic Compliance Matrix: (Units=1/GPa)
#
#
# Indices 1 2 3 4 5 6 
#
# 1 0.014910 -0.002396 -0.004952 0.000000 0.000000 0.000000
# 2 -0.002396 0.015232 -0.005377 0.000000 0.000000 0.000000
# 3 -0.004952 -0.005377 0.010377 0.000000 0.000000 0.000000
# 4 0.000000 0.000000 0.000000 0.094256 0.000000 0.000000
# 5 0.000000 0.000000 0.000000 0.000000 0.027089 0.000000
# 6 0.000000 0.000000 0.000000 0.000000 0.000000 0.060239
#
#
# Mechanical properties :
#
#
# Convention : Reuss Voigt Hill
#
# Bulk Modulus (GPa) = 66.36332 76.88062 71.62197
# Shear Modulus (GPa) = 19.79595 24.98078 22.38837
#
# Velocity S-wave (km/s) = 3.19182 3.58553 3.39439
# Velocity P-wave (km/s) = 6.90917 7.53040 7.22647
#
# Compressibility (1/GPa) = 0.01506856
#
# Stress axis : x y z
#
# Youngs Moduli (GPa) = 67.06731 65.65248 96.36691
#
# Poissons Ratio (x) = 0.15730 0.47723
# Poissons Ratio (y) = 0.16069 0.51818
# Poissons Ratio (z) = 0.33213 0.35302
#
# Static dielectric constant tensor:
#      x y z
#    x 3.474830 0.000000 0.000000 
#    y 0.000000 3.712890 0.000000 
#    z 0.000000 0.000000 3.513760 
# 
# 
# High freq. dielectric constant tensor:
#      x y z
#    x 1.738450 0.000000 0.000000 
#    y 0.000000 1.759060 0.000000 
#    z 0.000000 0.000000 1.754600 
# 
# From -- ./inp_files/37084.got.cif
#   From: 2010.03.12/outbox.cif.g09.slc.cpg/sg51_19_cif.got.tgz:37084.got - 2010.04.16 13:43:02.
