data_PCOD8211947
_publ_section_title
;
Structure prediction by ZEFSAII (Michael W. Deem and Ramdas Pophale) SiO2 
 PCOD8211947
Probable space group: P M M A
;
_chemical_formula_sum "Si O2"
_cell_formula_units_Z 40
_cell_length_a 9.276254
_cell_length_b 7.698867
_cell_length_c 29.316538
_cell_angle_alpha 90.000000
_cell_angle_beta 90.000000
_cell_angle_gamma 90.000000
_cell_volume 2093.688811
_symmetry_space_group_name_H-M "P M M A"
_symmetry_group_IT_number 51
_symmetry_cell_setting 'orthorhombic'
loop_
_space_group_symop_operation_xyz
x,y,z
1/2-x,-y,z
1/2+x,-y,-z
-x,y,-z
-x,-y,-z
1/2+x,y,-z
1/2-x,y,z
x,-y,z
loop_
_atom_site_type_symbol
_atom_site_label
_atom_site_fract_x
_atom_site_fract_y
_atom_site_fract_z
Si Si1 0.921912 0.000000 0.208185
Si Si2 0.912752 0.792951 0.543517
Si Si3 0.587134 0.793947 0.369787
Si Si4 0.081212 0.000000 0.113339
Si Si5 0.582451 0.697047 0.954404
Si Si6 0.579662 0.307289 0.271521
O O1 0.980421 0.168982 0.235219
O O2 0.750000 0.000000 0.203417
O O3 0.989909 0.000000 0.158811
O O4 0.750000 0.720991 0.541612
O O5 0.000000 0.721204 0.500000
O O6 0.989098 0.722071 0.589197
O O7 0.913053 0.000000 0.543257
O O8 0.750000 0.724240 0.376900
O O9 0.518853 0.725866 0.322341
O O10 0.587483 0.000000 0.368648
O O11 0.036729 0.827460 0.085635
O O12 0.250000 0.000000 0.125052
O O13 0.750000 0.716555 0.965589
O O14 0.543483 0.500000 0.939391
O O15 0.500000 0.751112 0.000000
O O16 0.750000 0.283247 0.274575
O O17 0.535359 0.500000 0.255000
#
# Coordination Sequence:
#
# PCOD8211947 Si02
#       6
#     4   8   8   4   8   8
#     4  10  20  35  53  76 102 131 172 216 252 294
#     4   9  16  25  39  64  96 127 158 193 236 288
#     4   9  15  26  46  68  91 121 156 196 242 292
#     4  10  21  35  51  74 106 141 171 206 257 306
#     4   9  18  33  53  77 106 139 175 213 252 297
#     4   9  17  31  52  75  98 126 163 208 255 299
#
# _framework density 19.105035999999998
#
# number of rings (size 3 to 8) (size 9 to 14) (size 15 to 20)
#    0.000    2.800    1.000    0.900    0.000    4.000 
#    0.000    1.000    0.000    2.400    0.000    0.000 
#    0.000    0.000    0.000    0.000    0.000    0.000 
#
# Total GULP energy -495939.357334 kJ/mol
# GULP energy per Si atom -12398.483933 kJ/mol
# Density = 1.906155 g / cm^3
# Si number density = 19.105036 Si / 1000 Ang^3
#
#
#
# Elastic Constant Matrix: (Units=GPa)
#
#
# Indices 1 2 3 4 5 6 
#
# 1 74.2723 32.4819 65.6534 0.0000 0.0000 0.0000
# 2 32.4819 100.8580 78.2011 0.0000 0.0000 0.0000
# 3 65.6534 78.2011 184.0888 0.0000 0.0000 0.0000
# 4 0.0000 0.0000 0.0000 3.2550 0.0000 0.0000
# 5 0.0000 0.0000 0.0000 0.0000 35.8173 0.0000
# 6 0.0000 0.0000 0.0000 0.0000 0.0000 7.6150
#
#
#
# Elastic Compliance Matrix: (Units=1/GPa)
#
#
# Indices 1 2 3 4 5 6 
#
# 1 0.019784 -0.001343 -0.006485 0.000000 0.000000 0.000000
# 2 -0.001343 0.014876 -0.005840 0.000000 0.000000 0.000000
# 3 -0.006485 -0.005840 0.010226 0.000000 0.000000 0.000000
# 4 0.000000 0.000000 0.000000 0.307215 0.000000 0.000000
# 5 0.000000 0.000000 0.000000 0.000000 0.027919 0.000000
# 6 0.000000 0.000000 0.000000 0.000000 0.000000 0.131319
#
#
# Mechanical properties :
#
#
# Convention : Reuss Voigt Hill
#
# Bulk Modulus (GPa) = 56.98477 79.09912 68.04195
# Shear Modulus (GPa) = 9.18229 21.52966 15.35597
#
# Velocity S-wave (km/s) = 2.19469 3.36059 2.83815
# Velocity P-wave (km/s) = 6.02611 7.51999 6.81411
#
# Compressibility (1/GPa) = 0.01754855
#
# Stress axis : x y z
#
# Youngs Moduli (GPa) = 50.54588 67.22344 97.79051
#
# Poissons Ratio (x) = 0.09030 0.63419
# Poissons Ratio (y) = 0.06790 0.57111
# Poissons Ratio (z) = 0.32780 0.39260
#
# Static dielectric constant tensor:
#      x y z
#    x 3.330530 0.000000 0.000000 
#    y 0.000000 3.511330 0.000000 
#    z 0.000000 0.000000 3.492420 
# 
# 
# High freq. dielectric constant tensor:
#      x y z
#    x 1.712610 0.000000 0.000000 
#    y 0.000000 1.739560 0.000000 
#    z 0.000000 0.000000 1.742070 
# 
# From -- ./inp_files/36055.got.cif
#   From: 2010.03.12/outbox.cif.g09.slc.cpg/sg51_19_cif.got.tgz:36055.got - 2010.04.16 13:43:02.
