data_PCOD8211482
_publ_section_title
;
Structure prediction by ZEFSAII (Michael W. Deem and Ramdas Pophale) SiO2 
 PCOD8211482
Probable space group: P M M A
;
_chemical_formula_sum "Si O2"
_cell_formula_units_Z 64
_cell_length_a 20.137851
_cell_length_b 9.258520
_cell_length_c 18.488048
_cell_angle_alpha 90.000000
_cell_angle_beta 90.000000
_cell_angle_gamma 90.000000
_cell_volume 3447.035470
_symmetry_space_group_name_H-M "P M M A"
_symmetry_group_IT_number 51
_symmetry_cell_setting 'orthorhombic'
loop_
_space_group_symop_operation_xyz
x,y,z
1/2-x,-y,z
1/2+x,-y,-z
-x,y,-z
-x,-y,-z
1/2+x,y,-z
1/2-x,y,z
x,-y,z
loop_
_atom_site_type_symbol
_atom_site_label
_atom_site_fract_x
_atom_site_fract_y
_atom_site_fract_z
Si Si1 0.826696 0.333724 0.049953
Si Si2 0.437974 0.171472 0.703590
Si Si3 0.057573 0.666486 0.556936
Si Si4 0.325425 0.666861 0.453961
Si Si5 0.173230 0.666129 0.784245
Si Si6 0.674599 0.169846 0.690048
Si Si7 0.433860 0.171530 0.040346
Si Si8 0.437808 0.171200 0.203164
O O1 0.750000 0.305275 0.031631
O O2 0.845102 0.500000 0.036186
O O3 0.841497 0.292024 0.132866
O O4 0.869358 0.233233 0.998366
O O5 0.454455 0.231270 0.624734
O O6 0.368296 0.232089 0.731622
O O7 0.495758 0.225798 0.757386
O O8 0.434074 0.000000 0.699690
O O9 0.056570 0.500000 0.582125
O O10 0.128209 0.707233 0.521358
O O11 0.000000 0.698219 0.500000
O O12 0.250000 0.703765 0.476525
O O13 0.334020 0.500000 0.432915
O O14 0.347858 0.757113 0.384389
O O15 0.250000 0.692151 0.765888
O O16 0.154081 0.500000 0.769930
O O17 0.750000 0.212472 0.710498
O O18 0.627102 0.227063 0.753926
O O19 0.666624 0.000000 0.678795
O O20 0.436142 0.233016 0.121946
O O21 0.428383 0.000000 0.038710
O O22 0.500000 0.225349 0.000000
O O23 0.437642 0.000000 0.200450
#
# Coordination Sequence:
#
# PCOD8211482 Si02
#       8
#     8   8   8   8   8   8   8   8
#     4   9  19  36  56  79 107 138 175 219 265 314
#     4  11  22  35  54  79 107 137 172 219 266 309
#     4  10  21  36  53  74 102 137 176 214 255 311
#     4   9  18  33  52  73  98 128 161 201 252 304
#     4   9  19  37  58  77 103 140 175 210 258 315
#     4   9  17  31  52  74  97 130 171 210 248 299
#     4  10  20  34  53  77 106 140 178 218 260 312
#     4   9  19  34  50  73 106 139 170 209 260 310
#
# _framework density 18.566680000000002
#
# number of rings (size 3 to 8) (size 9 to 14) (size 15 to 20)
#    0.000    2.500    0.000    2.625    0.000    4.000 
#    0.000    6.250    0.000    1.500    0.000    0.000 
#    0.000    0.000    0.000    0.000    0.000    0.000 
#
# Total GULP energy -793744.400936 kJ/mol
# GULP energy per Si atom -12402.256265 kJ/mol
# Density = 1.852442 g / cm^3
# Si number density = 18.566680 Si / 1000 Ang^3
#
#
#
# Elastic Constant Matrix: (Units=GPa)
#
#
# Indices 1 2 3 4 5 6 
#
# 1 100.9837 39.0213 61.4879 0.0000 0.0000 0.0000
# 2 39.0213 51.6362 47.1918 0.0000 0.0000 0.0000
# 3 61.4879 47.1918 121.2099 0.0000 0.0000 0.0000
# 4 0.0000 0.0000 0.0000 28.3218 0.0000 0.0000
# 5 0.0000 0.0000 0.0000 0.0000 34.8352 0.0000
# 6 0.0000 0.0000 0.0000 0.0000 0.0000 26.2031
#
#
#
# Elastic Compliance Matrix: (Units=1/GPa)
#
#
# Indices 1 2 3 4 5 6 
#
# 1 0.015885 -0.007202 -0.005254 0.000000 0.000000 0.000000
# 2 -0.007202 0.033330 -0.009323 0.000000 0.000000 0.000000
# 3 -0.005254 -0.009323 0.014545 0.000000 0.000000 0.000000
# 4 0.000000 0.000000 0.000000 0.035308 0.000000 0.000000
# 5 0.000000 0.000000 0.000000 0.000000 0.028707 0.000000
# 6 0.000000 0.000000 0.000000 0.000000 0.000000 0.038163
#
#
# Mechanical properties :
#
#
# Convention : Reuss Voigt Hill
#
# Bulk Modulus (GPa) = 49.50218 63.24799 56.37509
# Shear Modulus (GPa) = 23.12355 26.28061 24.70208
#
# Velocity S-wave (km/s) = 3.53290 3.76636 3.65149
# Velocity P-wave (km/s) = 6.58495 7.28376 6.94315
#
# Compressibility (1/GPa) = 0.02020113
#
# Stress axis : x y z
#
# Youngs Moduli (GPa) = 62.95360 30.00344 68.75148
#
# Poissons Ratio (x) = 0.21609 0.36121
# Poissons Ratio (y) = 0.45341 0.64096
# Poissons Ratio (z) = 0.33075 0.27972
#
# Static dielectric constant tensor:
#      x y z
#    x 3.583300 0.000000 0.000000 
#    y 0.000000 3.194370 0.000000 
#    z 0.000000 0.000000 3.478370 
# 
# 
# High freq. dielectric constant tensor:
#      x y z
#    x 1.733390 0.000000 0.000000 
#    y 0.000000 1.701960 0.000000 
#    z 0.000000 0.000000 1.722240 
# 
# From -- ./inp_files/30568.got.cif
#   From: 2010.03.12/outbox.cif.g09.slc.cpg/sg51_16_cif.got.tgz:30568.got - 2010.04.16 13:43:02.
