data_PCOD8211006
_publ_section_title
;
Structure prediction by ZEFSAII (Michael W. Deem and Ramdas Pophale) SiO2 
 PCOD8211006
Probable space group: P M M A
;
_chemical_formula_sum "Si O2"
_cell_formula_units_Z 40
_cell_length_a 18.181213
_cell_length_b 9.410711
_cell_length_c 12.723318
_cell_angle_alpha 90.000000
_cell_angle_beta 90.000000
_cell_angle_gamma 90.000000
_cell_volume 2176.936059
_symmetry_space_group_name_H-M "P M M A"
_symmetry_group_IT_number 51
_symmetry_cell_setting 'orthorhombic'
loop_
_space_group_symop_operation_xyz
x,y,z
1/2-x,-y,z
1/2+x,-y,-z
-x,y,-z
-x,-y,-z
1/2+x,y,-z
1/2-x,y,z
x,-y,z
loop_
_atom_site_type_symbol
_atom_site_label
_atom_site_fract_x
_atom_site_fract_y
_atom_site_fract_z
Si Si1 0.665944 0.662590 0.716518
Si Si2 0.914813 0.333903 0.506060
Si Si3 0.925130 0.168147 0.124997
Si Si4 0.590545 0.168173 0.891521
Si Si5 0.335336 0.832554 0.676566
O O1 0.750000 0.685853 0.681950
O O2 0.650451 0.500000 0.746833
O O3 0.614361 0.710317 0.620503
O O4 0.649841 0.757298 0.817967
O O5 0.901835 0.500000 0.483850
O O6 0.869649 0.245022 0.422325
O O7 0.000000 0.292181 0.500000
O O8 0.873945 0.227665 0.217891
O O9 0.008918 0.218796 0.142604
O O10 0.924165 0.000000 0.124624
O O11 0.895024 0.218866 0.011525
O O12 0.599709 0.000000 0.880058
O O13 0.250000 0.794546 0.684607
O O14 0.348507 0.000000 0.663571
#
# Coordination Sequence:
#
# PCOD8211006 Si02
#       5
#     8   8   8   8   8
#     4  10  21  35  49  70 104 136 160 201 259 302
#     4  10  21  37  56  75  97 131 173 212 253 301
#     4   8  16  32  52  76 105 132 162 207 255 289
#     4   9  17  32  55  77  98 131 173 208 240 290
#     4  10  20  33  51  76 105 135 166 204 253 304
#
# _framework density 18.374447
#
# number of rings (size 3 to 8) (size 9 to 14) (size 15 to 20)
#    0.000    2.600    0.000    3.000    0.000    3.600 
#    0.000    5.000    0.000    0.000    0.000    0.000 
#    0.000    0.000    0.000    0.000    0.000    0.000 
#
# Total GULP energy -496014.917374 kJ/mol
# GULP energy per Si atom -12400.372934 kJ/mol
# Density = 1.833263 g / cm^3
# Si number density = 18.374447 Si / 1000 Ang^3
#
#
#
# Elastic Constant Matrix: (Units=GPa)
#
#
# Indices 1 2 3 4 5 6 
#
# 1 71.5073 28.7134 37.8598 0.0000 0.0000 0.0000
# 2 28.7134 38.9057 39.1908 0.0000 0.0000 0.0000
# 3 37.8598 39.1908 108.6374 0.0000 0.0000 0.0000
# 4 0.0000 0.0000 0.0000 18.8223 0.0000 0.0000
# 5 0.0000 0.0000 0.0000 0.0000 30.2435 0.0000
# 6 0.0000 0.0000 0.0000 0.0000 0.0000 23.8826
#
#
#
# Elastic Compliance Matrix: (Units=1/GPa)
#
#
# Indices 1 2 3 4 5 6 
#
# 1 0.020341 -0.012365 -0.002628 0.000000 0.000000 0.000000
# 2 -0.012365 0.047891 -0.012968 0.000000 0.000000 0.000000
# 3 -0.002628 -0.012968 0.014799 0.000000 0.000000 0.000000
# 4 0.000000 0.000000 0.000000 0.053128 0.000000 0.000000
# 5 0.000000 0.000000 0.000000 0.000000 0.033065 0.000000
# 6 0.000000 0.000000 0.000000 0.000000 0.000000 0.041871
#
#
# Mechanical properties :
#
#
# Convention : Reuss Voigt Hill
#
# Bulk Modulus (GPa) = 36.88663 47.84204 42.36433
# Shear Modulus (GPa) = 18.11238 22.14211 20.12725
#
# Velocity S-wave (km/s) = 3.14305 3.47515 3.31326
# Velocity P-wave (km/s) = 5.76977 6.49584 6.14354
#
# Compressibility (1/GPa) = 0.02711009
#
# Stress axis : x y z
#
# Youngs Moduli (GPa) = 49.16150 20.88059 67.57238
#
# Poissons Ratio (x) = 0.25818 0.17760
# Poissons Ratio (y) = 0.60787 0.87626
# Poissons Ratio (z) = 0.12921 0.27077
#
# Static dielectric constant tensor:
#      x y z
#    x 3.657830 0.000000 0.000000 
#    y 0.000000 3.088880 0.000000 
#    z 0.000000 0.000000 3.745810 
# 
# 
# High freq. dielectric constant tensor:
#      x y z
#    x 1.718980 0.000000 0.000000 
#    y 0.000000 1.683630 0.000000 
#    z 0.000000 0.000000 1.724390 
# 
# From -- ./inp_files/16195.got.cif
#   From: 2010.03.12/outbox.cif.g09.slc.cpg/sg51_9_cif.got.tgz:16195.got - 2010.04.16 13:43:02.
