data_PCOD8211609
_publ_section_title
;
Structure prediction by ZEFSAII (Michael W. Deem and Ramdas Pophale) SiO2 
 PCOD8211609
Probable space group: P M M A
;
_chemical_formula_sum "Si O2"
_cell_formula_units_Z 48
_cell_length_a 9.122348
_cell_length_b 9.049353
_cell_length_c 31.107121
_cell_angle_alpha 90.000000
_cell_angle_beta 90.000000
_cell_angle_gamma 90.000000
_cell_volume 2567.934747
_symmetry_space_group_name_H-M "P M M A"
_symmetry_group_IT_number 51
_symmetry_cell_setting 'orthorhombic'
loop_
_space_group_symop_operation_xyz
x,y,z
1/2-x,-y,z
1/2+x,-y,-z
-x,y,-z
-x,-y,-z
1/2+x,y,-z
1/2-x,y,z
x,-y,z
loop_
_atom_site_type_symbol
_atom_site_label
_atom_site_fract_x
_atom_site_fract_y
_atom_site_fract_z
Si Si1 0.920470 0.327201 0.198712
Si Si2 0.085617 0.823661 0.458510
Si Si3 0.575977 0.164149 0.283111
Si Si4 0.420889 0.671037 0.955926
Si Si5 0.086645 0.176050 0.623256
Si Si6 0.581031 0.825879 0.878720
O O1 0.750000 0.286900 0.191057
O O2 0.947605 0.500000 0.194394
O O3 0.974208 0.275559 0.245790
O O4 0.019053 0.244852 0.164345
O O5 0.250000 0.763052 0.461039
O O6 0.000000 0.762658 0.500000
O O7 0.013794 0.760153 0.414862
O O8 0.082219 0.000000 0.458089
O O9 0.750000 0.155458 0.285810
O O10 0.520750 0.221991 0.329892
O O11 0.513348 0.000000 0.273067
O O12 0.250000 0.707543 0.960692
O O13 0.446667 0.500000 0.944165
O O14 0.488554 0.770029 0.918902
O O15 0.500000 0.713757 0.000000
O O16 0.250000 0.240740 0.616801
O O17 0.092844 0.000000 0.621298
O O18 0.750000 0.779256 0.884563
O O19 0.562670 0.000000 0.875216
#
# Coordination Sequence:
#
# PCOD8211609 Si02
#       6
#     8   8   8   8   8   8
#     4  10  20  34  54  79 104 132 169 211 255 305
#     4   9  15  21  30  47  74 108 144 182 225 275
#     4   8  14  26  45  67  92 124 160 198 242 292
#     4  10  21  38  61  87 113 143 178 214 255 303
#     4   8  13  22  36  53  75 108 149 188 228 277
#     4  11  24  39  55  78 108 142 179 217 258 303
#
# _framework density 18.692063999999998
#
# number of rings (size 3 to 8) (size 9 to 14) (size 15 to 20)
#    0.000    2.667    0.000    3.500    0.000    7.667 
#    0.000    0.833    0.000    3.000    0.000    0.000 
#    0.000    0.667    0.000    1.167    0.000    1.667 
#
# Total GULP energy -595088.770263 kJ/mol
# GULP energy per Si atom -12397.682714 kJ/mol
# Density = 1.864952 g / cm^3
# Si number density = 18.692064 Si / 1000 Ang^3
#
#
#
# Elastic Constant Matrix: (Units=GPa)
#
#
# Indices 1 2 3 4 5 6 
#
# 1 110.8679 35.7874 76.4128 0.0000 0.0000 0.0000
# 2 35.7874 46.1438 45.4185 0.0000 0.0000 0.0000
# 3 76.4128 45.4185 171.6149 0.0000 0.0000 0.0000
# 4 0.0000 0.0000 0.0000 -49.0487 0.0000 0.0000
# 5 0.0000 0.0000 0.0000 0.0000 33.8052 0.0000
# 6 0.0000 0.0000 0.0000 0.0000 0.0000 17.7855
#
#
#
# Elastic Compliance Matrix: (Units=1/GPa)
#
#
# Indices 1 2 3 4 5 6 
#
# 1 0.014338 -0.006540 -0.004653 0.000000 0.000000 0.000000
# 2 -0.006540 0.032288 -0.005633 0.000000 0.000000 0.000000
# 3 -0.004653 -0.005633 0.009390 0.000000 0.000000 0.000000
# 4 0.000000 0.000000 0.000000 -0.020388 0.000000 0.000000
# 5 0.000000 0.000000 0.000000 0.000000 0.029581 0.000000
# 6 0.000000 0.000000 0.000000 0.000000 0.000000 0.056226
#
#
# Mechanical properties :
#
#
# Convention : Reuss Voigt Hill
#
# Bulk Modulus (GPa) = 44.71652 71.54045 58.12849
# Shear Modulus (GPa) = 30.76132 11.90892 21.33512
#
# Velocity S-wave (km/s) = 4.06111 2.52684 3.38213
# Velocity P-wave (km/s) = 6.77974 6.84613 6.81301
#
# Compressibility (1/GPa) = 0.02236310
#
# Stress axis : x y z
#
# Youngs Moduli (GPa) = 69.74522 30.97111 106.49896
#
# Poissons Ratio (x) = 0.20255 0.49557
# Poissons Ratio (y) = 0.45612 0.59994
# Poissons Ratio (z) = 0.32454 0.17447
#
# Static dielectric constant tensor:
#      x y z
#    x 3.406310 0.000000 0.000000 
#    y 0.000000 3.066500 0.000000 
#    z 0.000000 0.000000 3.878650 
# 
# 
# High freq. dielectric constant tensor:
#      x y z
#    x 1.711510 0.000000 0.000000 
#    y 0.000000 1.683140 0.000000 
#    z 0.000000 0.000000 1.747880 
# 
# From -- ./inp_files/36943.got.cif
#   From: 2010.03.12/outbox.cif.g09.slc.cpg/sg51_19_cif.got.tgz:36943.got - 2010.04.16 13:43:02.
