data_PCOD8211120
_publ_section_title
;
Structure prediction by ZEFSAII (Michael W. Deem and Ramdas Pophale) SiO2 
 PCOD8211120
Probable space group: P M M A
;
_chemical_formula_sum "Si O2"
_cell_formula_units_Z 40
_cell_length_a 9.117126
_cell_length_b 9.405949
_cell_length_c 25.580320
_cell_angle_alpha 90.000000
_cell_angle_beta 90.000000
_cell_angle_gamma 90.000000
_cell_volume 2193.646025
_symmetry_space_group_name_H-M "P M M A"
_symmetry_group_IT_number 51
_symmetry_cell_setting 'orthorhombic'
loop_
_space_group_symop_operation_xyz
x,y,z
1/2-x,-y,z
1/2+x,-y,-z
-x,y,-z
-x,-y,-z
1/2+x,y,-z
1/2-x,y,z
x,-y,z
loop_
_atom_site_type_symbol
_atom_site_label
_atom_site_fract_x
_atom_site_fract_y
_atom_site_fract_z
Si Si1 0.917485 0.331519 0.642683
Si Si2 0.078613 0.164222 0.553190
Si Si3 0.079049 0.835209 0.052010
Si Si4 0.079599 0.334660 0.859426
Si Si5 0.087944 0.668588 0.742882
O O1 0.750000 0.282616 0.635995
O O2 0.934248 0.500000 0.637044
O O3 0.017066 0.259515 0.599365
O O4 0.972649 0.278445 0.699533
O O5 0.250000 0.194074 0.546669
O O6 0.000000 0.211229 0.500000
O O7 0.045817 0.000000 0.565987
O O8 0.250000 0.806519 0.045186
O O9 0.021881 0.752221 0.101956
O O10 0.042383 0.000000 0.060604
O O11 0.000000 0.777438 0.000000
O O12 0.250000 0.305058 0.871380
O O13 0.042926 0.500000 0.866239
O O14 0.039960 0.281427 0.800748
O O15 0.250000 0.729255 0.729268
O O16 0.096589 0.500000 0.743436
#
# Coordination Sequence:
#
# PCOD8211120 Si02
#       5
#     8   8   8   8   8
#     4  10  20  33  52  79 107 135 169 208 250 297
#     4  10  21  37  56  76 100 133 171 210 255 304
#     4  10  21  36  53  73  99 133 171 209 252 301
#     4   9  18  33  54  79 104 131 166 207 251 300
#     4   8  15  30  51  74 102 135 168 204 248 296
#
# _framework density 18.234483000000001
#
# number of rings (size 3 to 8) (size 9 to 14) (size 15 to 20)
#    0.000    2.600    0.000    3.000    0.000    5.600 
#    0.000    3.000    0.000    1.200    0.000    0.000 
#    0.000    0.000    0.000    0.000    0.000    0.000 
#
# Total GULP energy -495999.876342 kJ/mol
# GULP energy per Si atom -12399.996909 kJ/mol
# Density = 1.819298 g / cm^3
# Si number density = 18.234483 Si / 1000 Ang^3
#
#
#
# Elastic Constant Matrix: (Units=GPa)
#
#
# Indices 1 2 3 4 5 6 
#
# 1 106.7898 38.5248 72.2625 0.0000 0.0000 0.0000
# 2 38.5248 37.3747 44.0591 0.0000 0.0000 0.0000
# 3 72.2625 44.0591 144.8736 0.0000 0.0000 0.0000
# 4 0.0000 0.0000 0.0000 138.9449 0.0000 0.0000
# 5 0.0000 0.0000 0.0000 0.0000 41.1476 0.0000
# 6 0.0000 0.0000 0.0000 0.0000 0.0000 28.0074
#
#
#
# Elastic Compliance Matrix: (Units=1/GPa)
#
#
# Indices 1 2 3 4 5 6 
#
# 1 0.016857 -0.011635 -0.004870 0.000000 0.000000 0.000000
# 2 -0.011635 0.049740 -0.009324 0.000000 0.000000 0.000000
# 3 -0.004870 -0.009324 0.012167 0.000000 0.000000 0.000000
# 4 0.000000 0.000000 0.000000 0.007197 0.000000 0.000000
# 5 0.000000 0.000000 0.000000 0.000000 0.024303 0.000000
# 6 0.000000 0.000000 0.000000 0.000000 0.000000 0.035705
#
#
# Mechanical properties :
#
#
# Convention : Reuss Voigt Hill
#
# Bulk Modulus (GPa) = 36.88995 66.52564 51.70780
# Shear Modulus (GPa) = 24.19425 50.56608 37.38017
#
# Velocity S-wave (km/s) = 3.64653 5.27174 4.53257
# Velocity P-wave (km/s) = 6.16477 8.58007 7.47068
#
# Compressibility (1/GPa) = 0.02710765
#
# Stress axis : x y z
#
# Youngs Moduli (GPa) = 59.32355 20.10450 82.18922
#
# Poissons Ratio (x) = 0.23391 0.40023
# Poissons Ratio (y) = 0.69022 0.76630
# Poissons Ratio (z) = 0.28889 0.18745
#
# Static dielectric constant tensor:
#      x y z
#    x 3.832970 0.000000 0.000000 
#    y 0.000000 3.081030 0.000000 
#    z 0.000000 0.000000 3.594620 
# 
# 
# High freq. dielectric constant tensor:
#      x y z
#    x 1.714780 0.000000 0.000000 
#    y 0.000000 1.676830 0.000000 
#    z 0.000000 0.000000 1.720910 
# 
# From -- ./inp_files/31352.got.cif
#   From: 2010.03.12/outbox.cif.g09.slc.cpg/sg51_16_cif.got.tgz:31352.got - 2010.04.16 13:43:02.
