data_PCOD8211467
_publ_section_title
;
Structure prediction by ZEFSAII (Michael W. Deem and Ramdas Pophale) SiO2 
 PCOD8211467
Probable space group: P M M A
;
_chemical_formula_sum "Si O2"
_cell_formula_units_Z 36
_cell_length_a 8.768500
_cell_length_b 23.226418
_cell_length_c 9.382390
_cell_angle_alpha 90.000000
_cell_angle_beta 90.000000
_cell_angle_gamma 90.000000
_cell_volume 1910.825487
_symmetry_space_group_name_H-M "P M M A"
_symmetry_group_IT_number 51
_symmetry_cell_setting 'orthorhombic'
loop_
_space_group_symop_operation_xyz
x,y,z
1/2-x,-y,z
1/2+x,-y,-z
-x,y,-z
-x,-y,-z
1/2+x,y,-z
1/2-x,y,z
x,-y,z
loop_
_atom_site_type_symbol
_atom_site_label
_atom_site_fract_x
_atom_site_fract_y
_atom_site_fract_z
Si Si1 0.930889 0.285087 0.845298
Si Si2 0.568604 0.166838 0.153377
Si Si3 0.070482 0.607345 0.344042
Si Si4 0.929557 0.936050 0.349692
Si Si5 0.569294 0.500000 0.843011
O O1 0.750000 0.279932 0.861928
O O2 0.979142 0.333849 0.733240
O O3 0.999737 0.225781 0.782666
O O4 0.000000 0.299607 0.000000
O O5 0.750000 0.171726 0.147579
O O6 0.510576 0.112112 0.242005
O O7 0.500000 0.156576 0.000000
O O8 0.250000 0.603489 0.362686
O O9 0.011314 0.555414 0.244798
O O10 0.000000 0.603478 0.500000
O O11 0.750000 0.933080 0.365127
O O12 0.000000 0.920601 0.500000
O O13 0.980953 0.000000 0.298293
O O14 0.750000 0.500000 0.859947
O O15 0.500000 0.500000 0.000000
#
# Coordination Sequence:
#
# PCOD8211467 Si02
#       5
#     8   8   8   8   4
#     4  10  20  35  54  77 104 136 174 213 255 306
#     4  10  20  34  53  77 104 135 171 212 257 305
#     4  10  22  37  55  80 109 139 174 215 258 306
#     4   9  19  35  53  74 101 133 170 211 256 307
#     4  10  21  38  58  82 108 138 177 216 258 308
#
# _framework density 18.840025000000001
#
# number of rings (size 3 to 8) (size 9 to 14) (size 15 to 20)
#    0.000    2.222    0.000    3.667    0.000    5.778 
#    0.000    4.444    0.000    0.000    0.000    0.000 
#    0.000    0.000    0.000    0.000    0.000    0.000 
#
# Total GULP energy -446379.117867 kJ/mol
# GULP energy per Si atom -12399.419941 kJ/mol
# Density = 1.879714 g / cm^3
# Si number density = 18.840025 Si / 1000 Ang^3
#
#
#
# Elastic Constant Matrix: (Units=GPa)
#
#
# Indices 1 2 3 4 5 6 
#
# 1 52.0958 49.8328 39.5855 0.0000 0.0000 0.0000
# 2 49.8328 196.9744 115.0079 0.0000 0.0000 0.0000
# 3 39.5855 115.0079 135.9324 0.0000 0.0000 0.0000
# 4 0.0000 0.0000 0.0000 27.3457 0.0000 0.0000
# 5 0.0000 0.0000 0.0000 0.0000 34.9884 0.0000
# 6 0.0000 0.0000 0.0000 0.0000 0.0000 14.2657
#
#
#
# Elastic Compliance Matrix: (Units=1/GPa)
#
#
# Indices 1 2 3 4 5 6 
#
# 1 0.026393 -0.004327 -0.004025 0.000000 0.000000 0.000000
# 2 -0.004327 0.010743 -0.007829 0.000000 0.000000 0.000000
# 3 -0.004025 -0.007829 0.015152 0.000000 0.000000 0.000000
# 4 0.000000 0.000000 0.000000 0.036569 0.000000 0.000000
# 5 0.000000 0.000000 0.000000 0.000000 0.028581 0.000000
# 6 0.000000 0.000000 0.000000 0.000000 0.000000 0.070098
#
#
# Mechanical properties :
#
#
# Convention : Reuss Voigt Hill
#
# Bulk Modulus (GPa) = 50.18536 88.20613 69.19574
# Shear Modulus (GPa) = 22.07121 27.35840 24.71480
#
# Velocity S-wave (km/s) = 3.42644 3.81483 3.62584
# Velocity P-wave (km/s) = 6.50765 8.14396 7.37135
#
# Compressibility (1/GPa) = 0.01992613
#
# Stress axis : x y z
#
# Youngs Moduli (GPa) = 37.88890 93.08780 65.99603
#
# Poissons Ratio (x) = 0.40280 0.26563
# Poissons Ratio (y) = 0.16395 0.51667
# Poissons Ratio (z) = 0.15250 0.72877
#
# Static dielectric constant tensor:
#      x y z
#    x 3.403680 0.000000 0.000000 
#    y 0.000000 3.981670 0.000000 
#    z 0.000000 0.000000 3.385400 
# 
# 
# High freq. dielectric constant tensor:
#      x y z
#    x 1.731060 0.000000 0.000000 
#    y 0.000000 1.752450 0.000000 
#    z 0.000000 0.000000 1.728280 
# 
# From -- ./inp_files/5240.got.cif
#   From: 2010.03.12/outbox.cif.g09.slc.cpg/sg51_3_cif.got.tgz:5240.got - 2010.04.16 13:43:02.
