data_PCOD8211789
_publ_section_title
;
Structure prediction by ZEFSAII (Michael W. Deem and Ramdas Pophale) SiO2 
 PCOD8211789
Probable space group: P M M A
;
_chemical_formula_sum "Si O2"
_cell_formula_units_Z 64
_cell_length_a 19.520786
_cell_length_b 9.336296
_cell_length_c 19.209710
_cell_angle_alpha 90.000000
_cell_angle_beta 90.000000
_cell_angle_gamma 90.000000
_cell_volume 3501.004921
_symmetry_space_group_name_H-M "P M M A"
_symmetry_group_IT_number 51
_symmetry_cell_setting 'orthorhombic'
loop_
_space_group_symop_operation_xyz
x,y,z
1/2-x,-y,z
1/2+x,-y,-z
-x,y,-z
-x,-y,-z
1/2+x,y,-z
1/2-x,y,z
x,-y,z
loop_
_atom_site_type_symbol
_atom_site_label
_atom_site_fract_x
_atom_site_fract_y
_atom_site_fract_z
Si Si1 0.176764 0.331739 0.104686
Si Si2 0.432327 0.655453 0.458937
Si Si3 0.559059 0.167703 0.673954
Si Si4 0.028021 0.330451 0.075178
Si Si5 0.171264 0.332603 0.574671
Si Si6 0.671945 0.166671 0.285903
Si Si7 0.959046 0.832256 0.201848
Si Si8 0.326188 0.658658 0.264605
O O1 0.250000 0.269356 0.074360
O O2 0.178379 0.500000 0.092405
O O3 0.106423 0.269945 0.072565
O O4 0.174108 0.292836 0.185205
O O5 0.500000 0.623337 0.500000
O O6 0.406083 0.500000 0.429560
O O7 0.457213 0.763003 0.399699
O O8 0.373869 0.722413 0.509434
O O9 0.505422 0.216098 0.732912
O O10 0.634150 0.221998 0.693080
O O11 0.558946 0.000000 0.664355
O O12 0.026137 0.500000 0.090318
O O13 0.981687 0.255225 0.133785
O O14 0.000000 0.290517 0.000000
O O15 0.250000 0.299770 0.556535
O O16 0.157833 0.500000 0.587851
O O17 0.149593 0.251726 0.645190
O O18 0.750000 0.205884 0.263079
O O19 0.619932 0.203950 0.222448
O O20 0.665391 0.000000 0.304721
O O21 0.968508 0.000000 0.185640
O O22 0.250000 0.655227 0.295295
O O23 0.359556 0.500000 0.271661
#
# Coordination Sequence:
#
# PCOD8211789 Si02
#       8
#     8   8   8   8   8   8   8   8
#     4   8  14  28  51  75 101 135 172 207 244 292
#     4  10  21  35  50  70  98 135 177 217 261 314
#     4  11  22  33  49  75 105 135 170 216 269 316
#     4  10  20  34  55  83 109 136 175 218 259 307
#     4   9  18  33  52  74 100 130 168 215 262 306
#     4   9  18  34  56  78 100 133 176 215 254 309
#     4  10  21  36  53  76 106 138 170 210 263 315
#     4   9  17  31  52  74  96 131 174 209 248 300
#
# _framework density 18.280465
#
# number of rings (size 3 to 8) (size 9 to 14) (size 15 to 20)
#    0.000    2.500    1.250    1.875    0.000    2.750 
#    0.000    1.875    0.000    1.125    0.000    0.000 
#    0.000    0.000    0.000    0.000    0.000    0.000 
#
# Total GULP energy -793105.648895 kJ/mol
# GULP energy per Si atom -12392.275764 kJ/mol
# Density = 1.823886 g / cm^3
# Si number density = 18.280465 Si / 1000 Ang^3
#
#
#
# Elastic Constant Matrix: (Units=GPa)
#
#
# Indices 1 2 3 4 5 6 
#
# 1 100.2686 31.4966 67.4325 0.0000 0.0000 0.0000
# 2 31.4966 53.9032 49.7558 0.0000 0.0000 0.0000
# 3 67.4325 49.7558 114.3991 0.0000 0.0000 0.0000
# 4 0.0000 0.0000 0.0000 29.7848 0.0000 0.0000
# 5 0.0000 0.0000 0.0000 0.0000 27.7920 0.0000
# 6 0.0000 0.0000 0.0000 0.0000 0.0000 21.8911
#
#
#
# Elastic Compliance Matrix: (Units=1/GPa)
#
#
# Indices 1 2 3 4 5 6 
#
# 1 0.016563 -0.001113 -0.009279 0.000000 0.000000 0.000000
# 2 -0.001113 0.031070 -0.012857 0.000000 0.000000 0.000000
# 3 -0.009279 -0.012857 0.019803 0.000000 0.000000 0.000000
# 4 0.000000 0.000000 0.000000 0.033574 0.000000 0.000000
# 5 0.000000 0.000000 0.000000 0.000000 0.035982 0.000000
# 6 0.000000 0.000000 0.000000 0.000000 0.000000 0.045681
#
#
# Mechanical properties :
#
#
# Convention : Reuss Voigt Hill
#
# Bulk Modulus (GPa) = 47.76132 62.88230 55.32181
# Shear Modulus (GPa) = 21.17290 23.88597 22.52944
#
# Velocity S-wave (km/s) = 3.40696 3.61867 3.51441
# Velocity P-wave (km/s) = 6.45447 7.20645 6.84080
#
# Compressibility (1/GPa) = 0.02093744
#
# Stress axis : x y z
#
# Youngs Moduli (GPa) = 60.37482 32.18515 50.49750
#
# Poissons Ratio (x) = 0.03582 0.46857
# Poissons Ratio (y) = 0.06720 0.64926
# Poissons Ratio (z) = 0.56022 0.41382
#
# Static dielectric constant tensor:
#      x y z
#    x 3.779210 0.000000 0.000000 
#    y 0.000000 3.257440 0.000000 
#    z 0.000000 0.000000 3.740410 
# 
# 
# High freq. dielectric constant tensor:
#      x y z
#    x 1.725470 0.000000 0.000000 
#    y 0.000000 1.687540 0.000000 
#    z 0.000000 0.000000 1.687460 
# 
# From -- ./inp_files/30669.got.cif
#   From: 2010.03.12/outbox.cif.g09.slc.cpg/sg51_16_cif.got.tgz:30669.got - 2010.04.16 13:43:02.
