data_PCOD8211956
_publ_section_title
;
Structure prediction by ZEFSAII (Michael W. Deem and Ramdas Pophale) SiO2 
 PCOD8211956
Probable space group: P M M A
;
_chemical_formula_sum "Si O2"
_cell_formula_units_Z 56
_cell_length_a 21.697341
_cell_length_b 9.336057
_cell_length_c 14.903702
_cell_angle_alpha 90.000000
_cell_angle_beta 90.000000
_cell_angle_gamma 90.000000
_cell_volume 3019.007329
_symmetry_space_group_name_H-M "P M M A"
_symmetry_group_IT_number 51
_symmetry_cell_setting 'orthorhombic'
loop_
_space_group_symop_operation_xyz
x,y,z
1/2-x,-y,z
1/2+x,-y,-z
-x,y,-z
-x,-y,-z
1/2+x,y,-z
1/2-x,y,z
x,-y,z
loop_
_atom_site_type_symbol
_atom_site_label
_atom_site_fract_x
_atom_site_fract_y
_atom_site_fract_z
Si Si1 0.641209 0.337902 0.845681
Si Si2 0.180515 0.167327 0.789882
Si Si3 0.072494 0.166476 0.659529
Si Si4 0.115660 0.831915 0.464423
Si Si5 0.952303 0.666180 0.693333
Si Si6 0.250000 0.830772 0.235355
Si Si7 0.320709 0.662618 0.962389
Si Si8 0.750000 0.831243 0.564788
O O1 0.665994 0.500000 0.829984
O O2 0.577662 0.315180 0.791917
O O3 0.689207 0.222886 0.812037
O O4 0.634072 0.311326 0.952541
O O5 0.250000 0.219184 0.766257
O O6 0.136450 0.208649 0.707370
O O7 0.156058 0.240428 0.880605
O O8 0.179420 0.000000 0.808213
O O9 0.077289 0.199973 0.553912
O O10 0.019005 0.262757 0.700783
O O11 0.056679 0.000000 0.675152
O O12 0.088424 0.743116 0.382253
O O13 0.186610 0.782390 0.483372
O O14 0.112497 0.000000 0.439207
O O15 0.958629 0.500000 0.667058
O O16 0.250000 0.767770 0.335410
O O17 0.250000 0.000000 0.232596
O O18 0.250000 0.700351 0.989731
O O19 0.325123 0.500000 0.929133
O O20 0.750000 0.000000 0.569113
#
# Coordination Sequence:
#
# PCOD8211956 Si02
#       8
#     8   8   8   8   8   4   8   4
#     4  10  20  35  53  77 111 149 181 215 266 324
#     4   9  19  36  57  83 109 133 173 228 277 319
#     4  10  22  38  58  78 105 145 182 220 271 322
#     4  10  20  36  57  80 109 144 181 219 266 323
#     4  11  23  37  55  78 109 147 184 224 263 311
#     4  11  19  29  51  82 111 140 176 225 269 311
#     4   9  17  32  55  79 105 140 177 216 266 324
#     4   9  18  31  51  82 111 134 172 223 265 311
#
# _framework density 18.549144999999999
#
# number of rings (size 3 to 8) (size 9 to 14) (size 15 to 20)
#    0.000    2.143    2.143    1.071    1.000    4.000 
#    0.000    1.071    0.000    4.286    0.000    0.000 
#    0.000    0.000    0.000    0.000    0.000    0.000 
#
# Total GULP energy -694277.194957 kJ/mol
# GULP energy per Si atom -12397.807053 kJ/mol
# Density = 1.850693 g / cm^3
# Si number density = 18.549145 Si / 1000 Ang^3
#
#
#
# Elastic Constant Matrix: (Units=GPa)
#
#
# Indices 1 2 3 4 5 6 
#
# 1 95.0535 41.6714 38.0841 0.0000 0.0000 0.0000
# 2 41.6714 62.8309 37.6235 0.0000 0.0000 0.0000
# 3 38.0841 37.6235 92.5227 0.0000 0.0000 0.0000
# 4 0.0000 0.0000 0.0000 26.7544 0.0000 0.0000
# 5 0.0000 0.0000 0.0000 0.0000 20.1331 0.0000
# 6 0.0000 0.0000 0.0000 0.0000 0.0000 22.8999
#
#
#
# Elastic Compliance Matrix: (Units=1/GPa)
#
#
# Indices 1 2 3 4 5 6 
#
# 1 0.015396 -0.008482 -0.002888 0.000000 0.000000 0.000000
# 2 -0.008482 0.025711 -0.006964 0.000000 0.000000 0.000000
# 3 -0.002888 -0.006964 0.014829 0.000000 0.000000 0.000000
# 4 0.000000 0.000000 0.000000 0.037377 0.000000 0.000000
# 5 0.000000 0.000000 0.000000 0.000000 0.049669 0.000000
# 6 0.000000 0.000000 0.000000 0.000000 0.000000 0.043668
#
#
# Mechanical properties :
#
#
# Convention : Reuss Voigt Hill
#
# Bulk Modulus (GPa) = 51.89908 53.90723 52.90315
# Shear Modulus (GPa) = 21.76364 22.82602 22.29483
#
# Velocity S-wave (km/s) = 3.42906 3.51175 3.47065
# Velocity P-wave (km/s) = 6.61195 6.75042 6.68154
#
# Compressibility (1/GPa) = 0.01926817
#
# Stress axis : x y z
#
# Youngs Moduli (GPa) = 64.95231 38.89382 67.43589
#
# Poissons Ratio (x) = 0.32988 0.19478
# Poissons Ratio (y) = 0.55089 0.46962
# Poissons Ratio (z) = 0.18760 0.27086
#
# Static dielectric constant tensor:
#      x y z
#    x 3.710280 0.000000 0.000000 
#    y 0.000000 3.347820 0.000000 
#    z 0.000000 0.000000 3.455680 
# 
# 
# High freq. dielectric constant tensor:
#      x y z
#    x 1.710810 0.000000 0.000000 
#    y 0.000000 1.710570 0.000000 
#    z 0.000000 0.000000 1.719080 
# 
# From -- ./inp_files/25861.got.cif
#   From: 2010.03.12/outbox.cif.g09.slc.cpg/sg51_13_cif.got.tgz:25861.got - 2010.04.16 13:43:02.
