data_PCOD8211694
_publ_section_title
;
Structure prediction by ZEFSAII (Michael W. Deem and Ramdas Pophale) SiO2 
 PCOD8211694
Probable space group: P M M A
;
_chemical_formula_sum "Si O2"
_cell_formula_units_Z 48
_cell_length_a 8.934792
_cell_length_b 8.995259
_cell_length_c 30.831944
_cell_angle_alpha 90.000000
_cell_angle_beta 90.000000
_cell_angle_gamma 90.000000
_cell_volume 2477.987023
_symmetry_space_group_name_H-M "P M M A"
_symmetry_group_IT_number 51
_symmetry_cell_setting 'orthorhombic'
loop_
_space_group_symop_operation_xyz
x,y,z
1/2-x,-y,z
1/2+x,-y,-z
-x,y,-z
-x,-y,-z
1/2+x,y,-z
1/2-x,y,z
x,-y,z
loop_
_atom_site_type_symbol
_atom_site_label
_atom_site_fract_x
_atom_site_fract_y
_atom_site_fract_z
Si Si1 0.925675 0.669900 0.044539
Si Si2 0.574330 0.829556 0.545075
Si Si3 0.072139 0.667477 0.209426
Si Si4 0.577154 0.825091 0.703960
Si Si5 0.922337 0.825845 0.876701
Si Si6 0.575848 0.672209 0.375857
O O1 0.750000 0.688039 0.039367
O O2 0.971709 0.500000 0.054837
O O3 0.981707 0.774959 0.082594
O O4 0.000000 0.724259 0.000000
O O5 0.500000 0.782492 0.500000
O O6 0.750000 0.805875 0.540761
O O7 0.512488 0.722015 0.581743
O O8 0.534859 0.000000 0.556930
O O9 0.250000 0.671468 0.208991
O O10 0.009865 0.500000 0.210408
O O11 0.014036 0.752683 0.251938
O O12 0.011761 0.747301 0.166225
O O13 0.750000 0.781335 0.695705
O O14 0.478371 0.766697 0.664796
O O15 0.557879 0.000000 0.708098
O O16 0.750000 0.780971 0.884580
O O17 0.940557 0.000000 0.869924
O O18 0.750000 0.702761 0.383492
O O19 0.541995 0.500000 0.366858
#
# Coordination Sequence:
#
# PCOD8211694 Si02
#       6
#     8   8   8   8   8   8
#     4  10  21  37  57  80 106 139 180 225 273 325
#     4  10  21  38  61  87 113 144 183 226 274 328
#     4   9  17  31  54  82 111 144 181 222 269 321
#     4  10  20  35  57  84 112 143 182 227 274 325
#     4  10  20  34  54  81 112 145 181 222 269 322
#     4  11  24  39  55  79 112 149 188 229 274 324
#
# _framework density 19.370562
#
# number of rings (size 3 to 8) (size 9 to 14) (size 15 to 20)
#    0.000    2.000    0.000    3.500    0.000   10.000 
#    0.000    0.833    0.000    5.000    0.000    0.000 
#    0.000    0.000    0.000    0.000    0.000    0.000 
#
# Total GULP energy -595431.003290 kJ/mol
# GULP energy per Si atom -12404.812569 kJ/mol
# Density = 1.932647 g / cm^3
# Si number density = 19.370562 Si / 1000 Ang^3
#
#
#
# Elastic Constant Matrix: (Units=GPa)
#
#
# Indices 1 2 3 4 5 6 
#
# 1 61.7509 32.2083 44.3444 0.0000 0.0000 0.0000
# 2 32.2083 90.4641 56.1622 0.0000 0.0000 0.0000
# 3 44.3444 56.1622 150.6134 0.0000 0.0000 0.0000
# 4 0.0000 0.0000 0.0000 41.7356 0.0000 0.0000
# 5 0.0000 0.0000 0.0000 0.0000 29.5257 0.0000
# 6 0.0000 0.0000 0.0000 0.0000 0.0000 26.6113
#
#
#
# Elastic Compliance Matrix: (Units=1/GPa)
#
#
# Indices 1 2 3 4 5 6 
#
# 1 0.022143 -0.004992 -0.004658 0.000000 0.000000 0.000000
# 2 -0.004992 0.015509 -0.004314 0.000000 0.000000 0.000000
# 3 -0.004658 -0.004314 0.009619 0.000000 0.000000 0.000000
# 4 0.000000 0.000000 0.000000 0.023960 0.000000 0.000000
# 5 0.000000 0.000000 0.000000 0.000000 0.033869 0.000000
# 6 0.000000 0.000000 0.000000 0.000000 0.000000 0.037578
#
#
# Mechanical properties :
#
#
# Convention : Reuss Voigt Hill
#
# Bulk Modulus (GPa) = 51.69348 63.13982 57.41665
# Shear Modulus (GPa) = 28.24003 30.91541 29.57772
#
# Velocity S-wave (km/s) = 3.82237 3.99933 3.91185
# Velocity P-wave (km/s) = 6.79891 7.34797 7.07877
#
# Compressibility (1/GPa) = 0.01934480
#
# Stress axis : x y z
#
# Youngs Moduli (GPa) = 45.16154 64.47737 103.95623
#
# Poissons Ratio (x) = 0.32186 0.48423
# Poissons Ratio (y) = 0.22544 0.44842
# Poissons Ratio (z) = 0.21036 0.27813
#
# Static dielectric constant tensor:
#      x y z
#    x 3.368320 0.000000 0.000000 
#    y 0.000000 3.607780 0.000000 
#    z 0.000000 0.000000 3.841150 
# 
# 
# High freq. dielectric constant tensor:
#      x y z
#    x 1.736550 0.000000 0.000000 
#    y 0.000000 1.760640 0.000000 
#    z 0.000000 0.000000 1.770180 
# 
# From -- ./inp_files/36871.got.cif
#   From: 2010.03.12/outbox.cif.g09.slc.cpg/sg51_19_cif.got.tgz:36871.got - 2010.04.16 13:43:02.
