data_PCOD8211931
_publ_section_title
;
Structure prediction by ZEFSAII (Michael W. Deem and Ramdas Pophale) SiO2 
 PCOD8211931
Probable space group: P M M A
;
_chemical_formula_sum "Si O2"
_cell_formula_units_Z 64
_cell_length_a 8.655473
_cell_length_b 17.758775
_cell_length_c 20.740036
_cell_angle_alpha 90.000000
_cell_angle_beta 90.000000
_cell_angle_gamma 90.000000
_cell_volume 3187.963326
_symmetry_space_group_name_H-M "P M M A"
_symmetry_group_IT_number 51
_symmetry_cell_setting 'orthorhombic'
loop_
_space_group_symop_operation_xyz
x,y,z
1/2-x,-y,z
1/2+x,-y,-z
-x,y,-z
-x,-y,-z
1/2+x,y,-z
1/2-x,y,z
x,-y,z
loop_
_atom_site_type_symbol
_atom_site_label
_atom_site_fract_x
_atom_site_fract_y
_atom_site_fract_z
Si Si1 0.073354 0.584521 0.203463
Si Si2 0.568734 0.758090 0.566075
Si Si3 0.924473 0.084196 0.409705
Si Si4 0.434674 0.215193 0.066129
Si Si5 0.931605 0.295149 0.302382
Si Si6 0.078445 0.128707 0.733700
Si Si7 0.928859 0.920283 0.853286
Si Si8 0.932752 0.377109 0.069507
O O1 0.250000 0.610331 0.193506
O O2 0.063237 0.500000 0.231888
O O3 0.997711 0.639361 0.256494
O O4 0.993261 0.580134 0.132816
O O5 0.500000 0.723639 0.500000
O O6 0.750000 0.747364 0.567421
O O7 0.531643 0.847981 0.565781
O O8 0.500851 0.709054 0.625326
O O9 0.750000 0.098433 0.435045
O O10 0.924979 0.085881 0.333172
O O11 0.981770 0.000000 0.431469
O O12 0.250000 0.226742 0.065991
O O13 0.501389 0.153510 0.115149
O O14 0.518737 0.292052 0.083020
O O15 0.500000 0.183621 0.000000
O O16 0.750000 0.307779 0.309529
O O17 0.972402 0.215705 0.270114
O O18 0.250000 0.123628 0.763818
O O19 0.956741 0.084987 0.777332
O O20 0.750000 0.920141 0.869188
O O21 0.998894 0.000000 0.878711
O O22 0.750000 0.386148 0.064985
O O23 0.000000 0.405834 0.000000
#
# Coordination Sequence:
#
# PCOD8211931 Si02
#       8
#     8   8   8   8   8   8   8   8
#     4  11  24  41  62  91 125 156 187 226 275 333
#     4  11  22  37  58  84 115 152 197 245 294 348
#     4   9  18  33  51  74 109 149 189 237 290 342
#     4  10  20  35  53  71  96 131 175 226 277 331
#     4  10  21  39  62  87 116 150 191 236 283 339
#     4   9  18  32  51  75 101 134 177 223 270 323
#     4  10  21  33  45  66  97 132 172 223 280 333
#     4  11  22  38  61  87 117 153 193 234 278 333
#
# _framework density 20.075513000000001
#
# number of rings (size 3 to 8) (size 9 to 14) (size 15 to 20)
#    0.000    1.875    0.000    6.000    0.000    8.250 
#    0.000    0.000    0.000    0.375    0.000    0.000 
#    0.000    0.000    0.000    0.000    0.000    0.000 
#
# Total GULP energy -793022.052482 kJ/mol
# GULP energy per Si atom -12390.969570 kJ/mol
# Density = 2.002982 g / cm^3
# Si number density = 20.075513 Si / 1000 Ang^3
#
#
#
# Elastic Constant Matrix: (Units=GPa)
#
#
# Indices 1 2 3 4 5 6 
#
# 1 112.2507 34.5254 40.5758 0.0000 0.0000 0.0000
# 2 34.5254 84.1772 48.3604 0.0000 0.0000 0.0000
# 3 40.5758 48.3604 100.8169 0.0000 0.0000 0.0000
# 4 0.0000 0.0000 0.0000 -2.0751 0.0000 0.0000
# 5 0.0000 0.0000 0.0000 0.0000 35.7109 0.0000
# 6 0.0000 0.0000 0.0000 0.0000 0.0000 21.0199
#
#
#
# Elastic Compliance Matrix: (Units=1/GPa)
#
#
# Indices 1 2 3 4 5 6 
#
# 1 0.010846 -0.002679 -0.003080 0.000000 0.000000 0.000000
# 2 -0.002679 0.017061 -0.007106 0.000000 0.000000 0.000000
# 3 -0.003080 -0.007106 0.014567 0.000000 0.000000 0.000000
# 4 0.000000 0.000000 0.000000 -0.481906 0.000000 0.000000
# 5 0.000000 0.000000 0.000000 0.000000 0.028003 0.000000
# 6 0.000000 0.000000 0.000000 0.000000 0.000000 0.047574
#
#
# Mechanical properties :
#
#
# Convention : Reuss Voigt Hill
#
# Bulk Modulus (GPa) = 59.72128 60.46312 60.09220
# Shear Modulus (GPa) = -15.03558 22.51667 3.74054
#
# Velocity S-wave (km/s) = -2.73967 3.35266 1.36649
# Velocity P-wave (km/s) = 4.45030 6.72089 5.69981
#
# Compressibility (1/GPa) = 0.01674445
#
# Stress axis : x y z
#
# Youngs Moduli (GPa) = 92.19986 58.61425 68.64790
#
# Poissons Ratio (x) = 0.15702 0.21145
# Poissons Ratio (y) = 0.24700 0.48778
# Poissons Ratio (z) = 0.28399 0.41649
#
# Static dielectric constant tensor:
#      x y z
#    x 3.646360 0.000000 0.000000 
#    y 0.000000 3.747360 0.000000 
#    z 0.000000 0.000000 3.742560 
# 
# 
# High freq. dielectric constant tensor:
#      x y z
#    x 1.784630 0.000000 0.000000 
#    y 0.000000 1.774340 0.000000 
#    z 0.000000 0.000000 1.786020 
# 
# From -- ./inp_files/32324.got.cif
#   From: 2010.03.12/outbox.cif.g09.slc.cpg/sg51_17_cif.got.tgz:32324.got - 2010.04.16 13:43:02.
