data_PCOD8211847
_publ_section_title
;
Structure prediction by ZEFSAII (Michael W. Deem and Ramdas Pophale) SiO2 
 PCOD8211847
Probable space group: P M M A
;
_chemical_formula_sum "Si O2"
_cell_formula_units_Z 48
_cell_length_a 16.176619
_cell_length_b 8.638162
_cell_length_c 18.000894
_cell_angle_alpha 90.000000
_cell_angle_beta 90.000000
_cell_angle_gamma 90.000000
_cell_volume 2515.377524
_symmetry_space_group_name_H-M "P M M A"
_symmetry_group_IT_number 51
_symmetry_cell_setting 'orthorhombic'
loop_
_space_group_symop_operation_xyz
x,y,z
1/2-x,-y,z
1/2+x,-y,-z
-x,y,-z
-x,-y,-z
1/2+x,y,-z
1/2-x,y,z
x,-y,z
loop_
_atom_site_type_symbol
_atom_site_label
_atom_site_fract_x
_atom_site_fract_y
_atom_site_fract_z
Si Si1 0.160984 0.180048 0.330769
Si Si2 0.921702 0.319805 0.280049
Si Si3 0.995198 0.815453 0.584378
Si Si4 0.750000 0.819262 0.046889
Si Si5 0.250000 0.677541 0.793902
Si Si6 0.587982 0.318633 0.969909
Si Si7 0.934877 0.821185 0.813943
O O1 0.250000 0.259609 0.345721
O O2 0.137424 0.206001 0.245350
O O3 0.091843 0.250670 0.384893
O O4 0.167092 0.000000 0.348588
O O5 0.944105 0.500000 0.276634
O O6 0.933230 0.257239 0.364196
O O7 0.828051 0.285933 0.257646
O O8 0.978279 0.230067 0.221040
O O9 0.000000 0.757378 0.500000
O O10 0.002039 0.000000 0.590506
O O11 0.750000 0.784927 0.134147
O O12 0.750000 0.000000 0.032757
O O13 0.833799 0.754427 0.011075
O O14 0.250000 0.500000 0.821359
O O15 0.593337 0.500000 0.984085
O O16 0.591402 0.282294 0.883093
O O17 0.500000 0.253372 0.000000
O O18 0.942012 0.000000 0.837822
#
# Coordination Sequence:
#
# PCOD8211847 Si02
#       7
#     8   8   8   4   4   8   8
#     4   8  15  29  50  75 104 139 175 214 265 322
#     4  10  20  36  58  81 108 149 191 227 281 340
#     4   9  18  34  54  80 113 143 179 227 276 327
#     4  12  26  40  60  88 117 152 197 250 298 342
#     4  10  22  40  58  78 109 148 191 236 280 340
#     4  11  24  41  59  82 116 156 194 237 295 357
#     4  10  20  34  56  82 110 142 186 236 280 333
#
# _framework density 19.082623000000002
#
# number of rings (size 3 to 8) (size 9 to 14) (size 15 to 20)
#    0.000    2.167    0.000    4.250    1.167    7.000 
#    1.500    0.000    0.000    4.500    0.000    0.000 
#    0.000    0.000    0.000    0.000    0.000    0.000 
#
# Total GULP energy -595146.848700 kJ/mol
# GULP energy per Si atom -12398.892681 kJ/mol
# Density = 1.903919 g / cm^3
# Si number density = 19.082623 Si / 1000 Ang^3
#
#
#
# Elastic Constant Matrix: (Units=GPa)
#
#
# Indices 1 2 3 4 5 6 
#
# 1 150.7768 39.2070 62.3310 0.0000 0.0000 0.0000
# 2 39.2070 55.8821 29.8957 0.0000 0.0000 0.0000
# 3 62.3310 29.8957 133.5991 0.0000 0.0000 0.0000
# 4 0.0000 0.0000 0.0000 25.0549 0.0000 0.0000
# 5 0.0000 0.0000 0.0000 0.0000 16.1369 0.0000
# 6 0.0000 0.0000 0.0000 0.0000 0.0000 23.7079
#
#
#
# Elastic Compliance Matrix: (Units=1/GPa)
#
#
# Indices 1 2 3 4 5 6 
#
# 1 0.009197 -0.004723 -0.003234 0.000000 0.000000 0.000000
# 2 -0.004723 0.022753 -0.002888 0.000000 0.000000 0.000000
# 3 -0.003234 -0.002888 0.009640 0.000000 0.000000 0.000000
# 4 0.000000 0.000000 0.000000 0.039912 0.000000 0.000000
# 5 0.000000 0.000000 0.000000 0.000000 0.061970 0.000000
# 6 0.000000 0.000000 0.000000 0.000000 0.000000 0.042180
#
#
# Mechanical properties :
#
#
# Convention : Reuss Voigt Hill
#
# Bulk Modulus (GPa) = 50.24906 67.01392 58.63149
# Shear Modulus (GPa) = 23.36697 26.90155 25.13426
#
# Velocity S-wave (km/s) = 3.50310 3.75872 3.63316
# Velocity P-wave (km/s) = 6.53849 7.35060 6.95641
#
# Compressibility (1/GPa) = 0.01990087
#
# Stress axis : x y z
#
# Youngs Moduli (GPa) = 108.72616 43.94952 103.73081
#
# Poissons Ratio (x) = 0.20756 0.33549
# Poissons Ratio (y) = 0.51348 0.29959
# Poissons Ratio (z) = 0.35165 0.12693
#
# Static dielectric constant tensor:
#      x y z
#    x 3.805050 0.000000 0.000000 
#    y 0.000000 3.409170 0.000000 
#    z 0.000000 0.000000 3.550580 
# 
# 
# High freq. dielectric constant tensor:
#      x y z
#    x 1.751260 0.000000 0.000000 
#    y 0.000000 1.729760 0.000000 
#    z 0.000000 0.000000 1.742790 
# 
# From -- ./inp_files/29565.got.cif
#   From: 2010.03.12/outbox.cif.g09.slc.cpg/sg51_15_cif.got.tgz:29565.got - 2010.04.16 13:43:02.
