data_PCOD8211365
_publ_section_title
;
Structure prediction by ZEFSAII (Michael W. Deem and Ramdas Pophale) SiO2 
 PCOD8211365
Probable space group: P M M A
;
_chemical_formula_sum "Si O2"
_cell_formula_units_Z 48
_cell_length_a 25.354576
_cell_length_b 9.213777
_cell_length_c 11.685987
_cell_angle_alpha 90.000000
_cell_angle_beta 90.000000
_cell_angle_gamma 90.000000
_cell_volume 2729.979891
_symmetry_space_group_name_H-M "P M M A"
_symmetry_group_IT_number 51
_symmetry_cell_setting 'orthorhombic'
loop_
_space_group_symop_operation_xyz
x,y,z
1/2-x,-y,z
1/2+x,-y,-z
-x,y,-z
-x,-y,-z
1/2+x,y,-z
1/2-x,y,z
x,-y,z
loop_
_atom_site_type_symbol
_atom_site_label
_atom_site_fract_x
_atom_site_fract_y
_atom_site_fract_z
Si Si1 0.191868 0.327661 0.377806
Si Si2 0.689203 0.332553 0.366531
Si Si3 0.907189 0.327267 0.765311
Si Si4 0.397794 0.831671 0.763291
Si Si5 0.060700 0.831194 0.011742
Si Si6 0.998076 0.167406 0.634534
O O1 0.250000 0.270130 0.340558
O O2 0.193292 0.500000 0.383951
O O3 0.178127 0.270760 0.505602
O O4 0.148510 0.273831 0.287413
O O5 0.750000 0.308882 0.333690
O O6 0.673426 0.500000 0.360264
O O7 0.654779 0.249663 0.273419
O O8 0.911135 0.500000 0.770533
O O9 0.910997 0.263070 0.891761
O O10 0.952797 0.267845 0.684413
O O11 0.446954 0.778447 0.687281
O O12 0.388080 0.000000 0.742756
O O13 0.408917 0.796721 0.895246
O O14 0.063709 0.000000 0.045561
O O15 0.000000 0.783097 0.000000
O O16 0.000000 0.189125 0.500000
O O17 0.987225 0.000000 0.669016
#
# Coordination Sequence:
#
# PCOD8211365 Si02
#       6
#     8   8   8   8   8   8
#     4   8  16  33  54  76 106 141 170 203 259 319
#     4   9  18  34  56  79 105 138 171 208 259 314
#     4  11  21  32  53  82 106 132 175 225 265 304
#     4  10  20  34  53  76 101 137 177 214 258 305
#     4  10  20  38  56  69 100 146 181 210 255 317
#     4  10  20  34  52  75 106 141 173 209 262 324
#
# _framework density 17.582545
#
# number of rings (size 3 to 8) (size 9 to 14) (size 15 to 20)
#    0.000    2.333    1.667    2.500    0.000    2.333 
#    0.000    1.667    0.000    7.000    0.000    0.000 
#    0.000    0.000    0.000    0.000    0.000    0.000 
#
# Total GULP energy -595233.591543 kJ/mol
# GULP energy per Si atom -12400.699824 kJ/mol
# Density = 1.754253 g / cm^3
# Si number density = 17.582545 Si / 1000 Ang^3
#
#
#
# Elastic Constant Matrix: (Units=GPa)
#
#
# Indices 1 2 3 4 5 6 
#
# 1 129.8385 54.0143 79.2834 0.0000 0.0000 0.0000
# 2 54.0143 55.9063 48.8223 0.0000 0.0000 0.0000
# 3 79.2834 48.8223 115.4387 0.0000 0.0000 0.0000
# 4 0.0000 0.0000 0.0000 28.3124 0.0000 0.0000
# 5 0.0000 0.0000 0.0000 0.0000 22.5435 0.0000
# 6 0.0000 0.0000 0.0000 0.0000 0.0000 26.6645
#
#
#
# Elastic Compliance Matrix: (Units=1/GPa)
#
#
# Indices 1 2 3 4 5 6 
#
# 1 0.015751 -0.009151 -0.006948 0.000000 0.000000 0.000000
# 2 -0.009151 0.033678 -0.007959 0.000000 0.000000 0.000000
# 3 -0.006948 -0.007959 0.016800 0.000000 0.000000 0.000000
# 4 0.000000 0.000000 0.000000 0.035320 0.000000 0.000000
# 5 0.000000 0.000000 0.000000 0.000000 0.044359 0.000000
# 6 0.000000 0.000000 0.000000 0.000000 0.000000 0.037503
#
#
# Mechanical properties :
#
#
# Convention : Reuss Voigt Hill
#
# Bulk Modulus (GPa) = 55.20206 73.93595 64.56901
# Shear Modulus (GPa) = 21.04681 23.44163 22.24422
#
# Velocity S-wave (km/s) = 3.46356 3.65531 3.56073
# Velocity P-wave (km/s) = 6.88906 7.74320 7.32858
#
# Compressibility (1/GPa) = 0.01811527
#
# Stress axis : x y z
#
# Youngs Moduli (GPa) = 63.48686 29.69254 59.52211
#
# Poissons Ratio (x) = 0.27171 0.41355
# Poissons Ratio (y) = 0.58095 0.47373
# Poissons Ratio (z) = 0.44110 0.23632
#
# Static dielectric constant tensor:
#      x y z
#    x 3.819850 0.000000 0.000000 
#    y 0.000000 3.063560 0.000000 
#    z 0.000000 0.000000 3.411420 
# 
# 
# High freq. dielectric constant tensor:
#      x y z
#    x 1.682490 0.000000 0.000000 
#    y 0.000000 1.661510 0.000000 
#    z 0.000000 0.000000 1.684880 
# 
# From -- ./inp_files/18558.got.cif
#   From: 2010.03.12/outbox.cif.g09.slc.cpg/sg51_10_cif.got.tgz:18558.got - 2010.04.16 13:43:02.
