data_PCOD8211362
_publ_section_title
;
Structure prediction by ZEFSAII (Michael W. Deem and Ramdas Pophale) SiO2 
 PCOD8211362
Probable space group: P M M A
;
_chemical_formula_sum "Si O2"
_cell_formula_units_Z 64
_cell_length_a 19.710305
_cell_length_b 8.759588
_cell_length_c 20.185048
_cell_angle_alpha 90.000000
_cell_angle_beta 90.000000
_cell_angle_gamma 90.000000
_cell_volume 3485.032328
_symmetry_space_group_name_H-M "P M M A"
_symmetry_group_IT_number 51
_symmetry_cell_setting 'orthorhombic'
loop_
_space_group_symop_operation_xyz
x,y,z
1/2-x,-y,z
1/2+x,-y,-z
-x,y,-z
-x,-y,-z
1/2+x,y,-z
1/2-x,y,z
x,-y,z
loop_
_atom_site_type_symbol
_atom_site_label
_atom_site_fract_x
_atom_site_fract_y
_atom_site_fract_z
Si Si1 0.173399 0.177785 0.012870
Si Si2 0.043445 0.679845 0.064285
Si Si3 0.176794 0.830756 0.441043
Si Si4 0.960578 0.680155 0.706600
Si Si5 0.042995 0.820272 0.818647
Si Si6 0.954239 0.322972 0.556911
Si Si7 0.176005 0.828587 0.284259
Si Si8 0.326959 0.678255 0.870765
O O1 0.250000 0.204872 0.040668
O O2 0.162366 0.272390 0.946165
O O3 0.161516 0.000000 0.997697
O O4 0.117049 0.237578 0.064457
O O5 0.055367 0.500000 0.067848
O O6 0.002568 0.733148 0.128065
O O7 0.000000 0.727279 0.000000
O O8 0.250000 0.785456 0.471049
O O9 0.122628 0.708138 0.466045
O O10 0.181312 0.829004 0.362590
O O11 0.155758 0.000000 0.465157
O O12 0.971908 0.500000 0.712013
O O13 0.967286 0.741912 0.630861
O O14 0.885988 0.718978 0.737101
O O15 0.018304 0.769858 0.746201
O O16 0.121675 0.771867 0.824503
O O17 0.035621 0.000000 0.828429
O O18 0.969273 0.500000 0.559310
O O19 0.000000 0.244446 0.500000
O O20 0.250000 0.772937 0.256205
O O21 0.161092 0.000000 0.258018
O O22 0.250000 0.713284 0.847505
O O23 0.344085 0.500000 0.865626
#
# Coordination Sequence:
#
# PCOD8211362 Si02
#       8
#     8   8   8   8   8   8   8   8
#     4  10  20  34  54  81 111 142 178 220 265 313
#     4  11  22  36  56  80 107 140 177 218 263 311
#     4   8  14  25  43  69  99 129 163 204 249 298
#     4  10  20  34  52  75 106 139 175 218 262 314
#     4  12  24  37  56  79 108 141 176 220 266 316
#     4   9  18  32  51  76 104 135 172 214 260 311
#     4   8  14  27  47  70  98 131 167 207 250 300
#     4  10  20  35  56  81 107 136 174 219 265 313
#
# _framework density 18.364248
#
# number of rings (size 3 to 8) (size 9 to 14) (size 15 to 20)
#    0.000    2.250    1.250    3.375    0.000    3.250 
#    0.000    3.125    0.000    4.500    0.000    1.750 
#    0.000    0.000    0.000    0.000    0.000    0.000 
#
# Total GULP energy -793291.610586 kJ/mol
# GULP energy per Si atom -12395.181415 kJ/mol
# Density = 1.832245 g / cm^3
# Si number density = 18.364248 Si / 1000 Ang^3
#
#
#
# Elastic Constant Matrix: (Units=GPa)
#
#
# Indices 1 2 3 4 5 6 
#
# 1 124.7442 30.4423 42.4211 0.0000 0.0000 0.0000
# 2 30.4423 48.2002 15.7870 0.0000 0.0000 0.0000
# 3 42.4211 15.7870 59.0339 0.0000 0.0000 0.0000
# 4 0.0000 0.0000 0.0000 15.9703 0.0000 0.0000
# 5 0.0000 0.0000 0.0000 0.0000 25.0319 0.0000
# 6 0.0000 0.0000 0.0000 0.0000 0.0000 33.6463
#
#
#
# Elastic Compliance Matrix: (Units=1/GPa)
#
#
# Indices 1 2 3 4 5 6 
#
# 1 0.011632 -0.005051 -0.007008 0.000000 0.000000 0.000000
# 2 -0.005051 0.024932 -0.003037 0.000000 0.000000 0.000000
# 3 -0.007008 -0.003037 0.022788 0.000000 0.000000 0.000000
# 4 0.000000 0.000000 0.000000 0.062616 0.000000 0.000000
# 5 0.000000 0.000000 0.000000 0.000000 0.039949 0.000000
# 6 0.000000 0.000000 0.000000 0.000000 0.000000 0.029721
#
#
# Mechanical properties :
#
#
# Convention : Reuss Voigt Hill
#
# Bulk Modulus (GPa) = 34.29576 45.47545 39.88561
# Shear Modulus (GPa) = 21.59351 24.48490 23.03920
#
# Velocity S-wave (km/s) = 3.43278 3.65539 3.54583
# Velocity P-wave (km/s) = 5.86752 6.52937 6.20727
#
# Compressibility (1/GPa) = 0.02915813
#
# Stress axis : x y z
#
# Youngs Moduli (GPa) = 85.96744 40.10905 43.88363
#
# Poissons Ratio (x) = 0.20261 0.30754
# Poissons Ratio (y) = 0.43426 0.13330
# Poissons Ratio (z) = 0.60246 0.12183
#
# Static dielectric constant tensor:
#      x y z
#    x 3.923720 0.000000 0.000000 
#    y 0.000000 3.379390 0.000000 
#    z 0.000000 0.000000 3.165140 
# 
# 
# High freq. dielectric constant tensor:
#      x y z
#    x 1.725160 0.000000 0.000000 
#    y 0.000000 1.714280 0.000000 
#    z 0.000000 0.000000 1.666260 
# 
# From -- ./inp_files/33838.got.cif
#   From: 2010.03.12/outbox.cif.g09.slc.cpg/sg51_17_cif.got.tgz:33838.got - 2010.04.16 13:43:02.
