data_PCOD8211438
_publ_section_title
;
Structure prediction by ZEFSAII (Michael W. Deem and Ramdas Pophale) SiO2 
 PCOD8211438
Probable space group: P M M A
;
_chemical_formula_sum "Si O2"
_cell_formula_units_Z 64
_cell_length_a 16.298649
_cell_length_b 9.333065
_cell_length_c 22.090192
_cell_angle_alpha 90.000000
_cell_angle_beta 90.000000
_cell_angle_gamma 90.000000
_cell_volume 3360.279390
_symmetry_space_group_name_H-M "P M M A"
_symmetry_group_IT_number 51
_symmetry_cell_setting 'orthorhombic'
loop_
_space_group_symop_operation_xyz
x,y,z
1/2-x,-y,z
1/2+x,-y,-z
-x,y,-z
-x,-y,-z
1/2+x,y,-z
1/2-x,y,z
x,-y,z
loop_
_atom_site_type_symbol
_atom_site_label
_atom_site_fract_x
_atom_site_fract_y
_atom_site_fract_z
Si Si1 0.999215 0.329568 0.068224
Si Si2 0.395082 0.165448 0.386690
Si Si3 0.340472 0.343169 0.492835
Si Si4 0.429511 0.335625 0.740365
Si Si5 0.060507 0.666070 0.606834
Si Si6 0.403721 0.833227 0.250919
Si Si7 0.841037 0.668112 0.140943
Si Si8 0.841632 0.333570 0.857556
O O1 0.996363 0.500000 0.069034
O O2 0.084541 0.277743 0.099230
O O3 0.916901 0.267952 0.101235
O O4 0.000000 0.269827 0.000000
O O5 0.335943 0.240965 0.434605
O O6 0.482276 0.235850 0.395116
O O7 0.364673 0.187669 0.317802
O O8 0.400620 0.000000 0.403391
O O9 0.250000 0.362340 0.517856
O O10 0.376596 0.500000 0.474743
O O11 0.387611 0.277080 0.550198
O O12 0.458924 0.500000 0.749551
O O13 0.395011 0.312095 0.672136
O O14 0.506522 0.235135 0.753632
O O15 0.358248 0.298498 0.788291
O O16 0.037035 0.500000 0.598543
O O17 0.343292 0.755645 0.204436
O O18 0.411390 0.000000 0.234617
O O19 0.750000 0.732501 0.124662
O O20 0.837589 0.500000 0.128877
O O21 0.750000 0.310830 0.886484
O O22 0.855396 0.500000 0.842430
#
# Coordination Sequence:
#
# PCOD8211438 Si02
#       8
#     8   8   8   8   8   8   8   8
#     4   9  17  30  49  76 113 146 172 211 259 307
#     4  10  21  35  52  74  98 129 171 216 258 308
#     4  10  21  35  49  69 100 134 168 209 260 316
#     4   9  16  30  52  76 103 133 170 215 261 312
#     4   9  18  32  52  74  97 129 166 209 257 309
#     4  10  20  34  53  76 103 135 173 219 268 312
#     4   9  16  26  46  77 107 135 171 214 258 304
#     4  10  20  34  54  80 109 142 179 217 261 312
#
# _framework density 19.046035
#
# number of rings (size 3 to 8) (size 9 to 14) (size 15 to 20)
#    0.000    2.500    1.250    1.125    0.000    5.500 
#    0.000    7.500    0.000    0.750    0.000    3.500 
#    0.000    0.000    0.000    0.000    0.000    0.000 
#
# Total GULP energy -793025.244089 kJ/mol
# GULP energy per Si atom -12391.019439 kJ/mol
# Density = 1.900269 g / cm^3
# Si number density = 19.046035 Si / 1000 Ang^3
#
#
#
# Elastic Constant Matrix: (Units=GPa)
#
#
# Indices 1 2 3 4 5 6 
#
# 1 118.7037 22.4952 64.2353 0.0000 0.0000 0.0000
# 2 22.4952 54.8719 34.9499 0.0000 0.0000 0.0000
# 3 64.2353 34.9499 127.9120 0.0000 0.0000 0.0000
# 4 0.0000 0.0000 0.0000 13.6354 0.0000 0.0000
# 5 0.0000 0.0000 0.0000 0.0000 17.3709 0.0000
# 6 0.0000 0.0000 0.0000 0.0000 0.0000 86.5817
#
#
#
# Elastic Compliance Matrix: (Units=1/GPa)
#
#
# Indices 1 2 3 4 5 6 
#
# 1 0.011641 -0.001270 -0.005499 0.000000 0.000000 0.000000
# 2 -0.001270 0.022203 -0.005429 0.000000 0.000000 0.000000
# 3 -0.005499 -0.005429 0.012063 0.000000 0.000000 0.000000
# 4 0.000000 0.000000 0.000000 0.073338 0.000000 0.000000
# 5 0.000000 0.000000 0.000000 0.000000 0.057567 0.000000
# 6 0.000000 0.000000 0.000000 0.000000 0.000000 0.011550
#
#
# Mechanical properties :
#
#
# Convention : Reuss Voigt Hill
#
# Bulk Modulus (GPa) = 46.48776 60.53871 53.51324
# Shear Modulus (GPa) = 22.73485 35.50476 29.11980
#
# Velocity S-wave (km/s) = 3.45871 4.32227 3.91438
# Velocity P-wave (km/s) = 6.35699 7.53418 6.97048
#
# Compressibility (1/GPa) = 0.02151104
#
# Stress axis : x y z
#
# Youngs Moduli (GPa) = 85.90640 45.03964 82.90082
#
# Poissons Ratio (x) = 0.05719 0.45585
# Poissons Ratio (y) = 0.10908 0.45006
# Poissons Ratio (z) = 0.47238 0.24451
#
# Static dielectric constant tensor:
#      x y z
#    x 3.487110 0.000000 0.000000 
#    y 0.000000 3.238950 0.000000 
#    z 0.000000 0.000000 3.834990 
# 
# 
# High freq. dielectric constant tensor:
#      x y z
#    x 1.734110 0.000000 0.000000 
#    y 0.000000 1.701620 0.000000 
#    z 0.000000 0.000000 1.746180 
# 
# From -- ./inp_files/35846.got.cif
#   From: 2010.03.12/outbox.cif.g09.slc.cpg/sg51_18_cif.got.tgz:35846.got - 2010.04.16 13:43:02.
