data_PCOD8211994
_publ_section_title
;
Structure prediction by ZEFSAII (Michael W. Deem and Ramdas Pophale) SiO2 
 PCOD8211994
Probable space group: P M M A
;
_chemical_formula_sum "Si O2"
_cell_formula_units_Z 48
_cell_length_a 15.826650
_cell_length_b 9.164644
_cell_length_c 17.995929
_cell_angle_alpha 90.000000
_cell_angle_beta 90.000000
_cell_angle_gamma 90.000000
_cell_volume 2610.230553
_symmetry_space_group_name_H-M "P M M A"
_symmetry_group_IT_number 51
_symmetry_cell_setting 'orthorhombic'
loop_
_space_group_symop_operation_xyz
x,y,z
1/2-x,-y,z
1/2+x,-y,-z
-x,y,-z
-x,-y,-z
1/2+x,y,-z
1/2-x,y,z
x,-y,z
loop_
_atom_site_type_symbol
_atom_site_label
_atom_site_fract_x
_atom_site_fract_y
_atom_site_fract_z
Si Si1 0.911537 0.670913 0.461364
Si Si2 0.153323 0.334568 0.825581
Si Si3 0.250000 0.672589 0.445205
Si Si4 0.750000 0.672922 0.722339
Si Si5 0.977037 0.831296 0.082987
Si Si6 0.409223 0.166270 0.220321
Si Si7 0.422772 0.829581 0.692954
O O1 0.903286 0.500000 0.443339
O O2 0.834649 0.726152 0.513143
O O3 0.906287 0.760284 0.386305
O O4 0.000000 0.707202 0.500000
O O5 0.250000 0.328992 0.849777
O O6 0.122853 0.500000 0.811579
O O7 0.101892 0.266134 0.893528
O O8 0.141303 0.243683 0.750411
O O9 0.250000 0.500000 0.440912
O O10 0.250000 0.736506 0.361677
O O11 0.750000 0.500000 0.722159
O O12 0.832188 0.726318 0.765722
O O13 0.055957 0.802501 0.137651
O O14 0.949624 0.000000 0.087984
O O15 0.000000 0.784672 0.000000
O O16 0.481493 0.199573 0.280931
O O17 0.377829 0.000000 0.227351
O O18 0.402406 0.000000 0.689905
#
# Coordination Sequence:
#
# PCOD8211994 Si02
#       7
#     8   8   4   4   8   8   8
#     4  10  20  35  54  76 107 146 185 231 285 337
#     4  10  21  36  56  83 113 147 183 224 276 330
#     4   9  20  35  51  75 106 141 184 229 275 328
#     4  11  21  35  57  81 106 141 190 231 263 322
#     4   9  19  38  61  84 112 146 184 223 270 328
#     4   9  19  36  56  79 109 144 179 223 274 320
#     4  10  21  36  56  80 109 144 187 233 276 333
#
# _framework density 18.38918
#
# number of rings (size 3 to 8) (size 9 to 14) (size 15 to 20)
#    0.000    2.333    0.000    3.250    1.167    6.667 
#    1.500    1.667    0.000    0.000    0.000    0.000 
#    0.000    0.000    0.000    0.000    0.000    0.000 
#
# Total GULP energy -595335.022084 kJ/mol
# GULP energy per Si atom -12402.812960 kJ/mol
# Density = 1.834733 g / cm^3
# Si number density = 18.389180 Si / 1000 Ang^3
#
#
#
# Elastic Constant Matrix: (Units=GPa)
#
#
# Indices 1 2 3 4 5 6 
#
# 1 121.5481 55.8290 62.1766 0.0000 0.0000 0.0000
# 2 55.8290 83.9853 56.2163 0.0000 0.0000 0.0000
# 3 62.1766 56.2163 143.2060 0.0000 0.0000 0.0000
# 4 0.0000 0.0000 0.0000 34.0368 0.0000 0.0000
# 5 0.0000 0.0000 0.0000 0.0000 17.9301 0.0000
# 6 0.0000 0.0000 0.0000 0.0000 0.0000 27.2064
#
#
#
# Elastic Compliance Matrix: (Units=1/GPa)
#
#
# Indices 1 2 3 4 5 6 
#
# 1 0.012721 -0.006456 -0.002989 0.000000 0.000000 0.000000
# 2 -0.006456 0.019427 -0.004823 0.000000 0.000000 0.000000
# 3 -0.002989 -0.004823 0.010174 0.000000 0.000000 0.000000
# 4 0.000000 0.000000 0.000000 0.029380 0.000000 0.000000
# 5 0.000000 0.000000 0.000000 0.000000 0.055772 0.000000
# 6 0.000000 0.000000 0.000000 0.000000 0.000000 0.036756
#
#
# Mechanical properties :
#
#
# Convention : Reuss Voigt Hill
#
# Bulk Modulus (GPa) = 72.53598 77.46479 75.00039
# Shear Modulus (GPa) = 25.33419 27.46917 26.40168
#
# Velocity S-wave (km/s) = 3.71572 3.86912 3.79320
# Velocity P-wave (km/s) = 7.61179 7.88523 7.74971
#
# Compressibility (1/GPa) = 0.01378626
#
# Stress axis : x y z
#
# Youngs Moduli (GPa) = 78.60715 51.47556 98.28895
#
# Poissons Ratio (x) = 0.33232 0.29380
# Poissons Ratio (y) = 0.50747 0.47406
# Poissons Ratio (z) = 0.23497 0.24827
#
# Static dielectric constant tensor:
#      x y z
#    x 3.421990 0.000000 0.000000 
#    y 0.000000 3.360260 0.000000 
#    z 0.000000 0.000000 3.467530 
# 
# 
# High freq. dielectric constant tensor:
#      x y z
#    x 1.713970 0.000000 0.000000 
#    y 0.000000 1.710740 0.000000 
#    z 0.000000 0.000000 1.715320 
# 
# From -- ./inp_files/29499.got.cif
#   From: 2010.03.12/outbox.cif.g09.slc.cpg/sg51_15_cif.got.tgz:29499.got - 2010.04.16 13:43:02.
