data_PCOD8211882
_publ_section_title
;
Structure prediction by ZEFSAII (Michael W. Deem and Ramdas Pophale) SiO2 
 PCOD8211882
Probable space group: P M M A
;
_chemical_formula_sum "Si O2"
_cell_formula_units_Z 44
_cell_length_a 10.135702
_cell_length_b 7.936541
_cell_length_c 27.937790
_cell_angle_alpha 90.000000
_cell_angle_beta 90.000000
_cell_angle_gamma 90.000000
_cell_volume 2247.383283
_symmetry_space_group_name_H-M "P M M A"
_symmetry_group_IT_number 51
_symmetry_cell_setting 'orthorhombic'
loop_
_space_group_symop_operation_xyz
x,y,z
1/2-x,-y,z
1/2+x,-y,-z
-x,y,-z
-x,-y,-z
1/2+x,y,-z
1/2-x,y,z
x,-y,z
loop_
_atom_site_type_symbol
_atom_site_label
_atom_site_fract_x
_atom_site_fract_y
_atom_site_fract_z
Si Si1 0.484444 0.305826 0.391097
Si Si2 0.403086 0.000000 0.955545
Si Si3 0.600198 0.310974 0.112569
Si Si4 0.599733 0.807999 0.811796
Si Si5 0.250000 0.806717 0.563605
Si Si6 0.903874 0.691548 0.709170
Si Si7 0.250000 0.701148 0.456050
O O1 0.447192 0.500000 0.384613
O O2 0.626139 0.284962 0.413682
O O3 0.476764 0.228033 0.337427
O O4 0.377276 0.229684 0.427577
O O5 0.436206 0.169690 0.926297
O O6 0.250000 0.000000 0.972016
O O7 0.500000 0.000000 0.000000
O O8 0.750000 0.279955 0.130848
O O9 0.587297 0.500000 0.090448
O O10 0.500538 0.301430 0.157015
O O11 0.750000 0.740142 0.818549
O O12 0.558409 0.797301 0.756187
O O13 0.589530 0.000000 0.828791
O O14 0.250000 0.790453 0.506949
O O15 0.250000 0.000000 0.578869
O O16 0.750000 0.702684 0.697750
O O17 0.948301 0.500000 0.719044
O O18 0.250000 0.500000 0.463768
#
# Coordination Sequence:
#
# PCOD8211882 Si02
#       7
#     8   4   8   8   4   8   4
#     4  10  20  38  61  81 105 138 180 231 282 340
#     4  10  22  40  62  90 128 166 206 256 303 354
#     4  10  21  39  62  88 122 165 209 252 302 357
#     4  10  20  34  56  87 120 155 196 241 293 354
#     4  12  26  38  50  78 114 142 178 224 278 341
#     4   9  17  33  57  84 110 139 183 237 290 343
#     4  10  20  38  64  84  98 134 184 228 280 341
#
# _framework density 19.578325
#
# number of rings (size 3 to 8) (size 9 to 14) (size 15 to 20)
#    0.000    2.000    1.818    1.909    0.000    5.818 
#    1.636    0.000    0.000    0.000    0.000    0.000 
#    0.000    0.000    0.000    0.000    0.000    0.000 
#
# Total GULP energy -545546.742218 kJ/mol
# GULP energy per Si atom -12398.789596 kJ/mol
# Density = 1.953376 g / cm^3
# Si number density = 19.578325 Si / 1000 Ang^3
#
#
#
# Elastic Constant Matrix: (Units=GPa)
#
#
# Indices 1 2 3 4 5 6 
#
# 1 120.2101 22.0193 75.8853 0.0000 0.0000 0.0000
# 2 22.0193 75.4093 37.0538 0.0000 0.0000 0.0000
# 3 75.8853 37.0538 135.8579 0.0000 0.0000 0.0000
# 4 0.0000 0.0000 0.0000 25.4523 0.0000 0.0000
# 5 0.0000 0.0000 0.0000 0.0000 35.1686 0.0000
# 6 0.0000 0.0000 0.0000 0.0000 0.0000 13.9746
#
#
#
# Elastic Compliance Matrix: (Units=1/GPa)
#
#
# Indices 1 2 3 4 5 6 
#
# 1 0.012854 -0.000260 -0.007109 0.000000 0.000000 0.000000
# 2 -0.000260 0.015318 -0.004033 0.000000 0.000000 0.000000
# 3 -0.007109 -0.004033 0.012431 0.000000 0.000000 0.000000
# 4 0.000000 0.000000 0.000000 0.039289 0.000000 0.000000
# 5 0.000000 0.000000 0.000000 0.000000 0.028434 0.000000
# 6 0.000000 0.000000 0.000000 0.000000 0.000000 0.071558
#
#
# Mechanical properties :
#
#
# Convention : Reuss Voigt Hill
#
# Bulk Modulus (GPa) = 56.17861 66.82156 61.50008
# Shear Modulus (GPa) = 23.96674 28.02035 25.99355
#
# Velocity S-wave (km/s) = 3.50258 3.78721 3.64767
# Velocity P-wave (km/s) = 6.71669 7.30263 7.01578
#
# Compressibility (1/GPa) = 0.01780037
#
# Stress axis : x y z
#
# Youngs Moduli (GPa) = 77.79650 65.28074 80.44274
#
# Poissons Ratio (x) = 0.01699 0.57185
# Poissons Ratio (y) = 0.02025 0.32439
# Poissons Ratio (z) = 0.55304 0.26325
#
# Static dielectric constant tensor:
#      x y z
#    x 3.483760 0.000000 0.000000 
#    y 0.000000 3.521280 0.000000 
#    z 0.000000 0.000000 3.481340 
# 
# 
# High freq. dielectric constant tensor:
#      x y z
#    x 1.755820 0.000000 0.000000 
#    y 0.000000 1.758160 0.000000 
#    z 0.000000 0.000000 1.758350 
# 
# From -- ./inp_files/36858.got.cif
#   From: 2010.03.12/outbox.cif.g09.slc.cpg/sg51_19_cif.got.tgz:36858.got - 2010.04.16 13:43:02.
