data_PCOD8211734
_publ_section_title
;
Structure prediction by ZEFSAII (Michael W. Deem and Ramdas Pophale) SiO2 
 PCOD8211734
Probable space group: P M M A
;
_chemical_formula_sum "Si O2"
_cell_formula_units_Z 48
_cell_length_a 7.646783
_cell_length_b 9.048485
_cell_length_c 34.747364
_cell_angle_alpha 90.000000
_cell_angle_beta 90.000000
_cell_angle_gamma 90.000000
_cell_volume 2404.232705
_symmetry_space_group_name_H-M "P M M A"
_symmetry_group_IT_number 51
_symmetry_cell_setting 'orthorhombic'
loop_
_space_group_symop_operation_xyz
x,y,z
1/2-x,-y,z
1/2+x,-y,-z
-x,y,-z
-x,-y,-z
1/2+x,y,-z
1/2-x,y,z
x,-y,z
loop_
_atom_site_type_symbol
_atom_site_label
_atom_site_fract_x
_atom_site_fract_y
_atom_site_fract_z
Si Si1 0.046000 0.662941 0.387327
Si Si2 0.444290 0.824854 0.958640
Si Si3 0.545063 0.334966 0.304858
Si Si4 0.750000 0.175454 0.902085
Si Si5 0.250000 0.323433 0.179514
Si Si6 0.455300 0.836311 0.459055
Si Si7 0.455241 0.173642 0.771272
O O1 0.250000 0.652092 0.395006
O O2 0.960395 0.500000 0.386686
O O3 0.958800 0.751202 0.422831
O O4 0.010228 0.737738 0.345757
O O5 0.250000 0.767699 0.947764
O O6 0.579022 0.775444 0.925872
O O7 0.446045 0.000000 0.961960
O O8 0.500000 0.757957 0.000000
O O9 0.750000 0.348673 0.302920
O O10 0.461473 0.500000 0.300364
O O11 0.481134 0.228528 0.270740
O O12 0.750000 0.272891 0.864252
O O13 0.750000 0.000000 0.892852
O O14 0.250000 0.500000 0.182973
O O15 0.427451 0.259383 0.197975
O O16 0.500000 0.758011 0.500000
O O17 0.250000 0.844588 0.453148
O O18 0.538735 0.000000 0.459352
O O19 0.250000 0.208887 0.778742
O O20 0.491952 0.000000 0.774413
#
# Coordination Sequence:
#
# PCOD8211734 Si02
#       7
#     8   8   8   4   4   8   8
#     4   9  18  31  47  70 100 131 166 208 255 316
#     4   9  15  26  49  83 118 151 189 241 302 353
#     4   9  18  33  53  79 110 142 176 217 273 339
#     4  10  20  34  54  84 120 152 198 254 298 350
#     4  12  26  42  62  86 120 166 212 248 298 368
#     4   9  18  32  47  64  89 123 163 207 257 312
#     4  10  22  41  64  90 119 150 194 251 304 355
#
# _framework density 19.964789
#
# number of rings (size 3 to 8) (size 9 to 14) (size 15 to 20)
#    0.000    2.500    0.833    1.250    1.167    3.333 
#    0.000    1.667    0.000    0.500    0.000    0.000 
#    0.000    0.000    0.000    0.000    0.000    0.000 
#
# Total GULP energy -594946.055689 kJ/mol
# GULP energy per Si atom -12394.709494 kJ/mol
# Density = 1.991935 g / cm^3
# Si number density = 19.964789 Si / 1000 Ang^3
#
#
#
# Elastic Constant Matrix: (Units=GPa)
#
#
# Indices 1 2 3 4 5 6 
#
# 1 89.5532 35.7366 60.4299 0.0000 0.0000 0.0000
# 2 35.7366 87.9705 68.8572 0.0000 0.0000 0.0000
# 3 60.4299 68.8572 188.6225 0.0000 0.0000 0.0000
# 4 0.0000 0.0000 0.0000 -4.7485 0.0000 0.0000
# 5 0.0000 0.0000 0.0000 0.0000 31.0281 0.0000
# 6 0.0000 0.0000 0.0000 0.0000 0.0000 12.2753
#
#
#
# Elastic Compliance Matrix: (Units=1/GPa)
#
#
# Indices 1 2 3 4 5 6 
#
# 1 0.014877 -0.003238 -0.003584 0.000000 0.000000 0.000000
# 2 -0.003238 0.016620 -0.005030 0.000000 0.000000 0.000000
# 3 -0.003584 -0.005030 0.008286 0.000000 0.000000 0.000000
# 4 0.000000 0.000000 0.000000 -0.210591 0.000000 0.000000
# 5 0.000000 0.000000 0.000000 0.000000 0.032229 0.000000
# 6 0.000000 0.000000 0.000000 0.000000 0.000000 0.081464
#
#
# Mechanical properties :
#
#
# Convention : Reuss Voigt Hill
#
# Bulk Modulus (GPa) = 62.19309 77.35485 69.77397
# Shear Modulus (GPa) = -178.24701 21.11915 -78.56393
#
# Velocity S-wave (km/s) = -9.45910 3.25594 -6.27986
# Velocity P-wave (km/s) = 9.38511 7.27768 4.19021
#
# Compressibility (1/GPa) = 0.01607896
#
# Stress axis : x y z
#
# Youngs Moduli (GPa) = 67.21615 60.16925 120.68581
#
# Poissons Ratio (x) = 0.19484 0.43256
# Poissons Ratio (y) = 0.21766 0.60701
# Poissons Ratio (z) = 0.24092 0.30263
#
# Static dielectric constant tensor:
#      x y z
#    x 3.600650 0.000000 0.000000 
#    y 0.000000 3.605870 0.000000 
#    z 0.000000 0.000000 3.814380 
# 
# 
# High freq. dielectric constant tensor:
#      x y z
#    x 1.778650 0.000000 0.000000 
#    y 0.000000 1.743790 0.000000 
#    z 0.000000 0.000000 1.787240 
# 
# From -- ./inp_files/37080.got.cif
#   From: 2010.03.12/outbox.cif.g09.slc.cpg/sg51_19_cif.got.tgz:37080.got - 2010.04.16 13:43:02.
