data_PCOD8211758
_publ_section_title
;
Structure prediction by ZEFSAII (Michael W. Deem and Ramdas Pophale) SiO2 
 PCOD8211758
Probable space group: P M M A
;
_chemical_formula_sum "Si O2"
_cell_formula_units_Z 56
_cell_length_a 17.806082
_cell_length_b 14.130885
_cell_length_c 12.462304
_cell_angle_alpha 90.000000
_cell_angle_beta 90.000000
_cell_angle_gamma 90.000000
_cell_volume 3135.711308
_symmetry_space_group_name_H-M "P M M A"
_symmetry_group_IT_number 51
_symmetry_cell_setting 'orthorhombic'
loop_
_space_group_symop_operation_xyz
x,y,z
1/2-x,-y,z
1/2+x,-y,-z
-x,y,-z
-x,-y,-z
1/2+x,y,-z
1/2-x,y,z
x,-y,z
loop_
_atom_site_type_symbol
_atom_site_label
_atom_site_fract_x
_atom_site_fract_y
_atom_site_fract_z
Si Si1 0.836998 0.796163 0.351505
Si Si2 0.835988 0.394573 0.242484
Si Si3 0.163365 0.214673 0.037351
Si Si4 0.417302 0.110200 0.844053
Si Si5 0.914813 0.889791 0.783920
Si Si6 0.086572 0.606875 0.980188
Si Si7 0.084247 0.891251 0.460519
O O1 0.750000 0.818327 0.338335
O O2 0.854122 0.684697 0.331734
O O3 0.879818 0.862605 0.267973
O O4 0.862444 0.822953 0.470917
O O5 0.750000 0.383123 0.200937
O O6 0.847677 0.500000 0.291756
O O7 0.892930 0.378407 0.144575
O O8 0.250000 0.208018 0.006390
O O9 0.149522 0.163113 0.149831
O O10 0.116194 0.168620 0.941674
O O11 0.137862 0.323511 0.050855
O O12 0.505186 0.133700 0.836876
O O13 0.403215 0.000000 0.866005
O O14 0.911318 0.855192 0.661447
O O15 0.897800 0.000000 0.789780
O O16 0.104521 0.500000 0.016949
O O17 0.000000 0.631836 0.000000
O O18 0.000000 0.880482 0.500000
O O19 0.110993 0.000000 0.471832
#
# Coordination Sequence:
#
# PCOD8211758 Si02
#       7
#     8   8   8   8   8   8   8
#     4  11  21  33  56  87 110 137 181 236 287 326
#     4   9  18  34  55  81 113 143 175 223 284 341
#     4  12  24  36  53  81 117 152 184 223 278 338
#     4  11  21  35  55  81 112 145 184 232 279 324
#     4  10  22  39  58  77 107 154 196 225 269 334
#     4  10  20  34  55  81 108 142 185 230 276 331
#     4  10  20  37  57  78 106 145 189 230 275 329
#
# _framework density 17.858788000000001
#
# number of rings (size 3 to 8) (size 9 to 14) (size 15 to 20)
#    0.000    1.571    2.857    3.000    0.000    5.429 
#    0.000    1.429    0.000    1.286    0.000    2.000 
#    0.000    0.000    0.000    0.000    0.000    0.000 
#
# Total GULP energy -694534.607588 kJ/mol
# GULP energy per Si atom -12402.403707 kJ/mol
# Density = 1.781814 g / cm^3
# Si number density = 17.858788 Si / 1000 Ang^3
#
#
#
# Elastic Constant Matrix: (Units=GPa)
#
#
# Indices 1 2 3 4 5 6 
#
# 1 62.5439 50.3342 25.0819 0.0000 0.0000 0.0000
# 2 50.3342 87.6718 46.5393 0.0000 0.0000 0.0000
# 3 25.0819 46.5393 96.2118 0.0000 0.0000 0.0000
# 4 0.0000 0.0000 0.0000 17.0796 0.0000 0.0000
# 5 0.0000 0.0000 0.0000 0.0000 29.3840 0.0000
# 6 0.0000 0.0000 0.0000 0.0000 0.0000 26.9344
#
#
#
# Elastic Compliance Matrix: (Units=1/GPa)
#
#
# Indices 1 2 3 4 5 6 
#
# 1 0.029754 -0.017444 0.000681 0.000000 0.000000 0.000000
# 2 -0.017444 0.025574 -0.007823 0.000000 0.000000 0.000000
# 3 0.000681 -0.007823 0.014000 0.000000 0.000000 0.000000
# 4 0.000000 0.000000 0.000000 0.058549 0.000000 0.000000
# 5 0.000000 0.000000 0.000000 0.000000 0.034032 0.000000
# 6 0.000000 0.000000 0.000000 0.000000 0.000000 0.037127
#
#
# Mechanical properties :
#
#
# Convention : Reuss Voigt Hill
#
# Bulk Modulus (GPa) = 49.61122 54.48203 52.04662
# Shear Modulus (GPa) = 19.61337 22.97773 21.29555
#
# Velocity S-wave (km/s) = 3.31758 3.59086 3.45692
# Velocity P-wave (km/s) = 6.52036 6.91127 6.71866
#
# Compressibility (1/GPa) = 0.02015673
#
# Stress axis : x y z
#
# Youngs Moduli (GPa) = 33.60857 39.10223 71.42732
#
# Poissons Ratio (x) = 0.68211 -0.04866
# Poissons Ratio (y) = 0.58628 0.55877
# Poissons Ratio (z) = -0.02290 0.30590
#
# Static dielectric constant tensor:
#      x y z
#    x 3.350270 0.000000 0.000000 
#    y 0.000000 3.528890 0.000000 
#    z 0.000000 0.000000 3.331180 
# 
# 
# High freq. dielectric constant tensor:
#      x y z
#    x 1.692910 0.000000 0.000000 
#    y 0.000000 1.696510 0.000000 
#    z 0.000000 0.000000 1.674510 
# 
# From -- ./inp_files/16574.got.cif
#   From: 2010.03.12/outbox.cif.g09.slc.cpg/sg51_9_cif.got.tgz:16574.got - 2010.04.16 13:43:02.
