data_PCOD8211075
_publ_section_title
;
Structure prediction by ZEFSAII (Michael W. Deem and Ramdas Pophale) SiO2 
 PCOD8211075
Probable space group: P M M A
;
_chemical_formula_sum "Si O2"
_cell_formula_units_Z 52
_cell_length_a 9.161101
_cell_length_b 15.601234
_cell_length_c 19.700845
_cell_angle_alpha 90.000000
_cell_angle_beta 90.000000
_cell_angle_gamma 90.000000
_cell_volume 2815.733035
_symmetry_space_group_name_H-M "P M M A"
_symmetry_group_IT_number 51
_symmetry_cell_setting 'orthorhombic'
loop_
_space_group_symop_operation_xyz
x,y,z
1/2-x,-y,z
1/2+x,-y,-z
-x,y,-z
-x,-y,-z
1/2+x,y,-z
1/2-x,y,z
x,-y,z
loop_
_atom_site_type_symbol
_atom_site_label
_atom_site_fract_x
_atom_site_fract_y
_atom_site_fract_z
Si Si1 0.080278 0.352773 0.432087
Si Si2 0.079840 0.313462 0.928892
Si Si3 0.580423 0.152444 0.567895
Si Si4 0.584784 0.500000 0.067971
Si Si5 0.582073 0.903965 0.301873
Si Si6 0.581624 0.404528 0.301573
Si Si7 0.423155 0.249893 0.790225
O O1 0.250000 0.375219 0.438633
O O2 0.053342 0.252464 0.419663
O O3 0.000000 0.383714 0.500000
O O4 0.011719 0.404054 0.369994
O O5 0.250000 0.299076 0.943647
O O6 0.050243 0.409044 0.896046
O O7 0.021413 0.251226 0.868731
O O8 0.000000 0.295619 0.000000
O O9 0.500000 0.121014 0.500000
O O10 0.750000 0.129653 0.561112
O O11 0.513331 0.101477 0.630669
O O12 0.750000 0.500000 0.045163
O O13 0.500000 0.500000 0.000000
O O14 0.750000 0.882080 0.320015
O O15 0.522296 0.837502 0.245323
O O16 0.567808 0.000000 0.272077
O O17 0.750000 0.384102 0.319476
O O18 0.567626 0.500000 0.269012
O O19 0.517702 0.332948 0.250479
O O20 0.250000 0.255182 0.792074
#
# Coordination Sequence:
#
# PCOD8211075 Si02
#       7
#     8   8   8   4   8   8   8
#     4  10  20  34  53  74 100 136 175 216 259 302
#     4   9  17  30  49  73 101 133 167 204 245 292
#     4  10  20  34  54  78 104 135 170 210 259 309
#     4   8  14  24  42  68  98 128 161 196 235 284
#     4  10  20  35  56  79 102 132 169 210 258 307
#     4  10  20  33  52  76 101 134 175 215 257 303
#     4   9  18  33  53  76 104 133 167 210 252 301
#
# _framework density 18.467659999999999
#
# number of rings (size 3 to 8) (size 9 to 14) (size 15 to 20)
#    0.000    2.462    1.538    0.923    1.077    2.462 
#    0.000    1.538    0.000    0.462    0.000    0.000 
#    0.000    0.000    0.000    0.000    0.000    0.000 
#
# Total GULP energy -644468.564388 kJ/mol
# GULP energy per Si atom -12393.626238 kJ/mol
# Density = 1.842563 g / cm^3
# Si number density = 18.467660 Si / 1000 Ang^3
#
#
#
# Elastic Constant Matrix: (Units=GPa)
#
#
# Indices 1 2 3 4 5 6 
#
# 1 61.9339 30.6462 39.1923 0.0000 0.0000 0.0000
# 2 30.6462 101.9242 62.8218 0.0000 0.0000 0.0000
# 3 39.1923 62.8218 136.5074 0.0000 0.0000 0.0000
# 4 0.0000 0.0000 0.0000 17.2956 0.0000 0.0000
# 5 0.0000 0.0000 0.0000 0.0000 23.2299 0.0000
# 6 0.0000 0.0000 0.0000 0.0000 0.0000 15.8755
#
#
#
# Elastic Compliance Matrix: (Units=1/GPa)
#
#
# Indices 1 2 3 4 5 6 
#
# 1 0.020617 -0.003561 -0.004281 0.000000 0.000000 0.000000
# 2 -0.003561 0.014311 -0.005564 0.000000 0.000000 0.000000
# 3 -0.004281 -0.005564 0.011115 0.000000 0.000000 0.000000
# 4 0.000000 0.000000 0.000000 0.057818 0.000000 0.000000
# 5 0.000000 0.000000 0.000000 0.000000 0.043048 0.000000
# 6 0.000000 0.000000 0.000000 0.000000 0.000000 0.062990
#
#
# Mechanical properties :
#
#
# Convention : Reuss Voigt Hill
#
# Bulk Modulus (GPa) = 51.99392 62.85402 57.42397
# Shear Modulus (GPa) = 20.56592 22.46054 21.51323
#
# Velocity S-wave (km/s) = 3.34071 3.49120 3.41679
# Velocity P-wave (km/s) = 6.56473 7.09647 6.83577
#
# Compressibility (1/GPa) = 0.01923302
#
# Stress axis : x y z
#
# Youngs Moduli (GPa) = 48.50380 69.87577 89.96749
#
# Poissons Ratio (x) = 0.24880 0.38512
# Poissons Ratio (y) = 0.17270 0.50056
# Poissons Ratio (z) = 0.20763 0.38878
#
# Static dielectric constant tensor:
#      x y z
#    x 3.215940 0.000000 0.000000 
#    y 0.000000 3.400230 0.000000 
#    z 0.000000 0.000000 3.336630 
# 
# 
# High freq. dielectric constant tensor:
#      x y z
#    x 1.697160 0.000000 0.000000 
#    y 0.000000 1.707940 0.000000 
#    z 0.000000 0.000000 1.705990 
# 
# From -- ./inp_files/31802.got.cif
#   From: 2010.03.12/outbox.cif.g09.slc.cpg/sg51_16_cif.got.tgz:31802.got - 2010.04.16 13:43:02.
