data_PCOD8211964
_publ_section_title
;
Structure prediction by ZEFSAII (Michael W. Deem and Ramdas Pophale) SiO2 
 PCOD8211964
Probable space group: P M M A
;
_chemical_formula_sum "Si O2"
_cell_formula_units_Z 64
_cell_length_a 8.963906
_cell_length_b 28.428576
_cell_length_c 14.893054
_cell_angle_alpha 90.000000
_cell_angle_beta 90.000000
_cell_angle_gamma 90.000000
_cell_volume 3795.213080
_symmetry_space_group_name_H-M "P M M A"
_symmetry_group_IT_number 51
_symmetry_cell_setting 'orthorhombic'
loop_
_space_group_symop_operation_xyz
x,y,z
1/2-x,-y,z
1/2+x,-y,-z
-x,y,-z
-x,-y,-z
1/2+x,y,-z
1/2-x,y,z
x,-y,z
loop_
_atom_site_type_symbol
_atom_site_label
_atom_site_fract_x
_atom_site_fract_y
_atom_site_fract_z
Si Si1 0.925834 0.879192 0.407972
Si Si2 0.073813 0.078703 0.907230
Si Si3 0.074856 0.770657 0.591102
Si Si4 0.427164 0.734646 0.777291
Si Si5 0.926749 0.348253 0.097472
Si Si6 0.423701 0.186800 0.909909
Si Si7 0.076049 0.450391 0.905102
Si Si8 0.578350 0.052541 0.730928
O O1 0.750000 0.886776 0.414174
O O2 0.967457 0.824911 0.389593
O O3 0.000000 0.896643 0.500000
O O4 0.988477 0.910540 0.328245
O O5 0.250000 0.068877 0.910067
O O6 0.035888 0.133202 0.888693
O O7 0.996718 0.049699 0.828539
O O8 0.000000 0.061959 0.000000
O O9 0.250000 0.765341 0.578653
O O10 0.015358 0.738860 0.674433
O O11 0.000000 0.752003 0.500000
O O12 0.250000 0.733077 0.775422
O O13 0.489611 0.688712 0.829129
O O14 0.482648 0.781361 0.828418
O O15 0.750000 0.341973 0.084908
O O16 0.968685 0.400170 0.139120
O O17 0.000000 0.339875 0.000000
O O18 0.250000 0.193740 0.924774
O O19 0.500000 0.205139 0.000000
O O20 0.250000 0.449222 0.923309
O O21 0.034910 0.500000 0.852419
O O22 0.000000 0.452559 0.000000
O O23 0.750000 0.068693 0.738647
O O24 0.567752 0.000000 0.689324
#
# Coordination Sequence:
#
# PCOD8211964 Si02
#       8
#     8   8   8   8   8   8   8   8
#     4  10  20  36  58  79  98 120 145 176 217 265
#     4  10  20  35  54  73  94 122 155 189 224 262
#     4   9  18  33  51  70  90 113 143 178 215 259
#     4   9  16  27  43  62  88 118 144 173 215 263
#     4   9  16  25  38  57  84 119 152 182 218 258
#     4   9  17  29  45  66  90 116 145 175 208 251
#     4   8  13  21  33  50  74 107 148 188 220 251
#     4  11  24  39  54  74  98 122 150 184 221 262
#
# _framework density 16.863347999999998
#
# number of rings (size 3 to 8) (size 9 to 14) (size 15 to 20)
#    0.000    2.625    0.000    2.250    0.000    4.500 
#    0.000    1.250    0.000    0.000    0.000    0.000 
#    0.000    0.500    0.000    0.375    0.000    1.000 
#
# Total GULP energy -793060.592901 kJ/mol
# GULP energy per Si atom -12391.571764 kJ/mol
# Density = 1.682497 g / cm^3
# Si number density = 16.863348 Si / 1000 Ang^3
#
#
#
# Elastic Constant Matrix: (Units=GPa)
#
#
# Indices 1 2 3 4 5 6 
#
# 1 45.0063 22.1797 28.8614 0.0000 0.0000 0.0000
# 2 22.1797 88.5704 51.6879 0.0000 0.0000 0.0000
# 3 28.8614 51.6879 112.8089 0.0000 0.0000 0.0000
# 4 0.0000 0.0000 0.0000 15.7822 0.0000 0.0000
# 5 0.0000 0.0000 0.0000 0.0000 27.6866 0.0000
# 6 0.0000 0.0000 0.0000 0.0000 0.0000 14.0606
#
#
#
# Elastic Compliance Matrix: (Units=1/GPa)
#
#
# Indices 1 2 3 4 5 6 
#
# 1 0.027483 -0.003793 -0.005293 0.000000 0.000000 0.000000
# 2 -0.003793 0.015935 -0.006331 0.000000 0.000000 0.000000
# 3 -0.005293 -0.006331 0.013119 0.000000 0.000000 0.000000
# 4 0.000000 0.000000 0.000000 0.063362 0.000000 0.000000
# 5 0.000000 0.000000 0.000000 0.000000 0.036119 0.000000
# 6 0.000000 0.000000 0.000000 0.000000 0.000000 0.071121
#
#
# Mechanical properties :
#
#
# Convention : Reuss Voigt Hill
#
# Bulk Modulus (GPa) = 38.90631 50.20487 44.55559
# Shear Modulus (GPa) = 18.75883 21.08298 19.92091
#
# Velocity S-wave (km/s) = 3.33889 3.53969 3.44075
# Velocity P-wave (km/s) = 6.16327 6.82218 6.50107
#
# Compressibility (1/GPa) = 0.02570277
#
# Stress axis : x y z
#
# Youngs Moduli (GPa) = 36.38626 62.75566 76.22255
#
# Poissons Ratio (x) = 0.23804 0.40347
# Poissons Ratio (y) = 0.13802 0.48254
# Poissons Ratio (z) = 0.19260 0.39729
#
# Static dielectric constant tensor:
#      x y z
#    x 3.063150 0.000000 0.000000 
#    y 0.000000 3.601150 0.000000 
#    z 0.000000 0.000000 3.213530 
# 
# 
# High freq. dielectric constant tensor:
#      x y z
#    x 1.643580 0.000000 0.000000 
#    y 0.000000 1.646700 0.000000 
#    z 0.000000 0.000000 1.627840 
# 
# From -- ./inp_files/22571.got.cif
#   From: 2010.03.12/outbox.cif.g09.slc.cpg/sg51_12_cif.got.tgz:22571.got - 2010.04.16 13:43:02.
