data_PCOD8211774
_publ_section_title
;
Structure prediction by ZEFSAII (Michael W. Deem and Ramdas Pophale) SiO2 
 PCOD8211774
Probable space group: P M M A
;
_chemical_formula_sum "Si O2"
_cell_formula_units_Z 64
_cell_length_a 10.462032
_cell_length_b 17.608662
_cell_length_c 16.739005
_cell_angle_alpha 90.000000
_cell_angle_beta 90.000000
_cell_angle_gamma 90.000000
_cell_volume 3083.699429
_symmetry_space_group_name_H-M "P M M A"
_symmetry_group_IT_number 51
_symmetry_cell_setting 'orthorhombic'
loop_
_space_group_symop_operation_xyz
x,y,z
1/2-x,-y,z
1/2+x,-y,-z
-x,y,-z
-x,-y,-z
1/2+x,y,-z
1/2-x,y,z
x,-y,z
loop_
_atom_site_type_symbol
_atom_site_label
_atom_site_fract_x
_atom_site_fract_y
_atom_site_fract_z
Si Si1 0.980034 0.816371 0.196091
Si Si2 0.897958 0.084493 0.671455
Si Si3 0.390117 0.413676 0.560522
Si Si4 0.480034 0.683629 0.696091
Si Si5 0.890117 0.913676 0.060522
Si Si6 0.897958 0.415507 0.828545
Si Si7 0.395211 0.777810 0.433840
Si Si8 0.604789 0.277810 0.933840
O O1 0.034854 0.882403 0.250792
O O2 0.913138 0.750000 0.250000
O O3 0.091286 0.776263 0.143673
O O4 0.882380 0.858251 0.136781
O O5 0.750000 0.081998 0.692346
O O6 0.922506 0.135683 0.593160
O O7 0.951440 0.000000 0.653904
O O8 0.500000 0.385339 0.500000
O O9 0.250000 0.409099 0.518867
O O10 0.419995 0.500000 0.587510
O O11 0.382380 0.358251 0.636781
O O12 0.534855 0.617597 0.750792
O O13 0.591286 0.723737 0.643673
O O14 0.750000 0.909099 0.018866
O O15 0.919996 0.000000 0.087510
O O16 0.000000 0.885339 0.000000
O O17 0.750000 0.418003 0.807655
O O18 0.951440 0.500000 0.846096
O O19 0.922507 0.364317 0.906839
O O20 0.500000 0.755492 0.500000
O O21 0.250000 0.768903 0.467402
O O22 0.750000 0.268904 0.967402
O O23 0.500000 0.255492 0.000000
#
# Coordination Sequence:
#
# PCOD8211774 Si02
#       8
#     8   8   8   8   8   8   8   8
#     4  10  20  34  55  82 111 141 178 224 274 323
#     4   9  18  34  56  80 107 142 183 225 270 321
#     4  10  22  39  58  82 112 145 182 224 269 320
#     4  10  20  34  55  82 111 141 178 224 274 323
#     4  10  22  39  58  82 112 145 182 224 269 320
#     4   9  18  34  56  80 107 142 183 225 270 321
#     4  10  21  36  55  81 111 143 181 224 269 320
#     4  10  21  36  55  81 111 143 181 224 269 320
#
# _framework density 20.754292
#
# number of rings (size 3 to 8) (size 9 to 14) (size 15 to 20)
#    0.000    2.250    0.000    2.250    0.000    9.000 
#    0.000    6.250    0.000    1.500    0.000    0.000 
#    0.000    0.000    0.000    0.000    0.000    0.250 
#
# Total GULP energy -793163.763855 kJ/mol
# GULP energy per Si atom -12393.183810 kJ/mol
# Density = 2.070705 g / cm^3
# Si number density = 20.754292 Si / 1000 Ang^3
#
#
#
# Elastic Constant Matrix: (Units=GPa)
#
#
# Indices 1 2 3 4 5 6 
#
# 1 107.5307 18.7526 42.3873 0.0000 0.0000 0.0000
# 2 18.7526 120.6016 34.3680 0.0000 0.0000 0.0000
# 3 42.3873 34.3680 83.4108 0.0000 0.0000 0.0000
# 4 0.0000 0.0000 0.0000 39.0429 0.0000 0.0000
# 5 0.0000 0.0000 0.0000 0.0000 27.7594 0.0000
# 6 0.0000 0.0000 0.0000 0.0000 0.0000 2.6870
#
#
#
# Elastic Compliance Matrix: (Units=1/GPa)
#
#
# Indices 1 2 3 4 5 6 
#
# 1 0.011631 -0.000141 -0.005853 0.000000 0.000000 0.000000
# 2 -0.000141 0.009397 -0.003800 0.000000 0.000000 0.000000
# 3 -0.005853 -0.003800 0.016529 0.000000 0.000000 0.000000
# 4 0.000000 0.000000 0.000000 0.025613 0.000000 0.000000
# 5 0.000000 0.000000 0.000000 0.000000 0.036024 0.000000
# 6 0.000000 0.000000 0.000000 0.000000 0.000000 0.372160
#
#
# Mechanical properties :
#
#
# Convention : Reuss Voigt Hill
#
# Bulk Modulus (GPa) = 55.65002 55.83987 55.74494
# Shear Modulus (GPa) = 10.06176 28.30021 19.18099
#
# Velocity S-wave (km/s) = 2.20422 3.69668 3.04335
# Velocity P-wave (km/s) = 5.77495 6.72192 6.26635
#
# Compressibility (1/GPa) = 0.01796944
#
# Stress axis : x y z
#
# Youngs Moduli (GPa) = 85.97496 106.42156 60.50010
#
# Poissons Ratio (x) = 0.01497 0.35409
# Poissons Ratio (y) = 0.01210 0.22991
# Poissons Ratio (z) = 0.50319 0.40442
#
# Static dielectric constant tensor:
#      x y z
#    x 3.423550 0.000000 0.000000 
#    y 0.000000 4.273350 0.000000 
#    z 0.000000 0.000000 3.600210 
# 
# 
# High freq. dielectric constant tensor:
#      x y z
#    x 1.784380 0.000000 0.000000 
#    y 0.000000 1.840930 0.000000 
#    z 0.000000 0.000000 1.796670 
# 
# From -- ./inp_files/23440.got.cif
#   From: 2010.03.12/outbox.cif.g09.slc.cpg/sg51_12_cif.got.tgz:23440.got - 2010.04.16 13:43:02.
