data_PCOD8211925
_publ_section_title
;
Structure prediction by ZEFSAII (Michael W. Deem and Ramdas Pophale) SiO2 
 PCOD8211925
Probable space group: P M M A
;
_chemical_formula_sum "Si O2"
_cell_formula_units_Z 56
_cell_length_a 8.995134
_cell_length_b 13.473904
_cell_length_c 24.327967
_cell_angle_alpha 90.000000
_cell_angle_beta 90.000000
_cell_angle_gamma 90.000000
_cell_volume 2948.539188
_symmetry_space_group_name_H-M "P M M A"
_symmetry_group_IT_number 51
_symmetry_cell_setting 'orthorhombic'
loop_
_space_group_symop_operation_xyz
x,y,z
1/2-x,-y,z
1/2+x,-y,-z
-x,y,-z
-x,-y,-z
1/2+x,y,-z
1/2-x,y,z
x,-y,z
loop_
_atom_site_type_symbol
_atom_site_label
_atom_site_fract_x
_atom_site_fract_y
_atom_site_fract_z
Si Si1 0.073939 0.190034 0.669768
Si Si2 0.071961 0.000000 0.139657
Si Si3 0.082539 0.128660 0.946235
Si Si4 0.575841 0.114910 0.445337
Si Si5 0.589044 0.388933 0.836758
Si Si6 0.425318 0.614065 0.730335
Si Si7 0.072524 0.000000 0.741088
Si Si8 0.083921 0.361219 0.946902
O O1 0.250000 0.184340 0.669225
O O2 0.013423 0.172761 0.608019
O O3 0.021328 0.301438 0.687110
O O4 0.019326 0.099811 0.709023
O O5 0.009274 0.903447 0.107722
O O6 0.010744 0.000000 0.201035
O O7 0.250000 0.000000 0.139907
O O8 0.250000 0.085643 0.943843
O O9 0.088422 0.244738 0.949215
O O10 0.000000 0.085744 0.000000
O O11 0.500000 0.159023 0.500000
O O12 0.750000 0.130167 0.451922
O O13 0.534098 0.000000 0.437557
O O14 0.750000 0.333861 0.842771
O O15 0.620510 0.500000 0.818055
O O16 0.491221 0.343826 0.787681
O O17 0.502568 0.393175 0.893358
O O18 0.250000 0.615827 0.737345
O O19 0.474757 0.500000 0.714304
O O20 0.250000 0.000000 0.750049
O O21 0.250000 0.405580 0.945461
O O22 0.000000 0.405014 0.000000
#
# Coordination Sequence:
#
# PCOD8211925 Si02
#       8
#     8   4   8   8   8   8   4   8
#     4   9  17  32  55  78 106 142 178 218 263 311
#     4  12  25  37  50  73 104 134 168 212 261 318
#     4  10  21  38  57  75  96 128 169 213 261 316
#     4   9  16  29  50  77 107 141 179 217 257 306
#     4  10  21  36  53  74 101 132 167 209 262 322
#     4   9  18  33  54  79 103 134 180 225 262 307
#     4  10  20  35  52  75 105 140 180 216 261 322
#     4  10  21  36  55  76  98 126 163 209 262 319
#
# _framework density 18.992456000000001
#
# number of rings (size 3 to 8) (size 9 to 14) (size 15 to 20)
#    0.000    2.286    0.714    2.143    2.000    2.857 
#    0.000    1.429    0.000    0.429    0.000    0.000 
#    0.000    0.000    0.000    0.000    0.000    0.000 
#
# Total GULP energy -693850.744451 kJ/mol
# GULP energy per Si atom -12390.191865 kJ/mol
# Density = 1.894923 g / cm^3
# Si number density = 18.992456 Si / 1000 Ang^3
#
#
#
# Elastic Constant Matrix: (Units=GPa)
#
#
# Indices 1 2 3 4 5 6 
#
# 1 89.8131 29.2591 56.9287 0.0000 0.0000 0.0000
# 2 29.2591 98.8100 55.0622 0.0000 0.0000 0.0000
# 3 56.9287 55.0622 184.4089 0.0000 0.0000 0.0000
# 4 0.0000 0.0000 0.0000 35.1915 0.0000 0.0000
# 5 0.0000 0.0000 0.0000 0.0000 32.2186 0.0000
# 6 0.0000 0.0000 0.0000 0.0000 0.0000 12.6996
#
#
#
# Elastic Compliance Matrix: (Units=1/GPa)
#
#
# Indices 1 2 3 4 5 6 
#
# 1 0.014202 -0.002114 -0.003753 0.000000 0.000000 0.000000
# 2 -0.002114 0.012455 -0.003066 0.000000 0.000000 0.000000
# 3 -0.003753 -0.003066 0.007497 0.000000 0.000000 0.000000
# 4 0.000000 0.000000 0.000000 0.028416 0.000000 0.000000
# 5 0.000000 0.000000 0.000000 0.000000 0.031038 0.000000
# 6 0.000000 0.000000 0.000000 0.000000 0.000000 0.078742
#
#
# Mechanical properties :
#
#
# Convention : Reuss Voigt Hill
#
# Bulk Modulus (GPa) = 61.39808 72.83686 67.11747
# Shear Modulus (GPa) = 25.55638 31.47408 28.51523
#
# Velocity S-wave (km/s) = 3.67223 4.07527 3.87899
# Velocity P-wave (km/s) = 7.09776 7.78315 7.44834
#
# Compressibility (1/GPa) = 0.01628715
#
# Stress axis : x y z
#
# Youngs Moduli (GPa) = 70.41364 80.28808 133.38861
#
# Poissons Ratio (x) = 0.16973 0.50061
# Poissons Ratio (y) = 0.14885 0.40902
# Poissons Ratio (z) = 0.26426 0.24619
#
# Static dielectric constant tensor:
#      x y z
#    x 3.852890 0.000000 0.000000 
#    y 0.000000 3.485980 0.000000 
#    z 0.000000 0.000000 3.598720 
# 
# 
# High freq. dielectric constant tensor:
#      x y z
#    x 1.728370 0.000000 0.000000 
#    y 0.000000 1.736970 0.000000 
#    z 0.000000 0.000000 1.730600 
# 
# From -- ./inp_files/32079.got.cif
#   From: 2010.03.12/outbox.cif.g09.slc.cpg/sg51_17_cif.got.tgz:32079.got - 2010.04.16 13:43:02.
