data_PCOD8211548
_publ_section_title
;
Structure prediction by ZEFSAII (Michael W. Deem and Ramdas Pophale) SiO2 
 PCOD8211548
Probable space group: P M M A
;
_chemical_formula_sum "Si O2"
_cell_formula_units_Z 48
_cell_length_a 9.478385
_cell_length_b 8.965952
_cell_length_c 29.137071
_cell_angle_alpha 90.000000
_cell_angle_beta 90.000000
_cell_angle_gamma 90.000000
_cell_volume 2476.148273
_symmetry_space_group_name_H-M "P M M A"
_symmetry_group_IT_number 51
_symmetry_cell_setting 'orthorhombic'
loop_
_space_group_symop_operation_xyz
x,y,z
1/2-x,-y,z
1/2+x,-y,-z
-x,y,-z
-x,-y,-z
1/2+x,y,-z
1/2-x,y,z
x,-y,z
loop_
_atom_site_type_symbol
_atom_site_label
_atom_site_fract_x
_atom_site_fract_y
_atom_site_fract_z
Si Si1 0.086545 0.826377 0.692910
Si Si2 0.411031 0.176968 0.957009
Si Si3 0.584821 0.825025 0.867805
Si Si4 0.250000 0.662297 0.545122
Si Si5 0.250000 0.825502 0.452537
Si Si6 0.519825 0.669084 0.605902
Si Si7 0.088735 0.675508 0.788719
O O1 0.250000 0.799482 0.680838
O O2 0.989275 0.747194 0.655240
O O3 0.048632 0.754724 0.741453
O O4 0.048741 0.000000 0.694529
O O5 0.250000 0.240828 0.956534
O O6 0.496227 0.227315 0.912024
O O7 0.403750 0.000000 0.960292
O O8 0.500000 0.241103 0.000000
O O9 0.750000 0.786599 0.874789
O O10 0.522220 0.733737 0.825640
O O11 0.564027 0.000000 0.858587
O O12 0.250000 0.500000 0.520266
O O13 0.250000 0.787403 0.506395
O O14 0.375173 0.677083 0.580005
O O15 0.383722 0.760478 0.427813
O O16 0.250000 0.000000 0.447669
O O17 0.573579 0.500000 0.613051
O O18 0.250000 0.715502 0.803147
O O19 0.070485 0.500000 0.782338
#
# Coordination Sequence:
#
# PCOD8211548 Si02
#       7
#     8   8   8   4   4   8   8
#     4  10  20  36  61  90 117 145 184 235 289 345
#     4   9  16  27  47  77 113 152 193 239 291 345
#     4  10  20  34  53  80 114 150 191 239 289 342
#     4  10  22  40  64  88 114 152 196 238 285 348
#     4  12  26  40  56  86 122 156 194 242 291 338
#     4  11  22  40  63  87 117 154 194 236 287 349
#     4  10  21  37  58  82 109 144 188 234 283 343
#
# _framework density 19.384945999999999
#
# number of rings (size 3 to 8) (size 9 to 14) (size 15 to 20)
#    0.000    1.833    0.833    3.750    0.000    8.000 
#    1.500    0.000    0.000    0.500    0.000    0.000 
#    0.000    0.000    0.000    0.000    0.000    0.000 
#
# Total GULP energy -595189.826795 kJ/mol
# GULP energy per Si atom -12399.788058 kJ/mol
# Density = 1.934082 g / cm^3
# Si number density = 19.384946 Si / 1000 Ang^3
#
#
#
# Elastic Constant Matrix: (Units=GPa)
#
#
# Indices 1 2 3 4 5 6 
#
# 1 105.3242 36.5418 45.3864 0.0000 0.0000 0.0000
# 2 36.5418 102.4703 53.5113 0.0000 0.0000 0.0000
# 3 45.3864 53.5113 126.8230 0.0000 0.0000 0.0000
# 4 0.0000 0.0000 0.0000 -19.5178 0.0000 0.0000
# 5 0.0000 0.0000 0.0000 0.0000 -93.1622 0.0000
# 6 0.0000 0.0000 0.0000 0.0000 0.0000 26.9381
#
#
#
# Elastic Compliance Matrix: (Units=1/GPa)
#
#
# Indices 1 2 3 4 5 6 
#
# 1 0.011724 -0.002552 -0.003119 0.000000 0.000000 0.000000
# 2 -0.002552 0.013072 -0.004602 0.000000 0.000000 0.000000
# 3 -0.003119 -0.004602 0.010943 0.000000 0.000000 0.000000
# 4 0.000000 0.000000 0.000000 -0.051235 0.000000 0.000000
# 5 0.000000 0.000000 0.000000 0.000000 -0.010734 0.000000
# 6 0.000000 0.000000 0.000000 0.000000 0.000000 0.037122
#
#
# Mechanical properties :
#
#
# Convention : Reuss Voigt Hill
#
# Bulk Modulus (GPa) = 65.82111 67.27737 66.54924
# Shear Modulus (GPa) = 136.97386 -3.86984 66.55201
#
# Velocity S-wave (km/s) = 8.41506 -1.41444 5.86569
# Velocity P-wave (km/s) = 11.33341 5.66690 8.95991
#
# Compressibility (1/GPa) = 0.01519269
#
# Stress axis : x y z
#
# Youngs Moduli (GPa) = 85.29568 76.49652 91.38208
#
# Poissons Ratio (x) = 0.19523 0.28500
# Poissons Ratio (y) = 0.21769 0.42058
# Poissons Ratio (z) = 0.26602 0.35207
#
# Static dielectric constant tensor:
#      x y z
#    x 3.554090 0.000000 0.000000 
#    y 0.000000 3.472910 0.000000 
#    z 0.000000 0.000000 3.615890 
# 
# 
# High freq. dielectric constant tensor:
#      x y z
#    x 1.757760 0.000000 0.000000 
#    y 0.000000 1.741440 0.000000 
#    z 0.000000 0.000000 1.766640 
# 
# From -- ./inp_files/37073.got.cif
#   From: 2010.03.12/outbox.cif.g09.slc.cpg/sg51_19_cif.got.tgz:37073.got - 2010.04.16 13:43:02.
