data_PCOD8211378
_publ_section_title
;
Structure prediction by ZEFSAII (Michael W. Deem and Ramdas Pophale) SiO2 
 PCOD8211378
Probable space group: P M M A
;
_chemical_formula_sum "Si O2"
_cell_formula_units_Z 64
_cell_length_a 18.370531
_cell_length_b 20.367598
_cell_length_c 9.079124
_cell_angle_alpha 90.000000
_cell_angle_beta 90.000000
_cell_angle_gamma 90.000000
_cell_volume 3397.077634
_symmetry_space_group_name_H-M "P M M A"
_symmetry_group_IT_number 51
_symmetry_cell_setting 'orthorhombic'
loop_
_space_group_symop_operation_xyz
x,y,z
1/2-x,-y,z
1/2+x,-y,-z
-x,y,-z
-x,-y,-z
1/2+x,y,-z
1/2-x,y,z
x,-y,z
loop_
_atom_site_type_symbol
_atom_site_label
_atom_site_fract_x
_atom_site_fract_y
_atom_site_fract_z
Si Si1 0.663335 0.196056 0.067412
Si Si2 0.163149 0.798607 0.266451
Si Si3 0.663412 0.927615 0.239387
Si Si4 0.663734 0.927794 0.569520
Si Si5 0.921510 0.310797 0.551942
Si Si6 0.892177 0.574258 0.089927
Si Si7 0.332124 0.685520 0.736967
Si Si8 0.049233 0.574939 0.223015
O O1 0.750000 0.196088 0.068644
O O2 0.631988 0.126914 0.127930
O O3 0.633212 0.253361 0.173337
O O4 0.636351 0.207561 0.901482
O O5 0.250000 0.788611 0.284687
O O6 0.137585 0.870525 0.321533
O O7 0.120723 0.744510 0.358570
O O8 0.750000 0.924717 0.238556
O O9 0.634937 0.912836 0.404556
O O10 0.637110 0.000000 0.188095
O O11 0.750000 0.929519 0.566477
O O12 0.635156 0.000000 0.621786
O O13 0.876418 0.330013 0.408716
O O14 0.928614 0.377104 0.645951
O O15 0.000000 0.284251 0.500000
O O16 0.868321 0.500000 0.123152
O O17 0.831938 0.622420 0.156361
O O18 0.968339 0.590571 0.168342
O O19 0.896793 0.585607 0.914708
O O20 0.250000 0.702145 0.690944
O O21 0.054998 0.500000 0.280322
#
# Coordination Sequence:
#
# PCOD8211378 Si02
#       8
#     8   8   8   8   8   8   8   8
#     4   9  18  31  48  72 103 141 176 211 262 318
#     4  10  20  34  52  76 109 143 177 223 275 322
#     4   8  13  23  41  67  99 133 170 212 257 308
#     4   8  14  26  47  75 106 140 176 215 264 323
#     4  12  23  36  54  81 107 140 184 227 269 326
#     4   9  18  36  60  83 106 136 175 220 267 319
#     4  11  22  36  54  78 111 146 178 219 273 325
#     4   9  19  37  60  82 106 137 177 222 267 315
#
# _framework density 18.839724
#
# number of rings (size 3 to 8) (size 9 to 14) (size 15 to 20)
#    0.000    2.500    1.250    3.375    0.000    3.500 
#    0.000    3.125    0.000    3.000    0.000    0.000 
#    0.000    4.000    0.000    0.000    0.000    0.000 
#
# Total GULP energy -793379.086642 kJ/mol
# GULP energy per Si atom -12396.548229 kJ/mol
# Density = 1.879684 g / cm^3
# Si number density = 18.839724 Si / 1000 Ang^3
#
#
#
# Elastic Constant Matrix: (Units=GPa)
#
#
# Indices 1 2 3 4 5 6 
#
# 1 39.7334 27.5370 30.3476 0.0000 0.0000 0.0000
# 2 27.5370 139.3522 73.9113 0.0000 0.0000 0.0000
# 3 30.3476 73.9113 119.8294 0.0000 0.0000 0.0000
# 4 0.0000 0.0000 0.0000 41.5583 0.0000 0.0000
# 5 0.0000 0.0000 0.0000 0.0000 23.1442 0.0000
# 6 0.0000 0.0000 0.0000 0.0000 0.0000 14.1811
#
#
#
# Elastic Compliance Matrix: (Units=1/GPa)
#
#
# Indices 1 2 3 4 5 6 
#
# 1 0.032032 -0.003013 -0.006254 0.000000 0.000000 0.000000
# 2 -0.003013 0.010948 -0.005990 0.000000 0.000000 0.000000
# 3 -0.006254 -0.005990 0.013624 0.000000 0.000000 0.000000
# 4 0.000000 0.000000 0.000000 0.024063 0.000000 0.000000
# 5 0.000000 0.000000 0.000000 0.000000 0.043207 0.000000
# 6 0.000000 0.000000 0.000000 0.000000 0.000000 0.070517
#
#
# Mechanical properties :
#
#
# Convention : Reuss Voigt Hill
#
# Bulk Modulus (GPa) = 38.32762 62.50078 50.41420
# Shear Modulus (GPa) = 21.40391 26.91798 24.16094
#
# Velocity S-wave (km/s) = 3.37427 3.78403 3.58501
# Velocity P-wave (km/s) = 5.96399 7.23456 6.62978
#
# Compressibility (1/GPa) = 0.02609085
#
# Stress axis : x y z
#
# Youngs Moduli (GPa) = 31.21831 91.33681 73.40072
#
# Poissons Ratio (x) = 0.27517 0.45906
# Poissons Ratio (y) = 0.09405 0.43968
# Poissons Ratio (z) = 0.19525 0.54712
#
# Static dielectric constant tensor:
#      x y z
#    x 2.990930 0.000000 0.000000 
#    y 0.000000 3.753400 0.000000 
#    z 0.000000 0.000000 3.621790 
# 
# 
# High freq. dielectric constant tensor:
#      x y z
#    x 1.677030 0.000000 0.000000 
#    y 0.000000 1.746620 0.000000 
#    z 0.000000 0.000000 1.738890 
# 
# From -- ./inp_files/11178.got.cif
#   From: 2010.03.12/outbox.cif.g09.slc.cpg/sg51_6_cif.got.tgz:11178.got - 2010.04.16 13:43:02.
