data_PCOD8211375
_publ_section_title
;
Structure prediction by ZEFSAII (Michael W. Deem and Ramdas Pophale) SiO2 
 PCOD8211375
Probable space group: P M M A
;
_chemical_formula_sum "Si O2"
_cell_formula_units_Z 44
_cell_length_a 9.132430
_cell_length_b 7.950018
_cell_length_c 30.044756
_cell_angle_alpha 90.000000
_cell_angle_beta 90.000000
_cell_angle_gamma 90.000000
_cell_volume 2181.338906
_symmetry_space_group_name_H-M "P M M A"
_symmetry_group_IT_number 51
_symmetry_cell_setting 'orthorhombic'
loop_
_space_group_symop_operation_xyz
x,y,z
1/2-x,-y,z
1/2+x,-y,-z
-x,y,-z
-x,-y,-z
1/2+x,y,-z
1/2-x,y,z
x,-y,z
loop_
_atom_site_type_symbol
_atom_site_label
_atom_site_fract_x
_atom_site_fract_y
_atom_site_fract_z
Si Si1 0.410393 0.806048 0.286399
Si Si2 0.424275 0.812124 0.893762
Si Si3 0.915052 0.692486 0.369496
Si Si4 0.075527 0.500000 0.952752
Si Si5 0.918957 0.197764 0.544687
Si Si6 0.588146 0.801522 0.204598
O O1 0.250000 0.722156 0.293695
O O2 0.507206 0.793713 0.330449
O O3 0.488071 0.720711 0.243481
O O4 0.388527 0.000000 0.275544
O O5 0.250000 0.816031 0.892104
O O6 0.479629 0.668579 0.927522
O O7 0.480685 0.764129 0.844176
O O8 0.481094 0.000000 0.907856
O O9 0.750000 0.762289 0.376217
O O10 0.911648 0.500000 0.354901
O O11 0.004918 0.708964 0.414736
O O12 0.250000 0.500000 0.957897
O O13 0.000000 0.500000 0.000000
O O14 0.750000 0.252518 0.541704
O O15 0.000000 0.256315 0.500000
O O16 0.935231 0.000000 0.552204
O O17 0.750000 0.720408 0.208662
O O18 0.601798 0.000000 0.211256
#
# Coordination Sequence:
#
# PCOD8211375 Si02
#       6
#     8   8   8   4   8   8
#     4  10  20  34  54  80 109 141 175 214 266 324
#     4   8  15  30  52  76 103 138 180 224 271 323
#     4  11  24  39  54  76 107 143 182 221 262 312
#     4  10  20  34  52  76 106 140 180 226 273 326
#     4  10  21  38  61  86 108 134 172 217 266 320
#     4   8  14  28  51  75  99 131 172 215 258 308
#
# _framework density 20.171095999999999
#
# number of rings (size 3 to 8) (size 9 to 14) (size 15 to 20)
#    0.000    2.545    0.000    3.273    0.000    6.545 
#    1.636    0.909    0.000    1.091    0.000    0.000 
#    0.000    0.000    0.000    0.000    0.000    0.000 
#
# Total GULP energy -545444.480228 kJ/mol
# GULP energy per Si atom -12396.465460 kJ/mol
# Density = 2.012519 g / cm^3
# Si number density = 20.171096 Si / 1000 Ang^3
#
#
#
# Elastic Constant Matrix: (Units=GPa)
#
#
# Indices 1 2 3 4 5 6 
#
# 1 121.5461 24.9420 63.0099 0.0000 0.0000 0.0000
# 2 24.9420 61.4190 43.6515 0.0000 0.0000 0.0000
# 3 63.0099 43.6515 165.2747 0.0000 0.0000 0.0000
# 4 0.0000 0.0000 0.0000 9.9327 0.0000 0.0000
# 5 0.0000 0.0000 0.0000 0.0000 36.3399 0.0000
# 6 0.0000 0.0000 0.0000 0.0000 0.0000 14.5901
#
#
#
# Elastic Compliance Matrix: (Units=1/GPa)
#
#
# Indices 1 2 3 4 5 6 
#
# 1 0.010401 -0.001730 -0.003508 0.000000 0.000000 0.000000
# 2 -0.001730 0.020332 -0.004710 0.000000 0.000000 0.000000
# 3 -0.003508 -0.004710 0.008632 0.000000 0.000000 0.000000
# 4 0.000000 0.000000 0.000000 0.100678 0.000000 0.000000
# 5 0.000000 0.000000 0.000000 0.000000 0.027518 0.000000
# 6 0.000000 0.000000 0.000000 0.000000 0.000000 0.068540
#
#
# Mechanical properties :
#
#
# Convention : Reuss Voigt Hill
#
# Bulk Modulus (GPa) = 51.36850 67.93851 59.65351
# Shear Modulus (GPa) = 19.04848 26.61496 22.83172
#
# Velocity S-wave (km/s) = 3.07635 3.63638 3.36803
# Velocity P-wave (km/s) = 6.17578 7.16835 6.69050
#
# Compressibility (1/GPa) = 0.01946718
#
# Stress axis : x y z
#
# Youngs Moduli (GPa) = 96.14313 49.18362 115.84649
#
# Poissons Ratio (x) = 0.08511 0.40643
# Poissons Ratio (y) = 0.16637 0.54567
# Poissons Ratio (z) = 0.33730 0.23167
#
# Static dielectric constant tensor:
#      x y z
#    x 3.887190 0.000000 0.000000 
#    y 0.000000 3.530180 0.000000 
#    z 0.000000 0.000000 3.729260 
# 
# 
# High freq. dielectric constant tensor:
#      x y z
#    x 1.771930 0.000000 0.000000 
#    y 0.000000 1.768270 0.000000 
#    z 0.000000 0.000000 1.792920 
# 
# From -- ./inp_files/36832.got.cif
#   From: 2010.03.12/outbox.cif.g09.slc.cpg/sg51_19_cif.got.tgz:36832.got - 2010.04.16 13:43:02.
