data_PCOD8211933
_publ_section_title
;
Structure prediction by ZEFSAII (Michael W. Deem and Ramdas Pophale) SiO2 
 PCOD8211933
Probable space group: P M M A
;
_chemical_formula_sum "Si O2"
_cell_formula_units_Z 56
_cell_length_a 8.938207
_cell_length_b 22.334898
_cell_length_c 14.825093
_cell_angle_alpha 90.000000
_cell_angle_beta 90.000000
_cell_angle_gamma 90.000000
_cell_volume 2959.591751
_symmetry_space_group_name_H-M "P M M A"
_symmetry_group_IT_number 51
_symmetry_cell_setting 'orthorhombic'
loop_
_space_group_symop_operation_xyz
x,y,z
1/2-x,-y,z
1/2+x,-y,-z
-x,y,-z
-x,-y,-z
1/2+x,y,-z
1/2-x,y,z
x,-y,z
loop_
_atom_site_type_symbol
_atom_site_label
_atom_site_fract_x
_atom_site_fract_y
_atom_site_fract_z
Si Si1 0.575525 0.255280 0.090203
Si Si2 0.078302 0.566749 0.262939
Si Si3 0.074047 0.608857 0.908779
Si Si4 0.427053 0.798233 0.405138
Si Si5 0.574743 0.661192 0.592400
Si Si6 0.072716 0.155746 0.769905
Si Si7 0.922480 0.070607 0.907403
O O1 0.750000 0.252260 0.072684
O O2 0.521911 0.322815 0.109566
O O3 0.527999 0.215300 0.175031
O O4 0.500000 0.229416 0.000000
O O5 0.250000 0.581689 0.239570
O O6 0.063185 0.500000 0.304569
O O7 0.013156 0.616049 0.331731
O O8 0.982235 0.568210 0.172392
O O9 0.250000 0.603002 0.918263
O O10 0.000000 0.584459 0.000000
O O11 0.500000 0.817167 0.500000
O O12 0.250000 0.808357 0.410256
O O13 0.468201 0.729290 0.382553
O O14 0.497463 0.840093 0.328194
O O15 0.500000 0.641170 0.500000
O O16 0.750000 0.653583 0.579803
O O17 0.250000 0.148352 0.759153
O O18 0.006586 0.098812 0.821961
O O19 0.750000 0.091119 0.909653
O O20 0.937670 0.000000 0.896060
O O21 0.000000 0.092234 0.000000
#
# Coordination Sequence:
#
# PCOD8211933 Si02
#       7
#     8   8   8   8   8   8   8
#     4   9  19  32  48  74 105 134 165 207 257 310
#     4  10  21  36  52  72  99 130 167 211 257 307
#     4  10  20  35  53  72  97 130 168 209 256 309
#     4  10  20  35  55  79 107 138 174 216 264 317
#     4   9  19  35  55  78 104 135 168 208 260 315
#     4  11  21  33  53  81 111 142 178 219 264 313
#     4  10  21  37  56  80 113 152 191 227 262 303
#
# _framework density 18.921527999999999
#
# number of rings (size 3 to 8) (size 9 to 14) (size 15 to 20)
#    0.000    2.143    0.000    3.000    0.000    5.714 
#    0.000    0.000    0.000    0.429    0.000    0.000 
#    0.000    0.000    0.000    0.000    0.000    0.000 
#
# Total GULP energy -694602.487320 kJ/mol
# GULP energy per Si atom -12403.615845 kJ/mol
# Density = 1.887846 g / cm^3
# Si number density = 18.921528 Si / 1000 Ang^3
#
#
#
# Elastic Constant Matrix: (Units=GPa)
#
#
# Indices 1 2 3 4 5 6 
#
# 1 81.5126 31.4768 57.1778 0.0000 0.0000 0.0000
# 2 31.4768 54.4414 46.5642 0.0000 0.0000 0.0000
# 3 57.1778 46.5642 146.4697 0.0000 0.0000 0.0000
# 4 0.0000 0.0000 0.0000 24.9810 0.0000 0.0000
# 5 0.0000 0.0000 0.0000 0.0000 38.9244 0.0000
# 6 0.0000 0.0000 0.0000 0.0000 0.0000 22.2951
#
#
#
# Elastic Compliance Matrix: (Units=1/GPa)
#
#
# Indices 1 2 3 4 5 6 
#
# 1 0.018272 -0.006130 -0.005184 0.000000 0.000000 0.000000
# 2 -0.006130 0.027285 -0.006281 0.000000 0.000000 0.000000
# 3 -0.005184 -0.006281 0.010848 0.000000 0.000000 0.000000
# 4 0.000000 0.000000 0.000000 0.040030 0.000000 0.000000
# 5 0.000000 0.000000 0.000000 0.000000 0.025691 0.000000
# 6 0.000000 0.000000 0.000000 0.000000 0.000000 0.044853
#
#
# Mechanical properties :
#
#
# Convention : Reuss Voigt Hill
#
# Bulk Modulus (GPa) = 47.13903 61.42903 54.28403
# Shear Modulus (GPa) = 23.89596 27.05378 25.47487
#
# Velocity S-wave (km/s) = 3.55758 3.78536 3.67324
# Velocity P-wave (km/s) = 6.46855 7.18616 6.83678
#
# Compressibility (1/GPa) = 0.02121384
#
# Stress axis : x y z
#
# Youngs Moduli (GPa) = 54.72980 36.65005 92.18487
#
# Poissons Ratio (x) = 0.22468 0.47787
# Poissons Ratio (y) = 0.33552 0.57902
# Poissons Ratio (z) = 0.28371 0.23020
#
# Static dielectric constant tensor:
#      x y z
#    x 3.445480 0.000000 0.000000 
#    y 0.000000 3.399810 0.000000 
#    z 0.000000 0.000000 3.461190 
# 
# 
# High freq. dielectric constant tensor:
#      x y z
#    x 1.740590 0.000000 0.000000 
#    y 0.000000 1.721840 0.000000 
#    z 0.000000 0.000000 1.733640 
# 
# From -- ./inp_files/21703.got.cif
#   From: 2010.03.12/outbox.cif.g09.slc.cpg/sg51_11_cif.got.tgz:21703.got - 2010.04.16 13:43:02.
