data_PCOD8211554
_publ_section_title
;
Structure prediction by ZEFSAII (Michael W. Deem and Ramdas Pophale) SiO2 
 PCOD8211554
Probable space group: P M M A
;
_chemical_formula_sum "Si O2"
_cell_formula_units_Z 48
_cell_length_a 9.703691
_cell_length_b 18.378996
_cell_length_c 14.475270
_cell_angle_alpha 90.000000
_cell_angle_beta 90.000000
_cell_angle_gamma 90.000000
_cell_volume 2581.578973
_symmetry_space_group_name_H-M "P M M A"
_symmetry_group_IT_number 51
_symmetry_cell_setting 'orthorhombic'
loop_
_space_group_symop_operation_xyz
x,y,z
1/2-x,-y,z
1/2+x,-y,-z
-x,y,-z
-x,-y,-z
1/2+x,y,-z
1/2-x,y,z
x,-y,z
loop_
_atom_site_type_symbol
_atom_site_label
_atom_site_fract_x
_atom_site_fract_y
_atom_site_fract_z
Si Si1 0.250000 0.088047 0.095477
Si Si2 0.410411 0.305707 0.754635
Si Si3 0.407042 0.312441 0.417615
Si Si4 0.501800 0.144463 0.786190
Si Si5 0.404369 0.140210 0.418006
Si Si6 0.094055 0.582396 0.917528
Si Si7 0.250000 0.917566 0.888182
O O1 0.376915 0.125011 0.145474
O O2 0.250000 0.000000 0.104887
O O3 0.250000 0.119056 0.990012
O O4 0.250000 0.297758 0.722772
O O5 0.509031 0.333562 0.673515
O O6 0.465854 0.229436 0.792894
O O7 0.428238 0.366411 0.831050
O O8 0.500000 0.345533 0.500000
O O9 0.250000 0.344489 0.416717
O O10 0.396899 0.226340 0.428036
O O11 0.533444 0.119352 0.681511
O O12 0.376918 0.098639 0.823575
O O13 0.500000 0.107653 0.500000
O O14 0.250000 0.107527 0.427217
O O15 0.250000 0.586075 0.953150
O O16 0.053464 0.500000 0.889297
O O17 0.000000 0.611626 0.000000
O O18 0.250000 0.000000 0.916952
#
# Coordination Sequence:
#
# PCOD8211554 Si02
#       7
#     4   8   8   8   8   8   4
#     4  11  24  42  61  79 108 148 191 232 281 339
#     4  10  20  34  53  83 114 143 183 231 275 321
#     4   9  17  29  50  79 112 146 179 223 272 326
#     4  11  21  38  58  85 113 143 184 237 280 326
#     4   9  18  31  53  81 109 140 175 219 274 329
#     4   9  19  36  55  77 109 150 189 226 276 333
#     4  11  24  40  59  81 106 146 189 226 281 343
#
# _framework density 18.593273
#
# number of rings (size 3 to 8) (size 9 to 14) (size 15 to 20)
#    0.000    2.167    1.667    1.500    2.333    5.333 
#    0.000    0.000    0.000    3.500    0.000    0.000 
#    0.000    0.000    0.000    0.000    0.000    0.000 
#
# Total GULP energy -594967.686712 kJ/mol
# GULP energy per Si atom -12395.160140 kJ/mol
# Density = 1.855095 g / cm^3
# Si number density = 18.593273 Si / 1000 Ang^3
#
#
#
# Elastic Constant Matrix: (Units=GPa)
#
#
# Indices 1 2 3 4 5 6 
#
# 1 182.7904 34.1143 98.7193 0.0000 0.0000 0.0000
# 2 34.1143 42.1748 33.2060 0.0000 0.0000 0.0000
# 3 98.7193 33.2060 148.1653 0.0000 0.0000 0.0000
# 4 0.0000 0.0000 0.0000 -9.7604 0.0000 0.0000
# 5 0.0000 0.0000 0.0000 0.0000 -3.5529 0.0000
# 6 0.0000 0.0000 0.0000 0.0000 0.0000 26.6468
#
#
#
# Elastic Compliance Matrix: (Units=1/GPa)
#
#
# Indices 1 2 3 4 5 6 
#
# 1 0.008859 -0.003058 -0.005217 0.000000 0.000000 0.000000
# 2 -0.003058 0.029847 -0.004651 0.000000 0.000000 0.000000
# 3 -0.005217 -0.004651 0.011268 0.000000 0.000000 0.000000
# 4 0.000000 0.000000 0.000000 -0.102455 0.000000 0.000000
# 5 0.000000 0.000000 0.000000 0.000000 -0.281456 0.000000
# 6 0.000000 0.000000 0.000000 0.000000 0.000000 0.037528
#
#
# Mechanical properties :
#
#
# Convention : Reuss Voigt Hill
#
# Bulk Modulus (GPa) = 41.45954 78.35665 59.90810
# Shear Modulus (GPa) = -19.04650 16.47275 -1.28687
#
# Velocity S-wave (km/s) = -3.20406 2.97972 -0.83284
# Velocity P-wave (km/s) = 2.94254 7.35339 5.60048
#
# Compressibility (1/GPa) = 0.02411990
#
# Stress axis : x y z
#
# Youngs Moduli (GPa) = 112.87696 33.50436 88.74799
#
# Poissons Ratio (x) = 0.10246 0.46303
# Poissons Ratio (y) = 0.34520 0.41281
# Poissons Ratio (z) = 0.58891 0.15585
#
# Static dielectric constant tensor:
#      x y z
#    x 3.659960 0.000000 0.000000 
#    y 0.000000 3.092290 0.000000 
#    z 0.000000 0.000000 3.582450 
# 
# 
# High freq. dielectric constant tensor:
#      x y z
#    x 1.743610 0.000000 0.000000 
#    y 0.000000 1.682080 0.000000 
#    z 0.000000 0.000000 1.732080 
# 
# From -- ./inp_files/21133.got.cif
#   From: 2010.03.12/outbox.cif.g09.slc.cpg/sg51_11_cif.got.tgz:21133.got - 2010.04.16 13:43:02.
