data_PCOD8211511
_publ_section_title
;
Structure prediction by ZEFSAII (Michael W. Deem and Ramdas Pophale) SiO2 
 PCOD8211511
Probable space group: P M M A
;
_chemical_formula_sum "Si O2"
_cell_formula_units_Z 64
_cell_length_a 23.007463
_cell_length_b 9.219814
_cell_length_c 15.349666
_cell_angle_alpha 90.000000
_cell_angle_beta 90.000000
_cell_angle_gamma 90.000000
_cell_volume 3256.040678
_symmetry_space_group_name_H-M "P M M A"
_symmetry_group_IT_number 51
_symmetry_cell_setting 'orthorhombic'
loop_
_space_group_symop_operation_xyz
x,y,z
1/2-x,-y,z
1/2+x,-y,-z
-x,y,-z
-x,-y,-z
1/2+x,y,-z
1/2-x,y,z
x,-y,z
loop_
_atom_site_type_symbol
_atom_site_label
_atom_site_fract_x
_atom_site_fract_y
_atom_site_fract_z
Si Si1 0.355015 0.165309 0.358436
Si Si2 0.315763 0.327993 0.018154
Si Si3 0.130060 0.669139 0.838198
Si Si4 0.816454 0.659995 0.481321
Si Si5 0.880296 0.671331 0.809252
Si Si6 0.681231 0.162213 0.320733
Si Si7 0.011070 0.164048 0.404610
Si Si8 0.508858 0.333159 0.238372
O O1 0.318263 0.251788 0.429213
O O2 0.346010 0.244493 0.266347
O O3 0.421224 0.172331 0.386718
O O4 0.332611 0.000000 0.352012
O O5 0.250000 0.265182 0.020688
O O6 0.313489 0.500000 0.018996
O O7 0.352676 0.272772 0.100673
O O8 0.349228 0.273497 0.932144
O O9 0.144803 0.500000 0.825819
O O10 0.165886 0.757177 0.767680
O O11 0.061007 0.697716 0.829077
O O12 0.750000 0.637025 0.455945
O O13 0.846074 0.500000 0.490136
O O14 0.846424 0.751020 0.403008
O O15 0.871410 0.500000 0.795941
O O16 0.948638 0.714219 0.807718
O O17 0.750000 0.153403 0.329664
O O18 0.654745 0.000000 0.320776
O O19 0.977781 0.248849 0.328124
O O20 0.000000 0.234209 0.500000
O O21 0.987462 0.000000 0.403622
O O22 0.505546 0.500000 0.265093
#
# Coordination Sequence:
#
# PCOD8211511 Si02
#       8
#     8   8   8   8   8   8   8   8
#     4  10  20  34  53  78 108 141 178 224 274 322
#     4   9  18  33  56  83 107 138 182 230 280 333
#     4  10  20  34  54  81 110 140 179 226 277 331
#     4  10  21  36  54  77 106 142 182 222 268 324
#     4   9  18  35  55  76 108 145 184 228 274 328
#     4  10  21  36  53  75 106 143 180 221 271 327
#     4   9  19  34  51  73 103 142 182 219 263 318
#     4   9  19  33  50  78 109 141 181 225 274 324
#
# _framework density 19.655774000000001
#
# number of rings (size 3 to 8) (size 9 to 14) (size 15 to 20)
#    0.000    2.500    0.000    1.500    1.750    4.250 
#    0.000    4.375    0.000    0.750    0.000    4.375 
#    0.000    0.000    0.000    0.000    0.000    0.000 
#
# Total GULP energy -793574.104378 kJ/mol
# GULP energy per Si atom -12399.595381 kJ/mol
# Density = 1.961104 g / cm^3
# Si number density = 19.655774 Si / 1000 Ang^3
#
#
#
# Elastic Constant Matrix: (Units=GPa)
#
#
# Indices 1 2 3 4 5 6 
#
# 1 59.1832 26.4602 57.4892 0.0000 0.0000 0.0000
# 2 26.4602 95.1071 67.3949 0.0000 0.0000 0.0000
# 3 57.4892 67.3949 194.1515 0.0000 0.0000 0.0000
# 4 0.0000 0.0000 0.0000 8.7576 0.0000 0.0000
# 5 0.0000 0.0000 0.0000 0.0000 32.5050 0.0000
# 6 0.0000 0.0000 0.0000 0.0000 0.0000 17.4606
#
#
#
# Elastic Compliance Matrix: (Units=1/GPa)
#
#
# Indices 1 2 3 4 5 6 
#
# 1 0.024056 -0.002182 -0.006366 0.000000 0.000000 0.000000
# 2 -0.002182 0.014142 -0.004263 0.000000 0.000000 0.000000
# 3 -0.006366 -0.004263 0.008515 0.000000 0.000000 0.000000
# 4 0.000000 0.000000 0.000000 0.114186 0.000000 0.000000
# 5 0.000000 0.000000 0.000000 0.000000 0.030764 0.000000
# 6 0.000000 0.000000 0.000000 0.000000 0.000000 0.057272
#
#
# Mechanical properties :
#
#
# Convention : Reuss Voigt Hill
#
# Bulk Modulus (GPa) = 47.41089 72.34781 59.87935
# Shear Modulus (GPa) = 17.75646 24.88450 21.32048
#
# Velocity S-wave (km/s) = 3.00887 3.56197 3.29704
# Velocity P-wave (km/s) = 6.02030 7.33513 6.71000
#
# Compressibility (1/GPa) = 0.02109220
#
# Stress axis : x y z
#
# Youngs Moduli (GPa) = 41.57050 70.70916 117.43509
#
# Poissons Ratio (x) = 0.15427 0.74754
# Poissons Ratio (y) = 0.09070 0.50064
# Poissons Ratio (z) = 0.26462 0.30144
#
# Static dielectric constant tensor:
#      x y z
#    x 3.512590 0.000000 0.000000 
#    y 0.000000 3.656470 0.000000 
#    z 0.000000 0.000000 3.682510 
# 
# 
# High freq. dielectric constant tensor:
#      x y z
#    x 1.759700 0.000000 0.000000 
#    y 0.000000 1.751570 0.000000 
#    z 0.000000 0.000000 1.767550 
# 
# From -- ./inp_files/26218.got.cif
#   From: 2010.03.12/outbox.cif.g09.slc.cpg/sg51_14_cif.got.tgz:26218.got - 2010.04.16 13:43:02.
