data_PCOD8211898
_publ_section_title
;
Structure prediction by ZEFSAII (Michael W. Deem and Ramdas Pophale) SiO2 
 PCOD8211898
Probable space group: P M M A
;
_chemical_formula_sum "Si O2"
_cell_formula_units_Z 48
_cell_length_a 8.770570
_cell_length_b 20.550336
_cell_length_c 14.038688
_cell_angle_alpha 90.000000
_cell_angle_beta 90.000000
_cell_angle_gamma 90.000000
_cell_volume 2530.307300
_symmetry_space_group_name_H-M "P M M A"
_symmetry_group_IT_number 51
_symmetry_cell_setting 'orthorhombic'
loop_
_space_group_symop_operation_xyz
x,y,z
1/2-x,-y,z
1/2+x,-y,-z
-x,y,-z
-x,-y,-z
1/2+x,y,-z
1/2-x,y,z
x,-y,z
loop_
_atom_site_type_symbol
_atom_site_label
_atom_site_fract_x
_atom_site_fract_y
_atom_site_fract_z
Si Si1 0.430373 0.328394 0.600234
Si Si2 0.069323 0.500000 0.895281
Si Si3 0.929967 0.000000 0.895701
Si Si4 0.429207 0.178745 0.599670
Si Si5 0.429488 0.619322 0.216166
Si Si6 0.430812 0.128095 0.215040
Si Si7 0.927963 0.252349 0.898383
O O1 0.500000 0.350181 0.500000
O O2 0.250000 0.338500 0.599701
O O3 0.475154 0.253461 0.621679
O O4 0.507268 0.375800 0.677048
O O5 0.250000 0.500000 0.904362
O O6 0.015705 0.437021 0.838862
O O7 0.000000 0.500000 0.000000
O O8 0.985702 0.937301 0.836990
O O9 0.750000 0.000000 0.907916
O O10 0.000000 0.000000 0.000000
O O11 0.500000 0.155883 0.500000
O O12 0.250000 0.170206 0.593256
O O13 0.494704 0.131778 0.680998
O O14 0.250000 0.604924 0.217176
O O15 0.471514 0.686380 0.165237
O O16 0.250000 0.130854 0.227589
O O17 0.493192 0.187881 0.151870
O O18 0.750000 0.245206 0.913057
O O19 0.000000 0.262454 0.000000
#
# Coordination Sequence:
#
# PCOD8211898 Si02
#       7
#     8   4   4   8   8   8   8
#     4  10  20  35  58  89 121 154 192 238 293 351
#     4  12  26  44  63  86 119 160 200 242 292 350
#     4  10  22  38  59  82 115 158 197 240 292 348
#     4  10  20  34  57  87 117 152 190 238 292 348
#     4  11  22  39  61  87 117 155 196 241 293 347
#     4  10  20  37  56  82 115 152 194 240 291 344
#     4  10  21  34  54  81 112 145 187 240 289 338
#
# _framework density 18.970029
#
# number of rings (size 3 to 8) (size 9 to 14) (size 15 to 20)
#    0.000    1.667    1.667    3.250    0.000    5.333 
#    0.000    0.833    0.000    0.000    0.000    0.000 
#    0.000    0.000    0.000    0.000    0.000    0.000 
#
# Total GULP energy -595425.248513 kJ/mol
# GULP energy per Si atom -12404.692677 kJ/mol
# Density = 1.892685 g / cm^3
# Si number density = 18.970029 Si / 1000 Ang^3
#
#
#
# Elastic Constant Matrix: (Units=GPa)
#
#
# Indices 1 2 3 4 5 6 
#
# 1 75.6656 60.0893 68.5746 0.0000 0.0000 0.0000
# 2 60.0893 112.4144 67.2296 0.0000 0.0000 0.0000
# 3 68.5746 67.2296 175.8773 0.0000 0.0000 0.0000
# 4 0.0000 0.0000 0.0000 51.1548 0.0000 0.0000
# 5 0.0000 0.0000 0.0000 0.0000 40.9617 0.0000
# 6 0.0000 0.0000 0.0000 0.0000 0.0000 12.2616
#
#
#
# Elastic Compliance Matrix: (Units=1/GPa)
#
#
# Indices 1 2 3 4 5 6 
#
# 1 0.028016 -0.010945 -0.006740 0.000000 0.000000 0.000000
# 2 -0.010945 0.015808 -0.001775 0.000000 0.000000 0.000000
# 3 -0.006740 -0.001775 0.008992 0.000000 0.000000 0.000000
# 4 0.000000 0.000000 0.000000 0.019549 0.000000 0.000000
# 5 0.000000 0.000000 0.000000 0.000000 0.024413 0.000000
# 6 0.000000 0.000000 0.000000 0.000000 0.000000 0.081555
#
#
# Mechanical properties :
#
#
# Convention : Reuss Voigt Hill
#
# Bulk Modulus (GPa) = 71.96105 83.97160 77.96632
# Shear Modulus (GPa) = 22.53432 32.07988 27.30710
#
# Velocity S-wave (km/s) = 3.45032 4.11674 3.79817
# Velocity P-wave (km/s) = 7.34094 8.18280 7.77327
#
# Compressibility (1/GPa) = 0.01389641
#
# Stress axis : x y z
#
# Youngs Moduli (GPa) = 35.69416 63.26068 111.20798
#
# Poissons Ratio (x) = 0.69237 0.74951
# Poissons Ratio (y) = 0.39066 0.19741
# Poissons Ratio (z) = 0.24057 0.11230
#
# Static dielectric constant tensor:
#      x y z
#    x 3.393430 0.000000 0.000000 
#    y 0.000000 3.547080 0.000000 
#    z 0.000000 0.000000 3.550920 
# 
# 
# High freq. dielectric constant tensor:
#      x y z
#    x 1.740780 0.000000 0.000000 
#    y 0.000000 1.725640 0.000000 
#    z 0.000000 0.000000 1.754090 
# 
# From -- ./inp_files/21227.got.cif
#   From: 2010.03.12/outbox.cif.g09.slc.cpg/sg51_11_cif.got.tgz:21227.got - 2010.04.16 13:43:02.
