data_PCOD8211114
_publ_section_title
;
Structure prediction by ZEFSAII (Michael W. Deem and Ramdas Pophale) SiO2 
 PCOD8211114
Probable space group: P M M A
;
_chemical_formula_sum "Si O2"
_cell_formula_units_Z 64
_cell_length_a 15.468805
_cell_length_b 8.988620
_cell_length_c 23.130687
_cell_angle_alpha 90.000000
_cell_angle_beta 90.000000
_cell_angle_gamma 90.000000
_cell_volume 3216.164970
_symmetry_space_group_name_H-M "P M M A"
_symmetry_group_IT_number 51
_symmetry_cell_setting 'orthorhombic'
loop_
_space_group_symop_operation_xyz
x,y,z
1/2-x,-y,z
1/2+x,-y,-z
-x,y,-z
-x,-y,-z
1/2+x,y,-z
1/2-x,y,z
x,-y,z
loop_
_atom_site_type_symbol
_atom_site_label
_atom_site_fract_x
_atom_site_fract_y
_atom_site_fract_z
Si Si1 0.348197 0.171231 0.543930
Si Si2 0.347037 0.333339 0.967462
Si Si3 0.015769 0.323918 0.756826
Si Si4 0.404866 0.833063 0.075322
Si Si5 0.411808 0.831425 0.864002
Si Si6 0.650917 0.674774 0.575962
Si Si7 0.344372 0.669188 0.181330
Si Si8 0.993042 0.824446 0.363147
O O1 0.250000 0.196919 0.566723
O O2 0.367712 0.273487 0.489081
O O3 0.416979 0.217400 0.592351
O O4 0.361428 0.000000 0.525244
O O5 0.250000 0.335537 0.991862
O O6 0.382637 0.500000 0.957688
O O7 0.344108 0.248239 0.906120
O O8 0.406238 0.253736 0.014993
O O9 0.027993 0.500000 0.751471
O O10 0.081735 0.259616 0.804349
O O11 0.037459 0.246739 0.696659
O O12 0.917536 0.277634 0.773872
O O13 0.499536 0.827398 0.101268
O O14 0.341260 0.762128 0.122379
O O15 0.373751 0.000000 0.062646
O O16 0.382812 0.000000 0.850216
O O17 0.750000 0.713701 0.593414
O O18 0.633766 0.500000 0.580423
O O19 0.585427 0.757632 0.618650
O O20 0.250000 0.684950 0.211306
O O21 0.364295 0.500000 0.163363
O O22 0.003432 0.000000 0.356188
#
# Coordination Sequence:
#
# PCOD8211114 Si02
#       8
#     8   8   8   8   8   8   8   8
#     4   9  19  37  59  83 113 148 186 229 278 330
#     4  11  23  36  52  77 106 134 168 212 263 320
#     4  10  21  37  56  77 105 143 184 226 269 316
#     4  10  20  33  52  79 106 132 167 210 258 317
#     4  10  21  38  57  76 101 135 175 218 264 316
#     4  10  21  36  56  85 120 154 186 223 272 330
#     4   9  18  33  52  74 102 137 175 215 263 319
#     4  11  22  36  57  84 113 148 190 234 278 327
#
# _framework density 19.899476
#
# number of rings (size 3 to 8) (size 9 to 14) (size 15 to 20)
#    0.000    2.000    0.000    3.375    0.000   10.000 
#    0.000    1.875    0.000    2.250    0.000    0.000 
#    0.000    0.000    0.000    0.000    0.000    0.000 
#
# Total GULP energy -793679.386411 kJ/mol
# GULP energy per Si atom -12401.240413 kJ/mol
# Density = 1.985418 g / cm^3
# Si number density = 19.899476 Si / 1000 Ang^3
#
#
#
# Elastic Constant Matrix: (Units=GPa)
#
#
# Indices 1 2 3 4 5 6 
#
# 1 45.7620 23.7027 20.9831 0.0000 0.0000 0.0000
# 2 23.7027 115.6376 50.5880 0.0000 0.0000 0.0000
# 3 20.9831 50.5880 108.5279 0.0000 0.0000 0.0000
# 4 0.0000 0.0000 0.0000 38.9006 0.0000 0.0000
# 5 0.0000 0.0000 0.0000 0.0000 20.1443 0.0000
# 6 0.0000 0.0000 0.0000 0.0000 0.0000 20.6658
#
#
#
# Elastic Compliance Matrix: (Units=1/GPa)
#
#
# Indices 1 2 3 4 5 6 
#
# 1 0.025253 -0.003819 -0.003102 0.000000 0.000000 0.000000
# 2 -0.003819 0.011440 -0.004594 0.000000 0.000000 0.000000
# 3 -0.003102 -0.004594 0.011956 0.000000 0.000000 0.000000
# 4 0.000000 0.000000 0.000000 0.025707 0.000000 0.000000
# 5 0.000000 0.000000 0.000000 0.000000 0.049642 0.000000
# 6 0.000000 0.000000 0.000000 0.000000 0.000000 0.048389
#
#
# Mechanical properties :
#
#
# Convention : Reuss Voigt Hill
#
# Bulk Modulus (GPa) = 39.03583 51.16388 45.09986
# Shear Modulus (GPa) = 24.51502 27.58571 26.05037
#
# Velocity S-wave (km/s) = 3.51371 3.72728 3.62207
# Velocity P-wave (km/s) = 6.01005 6.65511 6.34079
#
# Compressibility (1/GPa) = 0.02561749
#
# Stress axis : x y z
#
# Youngs Moduli (GPa) = 39.59967 87.40968 83.64299
#
# Poissons Ratio (x) = 0.33382 0.25948
# Poissons Ratio (y) = 0.15123 0.38428
# Poissons Ratio (z) = 0.12285 0.40159
#
# Static dielectric constant tensor:
#      x y z
#    x 3.568520 0.000000 0.000000 
#    y 0.000000 3.769730 0.000000 
#    z 0.000000 0.000000 3.499540 
# 
# 
# High freq. dielectric constant tensor:
#      x y z
#    x 1.770150 0.000000 0.000000 
#    y 0.000000 1.786150 0.000000 
#    z 0.000000 0.000000 1.765570 
# 
# From -- ./inp_files/35697.got.cif
#   From: 2010.03.12/outbox.cif.g09.slc.cpg/sg51_18_cif.got.tgz:35697.got - 2010.04.16 13:43:02.
