data_PCOD8211711
_publ_section_title
;
Structure prediction by ZEFSAII (Michael W. Deem and Ramdas Pophale) SiO2 
 PCOD8211711
Probable space group: P M M A
;
_chemical_formula_sum "Si O2"
_cell_formula_units_Z 48
_cell_length_a 16.307652
_cell_length_b 9.353668
_cell_length_c 16.295848
_cell_angle_alpha 90.000000
_cell_angle_beta 90.000000
_cell_angle_gamma 90.000000
_cell_volume 2485.709381
_symmetry_space_group_name_H-M "P M M A"
_symmetry_group_IT_number 51
_symmetry_cell_setting 'orthorhombic'
loop_
_space_group_symop_operation_xyz
x,y,z
1/2-x,-y,z
1/2+x,-y,-z
-x,y,-z
-x,-y,-z
1/2+x,y,-z
1/2-x,y,z
x,-y,z
loop_
_atom_site_type_symbol
_atom_site_label
_atom_site_fract_x
_atom_site_fract_y
_atom_site_fract_z
Si Si1 0.577692 0.168833 0.945152
Si Si2 0.250000 0.168440 0.973356
Si Si3 0.846183 0.659288 0.619964
Si Si4 0.104933 0.662349 0.688266
Si Si5 0.846597 0.834060 0.465356
Si Si6 0.934418 0.337302 0.778471
Si Si7 0.750000 0.332772 0.194979
O O1 0.666341 0.216507 0.980663
O O2 0.569638 0.235983 0.856064
O O3 0.573670 0.000000 0.935220
O O4 0.500000 0.221900 0.000000
O O5 0.250000 0.000000 0.959424
O O6 0.250000 0.243664 0.886950
O O7 0.750000 0.652144 0.612416
O O8 0.884467 0.500000 0.607664
O O9 0.880006 0.764357 0.549673
O O10 0.868423 0.715020 0.710904
O O11 0.122891 0.500000 0.659646
O O12 0.104764 0.762741 0.609134
O O13 0.171959 0.714375 0.752858
O O14 0.020602 0.677495 0.734624
O O15 0.750000 0.807075 0.453379
O O16 0.868391 0.000000 0.468422
O O17 0.917667 0.500000 0.807025
O O18 0.750000 0.500000 0.172942
#
# Coordination Sequence:
#
# PCOD8211711 Si02
#       7
#     8   4   8   8   8   8   4
#     4  10  22  40  59  82 115 151 186 230 287 344
#     4  10  22  38  58  83 110 147 188 227 282 345
#     4   9  19  36  56  77 108 148 186 227 278 329
#     4  10  20  35  55  81 114 146 180 226 280 332
#     4  10  20  34  54  82 111 145 190 230 270 324
#     4  10  22  37  57  85 111 142 187 234 277 328
#     4  10  20  34  56  83 108 141 182 223 276 335
#
# _framework density 19.310383000000002
#
# number of rings (size 3 to 8) (size 9 to 14) (size 15 to 20)
#    0.000    2.167    0.833    1.500    1.167    4.333 
#    0.000    3.333    0.000    0.000    0.000    0.000 
#    0.000    0.000    0.000    0.000    0.000    0.000 
#
# Total GULP energy -595201.739167 kJ/mol
# GULP energy per Si atom -12400.036233 kJ/mol
# Density = 1.926643 g / cm^3
# Si number density = 19.310383 Si / 1000 Ang^3
#
#
#
# Elastic Constant Matrix: (Units=GPa)
#
#
# Indices 1 2 3 4 5 6 
#
# 1 64.9366 30.2132 37.0323 0.0000 0.0000 0.0000
# 2 30.2132 66.1098 68.3469 0.0000 0.0000 0.0000
# 3 37.0323 68.3469 157.7252 0.0000 0.0000 0.0000
# 4 0.0000 0.0000 0.0000 85.1678 0.0000 0.0000
# 5 0.0000 0.0000 0.0000 0.0000 22.2084 0.0000
# 6 0.0000 0.0000 0.0000 0.0000 0.0000 21.7059
#
#
#
# Elastic Compliance Matrix: (Units=1/GPa)
#
#
# Indices 1 2 3 4 5 6 
#
# 1 0.019707 -0.007650 -0.001312 0.000000 0.000000 0.000000
# 2 -0.007650 0.030372 -0.011365 0.000000 0.000000 0.000000
# 3 -0.001312 -0.011365 0.011573 0.000000 0.000000 0.000000
# 4 0.000000 0.000000 0.000000 0.011742 0.000000 0.000000
# 5 0.000000 0.000000 0.000000 0.000000 0.045028 0.000000
# 6 0.000000 0.000000 0.000000 0.000000 0.000000 0.046070
#
#
# Mechanical properties :
#
#
# Convention : Reuss Voigt Hill
#
# Bulk Modulus (GPa) = 47.62326 62.21738 54.92032
# Shear Modulus (GPa) = 23.56870 36.02838 29.79854
#
# Velocity S-wave (km/s) = 3.49738 4.32412 3.93254
# Velocity P-wave (km/s) = 6.40503 7.56441 7.00874
#
# Compressibility (1/GPa) = 0.02099814
#
# Stress axis : x y z
#
# Youngs Moduli (GPa) = 50.74277 32.92498 86.40833
#
# Poissons Ratio (x) = 0.25188 0.11337
# Poissons Ratio (y) = 0.38818 0.98203
# Poissons Ratio (z) = 0.06658 0.37419
#
# Static dielectric constant tensor:
#      x y z
#    x 3.762530 0.000000 0.000000 
#    y 0.000000 3.538610 0.000000 
#    z 0.000000 0.000000 3.524670 
# 
# 
# High freq. dielectric constant tensor:
#      x y z
#    x 1.757640 0.000000 0.000000 
#    y 0.000000 1.742660 0.000000 
#    z 0.000000 0.000000 1.759170 
# 
# From -- ./inp_files/24876.got.cif
#   From: 2010.03.12/outbox.cif.g09.slc.cpg/sg51_13_cif.got.tgz:24876.got - 2010.04.16 13:43:02.
