data_PCOD8211985
_publ_section_title
;
Structure prediction by ZEFSAII (Michael W. Deem and Ramdas Pophale) SiO2 
 PCOD8211985
Probable space group: P M M A
;
_chemical_formula_sum "Si O2"
_cell_formula_units_Z 48
_cell_length_a 9.061542
_cell_length_b 28.669763
_cell_length_c 10.255731
_cell_angle_alpha 90.000000
_cell_angle_beta 90.000000
_cell_angle_gamma 90.000000
_cell_volume 2664.359550
_symmetry_space_group_name_H-M "P M M A"
_symmetry_group_IT_number 51
_symmetry_cell_setting 'orthorhombic'
loop_
_space_group_symop_operation_xyz
x,y,z
1/2-x,-y,z
1/2+x,-y,-z
-x,y,-z
-x,-y,-z
1/2+x,y,-z
1/2-x,y,z
x,-y,z
loop_
_atom_site_type_symbol
_atom_site_label
_atom_site_fract_x
_atom_site_fract_y
_atom_site_fract_z
Si Si1 0.578339 0.714615 0.368681
Si Si2 0.076827 0.223133 0.868395
Si Si3 0.076446 0.606758 0.634038
Si Si4 0.419779 0.555141 0.131571
Si Si5 0.423116 0.946569 0.631563
Si Si6 0.076919 0.116243 0.868439
O O1 0.500000 0.731471 0.500000
O O2 0.750000 0.723658 0.389151
O O3 0.516432 0.745377 0.249675
O O4 0.543831 0.660881 0.337912
O O5 0.250000 0.229838 0.887178
O O6 0.034778 0.169684 0.838214
O O7 0.000000 0.240739 0.000000
O O8 0.250000 0.596184 0.625248
O O9 0.000000 0.590970 0.500000
O O10 0.004929 0.577373 0.748482
O O11 0.250000 0.571924 0.128394
O O12 0.430250 0.500000 0.146859
O O13 0.500000 0.571987 0.000000
O O14 0.500000 0.928930 0.500000
O O15 0.250000 0.940038 0.612457
O O16 0.482641 0.915156 0.749997
O O17 0.465447 0.000000 0.661789
O O18 0.250000 0.109663 0.887629
O O19 0.000000 0.098623 0.000000
#
# Coordination Sequence:
#
# PCOD8211985 Si02
#       6
#     8   8   8   8   8   8
#     4   9  19  34  51  73 100 129 162 201 243 288
#     4   9  18  33  50  70  97 127 161 199 240 287
#     4  10  20  35  54  76 103 134 168 206 248 294
#     4  10  21  37  56  78 104 134 168 206 248 294
#     4   9  18  32  48  68  95 125 158 197 240 286
#     4   9  18  32  49  69  95 126 159 198 241 286
#
# _framework density 18.015585999999999
#
# number of rings (size 3 to 8) (size 9 to 14) (size 15 to 20)
#    0.000    2.667    0.000    1.000    0.000    5.000 
#    0.000    1.667    0.000    0.000    0.000    0.000 
#    0.000    0.000    0.000    0.000    0.000    0.000 
#
# Total GULP energy -595330.880182 kJ/mol
# GULP energy per Si atom -12402.726670 kJ/mol
# Density = 1.797458 g / cm^3
# Si number density = 18.015586 Si / 1000 Ang^3
#
#
#
# Elastic Constant Matrix: (Units=GPa)
#
#
# Indices 1 2 3 4 5 6 
#
# 1 69.9005 33.6805 66.1662 0.0000 0.0000 0.0000
# 2 33.6805 48.0549 65.4705 0.0000 0.0000 0.0000
# 3 66.1662 65.4705 178.9788 0.0000 0.0000 0.0000
# 4 0.0000 0.0000 0.0000 42.5009 0.0000 0.0000
# 5 0.0000 0.0000 0.0000 0.0000 39.9521 0.0000
# 6 0.0000 0.0000 0.0000 0.0000 0.0000 -10.1067
#
#
#
# Elastic Compliance Matrix: (Units=1/GPa)
#
#
# Indices 1 2 3 4 5 6 
#
# 1 0.023973 -0.009425 -0.005415 0.000000 0.000000 0.000000
# 2 -0.009425 0.045189 -0.013046 0.000000 0.000000 0.000000
# 3 -0.005415 -0.013046 0.012361 0.000000 0.000000 0.000000
# 4 0.000000 0.000000 0.000000 0.023529 0.000000 0.000000
# 5 0.000000 0.000000 0.000000 0.000000 0.025030 0.000000
# 6 0.000000 0.000000 0.000000 0.000000 0.000000 -0.098944
#
#
# Mechanical properties :
#
#
# Convention : Reuss Voigt Hill
#
# Bulk Modulus (GPa) = 38.83184 69.72987 54.28085
# Shear Modulus (GPa) = 52.36014 23.24373 37.80193
#
# Velocity S-wave (km/s) = 5.39693 3.59583 4.58568
# Velocity P-wave (km/s) = 7.77414 7.48528 7.63107
#
# Compressibility (1/GPa) = 0.02575206
#
# Stress axis : x y z
#
# Youngs Moduli (GPa) = 41.71399 22.12930 80.89758
#
# Poissons Ratio (x) = 0.20856 0.43805
# Poissons Ratio (y) = 0.39314 1.05539
# Poissons Ratio (z) = 0.22588 0.28870
#
# Static dielectric constant tensor:
#      x y z
#    x 3.274830 0.000000 0.000000 
#    y 0.000000 3.336700 0.000000 
#    z 0.000000 0.000000 3.512550 
# 
# 
# High freq. dielectric constant tensor:
#      x y z
#    x 1.697370 0.000000 0.000000 
#    y 0.000000 1.691040 0.000000 
#    z 0.000000 0.000000 1.707730 
# 
# From -- ./inp_files/5939.got.cif
#   From: 2010.03.12/outbox.cif.g09.slc.cpg/sg51_3_cif.got.tgz:5939.got - 2010.04.16 13:43:02.
