data_PCOD8211686
_publ_section_title
;
Structure prediction by ZEFSAII (Michael W. Deem and Ramdas Pophale) SiO2 
 PCOD8211686
Probable space group: P M M A
;
_chemical_formula_sum "Si O2"
_cell_formula_units_Z 44
_cell_length_a 8.761316
_cell_length_b 28.435361
_cell_length_c 9.297024
_cell_angle_alpha 90.000000
_cell_angle_beta 90.000000
_cell_angle_gamma 90.000000
_cell_volume 2316.178590
_symmetry_space_group_name_H-M "P M M A"
_symmetry_group_IT_number 51
_symmetry_cell_setting 'orthorhombic'
loop_
_space_group_symop_operation_xyz
x,y,z
1/2-x,-y,z
1/2+x,-y,-z
-x,y,-z
-x,-y,-z
1/2+x,y,-z
1/2-x,y,z
x,-y,z
loop_
_atom_site_type_symbol
_atom_site_label
_atom_site_fract_x
_atom_site_fract_y
_atom_site_fract_z
Si Si1 0.427650 0.630496 0.154886
Si Si2 0.567907 0.000000 0.840577
Si Si3 0.428273 0.174533 0.843109
Si Si4 0.430394 0.083948 0.658569
Si Si5 0.072700 0.732989 0.155553
Si Si6 0.429176 0.552947 0.650054
O O1 0.250000 0.618189 0.144141
O O2 0.452220 0.681851 0.231577
O O3 0.512765 0.588970 0.233568
O O4 0.500000 0.633140 0.000000
O O5 0.510913 0.045302 0.755844
O O6 0.750000 0.000000 0.850086
O O7 0.500000 0.000000 0.000000
O O8 0.250000 0.179438 0.866897
O O9 0.468834 0.133481 0.732327
O O10 0.491980 0.222573 0.767598
O O11 0.500000 0.164726 0.000000
O O12 0.500000 0.083013 0.500000
O O13 0.250000 0.074125 0.650659
O O14 0.250000 0.744377 0.141372
O O15 0.000000 0.729937 0.000000
O O16 0.500000 0.568227 0.500000
O O17 0.250000 0.556670 0.636120
O O18 0.479867 0.500000 0.692763
#
# Coordination Sequence:
#
# PCOD8211686 Si02
#       6
#     8   4   8   8   8   8
#     4  10  20  34  54  81 110 142 180 224 273 323
#     4  12  25  42  65  90 116 148 188 232 275 326
#     4  10  20  34  56  83 110 144 185 226 270 321
#     4  11  24  41  60  85 117 152 188 229 279 329
#     4   9  17  30  51  78 108 141 178 221 269 319
#     4  10  21  37  56  77 103 138 178 221 271 327
#
# _framework density 18.996807
#
# number of rings (size 3 to 8) (size 9 to 14) (size 15 to 20)
#    0.000    1.818    0.000    5.455    0.000    8.000 
#    0.000    0.909    0.000    2.182    0.000    0.000 
#    0.000    0.000    0.000    0.000    0.000    0.000 
#
# Total GULP energy -545385.497053 kJ/mol
# GULP energy per Si atom -12395.124933 kJ/mol
# Density = 1.895357 g / cm^3
# Si number density = 18.996807 Si / 1000 Ang^3
#
#
#
# Elastic Constant Matrix: (Units=GPa)
#
#
# Indices 1 2 3 4 5 6 
#
# 1 97.6862 51.2151 41.3741 0.0000 0.0000 0.0000
# 2 51.2151 138.2927 61.6708 0.0000 0.0000 0.0000
# 3 41.3741 61.6708 95.7949 0.0000 0.0000 0.0000
# 4 0.0000 0.0000 0.0000 -108.1478 0.0000 0.0000
# 5 0.0000 0.0000 0.0000 0.0000 33.1645 0.0000
# 6 0.0000 0.0000 0.0000 0.0000 0.0000 41.4911
#
#
#
# Elastic Compliance Matrix: (Units=1/GPa)
#
#
# Indices 1 2 3 4 5 6 
#
# 1 0.013571 -0.003383 -0.003683 0.000000 0.000000 0.000000
# 2 -0.003383 0.010986 -0.005612 0.000000 0.000000 0.000000
# 3 -0.003683 -0.005612 0.015642 0.000000 0.000000 0.000000
# 4 0.000000 0.000000 0.000000 -0.009247 0.000000 0.000000
# 5 0.000000 0.000000 0.000000 0.000000 0.030153 0.000000
# 6 0.000000 0.000000 0.000000 0.000000 0.000000 0.024102
#
#
# Mechanical properties :
#
#
# Convention : Reuss Voigt Hill
#
# Bulk Modulus (GPa) = 67.36980 71.14376 69.25678
# Shear Modulus (GPa) = 43.28600 5.13583 24.21092
#
# Velocity S-wave (km/s) = 4.77864 1.64602 3.57385
# Velocity P-wave (km/s) = 8.12330 6.41437 7.31888
#
# Compressibility (1/GPa) = 0.01484345
#
# Stress axis : x y z
#
# Youngs Moduli (GPa) = 73.68877 91.02119 63.92900
#
# Poissons Ratio (x) = 0.30795 0.23546
# Poissons Ratio (y) = 0.24931 0.35874
# Poissons Ratio (z) = 0.27140 0.51078
#
# Static dielectric constant tensor:
#      x y z
#    x 3.695150 0.000000 0.000000 
#    y 0.000000 4.226660 0.000000 
#    z 0.000000 0.000000 3.275710 
# 
# 
# High freq. dielectric constant tensor:
#      x y z
#    x 1.759830 0.000000 0.000000 
#    y 0.000000 1.765300 0.000000 
#    z 0.000000 0.000000 1.707760 
# 
# From -- ./inp_files/5880.got.cif
#   From: 2010.03.12/outbox.cif.g09.slc.cpg/sg51_3_cif.got.tgz:5880.got - 2010.04.16 13:43:02.
