data_PCOD8211421
_publ_section_title
;
Structure prediction by ZEFSAII (Michael W. Deem and Ramdas Pophale) SiO2 
 PCOD8211421
Probable space group: P M M A
;
_chemical_formula_sum "Si O2"
_cell_formula_units_Z 64
_cell_length_a 8.995983
_cell_length_b 14.135550
_cell_length_c 31.184073
_cell_angle_alpha 90.000000
_cell_angle_beta 90.000000
_cell_angle_gamma 90.000000
_cell_volume 3965.465498
_symmetry_space_group_name_H-M "P M M A"
_symmetry_group_IT_number 51
_symmetry_cell_setting 'orthorhombic'
loop_
_space_group_symop_operation_xyz
x,y,z
1/2-x,-y,z
1/2+x,-y,-z
-x,y,-z
-x,-y,-z
1/2+x,y,-z
1/2-x,y,z
x,-y,z
loop_
_atom_site_type_symbol
_atom_site_label
_atom_site_fract_x
_atom_site_fract_y
_atom_site_fract_z
Si Si1 0.077091 0.893109 0.172511
Si Si2 0.917639 0.387303 0.626074
Si Si3 0.575346 0.720817 0.957717
Si Si4 0.423845 0.391567 0.711001
Si Si5 0.577571 0.609958 0.871866
Si Si6 0.574258 0.280824 0.204594
Si Si7 0.082457 0.612834 0.542135
Si Si8 0.576947 0.892251 0.081918
O O1 0.250000 0.869848 0.166103
O O2 0.004200 0.821703 0.206529
O O3 0.996623 0.875283 0.127798
O O4 0.052782 0.000000 0.189102
O O5 0.750000 0.349593 0.624561
O O6 0.924080 0.500000 0.625472
O O7 0.993937 0.349362 0.669400
O O8 0.002506 0.346829 0.584537
O O9 0.750000 0.731620 0.964897
O O10 0.537356 0.653128 0.917987
O O11 0.504250 0.824597 0.951675
O O12 0.500000 0.675545 0.000000
O O13 0.250000 0.381947 0.702390
O O14 0.469479 0.500000 0.719145
O O15 0.475808 0.333899 0.752415
O O16 0.750000 0.626970 0.860776
O O17 0.536918 0.500000 0.872987
O O18 0.478213 0.659773 0.836232
O O19 0.750000 0.268102 0.202207
O O20 0.250000 0.651125 0.541594
O O21 0.079248 0.500000 0.542305
O O22 0.000000 0.652087 0.500000
O O23 0.750000 0.866290 0.085368
O O24 0.553457 0.000000 0.066610
#
# Coordination Sequence:
#
# PCOD8211421 Si02
#       8
#     8   8   8   8   8   8   8   8
#     4  10  20  34  53  76 101 127 152 181 222 271
#     4   9  16  25  37  54  77 108 148 192 236 279
#     4  11  23  38  56  76 100 128 156 188 225 268
#     4   9  18  31  44  62  90 122 155 191 232 275
#     4  10  22  39  56  74  97 125 157 192 229 269
#     4  11  21  33  53  77  99 123 155 192 230 273
#     4   9  15  22  33  49  71 102 142 190 239 283
#     4  10  20  35  56  80 103 125 150 182 221 267
#
# _framework density 16.139340000000001
#
# number of rings (size 3 to 8) (size 9 to 14) (size 15 to 20)
#    0.000    2.125    1.250    2.625    0.000    7.250 
#    0.000    1.250    0.000    0.000    0.000    0.000 
#    0.000    0.000    0.000    0.000    0.000    0.625 
#
# Total GULP energy -793708.315779 kJ/mol
# GULP energy per Si atom -12401.692434 kJ/mol
# Density = 1.610261 g / cm^3
# Si number density = 16.139340 Si / 1000 Ang^3
#
#
#
# Elastic Constant Matrix: (Units=GPa)
#
#
# Indices 1 2 3 4 5 6 
#
# 1 103.7115 34.6648 66.3117 0.0000 0.0000 0.0000
# 2 34.6648 67.7010 40.5353 0.0000 0.0000 0.0000
# 3 66.3117 40.5353 129.9959 0.0000 0.0000 0.0000
# 4 0.0000 0.0000 0.0000 6.0470 0.0000 0.0000
# 5 0.0000 0.0000 0.0000 0.0000 31.7241 0.0000
# 6 0.0000 0.0000 0.0000 0.0000 0.0000 19.8881
#
#
#
# Elastic Compliance Matrix: (Units=1/GPa)
#
#
# Indices 1 2 3 4 5 6 
#
# 1 0.015076 -0.003830 -0.006496 0.000000 0.000000 0.000000
# 2 -0.003830 0.019134 -0.004013 0.000000 0.000000 0.000000
# 3 -0.006496 -0.004013 0.012258 0.000000 0.000000 0.000000
# 4 0.000000 0.000000 0.000000 0.165372 0.000000 0.000000
# 5 0.000000 0.000000 0.000000 0.000000 0.031522 0.000000
# 6 0.000000 0.000000 0.000000 0.000000 0.000000 0.050281
#
#
# Mechanical properties :
#
#
# Convention : Reuss Voigt Hill
#
# Bulk Modulus (GPa) = 56.21041 64.93688 60.57364
# Shear Modulus (GPa) = 15.23230 22.19161 18.71195
#
# Velocity S-wave (km/s) = 3.07546 3.71212 3.40869
# Velocity P-wave (km/s) = 6.89312 7.66131 7.28734
#
# Compressibility (1/GPa) = 0.01779030
#
# Stress axis : x y z
#
# Youngs Moduli (GPa) = 66.33217 52.26168 81.58270
#
# Poissons Ratio (x) = 0.20015 0.52996
# Poissons Ratio (y) = 0.25404 0.32739
# Poissons Ratio (z) = 0.43089 0.20972
#
# Static dielectric constant tensor:
#      x y z
#    x 3.191830 0.000000 0.000000 
#    y 0.000000 2.891390 0.000000 
#    z 0.000000 0.000000 3.093690 
# 
# 
# High freq. dielectric constant tensor:
#      x y z
#    x 1.637650 0.000000 0.000000 
#    y 0.000000 1.579170 0.000000 
#    z 0.000000 0.000000 1.614930 
# 
# From -- ./inp_files/37658.got.cif
#   From: 2010.03.12/outbox.cif.g09.slc.cpg/sg51_19_cif.got.tgz:37658.got - 2010.04.16 13:43:02.
