data_PCOD8211685
_publ_section_title
;
Structure prediction by ZEFSAII (Michael W. Deem and Ramdas Pophale) SiO2 
 PCOD8211685
Probable space group: P M M A
;
_chemical_formula_sum "Si O2"
_cell_formula_units_Z 48
_cell_length_a 8.841505
_cell_length_b 30.310547
_cell_length_c 9.569053
_cell_angle_alpha 90.000000
_cell_angle_beta 90.000000
_cell_angle_gamma 90.000000
_cell_volume 2564.418674
_symmetry_space_group_name_H-M "P M M A"
_symmetry_group_IT_number 51
_symmetry_cell_setting 'orthorhombic'
loop_
_space_group_symop_operation_xyz
x,y,z
1/2-x,-y,z
1/2+x,-y,-z
-x,y,-z
-x,-y,-z
1/2+x,y,-z
1/2-x,y,z
x,-y,z
loop_
_atom_site_type_symbol
_atom_site_label
_atom_site_fract_x
_atom_site_fract_y
_atom_site_fract_z
Si Si1 0.425706 0.284743 0.650123
Si Si2 0.428597 0.882468 0.151357
Si Si3 0.071873 0.198551 0.347520
Si Si4 0.073991 0.381407 0.650361
Si Si5 0.073090 0.550443 0.145046
Si Si6 0.575020 0.948141 0.355862
O O1 0.500000 0.288104 0.500000
O O2 0.250000 0.273311 0.635466
O O3 0.508499 0.243630 0.725968
O O4 0.448743 0.332829 0.722333
O O5 0.250000 0.887503 0.135994
O O6 0.475193 0.840970 0.246153
O O7 0.494392 0.926097 0.223719
O O8 0.500000 0.876134 0.000000
O O9 0.250000 0.202193 0.365166
O O10 0.000000 0.190742 0.500000
O O11 0.250000 0.392670 0.636299
O O12 0.000000 0.381847 0.500000
O O13 0.993421 0.418863 0.737075
O O14 0.250000 0.558013 0.132944
O O15 0.032831 0.500000 0.182621
O O16 0.000000 0.564686 0.000000
O O17 0.500000 0.931493 0.500000
O O18 0.750000 0.934626 0.359945
O O19 0.552105 0.000000 0.337384
#
# Coordination Sequence:
#
# PCOD8211685 Si02
#       6
#     8   8   8   8   8   8
#     4   9  17  30  51  78 106 137 173 215 263 313
#     4  11  24  39  56  80 111 147 184 224 272 322
#     4  10  20  34  55  81 106 138 179 220 264 315
#     4  10  20  34  54  81 110 140 176 219 267 317
#     4  10  21  37  56  77 103 138 178 219 265 318
#     4  10  21  38  61  87 113 143 181 224 268 317
#
# _framework density 18.717693000000001
#
# number of rings (size 3 to 8) (size 9 to 14) (size 15 to 20)
#    0.000    2.000    0.000    4.500    0.000    8.667 
#    0.000    0.833    0.000    2.000    0.000    0.000 
#    0.000    0.000    0.000    0.000    0.000    0.000 
#
# Total GULP energy -595106.508279 kJ/mol
# GULP energy per Si atom -12398.052256 kJ/mol
# Density = 1.867509 g / cm^3
# Si number density = 18.717693 Si / 1000 Ang^3
#
#
#
# Elastic Constant Matrix: (Units=GPa)
#
#
# Indices 1 2 3 4 5 6 
#
# 1 96.2664 51.7437 49.5353 0.0000 0.0000 0.0000
# 2 51.7437 98.4025 59.7619 0.0000 0.0000 0.0000
# 3 49.5353 59.7619 101.0787 0.0000 0.0000 0.0000
# 4 0.0000 0.0000 0.0000 0.4057 0.0000 0.0000
# 5 0.0000 0.0000 0.0000 0.0000 34.0761 0.0000
# 6 0.0000 0.0000 0.0000 0.0000 0.0000 42.6987
#
#
#
# Elastic Compliance Matrix: (Units=1/GPa)
#
#
# Indices 1 2 3 4 5 6 
#
# 1 0.015626 -0.005564 -0.004368 0.000000 0.000000 0.000000
# 2 -0.005564 0.017837 -0.007819 0.000000 0.000000 0.000000
# 3 -0.004368 -0.007819 0.016657 0.000000 0.000000 0.000000
# 4 0.000000 0.000000 0.000000 2.465155 0.000000 0.000000
# 5 0.000000 0.000000 0.000000 0.000000 0.029346 0.000000
# 6 0.000000 0.000000 0.000000 0.000000 0.000000 0.023420
#
#
# Mechanical properties :
#
#
# Convention : Reuss Voigt Hill
#
# Bulk Modulus (GPa) = 68.41180 68.64772 68.52976
# Shear Modulus (GPa) = 1.91687 24.41653 13.16670
#
# Velocity S-wave (km/s) = 1.01307 3.61565 2.65511
# Velocity P-wave (km/s) = 6.16417 7.36108 6.78906
#
# Compressibility (1/GPa) = 0.01461736
#
# Stress axis : x y z
#
# Youngs Moduli (GPa) = 63.99489 56.06388 60.03461
#
# Poissons Ratio (x) = 0.31193 0.26225
# Poissons Ratio (y) = 0.35606 0.46942
# Poissons Ratio (z) = 0.27955 0.43837
#
# Static dielectric constant tensor:
#      x y z
#    x 3.624150 0.000000 0.000000 
#    y 0.000000 3.971020 0.000000 
#    z 0.000000 0.000000 3.212260 
# 
# 
# High freq. dielectric constant tensor:
#      x y z
#    x 1.748000 0.000000 0.000000 
#    y 0.000000 1.745670 0.000000 
#    z 0.000000 0.000000 1.696950 
# 
# From -- ./inp_files/6023.got.cif
#   From: 2010.03.12/outbox.cif.g09.slc.cpg/sg51_4_cif.got.tgz:6023.got - 2010.04.16 13:43:02.
