data_PCOD8211221
_publ_section_title
;
Structure prediction by ZEFSAII (Michael W. Deem and Ramdas Pophale) SiO2 
 PCOD8211221
Probable space group: P M M A
;
_chemical_formula_sum "Si O2"
_cell_formula_units_Z 56
_cell_length_a 21.802313
_cell_length_b 14.701756
_cell_length_c 9.461497
_cell_angle_alpha 90.000000
_cell_angle_beta 90.000000
_cell_angle_gamma 90.000000
_cell_volume 3032.715262
_symmetry_space_group_name_H-M "P M M A"
_symmetry_group_IT_number 51
_symmetry_cell_setting 'orthorhombic'
loop_
_space_group_symop_operation_xyz
x,y,z
1/2-x,-y,z
1/2+x,-y,-z
-x,y,-z
-x,-y,-z
1/2+x,y,-z
1/2-x,y,z
x,-y,z
loop_
_atom_site_type_symbol
_atom_site_label
_atom_site_fract_x
_atom_site_fract_y
_atom_site_fract_z
Si Si1 0.934136 0.896828 0.506955
Si Si2 0.125260 0.203157 0.261590
Si Si3 0.616925 0.787709 0.267236
Si Si4 0.678046 0.106431 0.009224
Si Si5 0.600301 0.500000 0.501335
Si Si6 0.005376 0.500000 0.730729
Si Si7 0.820481 0.323215 0.495396
Si Si8 0.005390 0.696913 0.160442
O O1 0.905531 0.882573 0.661048
O O2 0.889054 0.863995 0.385584
O O3 0.000000 0.845427 0.500000
O O4 0.945423 0.000000 0.475020
O O5 0.168324 0.253739 0.375109
O O6 0.071761 0.271515 0.214065
O O7 0.164514 0.160249 0.135270
O O8 0.643929 0.836030 0.129566
O O9 0.662251 0.714241 0.338896
O O10 0.550676 0.742936 0.242894
O O11 0.750000 0.109672 0.039410
O O12 0.656185 0.000000 0.004192
O O13 0.546557 0.500000 0.613768
O O14 0.571839 0.500000 0.344207
O O15 0.640790 0.587913 0.527322
O O16 0.999110 0.588338 0.828316
O O17 0.750000 0.350462 0.491921
O O18 0.000000 0.727840 0.000000
#
# Coordination Sequence:
#
# PCOD8211221 Si02
#       8
#     8   8   8   8   4   4   8   8
#     4  10  20  33  54  86 121 150 185 242 301 358
#     4  11  22  38  61  88 118 156 204 243 302 360
#     4  11  22  38  61  88 118 156 204 243 302 360
#     4  11  24  43  63  85 120 163 208 251 291 351
#     4  11  21  36  64  90 119 153 206 244 300 361
#     4  11  23  38  62  90 119 157 192 250 306 362
#     4  11  23  39  61  87 124 163 199 248 295 353
#     4  12  22  39  61  88 120 158 191 249 309 358
#
# _framework density 18.465299999999999
#
# number of rings (size 3 to 8) (size 9 to 14) (size 15 to 20)
#    0.000    1.000    5.714    2.143    0.000    0.000 
#    0.000    0.714    0.000    6.857    0.000    6.000 
#    0.000    0.000    0.000    0.000    0.000    0.000 
#
# Total GULP energy -694197.971595 kJ/mol
# GULP energy per Si atom -12396.392350 kJ/mol
# Density = 1.842327 g / cm^3
# Si number density = 18.465300 Si / 1000 Ang^3
#
#
#
# Elastic Constant Matrix: (Units=GPa)
#
#
# Indices 1 2 3 4 5 6 
#
# 1 81.0349 20.5521 7.8679 0.0000 0.0000 0.0000
# 2 20.5521 92.7152 20.4754 0.0000 0.0000 0.0000
# 3 7.8679 20.4754 83.5119 0.0000 0.0000 0.0000
# 4 0.0000 0.0000 0.0000 27.6760 0.0000 0.0000
# 5 0.0000 0.0000 0.0000 0.0000 28.9234 0.0000
# 6 0.0000 0.0000 0.0000 0.0000 0.0000 28.4740
#
#
#
# Elastic Compliance Matrix: (Units=1/GPa)
#
#
# Indices 1 2 3 4 5 6 
#
# 1 0.013099 -0.002782 -0.000552 0.000000 0.000000 0.000000
# 2 -0.002782 0.011994 -0.002679 0.000000 0.000000 0.000000
# 3 -0.000552 -0.002679 0.012683 0.000000 0.000000 0.000000
# 4 0.000000 0.000000 0.000000 0.036132 0.000000 0.000000
# 5 0.000000 0.000000 0.000000 0.000000 0.034574 0.000000
# 6 0.000000 0.000000 0.000000 0.000000 0.000000 0.035120
#
#
# Mechanical properties :
#
#
# Convention : Reuss Voigt Hill
#
# Bulk Modulus (GPa) = 38.83272 39.45033 39.14152
# Shear Modulus (GPa) = 30.44854 30.90579 30.67717
#
# Velocity S-wave (km/s) = 4.06514 4.09555 4.08038
# Velocity P-wave (km/s) = 6.56579 6.61632 6.59110
#
# Compressibility (1/GPa) = 0.02575148
#
# Stress axis : x y z
#
# Youngs Moduli (GPa) = 76.33882 83.37567 78.84516
#
# Poissons Ratio (x) = 0.23194 0.04353
# Poissons Ratio (y) = 0.21236 0.21119
# Poissons Ratio (z) = 0.04215 0.22333
#
# Static dielectric constant tensor:
#      x y z
#    x 3.439410 0.000000 0.000000 
#    y 0.000000 3.415870 0.000000 
#    z 0.000000 0.000000 3.419940 
# 
# 
# High freq. dielectric constant tensor:
#      x y z
#    x 1.719320 0.000000 0.000000 
#    y 0.000000 1.721500 0.000000 
#    z 0.000000 0.000000 1.722940 
# 
# From -- ./inp_files/11072.got.cif
#   From: 2010.03.12/outbox.cif.g09.slc.cpg/sg51_6_cif.got.tgz:11072.got - 2010.04.16 13:43:02.
