data_PCOD8211988
_publ_section_title
;
Structure prediction by ZEFSAII (Michael W. Deem and Ramdas Pophale) SiO2 
 PCOD8211988
Probable space group: P M M A
;
_chemical_formula_sum "Si O2"
_cell_formula_units_Z 48
_cell_length_a 9.109864
_cell_length_b 10.002973
_cell_length_c 27.203421
_cell_angle_alpha 90.000000
_cell_angle_beta 90.000000
_cell_angle_gamma 90.000000
_cell_volume 2478.931424
_symmetry_space_group_name_H-M "P M M A"
_symmetry_group_IT_number 51
_symmetry_cell_setting 'orthorhombic'
loop_
_space_group_symop_operation_xyz
x,y,z
1/2-x,-y,z
1/2+x,-y,-z
-x,y,-z
-x,-y,-z
1/2+x,y,-z
1/2-x,y,z
x,-y,z
loop_
_atom_site_type_symbol
_atom_site_label
_atom_site_fract_x
_atom_site_fract_y
_atom_site_fract_z
Si Si1 0.921971 0.153359 0.550160
Si Si2 0.918173 0.652886 0.377445
Si Si3 0.075266 0.000000 0.234630
Si Si4 0.421146 0.500000 0.095271
Si Si5 0.919901 0.260792 0.267239
Si Si6 0.576497 0.500000 0.198682
Si Si7 0.923621 0.000000 0.876144
Si Si8 0.422195 0.777370 0.049825
O O1 0.750000 0.173580 0.542924
O O2 0.000000 0.197162 0.500000
O O3 0.976489 0.247608 0.593614
O O4 0.960737 0.000000 0.563550
O O5 0.750000 0.685019 0.391321
O O6 0.957007 0.500000 0.390991
O O7 0.944863 0.673201 0.319954
O O8 0.017617 0.870863 0.263083
O O9 0.250000 0.000000 0.235903
O O10 0.011494 0.000000 0.178872
O O11 0.250000 0.500000 0.108684
O O12 0.508556 0.500000 0.145327
O O13 0.466101 0.626633 0.062750
O O14 0.750000 0.223127 0.259046
O O15 0.975993 0.367559 0.227172
O O16 0.750000 0.500000 0.194615
O O17 0.978499 0.130625 0.905387
O O18 0.750000 0.000000 0.872072
O O19 0.250000 0.795686 0.041691
O O20 0.500000 0.822839 0.000000
#
# Coordination Sequence:
#
# PCOD8211988 Si02
#       8
#     8   8   4   4   8   4   4   8
#     4  10  22  40  62  90 123 157 198 245 291 342
#     4  10  21  39  62  86 116 157 199 238 290 349
#     4  11  23  38  58  84 115 151 192 234 283 346
#     4  10  21  35  53  78 110 145 179 220 279 342
#     4  10  21  39  59  84 116 152 192 239 290 340
#     4  10  20  37  61  84 112 149 194 240 282 334
#     4   9  19  36  54  74 104 141 177 220 277 336
#     4  10  20  35  54  76 104 138 177 223 275 333
#
# _framework density 19.363182999999999
#
# number of rings (size 3 to 8) (size 9 to 14) (size 15 to 20)
#    0.000    2.000    0.833    2.250    1.167    5.000 
#    0.000    1.667    0.000    0.000    0.000    0.000 
#    0.000    0.000    0.000    0.000    0.000    0.000 
#
# Total GULP energy -595389.194724 kJ/mol
# GULP energy per Si atom -12403.941557 kJ/mol
# Density = 1.931911 g / cm^3
# Si number density = 19.363183 Si / 1000 Ang^3
#
#
#
# Elastic Constant Matrix: (Units=GPa)
#
#
# Indices 1 2 3 4 5 6 
#
# 1 55.4677 34.8126 27.2005 0.0000 0.0000 0.0000
# 2 34.8126 105.1013 19.0606 0.0000 0.0000 0.0000
# 3 27.2005 19.0606 68.7453 0.0000 0.0000 0.0000
# 4 0.0000 0.0000 0.0000 42.1970 0.0000 0.0000
# 5 0.0000 0.0000 0.0000 0.0000 37.6744 0.0000
# 6 0.0000 0.0000 0.0000 0.0000 0.0000 13.3283
#
#
#
# Elastic Compliance Matrix: (Units=1/GPa)
#
#
# Indices 1 2 3 4 5 6 
#
# 1 0.026842 -0.007334 -0.008587 0.000000 0.000000 0.000000
# 2 -0.007334 0.012022 -0.000432 0.000000 0.000000 0.000000
# 3 -0.008587 -0.000432 0.018064 0.000000 0.000000 0.000000
# 4 0.000000 0.000000 0.000000 0.023698 0.000000 0.000000
# 5 0.000000 0.000000 0.000000 0.000000 0.026543 0.000000
# 6 0.000000 0.000000 0.000000 0.000000 0.000000 0.075028
#
#
# Mechanical properties :
#
#
# Convention : Reuss Voigt Hill
#
# Bulk Modulus (GPa) = 41.28292 43.49575 42.38934
# Shear Modulus (GPa) = 22.42378 28.52266 25.47322
#
# Velocity S-wave (km/s) = 3.40672 3.84218 3.63098
# Velocity P-wave (km/s) = 6.06968 6.49577 6.28633
#
# Compressibility (1/GPa) = 0.02422309
#
# Stress axis : x y z
#
# Youngs Moduli (GPa) = 37.25454 83.18078 55.35905
#
# Poissons Ratio (x) = 0.61002 0.47539
# Poissons Ratio (y) = 0.27321 0.02389
# Poissons Ratio (z) = 0.31992 0.03590
#
# Static dielectric constant tensor:
#      x y z
#    x 3.383920 0.000000 0.000000 
#    y 0.000000 3.701050 0.000000 
#    z 0.000000 0.000000 3.534760 
# 
# 
# High freq. dielectric constant tensor:
#      x y z
#    x 1.738740 0.000000 0.000000 
#    y 0.000000 1.767970 0.000000 
#    z 0.000000 0.000000 1.760280 
# 
# From -- ./inp_files/37268.got.cif
#   From: 2010.03.12/outbox.cif.g09.slc.cpg/sg51_19_cif.got.tgz:37268.got - 2010.04.16 13:43:02.
