data_PCOD8211275
_publ_section_title
;
Structure prediction by ZEFSAII (Michael W. Deem and Ramdas Pophale) SiO2 
 PCOD8211275
Probable space group: P M M A
;
_chemical_formula_sum "Si O2"
_cell_formula_units_Z 44
_cell_length_a 8.841866
_cell_length_b 27.593105
_cell_length_c 9.895117
_cell_angle_alpha 90.000000
_cell_angle_beta 90.000000
_cell_angle_gamma 90.000000
_cell_volume 2414.156588
_symmetry_space_group_name_H-M "P M M A"
_symmetry_group_IT_number 51
_symmetry_cell_setting 'orthorhombic'
loop_
_space_group_symop_operation_xyz
x,y,z
1/2-x,-y,z
1/2+x,-y,-z
-x,y,-z
-x,-y,-z
1/2+x,y,-z
1/2-x,y,z
x,-y,z
loop_
_atom_site_type_symbol
_atom_site_label
_atom_site_fract_x
_atom_site_fract_y
_atom_site_fract_z
Si Si1 0.929979 0.732981 0.356001
Si Si2 0.571660 0.079478 0.140400
Si Si3 0.927590 0.189113 0.138178
Si Si4 0.569992 0.367247 0.644061
Si Si5 0.928558 0.000000 0.352003
Si Si6 0.427841 0.445392 0.138734
O O1 0.750000 0.727958 0.367443
O O2 0.981512 0.775944 0.257550
O O3 0.000000 0.746029 0.500000
O O4 0.000111 0.682889 0.300781
O O5 0.750000 0.075221 0.122506
O O6 0.518835 0.134419 0.171354
O O7 0.517334 0.046963 0.266754
O O8 0.500000 0.060832 0.000000
O O9 0.750000 0.191296 0.119514
O O10 0.000000 0.208083 0.000000
O O11 0.500000 0.380261 0.500000
O O12 0.750000 0.362343 0.632648
O O13 0.518128 0.410123 0.742682
O O14 0.000000 0.000000 0.500000
O O15 0.750000 0.000000 0.371530
O O16 0.250000 0.443326 0.120706
O O17 0.482468 0.500000 0.173118
O O18 0.500000 0.426814 0.000000
#
# Coordination Sequence:
#
# PCOD8211275 Si02
#       6
#     8   8   8   8   4   8
#     4  10  20  34  51  72  99 131 165 202 244 290
#     4   9  18  34  53  74  99 129 165 204 245 291
#     4   9  19  34  52  74 100 129 164 204 245 291
#     4  10  20  34  52  74 100 130 165 203 242 289
#     4  10  21  34  50  74 104 132 163 204 246 292
#     4   9  19  35  53  74 100 129 162 200 243 291
#
# _framework density 18.225826999999999
#
# number of rings (size 3 to 8) (size 9 to 14) (size 15 to 20)
#    0.000    2.545    0.000    2.455    0.000    5.455 
#    0.000    3.636    0.000    0.000    0.000    0.000 
#    0.000    0.000    0.000    0.000    0.000    0.000 
#
# Total GULP energy -545601.697150 kJ/mol
# GULP energy per Si atom -12400.038572 kJ/mol
# Density = 1.818434 g / cm^3
# Si number density = 18.225827 Si / 1000 Ang^3
#
#
#
# Elastic Constant Matrix: (Units=GPa)
#
#
# Indices 1 2 3 4 5 6 
#
# 1 46.6588 40.4079 45.3555 0.0000 0.0000 0.0000
# 2 40.4079 133.9101 105.4059 0.0000 0.0000 0.0000
# 3 45.3555 105.4059 149.3405 0.0000 0.0000 0.0000
# 4 0.0000 0.0000 0.0000 47.3276 0.0000 0.0000
# 5 0.0000 0.0000 0.0000 0.0000 33.5890 0.0000
# 6 0.0000 0.0000 0.0000 0.0000 0.0000 22.0846
#
#
#
# Elastic Compliance Matrix: (Units=1/GPa)
#
#
# Indices 1 2 3 4 5 6 
#
# 1 0.031546 -0.004450 -0.006440 0.000000 0.000000 0.000000
# 2 -0.004450 0.017431 -0.010951 0.000000 0.000000 0.000000
# 3 -0.006440 -0.010951 0.016381 0.000000 0.000000 0.000000
# 4 0.000000 0.000000 0.000000 0.021129 0.000000 0.000000
# 5 0.000000 0.000000 0.000000 0.000000 0.029772 0.000000
# 6 0.000000 0.000000 0.000000 0.000000 0.000000 0.045280
#
#
# Mechanical properties :
#
#
# Convention : Reuss Voigt Hill
#
# Bulk Modulus (GPa) = 46.13431 79.13867 62.63649
# Shear Modulus (GPa) = 23.53531 29.84958 26.69244
#
# Velocity S-wave (km/s) = 3.59739 4.05132 3.83108
# Velocity P-wave (km/s) = 6.52859 8.08701 7.34922
#
# Compressibility (1/GPa) = 0.02167584
#
# Stress axis : x y z
#
# Youngs Moduli (GPa) = 31.69977 57.37015 61.04508
#
# Poissons Ratio (x) = 0.25531 0.39311
# Poissons Ratio (y) = 0.14107 0.66852
# Poissons Ratio (z) = 0.20414 0.62827
#
# Static dielectric constant tensor:
#      x y z
#    x 3.291730 0.000000 0.000000 
#    y 0.000000 3.695010 0.000000 
#    z 0.000000 0.000000 3.416420 
# 
# 
# High freq. dielectric constant tensor:
#      x y z
#    x 1.704720 0.000000 0.000000 
#    y 0.000000 1.714800 0.000000 
#    z 0.000000 0.000000 1.705220 
# 
# From -- ./inp_files/5875.got.cif
#   From: 2010.03.12/outbox.cif.g09.slc.cpg/sg51_3_cif.got.tgz:5875.got - 2010.04.16 13:43:02.
