data_PCOD8211215
_publ_section_title
;
Structure prediction by ZEFSAII (Michael W. Deem and Ramdas Pophale) SiO2 
 PCOD8211215
Probable space group: P M M A
;
_chemical_formula_sum "Si O2"
_cell_formula_units_Z 64
_cell_length_a 9.373494
_cell_length_b 14.868691
_cell_length_c 23.805502
_cell_angle_alpha 90.000000
_cell_angle_beta 90.000000
_cell_angle_gamma 90.000000
_cell_volume 3317.810566
_symmetry_space_group_name_H-M "P M M A"
_symmetry_group_IT_number 51
_symmetry_cell_setting 'orthorhombic'
loop_
_space_group_symop_operation_xyz
x,y,z
1/2-x,-y,z
1/2+x,-y,-z
-x,y,-z
-x,-y,-z
1/2+x,y,-z
1/2-x,y,z
x,-y,z
loop_
_atom_site_type_symbol
_atom_site_label
_atom_site_fract_x
_atom_site_fract_y
_atom_site_fract_z
Si Si1 0.917090 0.897344 0.556938
Si Si2 0.096609 0.163721 0.047145
Si Si3 0.916477 0.774442 0.657825
Si Si4 0.411580 0.394574 0.836388
Si Si5 0.092027 0.897459 0.733649
Si Si6 0.906605 0.102116 0.137938
Si Si7 0.082926 0.603633 0.274808
Si Si8 0.409085 0.367437 0.050712
O O1 0.750000 0.886404 0.544939
O O2 0.973461 0.819355 0.599790
O O3 0.000000 0.878510 0.500000
O O4 0.949098 0.000000 0.578826
O O5 0.250000 0.114875 0.049999
O O6 0.117942 0.266519 0.030759
O O7 0.021428 0.163356 0.107412
O O8 0.000000 0.114266 0.000000
O O9 0.750000 0.789071 0.658155
O O10 0.954346 0.669263 0.671495
O O11 0.977175 0.832821 0.707787
O O12 0.250000 0.352239 0.839234
O O13 0.395861 0.500000 0.833613
O O14 0.492300 0.363451 0.779304
O O15 0.504071 0.370328 0.891046
O O16 0.250000 0.884221 0.707216
O O17 0.097712 0.869369 0.798054
O O18 0.042185 0.000000 0.725944
O O19 0.750000 0.117019 0.111203
O O20 0.955586 0.000000 0.130659
O O21 0.250000 0.612746 0.259446
O O22 0.046844 0.500000 0.291676
O O23 0.250000 0.412168 0.057531
O O24 0.500000 0.414727 0.000000
#
# Coordination Sequence:
#
# PCOD8211215 Si02
#       8
#     8   8   8   8   8   8   8   8
#     4   9  18  33  53  80 115 151 186 226 268 312
#     4  10  21  35  51  70  91 119 159 204 251 305
#     4  10  20  33  54  82 109 143 186 226 268 314
#     4  10  21  36  54  76 101 131 168 211 263 322
#     4   9  19  34  50  74 108 141 173 211 261 321
#     4   9  19  35  51  68  94 127 161 201 251 306
#     4   9  19  36  55  77 108 144 182 226 274 324
#     4  10  21  36  53  74  99 127 163 208 261 323
#
# _framework density 19.289829999999998
#
# number of rings (size 3 to 8) (size 9 to 14) (size 15 to 20)
#    0.000    2.500    0.000    2.250    1.750    5.250 
#    0.000    2.500    0.000    0.375    0.000    0.000 
#    0.000    0.000    0.000    0.000    0.000    0.000 
#
# Total GULP energy -792901.651448 kJ/mol
# GULP energy per Si atom -12389.088304 kJ/mol
# Density = 1.924593 g / cm^3
# Si number density = 19.289830 Si / 1000 Ang^3
#
#
#
# Elastic Constant Matrix: (Units=GPa)
#
#
# Indices 1 2 3 4 5 6 
#
# 1 91.6077 29.4940 60.0850 0.0000 0.0000 0.0000
# 2 29.4940 68.8504 59.8241 0.0000 0.0000 0.0000
# 3 60.0850 59.8241 100.4045 0.0000 0.0000 0.0000
# 4 0.0000 0.0000 0.0000 35.0529 0.0000 0.0000
# 5 0.0000 0.0000 0.0000 0.0000 30.9208 0.0000
# 6 0.0000 0.0000 0.0000 0.0000 0.0000 17.5277
#
#
#
# Elastic Compliance Matrix: (Units=1/GPa)
#
#
# Indices 1 2 3 4 5 6 
#
# 1 0.018364 0.003488 -0.013068 0.000000 0.000000 0.000000
# 2 0.003488 0.030778 -0.020426 0.000000 0.000000 0.000000
# 3 -0.013068 -0.020426 0.029950 0.000000 0.000000 0.000000
# 4 0.000000 0.000000 0.000000 0.028528 0.000000 0.000000
# 5 0.000000 0.000000 0.000000 0.000000 0.032341 0.000000
# 6 0.000000 0.000000 0.000000 0.000000 0.000000 0.057053
#
#
# Mechanical properties :
#
#
# Convention : Reuss Voigt Hill
#
# Bulk Modulus (GPa) = 52.40824 62.18544 57.29684
# Shear Modulus (GPa) = 18.98353 24.13091 21.55722
#
# Velocity S-wave (km/s) = 3.14047 3.54074 3.34659
# Velocity P-wave (km/s) = 6.35436 7.00165 6.68585
#
# Compressibility (1/GPa) = 0.01908097
#
# Stress axis : x y z
#
# Youngs Moduli (GPa) = 54.45329 32.49070 33.38874
#
# Poissons Ratio (x) = -0.11332 0.43632
# Poissons Ratio (y) = -0.18992 0.68199
# Poissons Ratio (z) = 0.71159 0.66365
#
# Static dielectric constant tensor:
#      x y z
#    x 3.062510 0.000000 0.000000 
#    y 0.000000 3.563120 0.000000 
#    z 0.000000 0.000000 3.427780 
# 
# 
# High freq. dielectric constant tensor:
#      x y z
#    x 1.759480 0.000000 0.000000 
#    y 0.000000 1.742760 0.000000 
#    z 0.000000 0.000000 1.726380 
# 
# From -- ./inp_files/35009.got.cif
#   From: 2010.03.12/outbox.cif.g09.slc.cpg/sg51_18_cif.got.tgz:35009.got - 2010.04.16 13:43:02.
