data_PCOD8211273
_publ_section_title
;
Structure prediction by ZEFSAII (Michael W. Deem and Ramdas Pophale) SiO2 
 PCOD8211273
Probable space group: P M M A
;
_chemical_formula_sum "Si O2"
_cell_formula_units_Z 40
_cell_length_a 9.425046
_cell_length_b 7.800619
_cell_length_c 29.363522
_cell_angle_alpha 90.000000
_cell_angle_beta 90.000000
_cell_angle_gamma 90.000000
_cell_volume 2158.841165
_symmetry_space_group_name_H-M "P M M A"
_symmetry_group_IT_number 51
_symmetry_cell_setting 'orthorhombic'
loop_
_space_group_symop_operation_xyz
x,y,z
1/2-x,-y,z
1/2+x,-y,-z
-x,y,-z
-x,-y,-z
1/2+x,y,-z
1/2-x,y,z
x,-y,z
loop_
_atom_site_type_symbol
_atom_site_label
_atom_site_fract_x
_atom_site_fract_y
_atom_site_fract_z
Si Si1 0.915373 0.302954 0.386517
Si Si2 0.584380 0.000000 0.453637
Si Si3 0.417669 0.310899 0.109076
Si Si4 0.908852 0.701731 0.700124
Si Si5 0.419405 0.000000 0.047173
Si Si6 0.910284 0.198182 0.796195
O O1 0.750000 0.289786 0.375334
O O2 0.956704 0.500000 0.399587
O O3 0.957812 0.173735 0.426876
O O4 0.996710 0.235306 0.341900
O O5 0.500000 0.000000 0.500000
O O6 0.750000 0.000000 0.464869
O O7 0.250000 0.285317 0.113738
O O8 0.457685 0.500000 0.090433
O O9 0.483185 0.289812 0.160125
O O10 0.473945 0.168031 0.074256
O O11 0.750000 0.780429 0.695038
O O12 0.901656 0.500000 0.700018
O O13 0.983747 0.762224 0.747529
O O14 0.250000 0.000000 0.039553
O O15 0.500000 0.000000 0.000000
O O16 0.750000 0.267480 0.790772
O O17 0.914360 0.000000 0.807934
#
# Coordination Sequence:
#
# PCOD8211273 Si02
#       6
#     8   4   8   8   4   8
#     4   9  19  36  54  72 100 135 165 195 236 289
#     4  10  22  38  55  76  98 124 163 206 249 292
#     4   9  16  28  47  70  97 128 161 198 241 289
#     4   9  17  28  45  73 103 129 160 197 236 278
#     4  10  20  34  51  72  96 122 159 204 249 296
#     4   9  15  24  41  69 102 130 157 195 240 280
#
# _framework density 18.528458000000001
#
# number of rings (size 3 to 8) (size 9 to 14) (size 15 to 20)
#    0.000    2.800    1.000    0.600    1.400    4.000 
#    0.000    0.000    0.000    1.200    0.000    0.000 
#    0.000    0.000    0.000    0.000    0.000    0.000 
#
# Total GULP energy -495728.887753 kJ/mol
# GULP energy per Si atom -12393.222194 kJ/mol
# Density = 1.848629 g / cm^3
# Si number density = 18.528458 Si / 1000 Ang^3
#
#
#
# Elastic Constant Matrix: (Units=GPa)
#
#
# Indices 1 2 3 4 5 6 
#
# 1 28.9574 25.5408 45.5346 0.0000 0.0000 0.0000
# 2 25.5408 114.6210 81.4354 0.0000 0.0000 0.0000
# 3 45.5346 81.4354 180.4269 0.0000 0.0000 0.0000
# 4 0.0000 0.0000 0.0000 29.0829 0.0000 0.0000
# 5 0.0000 0.0000 0.0000 0.0000 25.7470 0.0000
# 6 0.0000 0.0000 0.0000 0.0000 0.0000 11.8378
#
#
#
# Elastic Compliance Matrix: (Units=1/GPa)
#
#
# Indices 1 2 3 4 5 6 
#
# 1 0.058322 -0.003737 -0.013032 0.000000 0.000000 0.000000
# 2 -0.003737 0.013082 -0.004962 0.000000 0.000000 0.000000
# 3 -0.013032 -0.004962 0.011071 0.000000 0.000000 0.000000
# 4 0.000000 0.000000 0.000000 0.034385 0.000000 0.000000
# 5 0.000000 0.000000 0.000000 0.000000 0.038840 0.000000
# 6 0.000000 0.000000 0.000000 0.000000 0.000000 0.084475
#
#
# Mechanical properties :
#
#
# Convention : Reuss Voigt Hill
#
# Bulk Modulus (GPa) = 25.63181 69.89187 47.76184
# Shear Modulus (GPa) = 16.85544 24.76649 20.81097
#
# Velocity S-wave (km/s) = 3.01940 3.66002 3.35504
# Velocity P-wave (km/s) = 5.10093 7.46085 6.39077
#
# Compressibility (1/GPa) = 0.03901403
#
# Stress axis : x y z
#
# Youngs Moduli (GPa) = 17.14611 76.44026 90.32774
#
# Poissons Ratio (x) = 0.28563 1.17718
# Poissons Ratio (y) = 0.06407 0.44817
# Poissons Ratio (z) = 0.22345 0.37926
#
# Static dielectric constant tensor:
#      x y z
#    x 2.929070 0.000000 0.000000 
#    y 0.000000 3.542980 0.000000 
#    z 0.000000 0.000000 3.495640 
# 
# 
# High freq. dielectric constant tensor:
#      x y z
#    x 1.655090 0.000000 0.000000 
#    y 0.000000 1.731850 0.000000 
#    z 0.000000 0.000000 1.725300 
# 
# From -- ./inp_files/36029.got.cif
#   From: 2010.03.12/outbox.cif.g09.slc.cpg/sg51_19_cif.got.tgz:36029.got - 2010.04.16 13:43:02.
