data_PCOD8211650
_publ_section_title
;
Structure prediction by ZEFSAII (Michael W. Deem and Ramdas Pophale) SiO2 
 PCOD8211650
Probable space group: P M M A
;
_chemical_formula_sum "Si O2"
_cell_formula_units_Z 40
_cell_length_a 9.096335
_cell_length_b 9.114815
_cell_length_c 25.860696
_cell_angle_alpha 90.000000
_cell_angle_beta 90.000000
_cell_angle_gamma 90.000000
_cell_volume 2144.146787
_symmetry_space_group_name_H-M "P M M A"
_symmetry_group_IT_number 51
_symmetry_cell_setting 'orthorhombic'
loop_
_space_group_symop_operation_xyz
x,y,z
1/2-x,-y,z
1/2+x,-y,-z
-x,y,-z
-x,-y,-z
1/2+x,y,-z
1/2-x,y,z
x,-y,z
loop_
_atom_site_type_symbol
_atom_site_label
_atom_site_fract_x
_atom_site_fract_y
_atom_site_fract_z
Si Si1 0.421583 0.829347 0.847938
Si Si2 0.415797 0.174803 0.050012
Si Si3 0.422165 0.331379 0.447010
Si Si4 0.419836 0.827668 0.644551
Si Si5 0.575250 0.334631 0.253264
O O1 0.250000 0.799754 0.856711
O O2 0.505082 0.768337 0.898224
O O3 0.484616 0.743438 0.798340
O O4 0.453385 0.000000 0.838552
O O5 0.250000 0.234726 0.049144
O O6 0.419154 0.000000 0.048761
O O7 0.500000 0.238198 0.000000
O O8 0.500000 0.285507 0.500000
O O9 0.250000 0.304198 0.453627
O O10 0.457663 0.500000 0.432929
O O11 0.483328 0.227341 0.402708
O O12 0.250000 0.785597 0.634548
O O13 0.481183 0.751639 0.696420
O O14 0.440027 0.000000 0.651270
O O15 0.750000 0.331133 0.252184
O O16 0.514278 0.500000 0.255380
#
# Coordination Sequence:
#
# PCOD8211650 Si02
#       5
#     8   8   8   8   8
#     4   9  16  27  45  69  96 125 159 200 243 288
#     4   9  16  26  42  66  95 125 157 195 241 291
#     4  10  21  37  57  80 106 138 175 213 255 304
#     4  10  20  34  54  80 108 138 173 213 256 302
#     4   9  17  30  50  74  99 130 168 207 247 295
#
# _framework density 18.655439999999999
#
# number of rings (size 3 to 8) (size 9 to 14) (size 15 to 20)
#    0.000    2.600    0.000    2.400    0.000    7.600 
#    0.000    1.000    0.000    4.800    0.000    0.000 
#    0.000    0.000    0.000    0.000    0.000    0.000 
#
# Total GULP energy -496066.891886 kJ/mol
# GULP energy per Si atom -12401.672297 kJ/mol
# Density = 1.861298 g / cm^3
# Si number density = 18.655440 Si / 1000 Ang^3
#
#
#
# Elastic Constant Matrix: (Units=GPa)
#
#
# Indices 1 2 3 4 5 6 
#
# 1 79.8613 35.8344 66.5371 0.0000 0.0000 0.0000
# 2 35.8344 76.4815 67.2366 0.0000 0.0000 0.0000
# 3 66.5371 67.2366 186.5730 0.0000 0.0000 0.0000
# 4 0.0000 0.0000 0.0000 14.0634 0.0000 0.0000
# 5 0.0000 0.0000 0.0000 0.0000 30.8940 0.0000
# 6 0.0000 0.0000 0.0000 0.0000 0.0000 17.1122
#
#
#
# Elastic Compliance Matrix: (Units=1/GPa)
#
#
# Indices 1 2 3 4 5 6 
#
# 1 0.018712 -0.004246 -0.005143 0.000000 0.000000 0.000000
# 2 -0.004246 0.020102 -0.005730 0.000000 0.000000 0.000000
# 3 -0.005143 -0.005730 0.009259 0.000000 0.000000 0.000000
# 4 0.000000 0.000000 0.000000 0.071106 0.000000 0.000000
# 5 0.000000 0.000000 0.000000 0.000000 0.032369 0.000000
# 6 0.000000 0.000000 0.000000 0.000000 0.000000 0.058438
#
#
# Mechanical properties :
#
#
# Convention : Reuss Voigt Hill
#
# Bulk Modulus (GPa) = 56.07029 75.79246 65.93138
# Shear Modulus (GPa) = 20.31132 23.96778 22.13955
#
# Velocity S-wave (km/s) = 3.30322 3.58824 3.44868
# Velocity P-wave (km/s) = 6.68351 7.60809 7.16074
#
# Compressibility (1/GPa) = 0.01783476
#
# Stress axis : x y z
#
# Youngs Moduli (GPa) = 53.44219 49.74680 108.00331
#
# Poissons Ratio (x) = 0.21121 0.55547
# Poissons Ratio (y) = 0.22690 0.61887
# Poissons Ratio (z) = 0.27486 0.28505
#
# Static dielectric constant tensor:
#      x y z
#    x 3.271200 0.000000 0.000000 
#    y 0.000000 3.238790 0.000000 
#    z 0.000000 0.000000 3.648290 
# 
# 
# High freq. dielectric constant tensor:
#      x y z
#    x 1.702010 0.000000 0.000000 
#    y 0.000000 1.700810 0.000000 
#    z 0.000000 0.000000 1.742000 
# 
# From -- ./inp_files/34306.got.cif
#   From: 2010.03.12/outbox.cif.g09.slc.cpg/sg51_18_cif.got.tgz:34306.got - 2010.04.16 13:43:02.
