data_PCOD8211124
_publ_section_title
;
Structure prediction by ZEFSAII (Michael W. Deem and Ramdas Pophale) SiO2 
 PCOD8211124
Probable space group: P M M A
;
_chemical_formula_sum "Si O2"
_cell_formula_units_Z 40
_cell_length_a 13.180423
_cell_length_b 13.295886
_cell_length_c 11.117360
_cell_angle_alpha 90.000000
_cell_angle_beta 90.000000
_cell_angle_gamma 90.000000
_cell_volume 1948.266218
_symmetry_space_group_name_H-M "P M M A"
_symmetry_group_IT_number 51
_symmetry_cell_setting 'orthorhombic'
loop_
_space_group_symop_operation_xyz
x,y,z
1/2-x,-y,z
1/2+x,-y,-z
-x,y,-z
-x,-y,-z
1/2+x,y,-z
1/2-x,y,z
x,-y,z
loop_
_atom_site_type_symbol
_atom_site_label
_atom_site_fract_x
_atom_site_fract_y
_atom_site_fract_z
Si Si1 0.133042 0.799279 0.426508
Si Si2 0.131079 0.708888 0.812829
Si Si3 0.060287 0.116340 0.674493
Si Si4 0.369019 0.613969 0.057845
Si Si5 0.042217 0.383416 0.310777
O O1 0.250000 0.809801 0.386281
O O2 0.120884 0.836503 0.562293
O O3 0.094152 0.683265 0.415496
O O4 0.061016 0.867980 0.341355
O O5 0.250000 0.688445 0.801031
O O6 0.101989 0.825994 0.792296
O O7 0.088673 0.677412 0.944454
O O8 0.076803 0.642262 0.707921
O O9 0.086447 0.000000 0.688537
O O10 0.250000 0.623607 0.059992
O O11 0.405143 0.500000 0.037453
O O12 0.407220 0.653074 0.185921
O O13 0.059949 0.500000 0.342902
#
# Coordination Sequence:
#
# PCOD8211124 Si02
#       5
#     8   8   8   8   8
#     4  10  20  35  57  83 108 136 173 216 260 311
#     4  10  20  33  52  79 107 139 181 223 261 306
#     4  10  22  39  58  79 102 134 177 222 270 318
#     4   9  17  31  53  79 107 141 177 211 254 311
#     4  10  20  34  53  79 112 146 177 210 253 309
#
# _framework density 20.531075000000001
#
# number of rings (size 3 to 8) (size 9 to 14) (size 15 to 20)
#    0.000    2.200    0.000    3.600    0.000    6.800 
#    0.000    9.000    0.000   20.400    0.000   11.200 
#    0.000    0.000    0.000    0.000    0.000    0.000 
#
# Total GULP energy -495836.862359 kJ/mol
# GULP energy per Si atom -12395.921559 kJ/mol
# Density = 2.048435 g / cm^3
# Si number density = 20.531075 Si / 1000 Ang^3
#
#
#
# Elastic Constant Matrix: (Units=GPa)
#
#
# Indices 1 2 3 4 5 6 
#
# 1 76.3714 3.9331 13.0647 0.0000 0.0000 0.0000
# 2 3.9331 146.2470 58.3196 0.0000 0.0000 0.0000
# 3 13.0647 58.3196 59.0260 0.0000 0.0000 0.0000
# 4 0.0000 0.0000 0.0000 21.5467 0.0000 0.0000
# 5 0.0000 0.0000 0.0000 0.0000 21.1231 0.0000
# 6 0.0000 0.0000 0.0000 0.0000 0.0000 17.8189
#
#
#
# Elastic Compliance Matrix: (Units=1/GPa)
#
#
# Indices 1 2 3 4 5 6 
#
# 1 0.013780 0.001395 -0.004429 0.000000 0.000000 0.000000
# 2 0.001395 0.011425 -0.011597 0.000000 0.000000 0.000000
# 3 -0.004429 -0.011597 0.029380 0.000000 0.000000 0.000000
# 4 0.000000 0.000000 0.000000 0.046411 0.000000 0.000000
# 5 0.000000 0.000000 0.000000 0.000000 0.047341 0.000000
# 6 0.000000 0.000000 0.000000 0.000000 0.000000 0.056120
#
#
# Mechanical properties :
#
#
# Convention : Reuss Voigt Hill
#
# Bulk Modulus (GPa) = 39.48802 48.03102 43.75952
# Shear Modulus (GPa) = 20.64759 25.85286 23.25022
#
# Velocity S-wave (km/s) = 3.17468 3.55238 3.36883
# Velocity P-wave (km/s) = 5.71954 6.34594 6.04087
#
# Compressibility (1/GPa) = 0.02532414
#
# Stress axis : x y z
#
# Youngs Moduli (GPa) = 72.57073 87.52899 34.03663
#
# Poissons Ratio (x) = -0.12215 0.15074
# Poissons Ratio (y) = -0.10127 0.39472
# Poissons Ratio (z) = 0.32140 1.01507
#
# Static dielectric constant tensor:
#      x y z
#    x 3.928790 0.000000 0.000000 
#    y 0.000000 3.656400 0.000000 
#    z 0.000000 0.000000 3.603870 
# 
# 
# High freq. dielectric constant tensor:
#      x y z
#    x 1.821140 0.000000 0.000000 
#    y 0.000000 1.783950 0.000000 
#    z 0.000000 0.000000 1.785200 
# 
# From -- ./inp_files/16193.got.cif
#   From: 2010.03.12/outbox.cif.g09.slc.cpg/sg51_9_cif.got.tgz:16193.got - 2010.04.16 13:43:02.
