data_PCOD8211180
_publ_section_title
;
Structure prediction by ZEFSAII (Michael W. Deem and Ramdas Pophale) SiO2 
 PCOD8211180
Probable space group: P M M A
;
_chemical_formula_sum "Si O2"
_cell_formula_units_Z 64
_cell_length_a 9.122600
_cell_length_b 24.303934
_cell_length_c 15.197107
_cell_angle_alpha 90.000000
_cell_angle_beta 90.000000
_cell_angle_gamma 90.000000
_cell_volume 3369.427617
_symmetry_space_group_name_H-M "P M M A"
_symmetry_group_IT_number 51
_symmetry_cell_setting 'orthorhombic'
loop_
_space_group_symop_operation_xyz
x,y,z
1/2-x,-y,z
1/2+x,-y,-z
-x,y,-z
-x,-y,-z
1/2+x,y,-z
1/2-x,y,z
x,-y,z
loop_
_atom_site_type_symbol
_atom_site_label
_atom_site_fract_x
_atom_site_fract_y
_atom_site_fract_z
Si Si1 0.924710 0.857260 0.218942
Si Si2 0.419921 0.562858 0.774095
Si Si3 0.080957 0.747397 0.191263
Si Si4 0.916895 0.596953 0.416001
Si Si5 0.580762 0.064853 0.911300
Si Si6 0.914845 0.283188 0.358118
Si Si7 0.580249 0.639926 0.910165
Si Si8 0.084171 0.163929 0.583845
O O1 0.750000 0.859818 0.208579
O O2 0.972855 0.858575 0.321783
O O3 0.982561 0.801235 0.173671
O O4 0.000138 0.908741 0.172140
O O5 0.250000 0.581052 0.780266
O O6 0.441231 0.500000 0.803656
O O7 0.476890 0.570592 0.674204
O O8 0.515287 0.601609 0.834957
O O9 0.250000 0.765266 0.200088
O O10 0.058288 0.704337 0.112156
O O11 0.031960 0.716793 0.279984
O O12 0.750000 0.579736 0.428166
O O13 0.939135 0.662799 0.415860
O O14 0.000000 0.572116 0.500000
O O15 0.750000 0.083569 0.915899
O O16 0.566715 0.000000 0.899237
O O17 0.500000 0.084582 0.000000
O O18 0.750000 0.282439 0.317201
O O19 0.935113 0.229794 0.419027
O O20 0.750000 0.625257 0.920495
O O21 0.500000 0.625823 0.000000
O O22 0.250000 0.145323 0.571507
O O23 0.000000 0.138271 0.500000
#
# Coordination Sequence:
#
# PCOD8211180 Si02
#       8
#     8   8   8   8   8   8   8   8
#     4  10  21  36  56  84 119 157 194 234 282 334
#     4  10  22  41  62  81 106 142 182 228 280 333
#     4  10  20  34  54  82 113 145 184 226 275 332
#     4  10  20  33  53  80 110 143 180 223 274 332
#     4  10  21  38  61  88 117 151 193 240 288 336
#     4   9  17  31  50  74 106 145 182 222 274 328
#     4  11  24  40  61  86 110 141 180 225 280 339
#     4   9  18  30  47  75 110 149 190 229 277 326
#
# _framework density 18.994323000000001
#
# number of rings (size 3 to 8) (size 9 to 14) (size 15 to 20)
#    0.000    2.125    1.250    2.625    0.000    7.000 
#    0.000    1.250    0.000    0.375    0.000    0.000 
#    0.000    0.000    0.000    0.000    0.000    0.000 
#
# Total GULP energy -793595.194173 kJ/mol
# GULP energy per Si atom -12399.924909 kJ/mol
# Density = 1.895109 g / cm^3
# Si number density = 18.994323 Si / 1000 Ang^3
#
#
#
# Elastic Constant Matrix: (Units=GPa)
#
#
# Indices 1 2 3 4 5 6 
#
# 1 107.5640 40.2096 64.2094 0.0000 0.0000 0.0000
# 2 40.2096 52.7721 41.2206 0.0000 0.0000 0.0000
# 3 64.2094 41.2206 116.3292 0.0000 0.0000 0.0000
# 4 0.0000 0.0000 0.0000 12.5975 0.0000 0.0000
# 5 0.0000 0.0000 0.0000 0.0000 37.5810 0.0000
# 6 0.0000 0.0000 0.0000 0.0000 0.0000 24.4005
#
#
#
# Elastic Compliance Matrix: (Units=1/GPa)
#
#
# Indices 1 2 3 4 5 6 
#
# 1 0.015591 -0.007132 -0.006079 0.000000 0.000000 0.000000
# 2 -0.007132 0.029464 -0.006504 0.000000 0.000000 0.000000
# 3 -0.006079 -0.006504 0.014256 0.000000 0.000000 0.000000
# 4 0.000000 0.000000 0.000000 0.079381 0.000000 0.000000
# 5 0.000000 0.000000 0.000000 0.000000 0.026609 0.000000
# 6 0.000000 0.000000 0.000000 0.000000 0.000000 0.040983
#
#
# Mechanical properties :
#
#
# Convention : Reuss Voigt Hill
#
# Bulk Modulus (GPa) = 50.29542 63.10493 56.70018
# Shear Modulus (GPa) = 19.81454 23.65086 21.73270
#
# Velocity S-wave (km/s) = 3.23334 3.53250 3.38623
# Velocity P-wave (km/s) = 6.36207 7.06635 6.72344
#
# Compressibility (1/GPa) = 0.01988253
#
# Stress axis : x y z
#
# Youngs Moduli (GPa) = 64.13774 33.94024 70.14499
#
# Poissons Ratio (x) = 0.24205 0.42640
# Poissons Ratio (y) = 0.45741 0.45621
# Poissons Ratio (z) = 0.38988 0.22074
#
# Static dielectric constant tensor:
#      x y z
#    x 3.535940 0.000000 0.000000 
#    y 0.000000 3.312950 0.000000 
#    z 0.000000 0.000000 3.395580 
# 
# 
# High freq. dielectric constant tensor:
#      x y z
#    x 1.742400 0.000000 0.000000 
#    y 0.000000 1.720020 0.000000 
#    z 0.000000 0.000000 1.735490 
# 
# From -- ./inp_files/22356.got.cif
#   From: 2010.03.12/outbox.cif.g09.slc.cpg/sg51_12_cif.got.tgz:22356.got - 2010.04.16 13:43:02.
