data_PCOD8211939
_publ_section_title
;
Structure prediction by ZEFSAII (Michael W. Deem and Ramdas Pophale) SiO2 
 PCOD8211939
Probable space group: P M M A
;
_chemical_formula_sum "Si O2"
_cell_formula_units_Z 52
_cell_length_a 8.844745
_cell_length_b 22.556424
_cell_length_c 14.875960
_cell_angle_alpha 90.000000
_cell_angle_beta 90.000000
_cell_angle_gamma 90.000000
_cell_volume 2967.840574
_symmetry_space_group_name_H-M "P M M A"
_symmetry_group_IT_number 51
_symmetry_cell_setting 'orthorhombic'
loop_
_space_group_symop_operation_xyz
x,y,z
1/2-x,-y,z
1/2+x,-y,-z
-x,y,-z
-x,-y,-z
1/2+x,y,-z
1/2-x,y,z
x,-y,z
loop_
_atom_site_type_symbol
_atom_site_label
_atom_site_fract_x
_atom_site_fract_y
_atom_site_fract_z
Si Si1 0.069923 0.106354 0.212165
Si Si2 0.417202 0.570252 0.414166
Si Si3 0.569006 0.000000 0.099537
Si Si4 0.570854 0.795746 0.095845
Si Si5 0.072779 0.932192 0.408940
Si Si6 0.573199 0.339884 0.092157
Si Si7 0.571060 0.566422 0.233220
O O1 0.250000 0.099538 0.200709
O O2 0.023681 0.101798 0.317627
O O3 0.986980 0.057073 0.153246
O O4 0.010888 0.169092 0.175841
O O5 0.500000 0.598485 0.500000
O O6 0.250000 0.597567 0.406636
O O7 0.408117 0.500000 0.424148
O O8 0.513433 0.588836 0.328598
O O9 0.750000 0.000000 0.092848
O O10 0.500000 0.000000 0.000000
O O11 0.750000 0.808436 0.093602
O O12 0.532821 0.727483 0.117667
O O13 0.500000 0.814552 0.000000
O O14 0.250000 0.928040 0.422067
O O15 0.000000 0.904451 0.500000
O O16 0.018645 0.000000 0.397588
O O17 0.750000 0.348091 0.082579
O O18 0.505430 0.385941 0.163686
O O19 0.500000 0.359224 0.000000
O O20 0.750000 0.566590 0.235313
O O21 0.511088 0.500000 0.210353
#
# Coordination Sequence:
#
# PCOD8211939 Si02
#       7
#     8   8   4   8   8   8   8
#     4  11  21  36  54  76 105 134 167 208 252 294
#     4   9  16  26  42  66  95 126 158 194 238 291
#     4  12  24  36  51  74 105 138 167 202 250 300
#     4  10  20  35  53  74  98 131 172 209 249 299
#     4   9  18  33  52  75 103 133 164 202 245 290
#     4   9  19  34  51  71  98 130 167 209 249 296
#     4   9  17  30  48  71  99 130 163 203 253 303
#
# _framework density 17.521156999999999
#
# number of rings (size 3 to 8) (size 9 to 14) (size 15 to 20)
#    0.000    2.308    0.769    2.538    0.000    4.615 
#    0.000    0.000    0.000    0.923    0.000    2.154 
#    0.000    0.000    0.000    0.000    0.000    0.000 
#
# Total GULP energy -644679.046583 kJ/mol
# GULP energy per Si atom -12397.673973 kJ/mol
# Density = 1.748128 g / cm^3
# Si number density = 17.521157 Si / 1000 Ang^3
#
#
#
# Elastic Constant Matrix: (Units=GPa)
#
#
# Indices 1 2 3 4 5 6 
#
# 1 51.8877 30.5724 49.0120 0.0000 0.0000 0.0000
# 2 30.5724 76.1938 76.3343 0.0000 0.0000 0.0000
# 3 49.0120 76.3343 174.7835 0.0000 0.0000 0.0000
# 4 0.0000 0.0000 0.0000 17.7902 0.0000 0.0000
# 5 0.0000 0.0000 0.0000 0.0000 33.4679 0.0000
# 6 0.0000 0.0000 0.0000 0.0000 0.0000 17.0186
#
#
#
# Elastic Compliance Matrix: (Units=1/GPa)
#
#
# Indices 1 2 3 4 5 6 
#
# 1 0.027637 -0.005912 -0.005168 0.000000 0.000000 0.000000
# 2 -0.005912 0.024599 -0.009085 0.000000 0.000000 0.000000
# 3 -0.005168 -0.009085 0.011138 0.000000 0.000000 0.000000
# 4 0.000000 0.000000 0.000000 0.056211 0.000000 0.000000
# 5 0.000000 0.000000 0.000000 0.000000 0.029879 0.000000
# 6 0.000000 0.000000 0.000000 0.000000 0.000000 0.058759
#
#
# Mechanical properties :
#
#
# Convention : Reuss Voigt Hill
#
# Bulk Modulus (GPa) = 43.39524 68.30027 55.84775
# Shear Modulus (GPa) = 19.51334 23.45177 21.48256
#
# Velocity S-wave (km/s) = 3.34084 3.66250 3.50536
# Velocity P-wave (km/s) = 6.30101 7.54662 6.95177
#
# Compressibility (1/GPa) = 0.02304400
#
# Stress axis : x y z
#
# Youngs Moduli (GPa) = 36.18313 40.65276 89.77906
#
# Poissons Ratio (x) = 0.24033 0.46398
# Poissons Ratio (y) = 0.21391 0.81567
# Poissons Ratio (z) = 0.18700 0.36934
#
# Static dielectric constant tensor:
#      x y z
#    x 3.313590 0.000000 0.000000 
#    y 0.000000 3.227020 0.000000 
#    z 0.000000 0.000000 3.462450 
# 
# 
# High freq. dielectric constant tensor:
#      x y z
#    x 1.683530 0.000000 0.000000 
#    y 0.000000 1.647050 0.000000 
#    z 0.000000 0.000000 1.685650 
# 
# From -- ./inp_files/21519.got.cif
#   From: 2010.03.12/outbox.cif.g09.slc.cpg/sg51_11_cif.got.tgz:21519.got - 2010.04.16 13:43:02.
