data_PCOD8211238
_publ_section_title
;
Structure prediction by ZEFSAII (Michael W. Deem and Ramdas Pophale) SiO2 
 PCOD8211238
Probable space group: P M M A
;
_chemical_formula_sum "Si O2"
_cell_formula_units_Z 64
_cell_length_a 9.160797
_cell_length_b 14.310263
_cell_length_c 30.948222
_cell_angle_alpha 90.000000
_cell_angle_beta 90.000000
_cell_angle_gamma 90.000000
_cell_volume 4057.108090
_symmetry_space_group_name_H-M "P M M A"
_symmetry_group_IT_number 51
_symmetry_cell_setting 'orthorhombic'
loop_
_space_group_symop_operation_xyz
x,y,z
1/2-x,-y,z
1/2+x,-y,-z
-x,y,-z
-x,-y,-z
1/2+x,y,-z
1/2-x,y,z
x,-y,z
loop_
_atom_site_type_symbol
_atom_site_label
_atom_site_fract_x
_atom_site_fract_y
_atom_site_fract_z
Si Si1 0.422422 0.218841 0.705137
Si Si2 0.914873 0.888722 0.874556
Si Si3 0.415180 0.111434 0.958011
Si Si4 0.419698 0.605529 0.319470
Si Si5 0.578721 0.209028 0.542720
Si Si6 0.419564 0.891987 0.790046
Si Si7 0.076658 0.398507 0.417789
Si Si8 0.919915 0.891881 0.630236
O O1 0.250000 0.222485 0.700001
O O2 0.486081 0.323370 0.709273
O O3 0.469847 0.164417 0.748092
O O4 0.487296 0.166864 0.663849
O O5 0.750000 0.850411 0.876570
O O6 0.003714 0.849305 0.915556
O O7 0.990217 0.852843 0.830717
O O8 0.917060 0.000000 0.875639
O O9 0.250000 0.149790 0.958743
O O10 0.414962 0.000000 0.957771
O O11 0.500000 0.149322 0.000000
O O12 0.250000 0.632102 0.315711
O O13 0.446896 0.500000 0.302878
O O14 0.475306 0.615960 0.368666
O O15 0.500000 0.170975 0.500000
O O16 0.750000 0.210729 0.533890
O O17 0.517710 0.313630 0.553037
O O18 0.539506 0.140303 0.581937
O O19 0.250000 0.877579 0.800620
O O20 0.455505 0.000000 0.781032
O O21 0.250000 0.397585 0.417562
O O22 0.020070 0.500000 0.434999
O O23 0.750000 0.872769 0.639439
O O24 0.960672 0.000000 0.635019
#
# Coordination Sequence:
#
# PCOD8211238 Si02
#       8
#     8   8   8   8   8   8   8   8
#     4  11  21  32  50  74  98 118 143 184 229 268
#     4   9  16  25  37  54  76 104 143 190 232 268
#     4   9  15  22  33  49  71 102 141 186 233 277
#     4   9  17  32  54  74  93 120 149 175 210 260
#     4  10  20  34  50  69  92 116 145 177 215 262
#     4   9  18  31  43  58  85 120 151 180 223 273
#     4   8  14  28  50  70  89 114 140 168 206 254
#     4  10  21  37  54  69  88 118 154 187 219 261
#
# _framework density 15.774782999999999
#
# number of rings (size 3 to 8) (size 9 to 14) (size 15 to 20)
#    0.000    2.625    1.250    2.250    0.000    6.000 
#    0.000    1.250    0.000    0.000    0.000    0.000 
#    0.000    0.000    0.000    0.000    0.000    0.625 
#
# Total GULP energy -793491.755277 kJ/mol
# GULP energy per Si atom -12398.308676 kJ/mol
# Density = 1.573888 g / cm^3
# Si number density = 15.774783 Si / 1000 Ang^3
#
#
#
# Elastic Constant Matrix: (Units=GPa)
#
#
# Indices 1 2 3 4 5 6 
#
# 1 78.3910 30.7603 59.0845 0.0000 0.0000 0.0000
# 2 30.7603 65.3241 36.5333 0.0000 0.0000 0.0000
# 3 59.0845 36.5333 114.3983 0.0000 0.0000 0.0000
# 4 0.0000 0.0000 0.0000 4.7505 0.0000 0.0000
# 5 0.0000 0.0000 0.0000 0.0000 29.4169 0.0000
# 6 0.0000 0.0000 0.0000 0.0000 0.0000 15.9105
#
#
#
# Elastic Compliance Matrix: (Units=1/GPa)
#
#
# Indices 1 2 3 4 5 6 
#
# 1 0.022105 -0.004899 -0.009852 0.000000 0.000000 0.000000
# 2 -0.004899 0.019723 -0.003768 0.000000 0.000000 0.000000
# 3 -0.009852 -0.003768 0.015033 0.000000 0.000000 0.000000
# 4 0.000000 0.000000 0.000000 0.210506 0.000000 0.000000
# 5 0.000000 0.000000 0.000000 0.000000 0.033994 0.000000
# 6 0.000000 0.000000 0.000000 0.000000 0.000000 0.062852
#
#
# Mechanical properties :
#
#
# Convention : Reuss Voigt Hill
#
# Bulk Modulus (GPa) = 50.44940 56.76331 53.60636
# Shear Modulus (GPa) = 12.25919 18.79793 15.52856
#
# Velocity S-wave (km/s) = 2.79074 3.45576 3.14090
# Velocity P-wave (km/s) = 6.51420 7.21005 6.87094
#
# Compressibility (1/GPa) = 0.01982184
#
# Stress axis : x y z
#
# Youngs Moduli (GPa) = 45.23957 50.70346 66.51939
#
# Poissons Ratio (x) = 0.24839 0.65536
# Poissons Ratio (y) = 0.22162 0.25066
# Poissons Ratio (z) = 0.44571 0.19106
#
# Static dielectric constant tensor:
#      x y z
#    x 2.953730 0.000000 0.000000 
#    y 0.000000 2.932770 0.000000 
#    z 0.000000 0.000000 3.005080 
# 
# 
# High freq. dielectric constant tensor:
#      x y z
#    x 1.601750 0.000000 0.000000 
#    y 0.000000 1.569410 0.000000 
#    z 0.000000 0.000000 1.598210 
# 
# From -- ./inp_files/37552.got.cif
#   From: 2010.03.12/outbox.cif.g09.slc.cpg/sg51_19_cif.got.tgz:37552.got - 2010.04.16 13:43:02.
