data_PCOD8211500
_publ_section_title
;
Structure prediction by ZEFSAII (Michael W. Deem and Ramdas Pophale) SiO2 
 PCOD8211500
Probable space group: P M M A
;
_chemical_formula_sum "Si O2"
_cell_formula_units_Z 48
_cell_length_a 8.800904
_cell_length_b 19.278170
_cell_length_c 15.432861
_cell_angle_alpha 90.000000
_cell_angle_beta 90.000000
_cell_angle_gamma 90.000000
_cell_volume 2618.421354
_symmetry_space_group_name_H-M "P M M A"
_symmetry_group_IT_number 51
_symmetry_cell_setting 'orthorhombic'
loop_
_space_group_symop_operation_xyz
x,y,z
1/2-x,-y,z
1/2+x,-y,-z
-x,y,-z
-x,-y,-z
1/2+x,y,-z
1/2-x,y,z
x,-y,z
loop_
_atom_site_type_symbol
_atom_site_label
_atom_site_fract_x
_atom_site_fract_y
_atom_site_fract_z
Si Si1 0.069771 0.829507 0.591572
Si Si2 0.921391 0.917436 0.086678
Si Si3 0.071149 0.421668 0.260152
Si Si4 0.920518 0.417387 0.085491
Si Si5 0.930725 0.682796 0.591170
Si Si6 0.076157 0.082141 0.262462
O O1 0.250000 0.823348 0.582512
O O2 0.000000 0.853277 0.500000
O O3 0.000199 0.756009 0.620305
O O4 0.027317 0.886306 0.662507
O O5 0.750000 0.888638 0.092274
O O6 0.015270 0.891205 0.169810
O O7 0.920741 0.000000 0.083561
O O8 0.000000 0.887616 0.000000
O O9 0.250000 0.420676 0.249080
O O10 0.012495 0.500000 0.277388
O O11 0.017838 0.374452 0.339620
O O12 0.002529 0.390316 0.171942
O O13 0.750000 0.389416 0.086741
O O14 0.927987 0.500000 0.082785
O O15 0.000000 0.386253 0.000000
O O16 0.750000 0.689492 0.583572
O O17 0.000000 0.658769 0.500000
O O18 0.250000 0.106491 0.272903
O O19 0.061321 0.000000 0.269413
#
# Coordination Sequence:
#
# PCOD8211500 Si02
#       6
#     8   8   8   8   8   8
#     4  11  22  37  56  75  99 132 170 209 251 303
#     4   9  16  27  45  71 103 137 171 206 246 293
#     4   9  18  32  50  74 103 133 166 206 250 293
#     4   9  16  26  43  68  98 131 165 202 244 292
#     4  10  20  35  54  74  99 132 169 207 249 299
#     4  10  20  34  53  78 106 134 167 209 254 298
#
# _framework density 18.331655000000001
#
# number of rings (size 3 to 8) (size 9 to 14) (size 15 to 20)
#    0.000    2.333    0.000    4.500    0.000    7.000 
#    0.000    0.000    0.000    1.000    0.000    2.333 
#    0.000    0.000    0.000    0.000    0.000    0.000 
#
# Total GULP energy -595242.434838 kJ/mol
# GULP energy per Si atom -12400.884059 kJ/mol
# Density = 1.828993 g / cm^3
# Si number density = 18.331655 Si / 1000 Ang^3
#
#
#
# Elastic Constant Matrix: (Units=GPa)
#
#
# Indices 1 2 3 4 5 6 
#
# 1 100.9036 29.3752 60.2562 0.0000 0.0000 0.0000
# 2 29.3752 37.3250 50.8112 0.0000 0.0000 0.0000
# 3 60.2562 50.8112 153.1981 0.0000 0.0000 0.0000
# 4 0.0000 0.0000 0.0000 1.3419 0.0000 0.0000
# 5 0.0000 0.0000 0.0000 0.0000 38.9993 0.0000
# 6 0.0000 0.0000 0.0000 0.0000 0.0000 20.6624
#
#
#
# Elastic Compliance Matrix: (Units=1/GPa)
#
#
# Indices 1 2 3 4 5 6 
#
# 1 0.013718 -0.006292 -0.003309 0.000000 0.000000 0.000000
# 2 -0.006292 0.051732 -0.014683 0.000000 0.000000 0.000000
# 3 -0.003309 -0.014683 0.012699 0.000000 0.000000 0.000000
# 4 0.000000 0.000000 0.000000 0.745236 0.000000 0.000000
# 5 0.000000 0.000000 0.000000 0.000000 0.025641 0.000000
# 6 0.000000 0.000000 0.000000 0.000000 0.000000 0.048397
#
#
# Mechanical properties :
#
#
# Convention : Reuss Voigt Hill
#
# Bulk Modulus (GPa) = 33.80532 63.59019 48.69776
# Shear Modulus (GPa) = 5.23094 22.26632 13.74863
#
# Velocity S-wave (km/s) = 1.69106 3.48895 2.74157
# Velocity P-wave (km/s) = 4.72164 7.14103 6.05344
#
# Compressibility (1/GPa) = 0.02958115
#
# Stress axis : x y z
#
# Youngs Moduli (GPa) = 72.89668 19.33033 78.74711
#
# Poissons Ratio (x) = 0.12163 0.26055
# Poissons Ratio (y) = 0.45867 1.15626
# Poissons Ratio (z) = 0.24120 0.28383
#
# Static dielectric constant tensor:
#      x y z
#    x 3.525690 0.000000 0.000000 
#    y 0.000000 3.015020 0.000000 
#    z 0.000000 0.000000 3.559270 
# 
# 
# High freq. dielectric constant tensor:
#      x y z
#    x 1.726250 0.000000 0.000000 
#    y 0.000000 1.663330 0.000000 
#    z 0.000000 0.000000 1.725940 
# 
# From -- ./inp_files/21057.got.cif
#   From: 2010.03.12/outbox.cif.g09.slc.cpg/sg51_11_cif.got.tgz:21057.got - 2010.04.16 13:43:02.
