data_PCOD8211003
_publ_section_title
;
Structure prediction by ZEFSAII (Michael W. Deem and Ramdas Pophale) SiO2 
 PCOD8211003
Probable space group: P M M A
;
_chemical_formula_sum "Si O2"
_cell_formula_units_Z 48
_cell_length_a 9.051123
_cell_length_b 9.243209
_cell_length_c 30.763024
_cell_angle_alpha 90.000000
_cell_angle_beta 90.000000
_cell_angle_gamma 90.000000
_cell_volume 2573.678320
_symmetry_space_group_name_H-M "P M M A"
_symmetry_group_IT_number 51
_symmetry_cell_setting 'orthorhombic'
loop_
_space_group_symop_operation_xyz
x,y,z
1/2-x,-y,z
1/2+x,-y,-z
-x,y,-z
-x,-y,-z
1/2+x,y,-z
1/2-x,y,z
x,-y,z
loop_
_atom_site_type_symbol
_atom_site_label
_atom_site_fract_x
_atom_site_fract_y
_atom_site_fract_z
Si Si1 0.920270 0.330217 0.120339
Si Si2 0.921286 0.669652 0.371429
Si Si3 0.583285 0.327672 0.542318
Si Si4 0.079731 0.833032 0.793272
Si Si5 0.579807 0.830393 0.705803
Si Si6 0.423235 0.165948 0.044288
O O1 0.750000 0.291309 0.110628
O O2 0.946668 0.500000 0.123069
O O3 0.970813 0.261637 0.165846
O O4 0.021087 0.266353 0.082777
O O5 0.750000 0.707782 0.375783
O O6 0.948137 0.500000 0.365647
O O7 0.001356 0.728660 0.414627
O O8 0.987005 0.747887 0.330004
O O9 0.500000 0.265453 0.500000
O O10 0.750000 0.267874 0.542495
O O11 0.581732 0.500000 0.541040
O O12 0.250000 0.804220 0.781082
O O13 0.980261 0.783935 0.752854
O O14 0.052547 0.000000 0.805219
O O15 0.750000 0.784502 0.702394
O O16 0.557194 0.000000 0.698459
O O17 0.250000 0.187254 0.038495
O O18 0.464720 0.000000 0.054823
O O19 0.500000 0.217384 0.000000
#
# Coordination Sequence:
#
# PCOD8211003 Si02
#       6
#     8   8   8   8   8   8
#     4  10  21  36  55  81 112 143 174 212 261 313
#     4  10  20  33  51  76 104 135 173 216 261 309
#     4   9  16  27  45  70 101 135 171 212 257 306
#     4   9  18  34  55  76 101 137 178 216 254 302
#     4  10  21  36  54  77 105 137 173 214 261 313
#     4  10  21  37  58  82 107 139 180 222 262 307
#
# _framework density 18.65035
#
# number of rings (size 3 to 8) (size 9 to 14) (size 15 to 20)
#    0.000    2.333    0.000    2.500    0.000    7.667 
#    0.000    3.333    0.000    0.500    0.000    0.000 
#    0.000    0.000    0.000    0.000    0.000    0.000 
#
# Total GULP energy -595383.589316 kJ/mol
# GULP energy per Si atom -12403.824777 kJ/mol
# Density = 1.860790 g / cm^3
# Si number density = 18.650350 Si / 1000 Ang^3
#
#
#
# Elastic Constant Matrix: (Units=GPa)
#
#
# Indices 1 2 3 4 5 6 
#
# 1 110.3590 41.4785 76.7897 0.0000 0.0000 0.0000
# 2 41.4785 51.3642 58.2845 0.0000 0.0000 0.0000
# 3 76.7897 58.2845 157.0258 0.0000 0.0000 0.0000
# 4 0.0000 0.0000 0.0000 27.6458 0.0000 0.0000
# 5 0.0000 0.0000 0.0000 0.0000 41.8851 0.0000
# 6 0.0000 0.0000 0.0000 0.0000 0.0000 25.0973
#
#
#
# Elastic Compliance Matrix: (Units=1/GPa)
#
#
# Indices 1 2 3 4 5 6 
#
# 1 0.014893 -0.006500 -0.004871 0.000000 0.000000 0.000000
# 2 -0.006500 0.036473 -0.010359 0.000000 0.000000 0.000000
# 3 -0.004871 -0.010359 0.012595 0.000000 0.000000 0.000000
# 4 0.000000 0.000000 0.000000 0.036172 0.000000 0.000000
# 5 0.000000 0.000000 0.000000 0.000000 0.023875 0.000000
# 6 0.000000 0.000000 0.000000 0.000000 0.000000 0.039845
#
#
# Mechanical properties :
#
#
# Convention : Reuss Voigt Hill
#
# Bulk Modulus (GPa) = 48.77635 74.65048 61.71342
# Shear Modulus (GPa) = 23.34844 28.40538 25.87691
#
# Velocity S-wave (km/s) = 3.54206 3.90686 3.72892
# Velocity P-wave (km/s) = 6.55272 7.77590 7.19037
#
# Compressibility (1/GPa) = 0.02050174
#
# Stress axis : x y z
#
# Youngs Moduli (GPa) = 67.14350 27.41765 79.39488
#
# Poissons Ratio (x) = 0.17822 0.38670
# Poissons Ratio (y) = 0.43645 0.82246
# Poissons Ratio (z) = 0.32702 0.28402
#
# Static dielectric constant tensor:
#      x y z
#    x 3.676580 0.000000 0.000000 
#    y 0.000000 3.192320 0.000000 
#    z 0.000000 0.000000 3.555350 
# 
# 
# High freq. dielectric constant tensor:
#      x y z
#    x 1.733680 0.000000 0.000000 
#    y 0.000000 1.697530 0.000000 
#    z 0.000000 0.000000 1.738050 
# 
# From -- ./inp_files/36901.got.cif
#   From: 2010.03.12/outbox.cif.g09.slc.cpg/sg51_19_cif.got.tgz:36901.got - 2010.04.16 13:43:02.
