data_PCOD8211634
_publ_section_title
;
Structure prediction by ZEFSAII (Michael W. Deem and Ramdas Pophale) SiO2 
 PCOD8211634
Probable space group: P M M A
;
_chemical_formula_sum "Si O2"
_cell_formula_units_Z 48
_cell_length_a 8.664381
_cell_length_b 30.386454
_cell_length_c 9.411438
_cell_angle_alpha 90.000000
_cell_angle_beta 90.000000
_cell_angle_gamma 90.000000
_cell_volume 2477.841653
_symmetry_space_group_name_H-M "P M M A"
_symmetry_group_IT_number 51
_symmetry_cell_setting 'orthorhombic'
loop_
_space_group_symop_operation_xyz
x,y,z
1/2-x,-y,z
1/2+x,-y,-z
-x,y,-z
-x,-y,-z
1/2+x,y,-z
1/2-x,y,z
x,-y,z
loop_
_atom_site_type_symbol
_atom_site_label
_atom_site_fract_x
_atom_site_fract_y
_atom_site_fract_z
Si Si1 0.569944 0.448671 0.149404
Si Si2 0.430839 0.217779 0.653305
Si Si3 0.932228 0.048855 0.848521
Si Si4 0.067492 0.378146 0.344083
Si Si5 0.433060 0.127139 0.345813
Si Si6 0.068491 0.699004 0.843807
O O1 0.750000 0.437470 0.149133
O O2 0.536922 0.500000 0.170906
O O3 0.488488 0.424559 0.280638
O O4 0.500000 0.432087 0.000000
O O5 0.500000 0.230086 0.500000
O O6 0.250000 0.210773 0.633276
O O7 0.504517 0.173158 0.717076
O O8 0.470572 0.255890 0.763739
O O9 0.750000 0.051185 0.858859
O O10 0.996642 0.085864 0.743106
O O11 0.985285 0.000000 0.797961
O O12 0.000000 0.060380 0.000000
O O13 0.250000 0.377669 0.355261
O O14 0.000000 0.370686 0.500000
O O15 0.011472 0.340186 0.239910
O O16 0.500000 0.120165 0.500000
O O17 0.250000 0.128622 0.349394
O O18 0.250000 0.689851 0.851122
O O19 0.000000 0.702161 0.000000
#
# Coordination Sequence:
#
# PCOD8211634 Si02
#       6
#     8   8   8   8   8   8
#     4  10  21  39  63  90 121 157 196 238 285 337
#     4  10  21  37  58  82 110 144 182 225 274 329
#     4   9  19  35  53  75 104 139 179 222 269 321
#     4  12  25  41  62  87 118 154 193 238 286 338
#     4  10  20  34  54  79 108 141 178 222 270 324
#     4  11  24  41  61  86 115 149 189 232 280 334
#
# _framework density 19.371697000000001
#
# number of rings (size 3 to 8) (size 9 to 14) (size 15 to 20)
#    0.000    1.667    0.000    5.500    0.000    7.667 
#    0.000    3.333    0.000    0.000    0.000    0.000 
#    0.000    0.000    0.000    0.000    0.000    0.000 
#
# Total GULP energy -595335.950681 kJ/mol
# GULP energy per Si atom -12402.832306 kJ/mol
# Density = 1.932761 g / cm^3
# Si number density = 19.371697 Si / 1000 Ang^3
#
#
#
# Elastic Constant Matrix: (Units=GPa)
#
#
# Indices 1 2 3 4 5 6 
#
# 1 114.2140 62.0753 55.5682 0.0000 0.0000 0.0000
# 2 62.0753 131.3167 79.3228 0.0000 0.0000 0.0000
# 3 55.5682 79.3228 120.4726 0.0000 0.0000 0.0000
# 4 0.0000 0.0000 0.0000 50.0097 0.0000 0.0000
# 5 0.0000 0.0000 0.0000 0.0000 36.1089 0.0000
# 6 0.0000 0.0000 0.0000 0.0000 0.0000 27.7570
#
#
#
# Elastic Compliance Matrix: (Units=1/GPa)
#
#
# Indices 1 2 3 4 5 6 
#
# 1 0.012443 -0.004010 -0.003099 0.000000 0.000000 0.000000
# 2 -0.004010 0.013936 -0.007327 0.000000 0.000000 0.000000
# 3 -0.003099 -0.007327 0.014554 0.000000 0.000000 0.000000
# 4 0.000000 0.000000 0.000000 0.019996 0.000000 0.000000
# 5 0.000000 0.000000 0.000000 0.000000 0.027694 0.000000
# 6 0.000000 0.000000 0.000000 0.000000 0.000000 0.036027
#
#
# Mechanical properties :
#
#
# Convention : Reuss Voigt Hill
#
# Bulk Modulus (GPa) = 82.90314 84.43731 83.67022
# Shear Modulus (GPa) = 31.73766 34.04426 32.89096
#
# Velocity S-wave (km/s) = 4.05205 4.19671 4.12501
# Velocity P-wave (km/s) = 8.04867 8.19547 8.12240
#
# Compressibility (1/GPa) = 0.01206227
#
# Stress axis : x y z
#
# Youngs Moduli (GPa) = 80.36927 71.75484 68.70927
#
# Poissons Ratio (x) = 0.28772 0.21293
# Poissons Ratio (y) = 0.32227 0.50340
# Poissons Ratio (z) = 0.24906 0.52572
#
# Static dielectric constant tensor:
#      x y z
#    x 3.657520 0.000000 0.000000 
#    y 0.000000 3.948710 0.000000 
#    z 0.000000 0.000000 3.609760 
# 
# 
# High freq. dielectric constant tensor:
#      x y z
#    x 1.767480 0.000000 0.000000 
#    y 0.000000 1.771190 0.000000 
#    z 0.000000 0.000000 1.753300 
# 
# From -- ./inp_files/6002.got.cif
#   From: 2010.03.12/outbox.cif.g09.slc.cpg/sg51_4_cif.got.tgz:6002.got - 2010.04.16 13:43:02.
