data_PCOD8211854
_publ_section_title
;
Structure prediction by ZEFSAII (Michael W. Deem and Ramdas Pophale) SiO2 
 PCOD8211854
Probable space group: P M M A
;
_chemical_formula_sum "Si O2"
_cell_formula_units_Z 48
_cell_length_a 14.464256
_cell_length_b 9.328360
_cell_length_c 19.530547
_cell_angle_alpha 90.000000
_cell_angle_beta 90.000000
_cell_angle_gamma 90.000000
_cell_volume 2635.213488
_symmetry_space_group_name_H-M "P M M A"
_symmetry_group_IT_number 51
_symmetry_cell_setting 'orthorhombic'
loop_
_space_group_symop_operation_xyz
x,y,z
1/2-x,-y,z
1/2+x,-y,-z
-x,y,-z
-x,-y,-z
1/2+x,y,-z
1/2-x,y,z
x,-y,z
loop_
_atom_site_type_symbol
_atom_site_label
_atom_site_fract_x
_atom_site_fract_y
_atom_site_fract_z
Si Si1 0.857799 0.666536 0.585837
Si Si2 0.750000 0.168830 0.123137
Si Si3 0.448755 0.334144 0.068548
Si Si4 0.002033 0.832892 0.666122
Si Si5 0.750000 0.663175 0.983841
Si Si6 0.555920 0.168460 0.181609
Si Si7 0.643887 0.835301 0.451565
O O1 0.750000 0.692495 0.599404
O O2 0.882944 0.500000 0.582368
O O3 0.911783 0.740780 0.648017
O O4 0.889274 0.738599 0.514731
O O5 0.659746 0.220008 0.164511
O O6 0.750000 0.000000 0.113440
O O7 0.750000 0.235133 0.048515
O O8 0.472616 0.500000 0.081112
O O9 0.339451 0.306756 0.062445
O O10 0.482569 0.245004 0.133091
O O11 0.500000 0.279504 0.000000
O O12 0.035314 0.786463 0.740925
O O13 0.084681 0.794318 0.614514
O O14 0.976225 0.000000 0.662878
O O15 0.750000 0.500000 0.010961
O O16 0.545100 0.000000 0.170409
O O17 0.750000 0.804480 0.432423
O O18 0.628841 0.000000 0.473338
#
# Coordination Sequence:
#
# PCOD8211854 Si02
#       7
#     8   4   8   8   4   8   8
#     4  10  21  37  56  78 106 141 182 227 271 314
#     4  10  20  34  56  84 112 141 170 213 272 323
#     4  10  20  36  58  81 108 142 182 224 265 316
#     4  10  21  36  55  80 110 144 179 217 265 321
#     4  10  20  36  58  82 106 139 182 225 268 315
#     4  10  22  37  55  82 114 143 175 218 268 321
#     4   9  18  33  56  83 109 140 178 219 264 319
#
# _framework density 18.214842999999998
#
# number of rings (size 3 to 8) (size 9 to 14) (size 15 to 20)
#    0.000    2.167    1.667    1.000    1.167    5.333 
#    1.500    0.000    0.000    0.000    0.000    0.000 
#    0.000    0.000    0.000    0.000    0.000    0.000 
#
# Total GULP energy -595410.416148 kJ/mol
# GULP energy per Si atom -12404.383670 kJ/mol
# Density = 1.817339 g / cm^3
# Si number density = 18.214843 Si / 1000 Ang^3
#
#
#
# Elastic Constant Matrix: (Units=GPa)
#
#
# Indices 1 2 3 4 5 6 
#
# 1 116.9442 43.9864 68.4196 0.0000 0.0000 0.0000
# 2 43.9864 53.0924 50.7126 0.0000 0.0000 0.0000
# 3 68.4196 50.7126 129.9512 0.0000 0.0000 0.0000
# 4 0.0000 0.0000 0.0000 8.1591 0.0000 0.0000
# 5 0.0000 0.0000 0.0000 0.0000 17.9266 0.0000
# 6 0.0000 0.0000 0.0000 0.0000 0.0000 27.1935
#
#
#
# Elastic Compliance Matrix: (Units=1/GPa)
#
#
# Indices 1 2 3 4 5 6 
#
# 1 0.013899 -0.007214 -0.004502 0.000000 0.000000 0.000000
# 2 -0.007214 0.033773 -0.009381 0.000000 0.000000 0.000000
# 3 -0.004502 -0.009381 0.013727 0.000000 0.000000 0.000000
# 4 0.000000 0.000000 0.000000 0.122563 0.000000 0.000000
# 5 0.000000 0.000000 0.000000 0.000000 0.055783 0.000000
# 6 0.000000 0.000000 0.000000 0.000000 0.000000 0.036774
#
#
# Mechanical properties :
#
#
# Convention : Reuss Voigt Hill
#
# Bulk Modulus (GPa) = 52.07712 69.58054 60.82883
# Shear Modulus (GPa) = 15.37917 19.78043 17.57980
#
# Velocity S-wave (km/s) = 2.90887 3.29895 3.11003
# Velocity P-wave (km/s) = 6.31938 7.26592 6.80912
#
# Compressibility (1/GPa) = 0.01920229
#
# Stress axis : x y z
#
# Youngs Moduli (GPa) = 71.94838 29.60956 72.85097
#
# Poissons Ratio (x) = 0.21362 0.32800
# Poissons Ratio (y) = 0.51907 0.68343
# Poissons Ratio (z) = 0.32394 0.27777
#
# Static dielectric constant tensor:
#      x y z
#    x 3.629540 0.000000 0.000000 
#    y 0.000000 3.316530 0.000000 
#    z 0.000000 0.000000 3.268680 
# 
# 
# High freq. dielectric constant tensor:
#      x y z
#    x 1.719590 0.000000 0.000000 
#    y 0.000000 1.700150 0.000000 
#    z 0.000000 0.000000 1.698170 
# 
# From -- ./inp_files/29503.got.cif
#   From: 2010.03.12/outbox.cif.g09.slc.cpg/sg51_15_cif.got.tgz:29503.got - 2010.04.16 13:43:02.
