data_PCOD8211230
_publ_section_title
;
Structure prediction by ZEFSAII (Michael W. Deem and Ramdas Pophale) SiO2 
 PCOD8211230
Probable space group: P M M A
;
_chemical_formula_sum "Si O2"
_cell_formula_units_Z 64
_cell_length_a 19.664743
_cell_length_b 9.423657
_cell_length_c 19.815718
_cell_angle_alpha 90.000000
_cell_angle_beta 90.000000
_cell_angle_gamma 90.000000
_cell_volume 3672.125864
_symmetry_space_group_name_H-M "P M M A"
_symmetry_group_IT_number 51
_symmetry_cell_setting 'orthorhombic'
loop_
_space_group_symop_operation_xyz
x,y,z
1/2-x,-y,z
1/2+x,-y,-z
-x,y,-z
-x,-y,-z
1/2+x,y,-z
1/2-x,y,z
x,-y,z
loop_
_atom_site_type_symbol
_atom_site_label
_atom_site_fract_x
_atom_site_fract_y
_atom_site_fract_z
Si Si1 0.955156 0.166080 0.936747
Si Si2 0.326849 0.665125 0.025995
Si Si3 0.050755 0.166846 0.811714
Si Si4 0.944782 0.663812 0.552589
Si Si5 0.322092 0.339775 0.294944
Si Si6 0.676115 0.160803 0.572968
Si Si7 0.030935 0.338638 0.290530
Si Si8 0.827560 0.336936 0.131191
O O1 0.882758 0.245642 0.932989
O O2 0.997433 0.204207 0.870292
O O3 0.939582 0.000000 0.942950
O O4 0.000000 0.219177 0.000000
O O5 0.250000 0.707224 0.048762
O O6 0.339424 0.500000 0.040638
O O7 0.335692 0.699396 0.947335
O O8 0.123934 0.234513 0.826464
O O9 0.022415 0.231940 0.742461
O O10 0.060782 0.000000 0.802925
O O11 0.929049 0.500000 0.541510
O O12 0.877774 0.749620 0.530436
O O13 0.966110 0.695955 0.629725
O O14 0.000000 0.718949 0.500000
O O15 0.250000 0.327239 0.252532
O O16 0.326929 0.500000 0.325833
O O17 0.317836 0.225128 0.352962
O O18 0.393584 0.314550 0.256053
O O19 0.750000 0.168040 0.537166
O O20 0.650581 0.000000 0.579832
O O21 0.006501 0.500000 0.278362
O O22 0.750000 0.309275 0.154135
O O23 0.847826 0.500000 0.144672
#
# Coordination Sequence:
#
# PCOD8211230 Si02
#       8
#     8   8   8   8   8   8   8   8
#     4  10  20  34  49  70 100 133 167 201 242 291
#     4   9  18  32  51  76 101 126 163 210 255 297
#     4  11  22  34  50  73 102 134 168 205 244 294
#     4   9  18  33  53  75  98 127 165 206 247 295
#     4   8  14  27  47  68  91 124 165 203 237 279
#     4   9  16  25  41  69 101 128 156 193 238 286
#     4   9  18  32  50  73 101 131 163 203 251 297
#     4   9  18  33  53  76  99 124 160 207 255 299
#
# _framework density 17.428597
#
# number of rings (size 3 to 8) (size 9 to 14) (size 15 to 20)
#    0.000    2.750    1.250    2.250    0.000    4.750 
#    0.000    1.875    0.000    3.000    0.000    1.750 
#    0.000    0.000    0.000    0.000    0.000    0.000 
#
# Total GULP energy -793040.137841 kJ/mol
# GULP energy per Si atom -12391.252154 kJ/mol
# Density = 1.738893 g / cm^3
# Si number density = 17.428597 Si / 1000 Ang^3
#
#
#
# Elastic Constant Matrix: (Units=GPa)
#
#
# Indices 1 2 3 4 5 6 
#
# 1 128.9433 67.8992 36.7322 0.0000 0.0000 0.0000
# 2 67.8992 83.3988 31.0450 0.0000 0.0000 0.0000
# 3 36.7322 31.0450 44.2335 0.0000 0.0000 0.0000
# 4 0.0000 0.0000 0.0000 14.4306 0.0000 0.0000
# 5 0.0000 0.0000 0.0000 0.0000 23.1448 0.0000
# 6 0.0000 0.0000 0.0000 0.0000 0.0000 31.8899
#
#
#
# Elastic Compliance Matrix: (Units=1/GPa)
#
#
# Indices 1 2 3 4 5 6 
#
# 1 0.014358 -0.009816 -0.005034 0.000000 0.000000 0.000000
# 2 -0.009816 0.022942 -0.007950 0.000000 0.000000 0.000000
# 3 -0.005034 -0.007950 0.032368 0.000000 0.000000 0.000000
# 4 0.000000 0.000000 0.000000 0.069297 0.000000 0.000000
# 5 0.000000 0.000000 0.000000 0.000000 0.043206 0.000000
# 6 0.000000 0.000000 0.000000 0.000000 0.000000 0.031358
#
#
# Mechanical properties :
#
#
# Convention : Reuss Voigt Hill
#
# Bulk Modulus (GPa) = 41.55057 58.65869 50.10463
# Shear Modulus (GPa) = 18.71597 21.95301 20.33449
#
# Velocity S-wave (km/s) = 3.28054 3.55293 3.41945
# Velocity P-wave (km/s) = 6.18397 7.11061 6.66342
#
# Compressibility (1/GPa) = 0.02406706
#
# Stress axis : x y z
#
# Youngs Moduli (GPa) = 69.64624 43.58897 30.89513
#
# Poissons Ratio (x) = 0.42786 0.15553
# Poissons Ratio (y) = 0.68364 0.24562
# Poissons Ratio (z) = 0.35061 0.34654
#
# Static dielectric constant tensor:
#      x y z
#    x 3.597750 0.000000 0.000000 
#    y 0.000000 3.202690 0.000000 
#    z 0.000000 0.000000 2.818730 
# 
# 
# High freq. dielectric constant tensor:
#      x y z
#    x 1.687860 0.000000 0.000000 
#    y 0.000000 1.675890 0.000000 
#    z 0.000000 0.000000 1.621670 
# 
# From -- ./inp_files/30578.got.cif
#   From: 2010.03.12/outbox.cif.g09.slc.cpg/sg51_16_cif.got.tgz:30578.got - 2010.04.16 13:43:02.
