data_PCOD8211370
_publ_section_title
;
Structure prediction by ZEFSAII (Michael W. Deem and Ramdas Pophale) SiO2 
 PCOD8211370
Probable space group: P M M A
;
_chemical_formula_sum "Si O2"
_cell_formula_units_Z 44
_cell_length_a 9.675357
_cell_length_b 8.051537
_cell_length_c 30.154008
_cell_angle_alpha 90.000000
_cell_angle_beta 90.000000
_cell_angle_gamma 90.000000
_cell_volume 2349.042300
_symmetry_space_group_name_H-M "P M M A"
_symmetry_group_IT_number 51
_symmetry_cell_setting 'orthorhombic'
loop_
_space_group_symop_operation_xyz
x,y,z
1/2-x,-y,z
1/2+x,-y,-z
-x,y,-z
-x,-y,-z
1/2+x,y,-z
1/2-x,y,z
x,-y,z
loop_
_atom_site_type_symbol
_atom_site_label
_atom_site_fract_x
_atom_site_fract_y
_atom_site_fract_z
Si Si1 0.586069 0.683781 0.897762
Si Si2 0.594828 0.803462 0.460936
Si Si3 0.404483 0.304440 0.288310
Si Si4 0.415189 0.000000 0.044847
Si Si5 0.404838 0.303759 0.634092
Si Si6 0.085833 0.187795 0.194447
O O1 0.750000 0.690129 0.896316
O O2 0.536187 0.500000 0.914354
O O3 0.528003 0.710776 0.847848
O O4 0.535870 0.833572 0.929277
O O5 0.500000 0.727963 0.500000
O O6 0.750000 0.731859 0.466563
O O7 0.533086 0.747718 0.413569
O O8 0.595981 0.000000 0.463781
O O9 0.250000 0.228072 0.292601
O O10 0.396830 0.500000 0.293336
O O11 0.499266 0.227200 0.327186
O O12 0.471860 0.260541 0.240643
O O13 0.250000 0.000000 0.036535
O O14 0.500000 0.000000 0.000000
O O15 0.250000 0.230027 0.639218
O O16 0.401278 0.500000 0.638260
O O17 0.250000 0.201026 0.195222
O O18 0.035404 0.000000 0.189005
#
# Coordination Sequence:
#
# PCOD8211370 Si02
#       6
#     8   8   8   4   8   8
#     4   9  16  28  48  73 101 133 168 207 252 299
#     4   9  18  32  48  65  85 111 144 183 226 272
#     4   9  17  28  43  66  93 118 146 184 230 273
#     4  10  20  34  52  76 104 134 170 212 253 298
#     4   9  18  32  47  63  88 121 152 182 221 274
#     4   9  15  25  43  69  98 123 154 199 242 280
#
# _framework density 18.731037000000001
#
# number of rings (size 3 to 8) (size 9 to 14) (size 15 to 20)
#    0.000    2.909    0.909    0.545    0.000    4.364 
#    0.000    0.000    0.000    1.091    0.000    0.000 
#    0.000    0.000    0.000    0.000    0.000    0.000 
#
# Total GULP energy -545317.619647 kJ/mol
# GULP energy per Si atom -12393.582265 kJ/mol
# Density = 1.868840 g / cm^3
# Si number density = 18.731037 Si / 1000 Ang^3
#
#
#
# Elastic Constant Matrix: (Units=GPa)
#
#
# Indices 1 2 3 4 5 6 
#
# 1 43.5218 19.6111 56.2594 0.0000 0.0000 0.0000
# 2 19.6111 73.3102 50.2884 0.0000 0.0000 0.0000
# 3 56.2594 50.2884 183.6782 0.0000 0.0000 0.0000
# 4 0.0000 0.0000 0.0000 30.3029 0.0000 0.0000
# 5 0.0000 0.0000 0.0000 0.0000 28.6357 0.0000
# 6 0.0000 0.0000 0.0000 0.0000 0.0000 9.4872
#
#
#
# Elastic Compliance Matrix: (Units=1/GPa)
#
#
# Indices 1 2 3 4 5 6 
#
# 1 0.038473 -0.002719 -0.011039 0.000000 0.000000 0.000000
# 2 -0.002719 0.016987 -0.003818 0.000000 0.000000 0.000000
# 3 -0.011039 -0.003818 0.009871 0.000000 0.000000 0.000000
# 4 0.000000 0.000000 0.000000 0.033000 0.000000 0.000000
# 5 0.000000 0.000000 0.000000 0.000000 0.034921 0.000000
# 6 0.000000 0.000000 0.000000 0.000000 0.000000 0.105405
#
#
# Mechanical properties :
#
#
# Convention : Reuss Voigt Hill
#
# Bulk Modulus (GPa) = 33.13717 61.42534 47.28126
# Shear Modulus (GPa) = 17.61373 25.30859 21.46116
#
# Velocity S-wave (km/s) = 3.06984 3.67980 3.38857
# Velocity P-wave (km/s) = 5.50406 7.13576 6.37235
#
# Compressibility (1/GPa) = 0.03017759
#
# Stress axis : x y z
#
# Youngs Moduli (GPa) = 25.99255 58.86842 101.30770
#
# Poissons Ratio (x) = 0.16006 1.11838
# Poissons Ratio (y) = 0.07067 0.38679
# Poissons Ratio (z) = 0.28694 0.22476
#
# Static dielectric constant tensor:
#      x y z
#    x 3.271610 0.000000 0.000000 
#    y 0.000000 3.434840 0.000000 
#    z 0.000000 0.000000 3.657290 
# 
# 
# High freq. dielectric constant tensor:
#      x y z
#    x 1.671040 0.000000 0.000000 
#    y 0.000000 1.724650 0.000000 
#    z 0.000000 0.000000 1.737300 
# 
# From -- ./inp_files/36771.got.cif
#   From: 2010.03.12/outbox.cif.g09.slc.cpg/sg51_19_cif.got.tgz:36771.got - 2010.04.16 13:43:02.
