data_PCOD8211292
_publ_section_title
;
Structure prediction by ZEFSAII (Michael W. Deem and Ramdas Pophale) SiO2 
 PCOD8211292
Probable space group: P M M A
;
_chemical_formula_sum "Si O2"
_cell_formula_units_Z 32
_cell_length_a 9.536337
_cell_length_b 7.750610
_cell_length_c 23.755051
_cell_angle_alpha 90.000000
_cell_angle_beta 90.000000
_cell_angle_gamma 90.000000
_cell_volume 1755.793518
_symmetry_space_group_name_H-M "P M M A"
_symmetry_group_IT_number 51
_symmetry_cell_setting 'orthorhombic'
loop_
_space_group_symop_operation_xyz
x,y,z
1/2-x,-y,z
1/2+x,-y,-z
-x,y,-z
-x,-y,-z
1/2+x,y,-z
1/2-x,y,z
x,-y,z
loop_
_atom_site_type_symbol
_atom_site_label
_atom_site_fract_x
_atom_site_fract_y
_atom_site_fract_z
Si Si1 0.090750 0.798256 0.761792
Si Si2 0.582816 0.500000 0.442376
Si Si3 0.409608 0.692161 0.136942
Si Si4 0.415495 0.000000 0.057170
Si Si5 0.083519 0.190619 0.636326
O O1 0.250000 0.732145 0.767584
O O2 0.031815 0.759532 0.699042
O O3 0.997529 0.696034 0.805947
O O4 0.081614 0.000000 0.774842
O O5 0.750000 0.500000 0.452529
O O6 0.500000 0.500000 0.500000
O O7 0.531842 0.668696 0.408392
O O8 0.250000 0.736363 0.153080
O O9 0.423064 0.500000 0.110842
O O10 0.463290 0.830229 0.091433
O O11 0.250000 0.000000 0.044339
O O12 0.500000 0.000000 0.000000
O O13 0.250000 0.184920 0.638400
O O14 0.026463 0.000000 0.619082
#
# Coordination Sequence:
#
# PCOD8211292 Si02
#       5
#     8   4   8   4   8
#     4   9  17  31  54  82 108 134 173 219 261 313
#     4  10  20  34  52  72 100 138 175 214 259 306
#     4  10  21  36  54  79 110 144 174 208 264 320
#     4  10  22  40  58  76 106 144 181 220 259 306
#     4   8  16  31  50  74 102 133 169 212 260 306
#
# _framework density 18.225377000000002
#
# number of rings (size 3 to 8) (size 9 to 14) (size 15 to 20)
#    0.000    2.750    1.250    1.500    1.750    2.500 
#    0.000    1.250    0.000    1.500    0.000    0.000 
#    0.000    0.000    0.000    0.000    0.000    0.000 
#
# Total GULP energy -396717.210473 kJ/mol
# GULP energy per Si atom -12397.412827 kJ/mol
# Density = 1.818390 g / cm^3
# Si number density = 18.225377 Si / 1000 Ang^3
#
#
#
# Elastic Constant Matrix: (Units=GPa)
#
#
# Indices 1 2 3 4 5 6 
#
# 1 42.9698 34.3330 46.8800 0.0000 0.0000 0.0000
# 2 34.3330 136.5626 85.2685 0.0000 0.0000 0.0000
# 3 46.8800 85.2685 145.2885 0.0000 0.0000 0.0000
# 4 0.0000 0.0000 0.0000 23.8025 0.0000 0.0000
# 5 0.0000 0.0000 0.0000 0.0000 34.0807 0.0000
# 6 0.0000 0.0000 0.0000 0.0000 0.0000 18.0424
#
#
#
# Elastic Compliance Matrix: (Units=1/GPa)
#
#
# Indices 1 2 3 4 5 6 
#
# 1 0.036623 -0.002887 -0.010123 0.000000 0.000000 0.000000
# 2 -0.002887 0.011786 -0.005985 0.000000 0.000000 0.000000
# 3 -0.010123 -0.005985 0.013662 0.000000 0.000000 0.000000
# 4 0.000000 0.000000 0.000000 0.042012 0.000000 0.000000
# 5 0.000000 0.000000 0.000000 0.000000 0.029342 0.000000
# 6 0.000000 0.000000 0.000000 0.000000 0.000000 0.055425
#
#
# Mechanical properties :
#
#
# Convention : Reuss Voigt Hill
#
# Bulk Modulus (GPa) = 41.52759 73.08709 57.30734
# Shear Modulus (GPa) = 21.28872 25.74108 23.51490
#
# Velocity S-wave (km/s) = 3.42143 3.76224 3.59587
# Velocity P-wave (km/s) = 6.20026 7.68514 6.98229
#
# Compressibility (1/GPa) = 0.02408037
#
# Stress axis : x y z
#
# Youngs Moduli (GPa) = 27.30561 84.84908 73.19593
#
# Poissons Ratio (x) = 0.24493 0.74095
# Poissons Ratio (y) = 0.07882 0.43811
# Poissons Ratio (z) = 0.27641 0.50786
#
# Static dielectric constant tensor:
#      x y z
#    x 3.059820 0.000000 0.000000 
#    y 0.000000 3.818470 0.000000 
#    z 0.000000 0.000000 3.277460 
# 
# 
# High freq. dielectric constant tensor:
#      x y z
#    x 1.671150 0.000000 0.000000 
#    y 0.000000 1.721340 0.000000 
#    z 0.000000 0.000000 1.698740 
# 
# From -- ./inp_files/34272.got.cif
#   From: 2010.03.12/outbox.cif.g09.slc.cpg/sg51_18_cif.got.tgz:34272.got - 2010.04.16 13:43:02.
