data_PCOD8211930
_publ_section_title
;
Structure prediction by ZEFSAII (Michael W. Deem and Ramdas Pophale) SiO2 
 PCOD8211930
Probable space group: P M M A
;
_chemical_formula_sum "Si O2"
_cell_formula_units_Z 64
_cell_length_a 18.081015
_cell_length_b 9.223047
_cell_length_c 21.736055
_cell_angle_alpha 90.000000
_cell_angle_beta 90.000000
_cell_angle_gamma 90.000000
_cell_volume 3624.749116
_symmetry_space_group_name_H-M "P M M A"
_symmetry_group_IT_number 51
_symmetry_cell_setting 'orthorhombic'
loop_
_space_group_symop_operation_xyz
x,y,z
1/2-x,-y,z
1/2+x,-y,-z
-x,y,-z
-x,-y,-z
1/2+x,y,-z
1/2-x,y,z
x,-y,z
loop_
_atom_site_type_symbol
_atom_site_label
_atom_site_fract_x
_atom_site_fract_y
_atom_site_fract_z
Si Si1 0.910328 0.672365 0.619083
Si Si2 0.546307 0.834398 0.824112
Si Si3 0.164906 0.166719 0.273454
Si Si4 0.563967 0.830487 0.369312
Si Si5 0.911819 0.160261 0.501198
Si Si6 0.168593 0.330490 0.870113
Si Si7 0.020204 0.328228 0.932416
Si Si8 0.391866 0.164261 0.761691
O O1 0.911408 0.500000 0.620051
O O2 0.852688 0.731104 0.668950
O O3 0.882790 0.725642 0.551549
O O4 0.991099 0.732816 0.634318
O O5 0.618363 0.784446 0.786336
O O6 0.538925 0.736799 0.884895
O O7 0.476980 0.810721 0.779479
O O8 0.552900 0.000000 0.845964
O O9 0.250000 0.185623 0.255596
O O10 0.145533 0.000000 0.290452
O O11 0.611406 0.795888 0.431258
O O12 0.615504 0.795620 0.310495
O O13 0.539401 0.000000 0.368581
O O14 0.000000 0.157582 0.500000
O O15 0.881135 0.000000 0.517955
O O16 0.250000 0.290750 0.897041
O O17 0.160002 0.500000 0.861257
O O18 0.103642 0.274048 0.915488
O O19 0.161440 0.263480 0.802206
O O20 0.013928 0.500000 0.929208
O O21 0.000000 0.270149 0.000000
O O22 0.367259 0.000000 0.774014
#
# Coordination Sequence:
#
# PCOD8211930 Si02
#       8
#     8   8   8   8   8   8   8   8
#     4  11  20  28  43  67  98 127 158 208 258 302
#     4   9  17  31  51  74  98 123 158 204 247 287
#     4  10  20  35  53  69  92 131 173 210 254 309
#     4   9  16  29  47  68  94 125 163 204 247 298
#     4   8  15  27  44  63  88 123 160 199 243 295
#     4   9  18  32  49  71 101 133 164 197 238 292
#     4   9  18  33  53  76 102 134 169 199 233 284
#     4   9  16  28  49  73  97 123 157 203 246 285
#
# _framework density 17.656395
#
# number of rings (size 3 to 8) (size 9 to 14) (size 15 to 20)
#    0.000    2.750    1.250    1.875    0.000    4.000 
#    0.000    0.625    0.000    1.500    0.000    1.750 
#    0.000    0.000    0.000    0.000    0.000    0.000 
#
# Total GULP energy -793341.895132 kJ/mol
# GULP energy per Si atom -12395.967111 kJ/mol
# Density = 1.761621 g / cm^3
# Si number density = 17.656395 Si / 1000 Ang^3
#
#
#
# Elastic Constant Matrix: (Units=GPa)
#
#
# Indices 1 2 3 4 5 6 
#
# 1 74.7724 31.8905 49.0059 0.0000 0.0000 0.0000
# 2 31.8905 62.5707 46.6260 0.0000 0.0000 0.0000
# 3 49.0059 46.6260 149.8952 0.0000 0.0000 0.0000
# 4 0.0000 0.0000 0.0000 24.7964 0.0000 0.0000
# 5 0.0000 0.0000 0.0000 0.0000 17.5424 0.0000
# 6 0.0000 0.0000 0.0000 0.0000 0.0000 16.0774
#
#
#
# Elastic Compliance Matrix: (Units=1/GPa)
#
#
# Indices 1 2 3 4 5 6 
#
# 1 0.018873 -0.006536 -0.004137 0.000000 0.000000 0.000000
# 2 -0.006536 0.023068 -0.005039 0.000000 0.000000 0.000000
# 3 -0.004137 -0.005039 0.009591 0.000000 0.000000 0.000000
# 4 0.000000 0.000000 0.000000 0.040328 0.000000 0.000000
# 5 0.000000 0.000000 0.000000 0.000000 0.057005 0.000000
# 6 0.000000 0.000000 0.000000 0.000000 0.000000 0.062199
#
#
# Mechanical properties :
#
#
# Convention : Reuss Voigt Hill
#
# Bulk Modulus (GPa) = 49.73049 60.25368 54.99209
# Shear Modulus (GPa) = 20.06496 22.33098 21.19797
#
# Velocity S-wave (km/s) = 3.37473 3.56019 3.46870
# Velocity P-wave (km/s) = 6.58877 7.14841 6.87429
#
# Compressibility (1/GPa) = 0.02010839
#
# Stress axis : x y z
#
# Youngs Moduli (GPa) = 52.98559 43.35055 104.26263
#
# Poissons Ratio (x) = 0.28335 0.43135
# Poissons Ratio (y) = 0.34632 0.52533
# Poissons Ratio (z) = 0.21921 0.21842
#
# Static dielectric constant tensor:
#      x y z
#    x 3.052830 0.000000 0.000000 
#    y 0.000000 3.171880 0.000000 
#    z 0.000000 0.000000 3.591740 
# 
# 
# High freq. dielectric constant tensor:
#      x y z
#    x 1.647140 0.000000 0.000000 
#    y 0.000000 1.671450 0.000000 
#    z 0.000000 0.000000 1.686010 
# 
# From -- ./inp_files/33819.got.cif
#   From: 2010.03.12/outbox.cif.g09.slc.cpg/sg51_17_cif.got.tgz:33819.got - 2010.04.16 13:43:02.
