data_PCOD8211724
_publ_section_title
;
Structure prediction by ZEFSAII (Michael W. Deem and Ramdas Pophale) SiO2 
 PCOD8211724
Probable space group: P M M A
;
_chemical_formula_sum "Si O2"
_cell_formula_units_Z 40
_cell_length_a 7.690818
_cell_length_b 9.657368
_cell_length_c 28.728228
_cell_angle_alpha 90.000000
_cell_angle_beta 90.000000
_cell_angle_gamma 90.000000
_cell_volume 2133.733392
_symmetry_space_group_name_H-M "P M M A"
_symmetry_group_IT_number 51
_symmetry_cell_setting 'orthorhombic'
loop_
_space_group_symop_operation_xyz
x,y,z
1/2-x,-y,z
1/2+x,-y,-z
-x,y,-z
-x,-y,-z
1/2+x,y,-z
1/2-x,y,z
x,-y,z
loop_
_atom_site_type_symbol
_atom_site_label
_atom_site_fract_x
_atom_site_fract_y
_atom_site_fract_z
Si Si1 0.750000 0.162995 0.798515
Si Si2 0.250000 0.340013 0.293732
Si Si3 0.547105 0.341951 0.948753
Si Si4 0.546422 0.153957 0.449535
Si Si5 0.556300 0.842767 0.134365
Si Si6 0.049401 0.340143 0.634684
O O1 0.750000 0.243841 0.750744
O O2 0.579569 0.209671 0.827125
O O3 0.750000 0.000000 0.787858
O O4 0.250000 0.500000 0.278362
O O5 0.425366 0.305010 0.322087
O O6 0.750000 0.328362 0.939364
O O7 0.482783 0.500000 0.943418
O O8 0.447230 0.249456 0.911675
O O9 0.500000 0.286768 0.000000
O O10 0.500000 0.217268 0.500000
O O11 0.750000 0.143774 0.444024
O O12 0.475842 0.253309 0.409045
O O13 0.462927 0.000000 0.444607
O O14 0.750000 0.833048 0.155856
O O15 0.509838 0.000000 0.120013
O O16 0.250000 0.303184 0.647557
O O17 0.032684 0.500000 0.620518
#
# Coordination Sequence:
#
# PCOD8211724 Si02
#       6
#     4   4   8   8   8   8
#     4  10  22  40  58  82 112 140 180 232 279 328
#     4  10  22  38  58  82 106 138 182 226 273 328
#     4  10  20  34  54  82 116 151 188 229 273 325
#     4   9  18  31  48  74 106 139 176 217 261 313
#     4  10  21  38  59  82 111 147 185 228 277 329
#     4   9  19  36  54  75 106 139 174 220 267 316
#
# _framework density 18.746485
#
# number of rings (size 3 to 8) (size 9 to 14) (size 15 to 20)
#    0.000    2.400    1.000    0.600    1.400    4.400 
#    0.000    0.000    0.000    0.000    0.000    0.000 
#    0.000    0.000    0.000    0.000    0.000    0.000 
#
# Total GULP energy -496008.012104 kJ/mol
# GULP energy per Si atom -12400.200303 kJ/mol
# Density = 1.870382 g / cm^3
# Si number density = 18.746485 Si / 1000 Ang^3
#
#
#
# Elastic Constant Matrix: (Units=GPa)
#
#
# Indices 1 2 3 4 5 6 
#
# 1 97.5791 36.2823 57.4745 0.0000 0.0000 0.0000
# 2 36.2823 73.2489 76.4621 0.0000 0.0000 0.0000
# 3 57.4745 76.4621 154.4430 0.0000 0.0000 0.0000
# 4 0.0000 0.0000 0.0000 40.3782 0.0000 0.0000
# 5 0.0000 0.0000 0.0000 0.0000 28.4635 0.0000
# 6 0.0000 0.0000 0.0000 0.0000 0.0000 229.0955
#
#
#
# Elastic Compliance Matrix: (Units=1/GPa)
#
#
# Indices 1 2 3 4 5 6 
#
# 1 0.013430 -0.002970 -0.003527 0.000000 0.000000 0.000000
# 2 -0.002970 0.028910 -0.013208 0.000000 0.000000 0.000000
# 3 -0.003527 -0.013208 0.014326 0.000000 0.000000 0.000000
# 4 0.000000 0.000000 0.000000 0.024766 0.000000 0.000000
# 5 0.000000 0.000000 0.000000 0.000000 0.035133 0.000000
# 6 0.000000 0.000000 0.000000 0.000000 0.000000 0.004365
#
#
# Mechanical properties :
#
#
# Convention : Reuss Voigt Hill
#
# Bulk Modulus (GPa) = 57.94952 73.96763 65.95857
# Shear Modulus (GPa) = 30.10353 69.92424 50.01388
#
# Velocity S-wave (km/s) = 4.01162 6.11399 5.17078
# Velocity P-wave (km/s) = 7.24132 9.45429 8.42082
#
# Compressibility (1/GPa) = 0.01725640
#
# Stress axis : x y z
#
# Youngs Moduli (GPa) = 74.45934 34.58958 69.80073
#
# Poissons Ratio (x) = 0.10274 0.24622
# Poissons Ratio (y) = 0.22116 0.92191
# Poissons Ratio (z) = 0.26265 0.45685
#
# Static dielectric constant tensor:
#      x y z
#    x 3.650340 0.000000 0.000000 
#    y 0.000000 3.561270 0.000000 
#    z 0.000000 0.000000 3.296640 
# 
# 
# High freq. dielectric constant tensor:
#      x y z
#    x 1.740470 0.000000 0.000000 
#    y 0.000000 1.721980 0.000000 
#    z 0.000000 0.000000 1.715750 
# 
# From -- ./inp_files/36003.got.cif
#   From: 2010.03.12/outbox.cif.g09.slc.cpg/sg51_19_cif.got.tgz:36003.got - 2010.04.16 13:43:02.
