data_PCOD8211740
_publ_section_title
;
Structure prediction by ZEFSAII (Michael W. Deem and Ramdas Pophale) SiO2 
 PCOD8211740
Probable space group: P M M A
;
_chemical_formula_sum "Si O2"
_cell_formula_units_Z 48
_cell_length_a 16.041491
_cell_length_b 8.791107
_cell_length_c 18.103864
_cell_angle_alpha 90.000000
_cell_angle_beta 90.000000
_cell_angle_gamma 90.000000
_cell_volume 2553.051506
_symmetry_space_group_name_H-M "P M M A"
_symmetry_group_IT_number 51
_symmetry_cell_setting 'orthorhombic'
loop_
_space_group_symop_operation_xyz
x,y,z
1/2-x,-y,z
1/2+x,-y,-z
-x,y,-z
-x,-y,-z
1/2+x,y,-z
1/2-x,y,z
x,-y,z
loop_
_atom_site_type_symbol
_atom_site_label
_atom_site_fract_x
_atom_site_fract_y
_atom_site_fract_z
Si Si1 0.750000 0.181053 0.710327
Si Si2 0.411762 0.320960 0.533870
Si Si3 0.083805 0.178462 0.213731
Si Si4 0.342838 0.674095 0.820542
Si Si5 0.575096 0.823072 0.309340
Si Si6 0.495619 0.321418 0.917651
Si Si7 0.750000 0.819117 0.542540
O O1 0.830505 0.244007 0.753346
O O2 0.750000 0.241170 0.626560
O O3 0.750000 0.000000 0.709109
O O4 0.500000 0.265158 0.500000
O O5 0.400415 0.500000 0.523878
O O6 0.411309 0.278968 0.619407
O O7 0.334143 0.239622 0.495228
O O8 0.012988 0.221097 0.272895
O O9 0.067582 0.252935 0.134153
O O10 0.087958 0.000000 0.201037
O O11 0.250000 0.695303 0.851900
O O12 0.360166 0.500000 0.796698
O O13 0.353291 0.781112 0.749234
O O14 0.405335 0.723548 0.885423
O O15 0.580489 0.000000 0.330615
O O16 0.510348 0.500000 0.920485
O O17 0.500000 0.251697 0.000000
O O18 0.750000 0.000000 0.537784
#
# Coordination Sequence:
#
# PCOD8211740 Si02
#       7
#     4   8   8   8   8   8   4
#     4   9  18  35  57  79 106 137 178 225 269 318
#     4  11  24  40  57  81 115 152 188 232 287 342
#     4   9  18  34  56  80 105 140 180 220 268 321
#     4   9  18  33  53  75 102 141 179 217 268 323
#     4  10  20  34  55  79 106 140 182 229 273 325
#     4   9  18  34  53  77 109 140 174 216 264 318
#     4  11  23  39  61  85 112 149 192 239 285 334
#
# _framework density 18.801030999999998
#
# number of rings (size 3 to 8) (size 9 to 14) (size 15 to 20)
#    0.000    2.333    0.000    2.250    1.167    4.000 
#    1.500    2.083    0.000    0.000    0.000    0.000 
#    0.000    0.000    0.000    0.000    0.000    0.000 
#
# Total GULP energy -595251.356805 kJ/mol
# GULP energy per Si atom -12401.069933 kJ/mol
# Density = 1.875824 g / cm^3
# Si number density = 18.801031 Si / 1000 Ang^3
#
#
#
# Elastic Constant Matrix: (Units=GPa)
#
#
# Indices 1 2 3 4 5 6 
#
# 1 142.4046 34.2622 77.6875 0.0000 0.0000 0.0000
# 2 34.2622 42.4510 34.2500 0.0000 0.0000 0.0000
# 3 77.6875 34.2500 164.3517 0.0000 0.0000 0.0000
# 4 0.0000 0.0000 0.0000 18.9295 0.0000 0.0000
# 5 0.0000 0.0000 0.0000 0.0000 19.1780 0.0000
# 6 0.0000 0.0000 0.0000 0.0000 0.0000 22.8365
#
#
#
# Elastic Compliance Matrix: (Units=1/GPa)
#
#
# Indices 1 2 3 4 5 6 
#
# 1 0.010370 -0.005307 -0.003796 0.000000 0.000000 0.000000
# 2 -0.005307 0.031034 -0.003959 0.000000 0.000000 0.000000
# 3 -0.003796 -0.003959 0.008704 0.000000 0.000000 0.000000
# 4 0.000000 0.000000 0.000000 0.052828 0.000000 0.000000
# 5 0.000000 0.000000 0.000000 0.000000 0.052143 0.000000
# 6 0.000000 0.000000 0.000000 0.000000 0.000000 0.043790
#
#
# Mechanical properties :
#
#
# Convention : Reuss Voigt Hill
#
# Bulk Modulus (GPa) = 41.69385 71.28964 56.49174
# Shear Modulus (GPa) = 21.46056 25.72262 23.59159
#
# Velocity S-wave (km/s) = 3.38221 3.70286 3.54616
# Velocity P-wave (km/s) = 6.12184 7.50212 6.84685
#
# Compressibility (1/GPa) = 0.02398435
#
# Stress axis : x y z
#
# Youngs Moduli (GPa) = 96.43341 32.22296 114.89344
#
# Poissons Ratio (x) = 0.17101 0.43611
# Poissons Ratio (y) = 0.51177 0.45483
# Poissons Ratio (z) = 0.36604 0.12756
#
# Static dielectric constant tensor:
#      x y z
#    x 3.644160 0.000000 0.000000 
#    y 0.000000 3.332330 0.000000 
#    z 0.000000 0.000000 3.539620 
# 
# 
# High freq. dielectric constant tensor:
#      x y z
#    x 1.736410 0.000000 0.000000 
#    y 0.000000 1.720060 0.000000 
#    z 0.000000 0.000000 1.731420 
# 
# From -- ./inp_files/29618.got.cif
#   From: 2010.03.12/outbox.cif.g09.slc.cpg/sg51_15_cif.got.tgz:29618.got - 2010.04.16 13:43:02.
