data_PCOD8211281
_publ_section_title
;
Structure prediction by ZEFSAII (Michael W. Deem and Ramdas Pophale) SiO2 
 PCOD8211281
Probable space group: P M M A
;
_chemical_formula_sum "Si O2"
_cell_formula_units_Z 64
_cell_length_a 9.029029
_cell_length_b 23.519111
_cell_length_c 15.374119
_cell_angle_alpha 90.000000
_cell_angle_beta 90.000000
_cell_angle_gamma 90.000000
_cell_volume 3264.766970
_symmetry_space_group_name_H-M "P M M A"
_symmetry_group_IT_number 51
_symmetry_cell_setting 'orthorhombic'
loop_
_space_group_symop_operation_xyz
x,y,z
1/2-x,-y,z
1/2+x,-y,-z
-x,y,-z
-x,-y,-z
1/2+x,y,-z
1/2-x,y,z
x,-y,z
loop_
_atom_site_type_symbol
_atom_site_label
_atom_site_fract_x
_atom_site_fract_y
_atom_site_fract_z
Si Si1 0.922361 0.061722 0.408979
Si Si2 0.924605 0.344097 0.770642
Si Si3 0.917506 0.843978 0.816810
Si Si4 0.571861 0.705239 0.588280
Si Si5 0.083368 0.065208 0.910836
Si Si6 0.924807 0.435012 0.910027
Si Si7 0.425835 0.184425 0.654847
Si Si8 0.084864 0.262072 0.084341
O O1 0.750000 0.068918 0.425678
O O2 0.978107 0.118786 0.361278
O O3 0.000000 0.059506 0.500000
O O4 0.953474 0.000000 0.360954
O O5 0.750000 0.344965 0.760971
O O6 0.983194 0.333430 0.671256
O O7 0.978349 0.400741 0.822939
O O8 0.980662 0.291692 0.829528
O O9 0.750000 0.854303 0.783515
O O10 0.917995 0.806202 0.904686
O O11 0.997296 0.903642 0.833760
O O12 0.012355 0.805671 0.750988
O O13 0.500000 0.678851 0.500000
O O14 0.750000 0.707436 0.581217
O O15 0.508331 0.769787 0.594303
O O16 0.250000 0.088979 0.919533
O O17 0.085048 0.000000 0.883884
O O18 0.000000 0.075736 0.000000
O O19 0.750000 0.427790 0.922617
O O20 0.971108 0.500000 0.892996
O O21 0.000000 0.412895 0.000000
O O22 0.250000 0.193050 0.647853
O O23 0.250000 0.285076 0.071071
O O24 0.000000 0.282079 0.000000
#
# Coordination Sequence:
#
# PCOD8211281 Si02
#       8
#     8   8   8   8   8   8   8   8
#     4   9  19  35  53  73  97 125 159 205 265 332
#     4   9  18  35  55  78 114 152 187 231 281 330
#     4  11  22  36  53  74 104 139 176 223 276 333
#     4  11  22  39  59  80 110 148 190 240 292 344
#     4  10  21  37  55  74  98 132 176 226 278 336
#     4   9  17  31  55  87 121 159 198 232 274 329
#     4  11  22  36  55  79 106 138 179 227 282 344
#     4  10  20  34  51  75 106 144 178 217 272 326
#
# _framework density 19.603237
#
# number of rings (size 3 to 8) (size 9 to 14) (size 15 to 20)
#    0.000    2.000    1.250    2.625    0.000    5.250 
#    0.000    2.500    0.000    0.375    0.000    0.000 
#    0.000    0.000    0.000    0.000    0.000    0.125 
#
# Total GULP energy -792878.080403 kJ/mol
# GULP energy per Si atom -12388.720006 kJ/mol
# Density = 1.955862 g / cm^3
# Si number density = 19.603237 Si / 1000 Ang^3
#
#
#
# Elastic Constant Matrix: (Units=GPa)
#
#
# Indices 1 2 3 4 5 6 
#
# 1 71.3429 28.6268 40.8108 0.0000 0.0000 0.0000
# 2 28.6268 94.0569 47.1945 0.0000 0.0000 0.0000
# 3 40.8108 47.1945 134.4135 0.0000 0.0000 0.0000
# 4 0.0000 0.0000 0.0000 36.6776 0.0000 0.0000
# 5 0.0000 0.0000 0.0000 0.0000 32.3241 0.0000
# 6 0.0000 0.0000 0.0000 0.0000 0.0000 17.5494
#
#
#
# Elastic Compliance Matrix: (Units=1/GPa)
#
#
# Indices 1 2 3 4 5 6 
#
# 1 0.017758 -0.003277 -0.004241 0.000000 0.000000 0.000000
# 2 -0.003277 0.013510 -0.003749 0.000000 0.000000 0.000000
# 3 -0.004241 -0.003749 0.010044 0.000000 0.000000 0.000000
# 4 0.000000 0.000000 0.000000 0.027265 0.000000 0.000000
# 5 0.000000 0.000000 0.000000 0.000000 0.030937 0.000000
# 6 0.000000 0.000000 0.000000 0.000000 0.000000 0.056982
#
#
# Mechanical properties :
#
#
# Convention : Reuss Voigt Hill
#
# Bulk Modulus (GPa) = 53.25249 59.23083 56.24166
# Shear Modulus (GPa) = 26.98513 29.52229 28.25371
#
# Velocity S-wave (km/s) = 3.71423 3.88492 3.80053
# Velocity P-wave (km/s) = 6.75412 7.09957 6.92900
#
# Compressibility (1/GPa) = 0.01877846
#
# Stress axis : x y z
#
# Youngs Moduli (GPa) = 56.31372 74.01864 99.56516
#
# Poissons Ratio (x) = 0.24253 0.42227
# Poissons Ratio (y) = 0.18452 0.37325
# Poissons Ratio (z) = 0.23883 0.27748
#
# Static dielectric constant tensor:
#      x y z
#    x 3.484810 0.000000 0.000000 
#    y 0.000000 3.757150 0.000000 
#    z 0.000000 0.000000 3.365700 
# 
# 
# High freq. dielectric constant tensor:
#      x y z
#    x 1.752990 0.000000 0.000000 
#    y 0.000000 1.754210 0.000000 
#    z 0.000000 0.000000 1.757990 
# 
# From -- ./inp_files/22225.got.cif
#   From: 2010.03.12/outbox.cif.g09.slc.cpg/sg51_12_cif.got.tgz:22225.got - 2010.04.16 13:43:02.
