data_PCOD8211899
_publ_section_title
;
Structure prediction by ZEFSAII (Michael W. Deem and Ramdas Pophale) SiO2 
 PCOD8211899
Probable space group: P M M A
;
_chemical_formula_sum "Si O2"
_cell_formula_units_Z 40
_cell_length_a 9.016663
_cell_length_b 14.391294
_cell_length_c 14.705941
_cell_angle_alpha 90.000000
_cell_angle_beta 90.000000
_cell_angle_gamma 90.000000
_cell_volume 1908.264200
_symmetry_space_group_name_H-M "P M M A"
_symmetry_group_IT_number 51
_symmetry_cell_setting 'orthorhombic'
loop_
_space_group_symop_operation_xyz
x,y,z
1/2-x,-y,z
1/2+x,-y,-z
-x,y,-z
-x,-y,-z
1/2+x,y,-z
1/2-x,y,z
x,-y,z
loop_
_atom_site_type_symbol
_atom_site_label
_atom_site_fract_x
_atom_site_fract_y
_atom_site_fract_z
Si Si1 0.430200 0.000000 0.899340
Si Si2 0.077682 0.645088 0.254179
Si Si3 0.587921 0.103861 0.418072
Si Si4 0.925533 0.860858 0.762059
Si Si5 0.923403 0.500000 0.596868
Si Si6 0.908724 0.395852 0.079393
O O1 0.489119 0.907619 0.847158
O O2 0.250000 0.000000 0.902569
O O3 0.500000 0.000000 0.000000
O O4 0.250000 0.628893 0.237709
O O5 0.035353 0.752852 0.249729
O O6 0.029780 0.593548 0.347627
O O7 0.993512 0.596129 0.173203
O O8 0.500000 0.156991 0.500000
O O9 0.750000 0.151863 0.400426
O O10 0.486715 0.094887 0.329468
O O11 0.619883 0.000000 0.451877
O O12 0.750000 0.879039 0.772463
O O13 0.750000 0.500000 0.578520
O O14 0.000000 0.500000 0.500000
O O15 0.750000 0.344549 0.091505
O O16 0.879501 0.500000 0.044859
O O17 0.000000 0.341941 0.000000
#
# Coordination Sequence:
#
# PCOD8211899 Si02
#       6
#     4   8   8   8   4   8
#     4  12  26  46  69  94 127 172 216 264 324 386
#     4  10  22  40  63  90 124 165 210 259 315 373
#     4  10  20  35  58  87 119 156 196 244 303 365
#     4  11  23  40  64  94 126 164 210 263 318 380
#     4  10  22  42  65  90 127 172 215 262 316 378
#     4  10  20  34  57  87 117 152 194 243 302 362
#
# _framework density 20.961459000000001
#
# number of rings (size 3 to 8) (size 9 to 14) (size 15 to 20)
#    0.000    1.600    2.000    2.700    0.000    5.600 
#    0.000    2.000    0.000    0.000    0.000    0.000 
#    0.000    0.000    0.000    0.000    0.000    0.000 
#
# Total GULP energy -495633.754788 kJ/mol
# GULP energy per Si atom -12390.843870 kJ/mol
# Density = 2.091375 g / cm^3
# Si number density = 20.961459 Si / 1000 Ang^3
#
#
#
# Elastic Constant Matrix: (Units=GPa)
#
#
# Indices 1 2 3 4 5 6 
#
# 1 123.3671 46.9547 82.2430 0.0000 0.0000 0.0000
# 2 46.9547 102.8104 44.9184 0.0000 0.0000 0.0000
# 3 82.2430 44.9184 190.1828 0.0000 0.0000 0.0000
# 4 0.0000 0.0000 0.0000 4.4607 0.0000 0.0000
# 5 0.0000 0.0000 0.0000 0.0000 39.1457 0.0000
# 6 0.0000 0.0000 0.0000 0.0000 0.0000 20.7350
#
#
#
# Elastic Compliance Matrix: (Units=1/GPa)
#
#
# Indices 1 2 3 4 5 6 
#
# 1 0.012566 -0.003752 -0.004548 0.000000 0.000000 0.000000
# 2 -0.003752 0.011966 -0.001204 0.000000 0.000000 0.000000
# 3 -0.004548 -0.001204 0.007509 0.000000 0.000000 0.000000
# 4 0.000000 0.000000 0.000000 0.224181 0.000000 0.000000
# 5 0.000000 0.000000 0.000000 0.000000 0.025546 0.000000
# 6 0.000000 0.000000 0.000000 0.000000 0.000000 0.048228
#
#
# Mechanical properties :
#
#
# Convention : Reuss Voigt Hill
#
# Bulk Modulus (GPa) = 76.72265 84.95473 80.83869
# Shear Modulus (GPa) = 14.15041 29.01789 21.58415
#
# Velocity S-wave (km/s) = 2.60103 3.72472 3.21239
# Velocity P-wave (km/s) = 6.76030 7.68863 7.23936
#
# Compressibility (1/GPa) = 0.01303396
#
# Stress axis : x y z
#
# Youngs Moduli (GPa) = 79.58158 83.56928 133.17261
#
# Poissons Ratio (x) = 0.31355 0.60564
# Poissons Ratio (y) = 0.29859 0.16030
# Poissons Ratio (z) = 0.36192 0.10059
#
# Static dielectric constant tensor:
#      x y z
#    x 4.256180 0.000000 0.000000 
#    y 0.000000 3.902390 0.000000 
#    z 0.000000 0.000000 3.726250 
# 
# 
# High freq. dielectric constant tensor:
#      x y z
#    x 1.838280 0.000000 0.000000 
#    y 0.000000 1.795090 0.000000 
#    z 0.000000 0.000000 1.824780 
# 
# From -- ./inp_files/20584.got.cif
#   From: 2010.03.12/outbox.cif.g09.slc.cpg/sg51_11_cif.got.tgz:20584.got - 2010.04.16 13:43:02.
