data_PCOD8211495
_publ_section_title
;
Structure prediction by ZEFSAII (Michael W. Deem and Ramdas Pophale) SiO2 
 PCOD8211495
Probable space group: P M M A
;
_chemical_formula_sum "Si O2"
_cell_formula_units_Z 64
_cell_length_a 14.748730
_cell_length_b 8.864777
_cell_length_c 24.183267
_cell_angle_alpha 90.000000
_cell_angle_beta 90.000000
_cell_angle_gamma 90.000000
_cell_volume 3161.821957
_symmetry_space_group_name_H-M "P M M A"
_symmetry_group_IT_number 51
_symmetry_cell_setting 'orthorhombic'
loop_
_space_group_symop_operation_xyz
x,y,z
1/2-x,-y,z
1/2+x,-y,-z
-x,y,-z
-x,-y,-z
1/2+x,y,-z
1/2-x,y,z
x,-y,z
loop_
_atom_site_type_symbol
_atom_site_label
_atom_site_fract_x
_atom_site_fract_y
_atom_site_fract_z
Si Si1 0.400628 0.167458 0.524161
Si Si2 0.644794 0.321411 0.154517
Si Si3 0.346145 0.830678 0.239119
Si Si4 0.150512 0.166014 0.108803
Si Si5 0.488973 0.324913 0.939285
Si Si6 0.537324 0.677780 0.370303
Si Si7 0.151334 0.673077 0.418848
Si Si8 0.456992 0.180350 0.741804
O O1 0.500000 0.157948 0.500000
O O2 0.400078 0.271968 0.578521
O O3 0.339003 0.239223 0.476655
O O4 0.364793 0.000000 0.539207
O O5 0.750000 0.276485 0.148800
O O6 0.631785 0.500000 0.160951
O O7 0.592723 0.260693 0.099289
O O8 0.603780 0.243866 0.208792
O O9 0.250000 0.752875 0.259059
O O10 0.344737 0.835272 0.173838
O O11 0.439981 0.750575 0.256518
O O12 0.347312 0.000000 0.263070
O O13 0.250000 0.200849 0.083906
O O14 0.083701 0.297722 0.090835
O O15 0.117259 0.000000 0.088437
O O16 0.470641 0.500000 0.947162
O O17 0.500000 0.247996 0.000000
O O18 0.545392 0.500000 0.361412
O O19 0.431825 0.730090 0.380352
O O20 0.579543 0.762417 0.317107
O O21 0.250000 0.692472 0.388838
O O22 0.131178 0.500000 0.433704
O O23 0.455959 0.000000 0.746177
#
# Coordination Sequence:
#
# PCOD8211495 Si02
#       8
#     8   8   8   8   8   8   8   8
#     4   9  17  31  51  75 103 137 181 228 271 318
#     4  10  22  41  61  80 109 150 191 231 280 337
#     4   8  15  29  50  76 106 140 175 214 268 329
#     4   9  17  32  54  79 109 144 179 217 266 326
#     4  10  21  36  57  86 116 146 183 229 280 335
#     4  10  20  34  53  77 109 147 184 224 273 332
#     4   9  18  33  53  78 110 147 182 219 270 331
#     4  11  21  35  58  84 111 146 189 238 285 331
#
# _framework density 20.241493999999999
#
# number of rings (size 3 to 8) (size 9 to 14) (size 15 to 20)
#    0.000    2.500    1.250    1.875    0.000    4.000 
#    0.000    1.875    0.000    4.875    0.000    0.000 
#    0.000    0.000    0.000    0.000    0.000    0.000 
#
# Total GULP energy -792906.016765 kJ/mol
# GULP energy per Si atom -12389.156512 kJ/mol
# Density = 2.019542 g / cm^3
# Si number density = 20.241494 Si / 1000 Ang^3
#
#
#
# Elastic Constant Matrix: (Units=GPa)
#
#
# Indices 1 2 3 4 5 6 
#
# 1 90.8010 23.6686 45.0597 0.0000 0.0000 0.0000
# 2 23.6686 48.2552 33.5973 0.0000 0.0000 0.0000
# 3 45.0597 33.5973 123.5656 0.0000 0.0000 0.0000
# 4 0.0000 0.0000 0.0000 21.7395 0.0000 0.0000
# 5 0.0000 0.0000 0.0000 0.0000 8.4514 0.0000
# 6 0.0000 0.0000 0.0000 0.0000 0.0000 10.5631
#
#
#
# Elastic Compliance Matrix: (Units=1/GPa)
#
#
# Indices 1 2 3 4 5 6 
#
# 1 0.014077 -0.004108 -0.004016 0.000000 0.000000 0.000000
# 2 -0.004108 0.026761 -0.005778 0.000000 0.000000 0.000000
# 3 -0.004016 -0.005778 0.011129 0.000000 0.000000 0.000000
# 4 0.000000 0.000000 0.000000 0.045999 0.000000 0.000000
# 5 0.000000 0.000000 0.000000 0.000000 0.118324 0.000000
# 6 0.000000 0.000000 0.000000 0.000000 0.000000 0.094669
#
#
# Mechanical properties :
#
#
# Convention : Reuss Voigt Hill
#
# Bulk Modulus (GPa) = 41.38864 51.91921 46.65393
# Shear Modulus (GPa) = 14.41676 18.83721 16.62699
#
# Velocity S-wave (km/s) = 2.67167 3.05392 2.86917
# Velocity P-wave (km/s) = 5.47804 6.17583 5.83737
#
# Compressibility (1/GPa) = 0.02416122
#
# Stress axis : x y z
#
# Youngs Moduli (GPa) = 71.03754 37.36745 89.85887
#
# Poissons Ratio (x) = 0.15352 0.36090
# Poissons Ratio (y) = 0.29184 0.51922
# Poissons Ratio (z) = 0.28531 0.21592
#
# Static dielectric constant tensor:
#      x y z
#    x 3.535690 0.000000 0.000000 
#    y 0.000000 3.543900 0.000000 
#    z 0.000000 0.000000 3.662060 
# 
# 
# High freq. dielectric constant tensor:
#      x y z
#    x 1.786050 0.000000 0.000000 
#    y 0.000000 1.768590 0.000000 
#    z 0.000000 0.000000 1.783600 
# 
# From -- ./inp_files/35806.got.cif
#   From: 2010.03.12/outbox.cif.g09.slc.cpg/sg51_18_cif.got.tgz:35806.got - 2010.04.16 13:43:02.
