data_PCOD8211765
_publ_section_title
;
Structure prediction by ZEFSAII (Michael W. Deem and Ramdas Pophale) SiO2 
 PCOD8211765
Probable space group: P M M A
;
_chemical_formula_sum "Si O2"
_cell_formula_units_Z 64
_cell_length_a 17.188119
_cell_length_b 9.157163
_cell_length_c 20.359146
_cell_angle_alpha 90.000000
_cell_angle_beta 90.000000
_cell_angle_gamma 90.000000
_cell_volume 3204.415719
_symmetry_space_group_name_H-M "P M M A"
_symmetry_group_IT_number 51
_symmetry_cell_setting 'orthorhombic'
loop_
_space_group_symop_operation_xyz
x,y,z
1/2-x,-y,z
1/2+x,-y,-z
-x,y,-z
-x,-y,-z
1/2+x,y,-z
1/2-x,y,z
x,-y,z
loop_
_atom_site_type_symbol
_atom_site_label
_atom_site_fract_x
_atom_site_fract_y
_atom_site_fract_z
Si Si1 0.098439 0.332806 0.553063
Si Si2 0.661422 0.156569 0.336462
Si Si3 0.842269 0.165734 0.195575
Si Si4 0.840532 0.673218 0.845976
Si Si5 0.917767 0.172469 0.965919
Si Si6 0.076591 0.669987 0.408445
Si Si7 0.159907 0.830076 0.290304
Si Si8 0.659328 0.339480 0.075376
O O1 0.119233 0.500000 0.547568
O O2 0.159615 0.260510 0.601279
O O3 0.107351 0.270980 0.479140
O O4 0.015657 0.308744 0.587512
O O5 0.750000 0.127013 0.319056
O O6 0.626918 0.219356 0.267600
O O7 0.621631 0.000000 0.353327
O O8 0.750000 0.175223 0.188401
O O9 0.880449 0.269945 0.140554
O O10 0.870653 0.000000 0.183428
O O11 0.750000 0.707556 0.864105
O O12 0.854768 0.500000 0.844377
O O13 0.900873 0.746584 0.897024
O O14 0.860878 0.740396 0.775026
O O15 0.909887 0.000000 0.954886
O O16 0.852125 0.230502 0.014953
O O17 0.000000 0.214177 0.000000
O O18 0.098121 0.500000 0.396803
O O19 0.110156 0.768345 0.350753
O O20 0.250000 0.809387 0.308619
O O21 0.139422 0.000000 0.279369
O O22 0.750000 0.358313 0.086534
O O23 0.622188 0.500000 0.062398
#
# Coordination Sequence:
#
# PCOD8211765 Si02
#       8
#     8   8   8   8   8   8   8   8
#     4   9  19  35  54  76 105 144 188 231 276 330
#     4   9  18  32  50  75 107 141 178 221 270 323
#     4   8  15  30  50  71  99 135 172 211 256 308
#     4  10  21  39  64  90 115 147 187 231 282 338
#     4  11  24  40  57  81 114 149 185 226 272 326
#     4   9  19  37  56  76 107 145 186 230 277 332
#     4  10  21  37  59  88 117 145 184 234 284 337
#     4  10  20  34  55  82 107 137 181 226 269 321
#
# _framework density 19.972441
#
# number of rings (size 3 to 8) (size 9 to 14) (size 15 to 20)
#    0.000    2.500    0.000    3.375    0.000    7.000 
#    2.250    5.000    0.000    0.000    0.000    0.000 
#    0.000    0.000    0.000    0.000    0.000    0.000 
#
# Total GULP energy -793051.917263 kJ/mol
# GULP energy per Si atom -12391.436207 kJ/mol
# Density = 1.992698 g / cm^3
# Si number density = 19.972441 Si / 1000 Ang^3
#
#
#
# Elastic Constant Matrix: (Units=GPa)
#
#
# Indices 1 2 3 4 5 6 
#
# 1 30.4904 36.7221 35.9643 0.0000 0.0000 0.0000
# 2 36.7221 110.4818 76.7891 0.0000 0.0000 0.0000
# 3 35.9643 76.7891 158.7595 0.0000 0.0000 0.0000
# 4 0.0000 0.0000 0.0000 39.2990 0.0000 0.0000
# 5 0.0000 0.0000 0.0000 0.0000 27.8744 0.0000
# 6 0.0000 0.0000 0.0000 0.0000 0.0000 23.2463
#
#
#
# Elastic Compliance Matrix: (Units=1/GPa)
#
#
# Indices 1 2 3 4 5 6 
#
# 1 0.057970 -0.015276 -0.005743 0.000000 0.000000 0.000000
# 2 -0.015276 0.017661 -0.005082 0.000000 0.000000 0.000000
# 3 -0.005743 -0.005082 0.010058 0.000000 0.000000 0.000000
# 4 0.000000 0.000000 0.000000 0.025446 0.000000 0.000000
# 5 0.000000 0.000000 0.000000 0.000000 0.035875 0.000000
# 6 0.000000 0.000000 0.000000 0.000000 0.000000 0.043018
#
#
# Mechanical properties :
#
#
# Convention : Reuss Voigt Hill
#
# Bulk Modulus (GPa) = 29.86305 66.52028 48.19166
# Shear Modulus (GPa) = 19.73227 28.10103 23.91665
#
# Velocity S-wave (km/s) = 3.14662 3.75506 3.46422
# Velocity P-wave (km/s) = 5.30907 7.22350 6.33897
#
# Compressibility (1/GPa) = 0.03348620
#
# Stress axis : x y z
#
# Youngs Moduli (GPa) = 17.25023 56.62267 99.42600
#
# Poissons Ratio (x) = 0.86499 0.57103
# Poissons Ratio (y) = 0.26352 0.50524
# Poissons Ratio (z) = 0.09907 0.28773
#
# Static dielectric constant tensor:
#      x y z
#    x 2.964290 0.000000 0.000000 
#    y 0.000000 3.748400 0.000000 
#    z 0.000000 0.000000 3.827200 
# 
# 
# High freq. dielectric constant tensor:
#      x y z
#    x 1.745450 0.000000 0.000000 
#    y 0.000000 1.780770 0.000000 
#    z 0.000000 0.000000 1.796390 
# 
# From -- ./inp_files/33813.got.cif
#   From: 2010.03.12/outbox.cif.g09.slc.cpg/sg51_17_cif.got.tgz:33813.got - 2010.04.16 13:43:02.
