data_PCOD8211862
_publ_section_title
;
Structure prediction by ZEFSAII (Michael W. Deem and Ramdas Pophale) SiO2 
 PCOD8211862
Probable space group: P M M A
;
_chemical_formula_sum "Si O2"
_cell_formula_units_Z 48
_cell_length_a 8.685306
_cell_length_b 20.215000
_cell_length_c 14.372491
_cell_angle_alpha 90.000000
_cell_angle_beta 90.000000
_cell_angle_gamma 90.000000
_cell_volume 2523.427985
_symmetry_space_group_name_H-M "P M M A"
_symmetry_group_IT_number 51
_symmetry_cell_setting 'orthorhombic'
loop_
_space_group_symop_operation_xyz
x,y,z
1/2-x,-y,z
1/2+x,-y,-z
-x,y,-z
-x,-y,-z
1/2+x,y,-z
1/2-x,y,z
x,-y,z
loop_
_atom_site_type_symbol
_atom_site_label
_atom_site_fract_x
_atom_site_fract_y
_atom_site_fract_z
Si Si1 0.427477 0.760784 0.591942
Si Si2 0.925857 0.425227 0.217429
Si Si3 0.431931 0.381388 0.403040
Si Si4 0.930762 0.076035 0.902076
Si Si5 0.427067 0.810745 0.790187
Si Si6 0.068494 0.689933 0.101309
O O1 0.500000 0.795225 0.500000
O O2 0.250000 0.742135 0.573573
O O3 0.520756 0.694309 0.613328
O O4 0.445031 0.809909 0.678680
O O5 0.750000 0.400843 0.225754
O O6 0.935542 0.500000 0.179171
O O7 0.002249 0.424255 0.318816
O O8 0.012269 0.378756 0.144610
O O9 0.500000 0.408734 0.500000
O O10 0.250000 0.388277 0.404714
O O11 0.750000 0.088146 0.904663
O O12 0.006345 0.118948 0.821074
O O13 0.973138 0.000000 0.882137
O O14 0.000000 0.099620 0.000000
O O15 0.250000 0.803746 0.820512
O O16 0.521131 0.750880 0.834296
O O17 0.250000 0.687740 0.093448
O O18 0.000000 0.700535 0.000000
#
# Coordination Sequence:
#
# PCOD8211862 Si02
#       6
#     8   8   8   8   8   8
#     4  10  20  34  56  84 117 150 188 235 285 339
#     4  11  24  42  61  82 112 148 189 239 292 348
#     4  11  21  35  58  84 114 149 187 234 288 346
#     4  10  21  37  58  86 121 158 196 238 285 340
#     4  11  22  37  60  88 120 154 191 237 285 338
#     4  12  25  41  62  85 113 148 190 239 288 342
#
# _framework density 19.021743000000001
#
# number of rings (size 3 to 8) (size 9 to 14) (size 15 to 20)
#    0.000    1.167    1.667    6.500    0.000    5.000 
#    0.000    0.000    0.000    0.500    0.000    0.000 
#    0.000    0.000    0.000    0.000    0.000    0.000 
#
# Total GULP energy -595432.473474 kJ/mol
# GULP energy per Si atom -12404.843197 kJ/mol
# Density = 1.897845 g / cm^3
# Si number density = 19.021743 Si / 1000 Ang^3
#
#
#
# Elastic Constant Matrix: (Units=GPa)
#
#
# Indices 1 2 3 4 5 6 
#
# 1 161.6287 43.0337 53.3743 0.0000 0.0000 0.0000
# 2 43.0337 80.4535 44.0994 0.0000 0.0000 0.0000
# 3 53.3743 44.0994 110.7990 0.0000 0.0000 0.0000
# 4 0.0000 0.0000 0.0000 30.8072 0.0000 0.0000
# 5 0.0000 0.0000 0.0000 0.0000 37.1302 0.0000
# 6 0.0000 0.0000 0.0000 0.0000 0.0000 29.0001
#
#
#
# Elastic Compliance Matrix: (Units=1/GPa)
#
#
# Indices 1 2 3 4 5 6 
#
# 1 0.007790 -0.002699 -0.002679 0.000000 0.000000 0.000000
# 2 -0.002699 0.016833 -0.005400 0.000000 0.000000 0.000000
# 3 -0.002679 -0.005400 0.012465 0.000000 0.000000 0.000000
# 4 0.000000 0.000000 0.000000 0.032460 0.000000 0.000000
# 5 0.000000 0.000000 0.000000 0.000000 0.026932 0.000000
# 6 0.000000 0.000000 0.000000 0.000000 0.000000 0.034483
#
#
# Mechanical properties :
#
#
# Convention : Reuss Voigt Hill
#
# Bulk Modulus (GPa) = 64.37515 70.43289 67.40402
# Shear Modulus (GPa) = 31.70695 33.54575 32.62635
#
# Velocity S-wave (km/s) = 4.08717 4.20402 4.14601
# Velocity P-wave (km/s) = 7.49598 7.78929 7.64404
#
# Compressibility (1/GPa) = 0.01553394
#
# Stress axis : x y z
#
# Youngs Moduli (GPa) = 128.36872 59.40797 80.22580
#
# Poissons Ratio (x) = 0.16032 0.21489
# Poissons Ratio (y) = 0.34642 0.43319
# Poissons Ratio (z) = 0.34384 0.32078
#
# Static dielectric constant tensor:
#      x y z
#    x 3.699740 0.000000 0.000000 
#    y 0.000000 3.296360 0.000000 
#    z 0.000000 0.000000 3.693680 
# 
# 
# High freq. dielectric constant tensor:
#      x y z
#    x 1.762750 0.000000 0.000000 
#    y 0.000000 1.718740 0.000000 
#    z 0.000000 0.000000 1.745530 
# 
# From -- ./inp_files/21051.got.cif
#   From: 2010.03.12/outbox.cif.g09.slc.cpg/sg51_11_cif.got.tgz:21051.got - 2010.04.16 13:43:02.
