data_PCOD8211752
_publ_section_title
;
Structure prediction by ZEFSAII (Michael W. Deem and Ramdas Pophale) SiO2 
 PCOD8211752
Probable space group: P M M A
;
_chemical_formula_sum "Si O2"
_cell_formula_units_Z 40
_cell_length_a 8.771739
_cell_length_b 24.992553
_cell_length_c 9.949009
_cell_angle_alpha 90.000000
_cell_angle_beta 90.000000
_cell_angle_gamma 90.000000
_cell_volume 2181.102856
_symmetry_space_group_name_H-M "P M M A"
_symmetry_group_IT_number 51
_symmetry_cell_setting 'orthorhombic'
loop_
_space_group_symop_operation_xyz
x,y,z
1/2-x,-y,z
1/2+x,-y,-z
-x,y,-z
-x,-y,-z
1/2+x,y,-z
1/2-x,y,z
x,-y,z
loop_
_atom_site_type_symbol
_atom_site_label
_atom_site_fract_x
_atom_site_fract_y
_atom_site_fract_z
Si Si1 0.930398 0.361313 0.351613
Si Si2 0.072630 0.138145 0.353857
Si Si3 0.071304 0.938458 0.861205
Si Si4 0.925843 0.437028 0.860684
Si Si5 0.427043 0.744000 0.355270
O O1 0.750000 0.362186 0.361088
O O2 0.000000 0.367120 0.500000
O O3 0.986522 0.410354 0.262475
O O4 0.987053 0.305375 0.281876
O O5 0.250000 0.124722 0.367216
O O6 0.049387 0.197571 0.287889
O O7 0.000000 0.133991 0.500000
O O8 0.993727 0.095121 0.260704
O O9 0.250000 0.930023 0.869891
O O10 0.026476 0.000000 0.836007
O O11 0.000000 0.917587 0.000000
O O12 0.750000 0.419665 0.860173
O O13 0.945683 0.500000 0.841976
O O14 0.000000 0.417684 0.000000
O O15 0.500000 0.749000 0.500000
O O16 0.250000 0.729198 0.367111
#
# Coordination Sequence:
#
# PCOD8211752 Si02
#       5
#     8   8   8   8   8
#     4  11  21  34  55  81 109 141 177 218 262 309
#     4  10  20  34  55  81 108 139 175 217 261 309
#     4  10  21  37  56  77 104 139 176 216 264 316
#     4  10  21  38  58  79 106 140 176 216 264 316
#     4   9  17  31  51  76 106 138 173 213 261 312
#
# _framework density 18.339347
#
# number of rings (size 3 to 8) (size 9 to 14) (size 15 to 20)
#    0.000    2.000    0.000    5.400    0.000    5.600 
#    0.000    1.000    0.000    4.800    0.000    0.000 
#    0.000    0.000    0.000    0.000    0.000    0.000 
#
# Total GULP energy -495895.808614 kJ/mol
# GULP energy per Si atom -12397.395215 kJ/mol
# Density = 1.829761 g / cm^3
# Si number density = 18.339347 Si / 1000 Ang^3
#
#
#
# Elastic Constant Matrix: (Units=GPa)
#
#
# Indices 1 2 3 4 5 6 
#
# 1 143.7647 58.2507 52.2744 0.0000 0.0000 0.0000
# 2 58.2507 82.7110 56.2065 0.0000 0.0000 0.0000
# 3 52.2744 56.2065 92.8259 0.0000 0.0000 0.0000
# 4 0.0000 0.0000 0.0000 107.2050 0.0000 0.0000
# 5 0.0000 0.0000 0.0000 0.0000 34.2921 0.0000
# 6 0.0000 0.0000 0.0000 0.0000 0.0000 20.7366
#
#
#
# Elastic Compliance Matrix: (Units=1/GPa)
#
#
# Indices 1 2 3 4 5 6 
#
# 1 0.010021 -0.005476 -0.002328 0.000000 0.000000 0.000000
# 2 -0.005476 0.023535 -0.011167 0.000000 0.000000 0.000000
# 3 -0.002328 -0.011167 0.018845 0.000000 0.000000 0.000000
# 4 0.000000 0.000000 0.000000 0.009328 0.000000 0.000000
# 5 0.000000 0.000000 0.000000 0.000000 0.029161 0.000000
# 6 0.000000 0.000000 0.000000 0.000000 0.000000 0.048224
#
#
# Mechanical properties :
#
#
# Convention : Reuss Voigt Hill
#
# Bulk Modulus (GPa) = 69.15306 72.52944 70.84125
# Shear Modulus (GPa) = 27.49135 42.61807 35.05471
#
# Velocity S-wave (km/s) = 3.87594 4.82587 4.37675
# Velocity P-wave (km/s) = 7.60394 8.40752 8.01581
#
# Compressibility (1/GPa) = 0.01446068
#
# Stress axis : x y z
#
# Youngs Moduli (GPa) = 99.79282 42.48958 53.06326
#
# Poissons Ratio (x) = 0.23265 0.12351
# Poissons Ratio (y) = 0.54642 0.59256
# Poissons Ratio (z) = 0.23229 0.47449
#
# Static dielectric constant tensor:
#      x y z
#    x 3.596150 0.000000 0.000000 
#    y 0.000000 3.903420 0.000000 
#    z 0.000000 0.000000 3.159140 
# 
# 
# High freq. dielectric constant tensor:
#      x y z
#    x 1.734500 0.000000 0.000000 
#    y 0.000000 1.722920 0.000000 
#    z 0.000000 0.000000 1.683300 
# 
# From -- ./inp_files/5276.got.cif
#   From: 2010.03.12/outbox.cif.g09.slc.cpg/sg51_3_cif.got.tgz:5276.got - 2010.04.16 13:43:02.
