data_PCOD8211788
_publ_section_title
;
Structure prediction by ZEFSAII (Michael W. Deem and Ramdas Pophale) SiO2 
 PCOD8211788
Probable space group: P M M A
;
_chemical_formula_sum "Si O2"
_cell_formula_units_Z 52
_cell_length_a 8.587233
_cell_length_b 22.853411
_cell_length_c 14.211563
_cell_angle_alpha 90.000000
_cell_angle_beta 90.000000
_cell_angle_gamma 90.000000
_cell_volume 2788.984635
_symmetry_space_group_name_H-M "P M M A"
_symmetry_group_IT_number 51
_symmetry_cell_setting 'orthorhombic'
loop_
_space_group_symop_operation_xyz
x,y,z
1/2-x,-y,z
1/2+x,-y,-z
-x,y,-z
-x,-y,-z
1/2+x,y,-z
1/2-x,y,z
x,-y,z
loop_
_atom_site_type_symbol
_atom_site_label
_atom_site_fract_x
_atom_site_fract_y
_atom_site_fract_z
Si Si1 0.567428 0.064899 0.598548
Si Si2 0.932867 0.390603 0.711850
Si Si3 0.567648 0.781670 0.099381
Si Si4 0.567744 0.354689 0.099331
Si Si5 0.933508 0.718192 0.396169
Si Si6 0.932582 0.824394 0.712791
Si Si7 0.432704 0.500000 0.603623
O O1 0.500000 0.087848 0.500000
O O2 0.750000 0.062083 0.585805
O O3 0.522577 0.109954 0.681088
O O4 0.501539 0.000000 0.623554
O O5 0.750000 0.398746 0.702444
O O6 0.982137 0.392222 0.820885
O O7 0.984469 0.329421 0.668497
O O8 0.015432 0.442679 0.658086
O O9 0.750000 0.794574 0.103426
O O10 0.530989 0.713530 0.115641
O O11 0.480263 0.818622 0.178857
O O12 0.500000 0.802863 0.000000
O O13 0.750000 0.367535 0.102944
O O14 0.500000 0.375846 0.000000
O O15 0.750000 0.706862 0.396974
O O16 0.000000 0.713463 0.500000
O O17 0.969086 0.781164 0.352750
O O18 0.750000 0.811144 0.699802
O O19 0.250000 0.500000 0.594672
O O20 0.500000 0.500000 0.500000
#
# Coordination Sequence:
#
# PCOD8211788 Si02
#       7
#     8   8   8   8   8   8   4
#     4   9  19  35  54  78 110 150 193 235 281 336
#     4  12  24  41  63  88 117 152 193 237 285 341
#     4  10  20  34  55  82 116 150 187 231 283 342
#     4  10  20  36  59  88 119 154 189 233 286 342
#     4  12  24  38  55  81 115 150 187 234 288 340
#     4  11  21  34  55  83 114 148 187 234 287 341
#     4  12  26  46  67  88 117 154 198 240 284 342
#
# _framework density 18.644779
#
# number of rings (size 3 to 8) (size 9 to 14) (size 15 to 20)
#    0.000    1.231    1.538    5.769    0.000    3.692 
#    0.000    0.385    0.000    0.462    0.000    0.000 
#    0.000    0.000    0.000    0.000    0.000    0.000 
#
# Total GULP energy -645052.208428 kJ/mol
# GULP energy per Si atom -12404.850162 kJ/mol
# Density = 1.860234 g / cm^3
# Si number density = 18.644779 Si / 1000 Ang^3
#
#
#
# Elastic Constant Matrix: (Units=GPa)
#
#
# Indices 1 2 3 4 5 6 
#
# 1 100.4856 37.7412 53.2003 0.0000 0.0000 0.0000
# 2 37.7412 83.4710 51.3766 0.0000 0.0000 0.0000
# 3 53.2003 51.3766 150.9296 0.0000 0.0000 0.0000
# 4 0.0000 0.0000 0.0000 37.0443 0.0000 0.0000
# 5 0.0000 0.0000 0.0000 0.0000 38.0838 0.0000
# 6 0.0000 0.0000 0.0000 0.0000 0.0000 29.1201
#
#
#
# Elastic Compliance Matrix: (Units=1/GPa)
#
#
# Indices 1 2 3 4 5 6 
#
# 1 0.013177 -0.003920 -0.003310 0.000000 0.000000 0.000000
# 2 -0.003920 0.016322 -0.004174 0.000000 0.000000 0.000000
# 3 -0.003310 -0.004174 0.009213 0.000000 0.000000 0.000000
# 4 0.000000 0.000000 0.000000 0.026995 0.000000 0.000000
# 5 0.000000 0.000000 0.000000 0.000000 0.026258 0.000000
# 6 0.000000 0.000000 0.000000 0.000000 0.000000 0.034341
#
#
# Mechanical properties :
#
#
# Convention : Reuss Voigt Hill
#
# Bulk Modulus (GPa) = 62.88271 68.83583 65.85927
# Shear Modulus (GPa) = 32.38029 33.68752 33.03390
#
# Velocity S-wave (km/s) = 4.17189 4.25527 4.21378
# Velocity P-wave (km/s) = 7.55024 7.81939 7.68599
#
# Compressibility (1/GPa) = 0.01590262
#
# Stress axis : x y z
#
# Youngs Moduli (GPa) = 75.89234 61.26693 108.53974
#
# Poissons Ratio (x) = 0.24019 0.35927
# Poissons Ratio (y) = 0.29753 0.45306
# Poissons Ratio (z) = 0.25120 0.25574
#
# Static dielectric constant tensor:
#      x y z
#    x 3.562800 0.000000 0.000000 
#    y 0.000000 3.844920 0.000000 
#    z 0.000000 0.000000 3.572400 
# 
# 
# High freq. dielectric constant tensor:
#      x y z
#    x 1.740260 0.000000 0.000000 
#    y 0.000000 1.706470 0.000000 
#    z 0.000000 0.000000 1.735250 
# 
# From -- ./inp_files/21500.got.cif
#   From: 2010.03.12/outbox.cif.g09.slc.cpg/sg51_11_cif.got.tgz:21500.got - 2010.04.16 13:43:02.
