data_PCOD8211410
_publ_section_title
;
Structure prediction by ZEFSAII (Michael W. Deem and Ramdas Pophale) SiO2 
 PCOD8211410
Probable space group: P M M A
;
_chemical_formula_sum "Si O2"
_cell_formula_units_Z 48
_cell_length_a 8.788617
_cell_length_b 14.573877
_cell_length_c 18.993311
_cell_angle_alpha 90.000000
_cell_angle_beta 90.000000
_cell_angle_gamma 90.000000
_cell_volume 2432.743485
_symmetry_space_group_name_H-M "P M M A"
_symmetry_group_IT_number 51
_symmetry_cell_setting 'orthorhombic'
loop_
_space_group_symop_operation_xyz
x,y,z
1/2-x,-y,z
1/2+x,-y,-z
-x,y,-z
-x,-y,-z
1/2+x,y,-z
1/2-x,y,z
x,-y,z
loop_
_atom_site_type_symbol
_atom_site_label
_atom_site_fract_x
_atom_site_fract_y
_atom_site_fract_z
Si Si1 0.577583 0.648292 0.072281
Si Si2 0.926490 0.762420 0.302856
Si Si3 0.576593 0.865393 0.070384
Si Si4 0.078573 0.899739 0.207942
Si Si5 0.575698 0.396015 0.780161
Si Si6 0.930518 0.895694 0.425226
O O1 0.750000 0.612474 0.071532
O O2 0.568625 0.756632 0.075326
O O3 0.500604 0.611393 0.143301
O O4 0.500000 0.611471 0.000000
O O5 0.750000 0.740748 0.311614
O O6 0.991410 0.817124 0.371358
O O7 0.953191 0.832124 0.239271
O O8 0.007368 0.667061 0.282641
O O9 0.750000 0.900222 0.076641
O O10 0.468920 0.911212 0.127792
O O11 0.500000 0.901688 0.000000
O O12 0.250000 0.859515 0.214933
O O13 0.071160 0.000000 0.244238
O O14 0.750000 0.367611 0.790045
O O15 0.557537 0.500000 0.753064
O O16 0.750000 0.891018 0.429459
O O17 0.000000 0.869330 0.500000
O O18 0.980636 0.000000 0.403409
#
# Coordination Sequence:
#
# PCOD8211410 Si02
#       6
#     8   8   8   8   8   8
#     4  10  20  35  57  82 108 144 188 240 300 355
#     4  11  22  38  60  86 117 153 188 232 285 335
#     4  10  20  34  53  75 102 141 185 233 286 339
#     4  11  23  36  53  79 110 147 189 231 278 336
#     4  11  24  40  59  84 114 150 193 242 294 349
#     4   9  19  36  60  92 127 159 191 226 269 326
#
# _framework density 19.730810000000002
#
# number of rings (size 3 to 8) (size 9 to 14) (size 15 to 20)
#    0.000    1.667    1.667    3.000    0.000    6.667 
#    0.000    1.667    0.000    0.500    0.000    0.000 
#    0.000    0.000    0.000    0.000    0.000    0.000 
#
# Total GULP energy -594940.211649 kJ/mol
# GULP energy per Si atom -12394.587743 kJ/mol
# Density = 1.968590 g / cm^3
# Si number density = 19.730810 Si / 1000 Ang^3
#
#
#
# Elastic Constant Matrix: (Units=GPa)
#
#
# Indices 1 2 3 4 5 6 
#
# 1 98.0042 37.4163 36.8327 0.0000 0.0000 0.0000
# 2 37.4163 106.7795 52.1919 0.0000 0.0000 0.0000
# 3 36.8327 52.1919 119.4501 0.0000 0.0000 0.0000
# 4 0.0000 0.0000 0.0000 19.7024 0.0000 0.0000
# 5 0.0000 0.0000 0.0000 0.0000 33.8004 0.0000
# 6 0.0000 0.0000 0.0000 0.0000 0.0000 0.5963
#
#
#
# Elastic Compliance Matrix: (Units=1/GPa)
#
#
# Indices 1 2 3 4 5 6 
#
# 1 0.012310 -0.003126 -0.002430 0.000000 0.000000 0.000000
# 2 -0.003126 0.012702 -0.004586 0.000000 0.000000 0.000000
# 3 -0.002430 -0.004586 0.011125 0.000000 0.000000 0.000000
# 4 0.000000 0.000000 0.000000 0.050755 0.000000 0.000000
# 5 0.000000 0.000000 0.000000 0.000000 0.029585 0.000000
# 6 0.000000 0.000000 0.000000 0.000000 0.000000 1.677119
#
#
# Mechanical properties :
#
#
# Convention : Reuss Voigt Hill
#
# Bulk Modulus (GPa) = 63.07916 64.12395 63.60156
# Shear Modulus (GPa) = 2.74851 24.00600 13.37725
#
# Velocity S-wave (km/s) = 1.18154 3.49187 2.60665
# Velocity P-wave (km/s) = 5.82243 6.98767 6.43149
#
# Compressibility (1/GPa) = 0.01585310
#
# Stress axis : x y z
#
# Youngs Moduli (GPa) = 81.23242 78.72769 89.88879
#
# Poissons Ratio (x) = 0.24609 0.21844
# Poissons Ratio (y) = 0.25392 0.41224
# Poissons Ratio (z) = 0.19741 0.36105
#
# Static dielectric constant tensor:
#      x y z
#    x 3.713910 0.000000 0.000000 
#    y 0.000000 3.611680 0.000000 
#    z 0.000000 0.000000 3.588800 
# 
# 
# High freq. dielectric constant tensor:
#      x y z
#    x 1.776290 0.000000 0.000000 
#    y 0.000000 1.768080 0.000000 
#    z 0.000000 0.000000 1.750600 
# 
# From -- ./inp_files/27547.got.cif
#   From: 2010.03.12/outbox.cif.g09.slc.cpg/sg51_14_cif.got.tgz:27547.got - 2010.04.16 13:43:02.
