data_PCOD8211826
_publ_section_title
;
Structure prediction by ZEFSAII (Michael W. Deem and Ramdas Pophale) SiO2 
 PCOD8211826
Probable space group: P M M A
;
_chemical_formula_sum "Si O2"
_cell_formula_units_Z 48
_cell_length_a 13.694647
_cell_length_b 17.753737
_cell_length_c 9.349041
_cell_angle_alpha 90.000000
_cell_angle_beta 90.000000
_cell_angle_gamma 90.000000
_cell_volume 2273.043194
_symmetry_space_group_name_H-M "P M M A"
_symmetry_group_IT_number 51
_symmetry_cell_setting 'orthorhombic'
loop_
_space_group_symop_operation_xyz
x,y,z
1/2-x,-y,z
1/2+x,-y,-z
-x,y,-z
-x,-y,-z
1/2+x,y,-z
1/2-x,y,z
x,-y,z
loop_
_atom_site_type_symbol
_atom_site_label
_atom_site_fract_x
_atom_site_fract_y
_atom_site_fract_z
Si Si1 0.976518 0.145047 0.149843
Si Si2 0.361565 0.415778 0.102716
Si Si3 0.858492 0.201088 0.651010
Si Si4 0.103301 0.081658 0.572949
Si Si5 0.981036 0.349365 0.650563
Si Si6 0.134475 0.703437 0.859188
O O1 0.907313 0.098748 0.257731
O O2 0.917307 0.218900 0.099174
O O3 0.080463 0.159958 0.225407
O O4 0.000000 0.101518 0.000000
O O5 0.250000 0.404302 0.147974
O O6 0.379524 0.500000 0.042151
O O7 0.425758 0.405048 0.243635
O O8 0.391734 0.355675 0.983650
O O9 0.750000 0.219745 0.710455
O O10 0.842322 0.149042 0.509591
O O11 0.915491 0.276661 0.611164
O O12 0.000000 0.075246 0.500000
O O13 0.156772 0.000000 0.558644
O O14 0.000000 0.391538 0.500000
O O15 0.086272 0.325832 0.713077
O O16 0.250000 0.712746 0.836451
#
# Coordination Sequence:
#
# PCOD8211826 Si02
#       6
#     8   8   8   8   8   8
#     4  10  20  34  55  85 116 147 187 236 290 340
#     4  10  22  41  63  85 112 150 192 231 277 337
#     4  10  20  36  57  81 113 153 194 233 277 337
#     4   9  19  36  56  79 110 149 190 229 274 333
#     4  11  22  35  56  86 117 148 186 234 287 337
#     4  10  21  37  57  82 114 153 194 234 278 336
#
# _framework density 21.117065
#
# number of rings (size 3 to 8) (size 9 to 14) (size 15 to 20)
#    0.000    2.000    0.000    5.500    0.000    7.667 
#    0.000    0.000    0.000    2.000    0.000    2.333 
#    0.000    0.000    0.000    0.000    0.000    0.000 
#
# Total GULP energy -594933.088451 kJ/mol
# GULP energy per Si atom -12394.439343 kJ/mol
# Density = 2.106900 g / cm^3
# Si number density = 21.117065 Si / 1000 Ang^3
#
#
#
# Elastic Constant Matrix: (Units=GPa)
#
#
# Indices 1 2 3 4 5 6 
#
# 1 122.2014 23.5015 38.9738 0.0000 0.0000 0.0000
# 2 23.5015 97.2677 30.3317 0.0000 0.0000 0.0000
# 3 38.9738 30.3317 133.9815 0.0000 0.0000 0.0000
# 4 0.0000 0.0000 0.0000 16.4959 0.0000 0.0000
# 5 0.0000 0.0000 0.0000 0.0000 18.2556 0.0000
# 6 0.0000 0.0000 0.0000 0.0000 0.0000 3.8563
#
#
#
# Elastic Compliance Matrix: (Units=1/GPa)
#
#
# Indices 1 2 3 4 5 6 
#
# 1 0.009218 -0.001497 -0.002343 0.000000 0.000000 0.000000
# 2 -0.001497 0.011305 -0.002124 0.000000 0.000000 0.000000
# 3 -0.002343 -0.002124 0.008626 0.000000 0.000000 0.000000
# 4 0.000000 0.000000 0.000000 0.060621 0.000000 0.000000
# 5 0.000000 0.000000 0.000000 0.000000 0.054778 0.000000
# 6 0.000000 0.000000 0.000000 0.000000 0.000000 0.259315
#
#
# Mechanical properties :
#
#
# Convention : Reuss Voigt Hill
#
# Bulk Modulus (GPa) = 58.06360 59.89609 58.97984
# Shear Modulus (GPa) = 11.86154 25.09780 18.47967
#
# Velocity S-wave (km/s) = 2.37260 3.45121 2.96143
# Velocity P-wave (km/s) = 5.92127 6.65632 6.29952
#
# Compressibility (1/GPa) = 0.01722249
#
# Stress axis : x y z
#
# Youngs Moduli (GPa) = 108.48102 88.45757 115.92876
#
# Poissons Ratio (x) = 0.13240 0.27158
# Poissons Ratio (y) = 0.16237 0.24622
# Poissons Ratio (z) = 0.25413 0.18787
#
# Static dielectric constant tensor:
#      x y z
#    x 3.796900 0.000000 0.000000 
#    y 0.000000 3.940100 0.000000 
#    z 0.000000 0.000000 3.891050 
# 
# 
# High freq. dielectric constant tensor:
#      x y z
#    x 1.832220 0.000000 0.000000 
#    y 0.000000 1.808240 0.000000 
#    z 0.000000 0.000000 1.827650 
# 
# From -- ./inp_files/8215.got.cif
#   From: 2010.03.12/outbox.cif.g09.slc.cpg/sg51_5_cif.got.tgz:8215.got - 2010.04.16 13:43:02.
