data_PCOD8211142
_publ_section_title
;
Structure prediction by ZEFSAII (Michael W. Deem and Ramdas Pophale) SiO2 
 PCOD8211142
Probable space group: P M M A
;
_chemical_formula_sum "Si O2"
_cell_formula_units_Z 64
_cell_length_a 9.136407
_cell_length_b 22.713546
_cell_length_c 15.960094
_cell_angle_alpha 90.000000
_cell_angle_beta 90.000000
_cell_angle_gamma 90.000000
_cell_volume 3312.041910
_symmetry_space_group_name_H-M "P M M A"
_symmetry_group_IT_number 51
_symmetry_cell_setting 'orthorhombic'
loop_
_space_group_symop_operation_xyz
x,y,z
1/2-x,-y,z
1/2+x,-y,-z
-x,y,-z
-x,-y,-z
1/2+x,y,-z
1/2-x,y,z
x,-y,z
loop_
_atom_site_type_symbol
_atom_site_label
_atom_site_fract_x
_atom_site_fract_y
_atom_site_fract_z
Si Si1 0.917178 0.067219 0.754252
Si Si2 0.908964 0.685620 0.696302
Si Si3 0.576167 0.897114 0.413526
Si Si4 0.078031 0.390178 0.921080
Si Si5 0.087772 0.276379 0.114715
Si Si6 0.582196 0.762271 0.420361
Si Si7 0.923012 0.142461 0.914714
Si Si8 0.083141 0.434811 0.235821
O O1 0.750000 0.085585 0.732810
O O2 0.977084 0.106511 0.832076
O O3 0.012918 0.072252 0.669492
O O4 0.925371 0.000000 0.784695
O O5 0.750000 0.696035 0.652437
O O6 0.899044 0.711603 0.787945
O O7 0.946460 0.615687 0.695063
O O8 0.041251 0.720257 0.655352
O O9 0.500000 0.920356 0.500000
O O10 0.750000 0.908910 0.419888
O O11 0.535841 0.828881 0.401198
O O12 0.250000 0.394883 0.929427
O O13 0.029960 0.321568 0.922244
O O14 0.027731 0.425595 0.839945
O O15 0.000000 0.421326 0.000000
O O16 0.250000 0.285813 0.074600
O O17 0.031418 0.210363 0.098407
O O18 0.500000 0.736683 0.500000
O O19 0.750000 0.757624 0.439988
O O20 0.750000 0.134193 0.925105
O O21 0.000000 0.118911 0.000000
O O22 0.250000 0.427593 0.202661
O O23 0.058145 0.500000 0.274634
#
# Coordination Sequence:
#
# PCOD8211142 Si02
#       8
#     8   8   8   8   8   8   8   8
#     4  10  22  40  59  79 107 145 187 228 270 319
#     4   9  17  31  53  78 104 135 169 209 258 309
#     4  10  21  37  59  87 116 145 177 215 265 324
#     4  11  21  32  48  71 100 131 165 208 257 308
#     4   9  18  33  52  75 103 134 169 211 263 319
#     4  10  20  33  52  80 111 139 167 203 250 306
#     4  10  21  36  55  79 107 142 184 230 278 325
#     4   9  19  36  54  71  95 131 173 211 250 300
#
# _framework density 19.323426000000001
#
# number of rings (size 3 to 8) (size 9 to 14) (size 15 to 20)
#    0.000    2.250    0.000    3.750    0.000    7.750 
#    0.000    0.000    0.000    0.375    0.000    0.000 
#    0.000    0.000    0.000    0.000    0.000    0.000 
#
# Total GULP energy -793303.720928 kJ/mol
# GULP energy per Si atom -12395.370640 kJ/mol
# Density = 1.927944 g / cm^3
# Si number density = 19.323426 Si / 1000 Ang^3
#
#
#
# Elastic Constant Matrix: (Units=GPa)
#
#
# Indices 1 2 3 4 5 6 
#
# 1 77.1202 22.9396 25.3390 0.0000 0.0000 0.0000
# 2 22.9396 77.1382 26.5770 0.0000 0.0000 0.0000
# 3 25.3390 26.5770 72.9183 0.0000 0.0000 0.0000
# 4 0.0000 0.0000 0.0000 -43.4068 0.0000 0.0000
# 5 0.0000 0.0000 0.0000 0.0000 35.7117 0.0000
# 6 0.0000 0.0000 0.0000 0.0000 0.0000 10.6833
#
#
#
# Elastic Compliance Matrix: (Units=1/GPa)
#
#
# Indices 1 2 3 4 5 6 
#
# 1 0.015260 -0.003100 -0.004173 0.000000 0.000000 0.000000
# 2 -0.003100 0.015455 -0.004556 0.000000 0.000000 0.000000
# 3 -0.004173 -0.004556 0.016824 0.000000 0.000000 0.000000
# 4 0.000000 0.000000 0.000000 -0.023038 0.000000 0.000000
# 5 0.000000 0.000000 0.000000 0.000000 0.028002 0.000000
# 6 0.000000 0.000000 0.000000 0.000000 0.000000 0.093604
#
#
# Mechanical properties :
#
#
# Convention : Reuss Voigt Hill
#
# Bulk Modulus (GPa) = 41.87254 41.87644 41.87449
# Shear Modulus (GPa) = 28.13308 10.75237 19.44272
#
# Velocity S-wave (km/s) = 3.81977 2.36146 3.17547
# Velocity P-wave (km/s) = 6.41643 5.39942 5.92977
#
# Compressibility (1/GPa) = 0.02388200
#
# Stress axis : x y z
#
# Youngs Moduli (GPa) = 65.53065 64.70243 59.43716
#
# Poissons Ratio (x) = 0.20060 0.24802
# Poissons Ratio (y) = 0.20317 0.27078
# Poissons Ratio (z) = 0.27345 0.29477
#
# Static dielectric constant tensor:
#      x y z
#    x 3.675620 0.000000 0.000000 
#    y 0.000000 3.631410 0.000000 
#    z 0.000000 0.000000 3.576640 
# 
# 
# High freq. dielectric constant tensor:
#      x y z
#    x 1.749880 0.000000 0.000000 
#    y 0.000000 1.749390 0.000000 
#    z 0.000000 0.000000 1.737510 
# 
# From -- ./inp_files/22261.got.cif
#   From: 2010.03.12/outbox.cif.g09.slc.cpg/sg51_12_cif.got.tgz:22261.got - 2010.04.16 13:43:02.
