data_PCOD8211125
_publ_section_title
;
Structure prediction by ZEFSAII (Michael W. Deem and Ramdas Pophale) SiO2 
 PCOD8211125
Probable space group: P M M A
;
_chemical_formula_sum "Si O2"
_cell_formula_units_Z 48
_cell_length_a 9.135138
_cell_length_b 9.343641
_cell_length_c 30.746079
_cell_angle_alpha 90.000000
_cell_angle_beta 90.000000
_cell_angle_gamma 90.000000
_cell_volume 2624.345407
_symmetry_space_group_name_H-M "P M M A"
_symmetry_group_IT_number 51
_symmetry_cell_setting 'orthorhombic'
loop_
_space_group_symop_operation_xyz
x,y,z
1/2-x,-y,z
1/2+x,-y,-z
-x,y,-z
-x,-y,-z
1/2+x,y,-z
1/2-x,y,z
x,-y,z
loop_
_atom_site_type_symbol
_atom_site_label
_atom_site_fract_x
_atom_site_fract_y
_atom_site_fract_z
Si Si1 0.920255 0.833816 0.298763
Si Si2 0.076486 0.157953 0.798181
Si Si3 0.421419 0.835303 0.456614
Si Si4 0.420613 0.667507 0.880294
Si Si5 0.577051 0.336267 0.626882
Si Si6 0.421332 0.165072 0.044377
O O1 0.750000 0.797768 0.304223
O O2 0.976109 0.796339 0.249955
O O3 0.010646 0.735053 0.330697
O O4 0.950403 0.000000 0.309055
O O5 0.250000 0.150410 0.797086
O O6 0.022687 0.270528 0.834220
O O7 0.014609 0.000000 0.809969
O O8 0.500000 0.779212 0.500000
O O9 0.250000 0.813421 0.463444
O O10 0.481000 0.743490 0.416192
O O11 0.461746 0.000000 0.447349
O O12 0.250000 0.703706 0.887874
O O13 0.450216 0.500000 0.879971
O O14 0.515392 0.737289 0.917886
O O15 0.750000 0.321473 0.630234
O O16 0.525988 0.500000 0.624339
O O17 0.250000 0.194543 0.039004
O O18 0.454111 0.000000 0.055657
O O19 0.500000 0.210384 0.000000
#
# Coordination Sequence:
#
# PCOD8211125 Si02
#       6
#     8   8   8   8   8   8
#     4   9  18  33  54  79 103 130 170 216 256 297
#     4   8  15  30  52  76 102 133 170 212 254 296
#     4   9  18  33  52  72  95 126 165 208 252 298
#     4  10  20  33  52  79 108 138 170 205 251 305
#     4  10  21  35  50  72 104 139 171 204 248 303
#     4  10  21  37  57  79 102 132 172 215 257 301
#
# _framework density 18.290275999999999
#
# number of rings (size 3 to 8) (size 9 to 14) (size 15 to 20)
#    0.000    2.667    0.000    2.500    0.000    5.333 
#    0.000    4.167    0.000    1.000    0.000    0.000 
#    0.000    0.000    0.000    0.000    0.000    0.000 
#
# Total GULP energy -595210.878637 kJ/mol
# GULP energy per Si atom -12400.226638 kJ/mol
# Density = 1.824865 g / cm^3
# Si number density = 18.290276 Si / 1000 Ang^3
#
#
#
# Elastic Constant Matrix: (Units=GPa)
#
#
# Indices 1 2 3 4 5 6 
#
# 1 41.0880 41.4350 50.5405 0.0000 0.0000 0.0000
# 2 41.4350 108.2751 93.5239 0.0000 0.0000 0.0000
# 3 50.5405 93.5239 173.1838 0.0000 0.0000 0.0000
# 4 0.0000 0.0000 0.0000 -0.6295 0.0000 0.0000
# 5 0.0000 0.0000 0.0000 0.0000 33.0715 0.0000
# 6 0.0000 0.0000 0.0000 0.0000 0.0000 25.8037
#
#
#
# Elastic Compliance Matrix: (Units=1/GPa)
#
#
# Indices 1 2 3 4 5 6 
#
# 1 0.043712 -0.010701 -0.006978 0.000000 0.000000 0.000000
# 2 -0.010701 0.019930 -0.007640 0.000000 0.000000 0.000000
# 3 -0.006978 -0.007640 0.011936 0.000000 0.000000 0.000000
# 4 0.000000 0.000000 0.000000 -1.588470 0.000000 0.000000
# 5 0.000000 0.000000 0.000000 0.000000 0.030238 0.000000
# 6 0.000000 0.000000 0.000000 0.000000 0.000000 0.038754
#
#
# Mechanical properties :
#
#
# Convention : Reuss Voigt Hill
#
# Bulk Modulus (GPa) = 40.09385 77.06064 58.57724
# Shear Modulus (GPa) = -3.61024 20.78562 8.58769
#
# Velocity S-wave (km/s) = -1.40646 3.37476 2.16920
# Velocity P-wave (km/s) = 4.39669 7.57686 6.19434
#
# Compressibility (1/GPa) = 0.02494148
#
# Stress axis : x y z
#
# Youngs Moduli (GPa) = 22.87682 50.17660 83.77814
#
# Poissons Ratio (x) = 0.53692 0.58460
# Poissons Ratio (y) = 0.24480 0.64004
# Poissons Ratio (z) = 0.15963 0.38334
#
# Static dielectric constant tensor:
#      x y z
#    x 3.124650 0.000000 0.000000 
#    y 0.000000 3.418310 0.000000 
#    z 0.000000 0.000000 3.619340 
# 
# 
# High freq. dielectric constant tensor:
#      x y z
#    x 1.685180 0.000000 0.000000 
#    y 0.000000 1.707160 0.000000 
#    z 0.000000 0.000000 1.723640 
# 
# From -- ./inp_files/36965.got.cif
#   From: 2010.03.12/outbox.cif.g09.slc.cpg/sg51_19_cif.got.tgz:36965.got - 2010.04.16 13:43:02.
