data_PCOD8211316
_publ_section_title
;
Structure prediction by ZEFSAII (Michael W. Deem and Ramdas Pophale) SiO2 
 PCOD8211316
Probable space group: P M M A
;
_chemical_formula_sum "Si O2"
_cell_formula_units_Z 64
_cell_length_a 9.039880
_cell_length_b 19.527442
_cell_length_c 20.450163
_cell_angle_alpha 90.000000
_cell_angle_beta 90.000000
_cell_angle_gamma 90.000000
_cell_volume 3609.980001
_symmetry_space_group_name_H-M "P M M A"
_symmetry_group_IT_number 51
_symmetry_cell_setting 'orthorhombic'
loop_
_space_group_symop_operation_xyz
x,y,z
1/2-x,-y,z
1/2+x,-y,-z
-x,y,-z
-x,-y,-z
1/2+x,y,-z
1/2-x,y,z
x,-y,z
loop_
_atom_site_type_symbol
_atom_site_label
_atom_site_fract_x
_atom_site_fract_y
_atom_site_fract_z
Si Si1 0.425779 0.076623 0.678037
Si Si2 0.920922 0.580280 0.820828
Si Si3 0.076738 0.332564 0.565968
Si Si4 0.574177 0.923295 0.176714
Si Si5 0.578935 0.420669 0.311790
Si Si6 0.576188 0.335281 0.067180
Si Si7 0.076430 0.177914 0.933429
Si Si8 0.575676 0.175742 0.433760
O O1 0.250000 0.080045 0.678282
O O2 0.484666 0.095634 0.750647
O O3 0.489320 0.130455 0.625658
O O4 0.478208 0.000000 0.659125
O O5 0.750000 0.601497 0.825252
O O6 0.943841 0.500000 0.832493
O O7 0.982662 0.601931 0.750230
O O8 0.013758 0.619202 0.875013
O O9 0.250000 0.341646 0.555792
O O10 0.020279 0.377756 0.626494
O O11 0.032980 0.254193 0.580683
O O12 0.000000 0.359168 0.500000
O O13 0.750000 0.920024 0.176839
O O14 0.510620 0.868771 0.124889
O O15 0.521768 0.000000 0.157631
O O16 0.750000 0.404053 0.296432
O O17 0.555891 0.500000 0.328615
O O18 0.750000 0.347784 0.060414
O O19 0.538277 0.256438 0.082909
O O20 0.500000 0.358606 0.000000
O O21 0.250000 0.166867 0.942132
O O22 0.000000 0.153915 0.000000
O O23 0.500000 0.149655 0.500000
O O24 0.750000 0.166150 0.441554
#
# Coordination Sequence:
#
# PCOD8211316 Si02
#       8
#     8   8   8   8   8   8   8   8
#     4   8  14  25  42  64  88 115 150 190 227 265
#     4  10  21  36  53  74  99 126 158 197 241 289
#     4   9  18  31  47  68  94 124 157 194 235 279
#     4   8  14  26  45  69  95 122 156 197 235 273
#     4   9  18  33  51  71  96 125 157 193 234 281
#     4  10  20  34  52  73  99 130 163 200 240 284
#     4   9  18  31  48  71  97 125 157 193 233 277
#     4   9  17  29  45  65  90 118 149 187 229 273
#
# _framework density 17.728631
#
# number of rings (size 3 to 8) (size 9 to 14) (size 15 to 20)
#    0.000    3.000    0.000    1.500    0.000    3.750 
#    0.000    3.750    0.000    0.750    0.000    1.750 
#    0.000    0.000    0.000    0.000    0.000    0.000 
#
# Total GULP energy -793544.575479 kJ/mol
# GULP energy per Si atom -12399.133992 kJ/mol
# Density = 1.768828 g / cm^3
# Si number density = 17.728631 Si / 1000 Ang^3
#
#
#
# Elastic Constant Matrix: (Units=GPa)
#
#
# Indices 1 2 3 4 5 6 
#
# 1 44.1272 31.8198 48.0511 0.0000 0.0000 0.0000
# 2 31.8198 81.0684 89.3586 0.0000 0.0000 0.0000
# 3 48.0511 89.3586 171.0187 0.0000 0.0000 0.0000
# 4 0.0000 0.0000 0.0000 42.1767 0.0000 0.0000
# 5 0.0000 0.0000 0.0000 0.0000 31.8494 0.0000
# 6 0.0000 0.0000 0.0000 0.0000 0.0000 15.0005
#
#
#
# Elastic Compliance Matrix: (Units=1/GPa)
#
#
# Indices 1 2 3 4 5 6 
#
# 1 0.034112 -0.006661 -0.006104 0.000000 0.000000 0.000000
# 2 -0.006661 0.030389 -0.014007 0.000000 0.000000 0.000000
# 3 -0.006104 -0.014007 0.014881 0.000000 0.000000 0.000000
# 4 0.000000 0.000000 0.000000 0.023710 0.000000 0.000000
# 5 0.000000 0.000000 0.000000 0.000000 0.031398 0.000000
# 6 0.000000 0.000000 0.000000 0.000000 0.000000 0.066665
#
#
# Mechanical properties :
#
#
# Convention : Reuss Voigt Hill
#
# Bulk Modulus (GPa) = 38.70248 70.51927 54.61087
# Shear Modulus (GPa) = 18.98901 26.27097 22.62999
#
# Velocity S-wave (km/s) = 3.27631 3.85364 3.57664
# Velocity P-wave (km/s) = 6.01582 7.72426 6.92294
#
# Compressibility (1/GPa) = 0.02583814
#
# Stress axis : x y z
#
# Youngs Moduli (GPa) = 29.31556 32.90656 67.19905
#
# Poissons Ratio (x) = 0.21918 0.41019
# Poissons Ratio (y) = 0.19526 0.94126
# Poissons Ratio (z) = 0.17894 0.46092
#
# Static dielectric constant tensor:
#      x y z
#    x 3.047610 0.000000 0.000000 
#    y 0.000000 3.388350 0.000000 
#    z 0.000000 0.000000 3.550510 
# 
# 
# High freq. dielectric constant tensor:
#      x y z
#    x 1.658070 0.000000 0.000000 
#    y 0.000000 1.684080 0.000000 
#    z 0.000000 0.000000 1.695250 
# 
# From -- ./inp_files/28335.got.cif
#   From: 2010.03.12/outbox.cif.g09.slc.cpg/sg51_15_cif.got.tgz:28335.got - 2010.04.16 13:43:02.
