data_PCOD8211453
_publ_section_title
;
Structure prediction by ZEFSAII (Michael W. Deem and Ramdas Pophale) SiO2 
 PCOD8211453
Probable space group: P M M A
;
_chemical_formula_sum "Si O2"
_cell_formula_units_Z 48
_cell_length_a 14.127279
_cell_length_b 19.147416
_cell_length_c 8.861777
_cell_angle_alpha 90.000000
_cell_angle_beta 90.000000
_cell_angle_gamma 90.000000
_cell_volume 2397.118547
_symmetry_space_group_name_H-M "P M M A"
_symmetry_group_IT_number 51
_symmetry_cell_setting 'orthorhombic'
loop_
_space_group_symop_operation_xyz
x,y,z
1/2-x,-y,z
1/2+x,-y,-z
-x,y,-z
-x,-y,-z
1/2+x,y,-z
1/2-x,y,z
x,-y,z
loop_
_atom_site_type_symbol
_atom_site_label
_atom_site_fract_x
_atom_site_fract_y
_atom_site_fract_z
Si Si1 0.637997 0.208222 0.338731
Si Si2 0.147526 0.695297 0.391519
Si Si3 0.094738 0.422958 0.594522
Si Si4 0.476003 0.681015 0.826050
Si Si5 0.955485 0.918890 0.229063
Si Si6 0.854467 0.081154 0.914443
O O1 0.750000 0.205299 0.310966
O O2 0.611304 0.244595 0.495890
O O3 0.589347 0.250707 0.200136
O O4 0.593089 0.130584 0.353189
O O5 0.250000 0.713629 0.322615
O O6 0.161538 0.625166 0.491767
O O7 0.076286 0.689865 0.254937
O O8 0.139251 0.500000 0.621784
O O9 0.076718 0.387048 0.757712
O O10 0.000000 0.429921 0.500000
O O11 0.500000 0.669418 0.000000
O O12 0.063946 0.892790 0.200998
O O13 0.952071 0.000000 0.279930
O O14 0.891307 0.906150 0.082256
O O15 0.750000 0.116727 0.889725
O O16 0.843019 0.000000 0.885948
#
# Coordination Sequence:
#
# PCOD8211453 Si02
#       6
#     8   8   8   8   8   8
#     4  10  20  34  53  76 107 146 188 234 284 343
#     4   9  19  37  58  79 108 147 186 224 271 333
#     4   8  15  31  55  82 113 149 184 217 260 317
#     4  10  21  35  55  82 112 146 186 234 279 328
#     4   9  17  28  46  74 105 141 188 238 287 342
#     4   8  14  25  41  65 104 146 177 218 281 344
#
# _framework density 20.024041
#
# number of rings (size 3 to 8) (size 9 to 14) (size 15 to 20)
#    0.000    3.000    0.000    3.000    2.333    2.333 
#    0.000    0.833    0.000    3.000    0.000    4.667 
#    0.000    2.667    0.000    0.000    0.000    0.000 
#
# Total GULP energy -594737.086816 kJ/mol
# GULP energy per Si atom -12390.355975 kJ/mol
# Density = 1.997846 g / cm^3
# Si number density = 20.024041 Si / 1000 Ang^3
#
#
#
# Elastic Constant Matrix: (Units=GPa)
#
#
# Indices 1 2 3 4 5 6 
#
# 1 124.6705 35.6811 41.1816 0.0000 0.0000 0.0000
# 2 35.6811 117.1983 38.5734 0.0000 0.0000 0.0000
# 3 41.1816 38.5734 97.8016 0.0000 0.0000 0.0000
# 4 0.0000 0.0000 0.0000 16.1441 0.0000 0.0000
# 5 0.0000 0.0000 0.0000 0.0000 20.4978 0.0000
# 6 0.0000 0.0000 0.0000 0.0000 0.0000 15.6344
#
#
#
# Elastic Compliance Matrix: (Units=1/GPa)
#
#
# Indices 1 2 3 4 5 6 
#
# 1 0.009650 -0.001839 -0.003338 0.000000 0.000000 0.000000
# 2 -0.001839 0.010156 -0.003231 0.000000 0.000000 0.000000
# 3 -0.003338 -0.003231 0.012905 0.000000 0.000000 0.000000
# 4 0.000000 0.000000 0.000000 0.061942 0.000000 0.000000
# 5 0.000000 0.000000 0.000000 0.000000 0.048786 0.000000
# 6 0.000000 0.000000 0.000000 0.000000 0.000000 0.063961
#
#
# Mechanical properties :
#
#
# Convention : Reuss Voigt Hill
#
# Bulk Modulus (GPa) = 62.91676 63.39361 63.15519
# Shear Modulus (GPa) = 21.78508 25.40421 23.59465
#
# Velocity S-wave (km/s) = 3.30198 3.56573 3.43638
# Velocity P-wave (km/s) = 6.78427 6.97711 6.88136
#
# Compressibility (1/GPa) = 0.01589402
#
# Stress axis : x y z
#
# Youngs Moduli (GPa) = 103.62488 98.46407 77.49139
#
# Poissons Ratio (x) = 0.18111 0.25866
# Poissons Ratio (y) = 0.19061 0.25038
# Poissons Ratio (z) = 0.34590 0.31814
#
# Static dielectric constant tensor:
#      x y z
#    x 4.128210 0.000000 0.000000 
#    y 0.000000 3.936380 0.000000 
#    z 0.000000 0.000000 3.215900 
# 
# 
# High freq. dielectric constant tensor:
#      x y z
#    x 1.795240 0.000000 0.000000 
#    y 0.000000 1.774810 0.000000 
#    z 0.000000 0.000000 1.741370 
# 
# From -- ./inp_files/8428.got.cif
#   From: 2010.03.12/outbox.cif.g09.slc.cpg/sg51_5_cif.got.tgz:8428.got - 2010.04.16 13:43:02.
