data_PCOD8211593
_publ_section_title
;
Structure prediction by ZEFSAII (Michael W. Deem and Ramdas Pophale) SiO2 
 PCOD8211593
Probable space group: P M M A
;
_chemical_formula_sum "Si O2"
_cell_formula_units_Z 44
_cell_length_a 9.539744
_cell_length_b 8.072936
_cell_length_c 29.805788
_cell_angle_alpha 90.000000
_cell_angle_beta 90.000000
_cell_angle_gamma 90.000000
_cell_volume 2295.455290
_symmetry_space_group_name_H-M "P M M A"
_symmetry_group_IT_number 51
_symmetry_cell_setting 'orthorhombic'
loop_
_space_group_symop_operation_xyz
x,y,z
1/2-x,-y,z
1/2+x,-y,-z
-x,y,-z
-x,-y,-z
1/2+x,y,-z
1/2-x,y,z
x,-y,z
loop_
_atom_site_type_symbol
_atom_site_label
_atom_site_fract_x
_atom_site_fract_y
_atom_site_fract_z
Si Si1 0.583485 0.184504 0.603828
Si Si2 0.093749 0.192141 0.296512
Si Si3 0.082810 0.500000 0.454072
Si Si4 0.093653 0.192005 0.039637
Si Si5 0.098662 0.307908 0.781467
Si Si6 0.587488 0.306256 0.119895
O O1 0.750000 0.179896 0.606130
O O2 0.526987 0.221883 0.654041
O O3 0.533202 0.333061 0.571638
O O4 0.530827 0.000000 0.587757
O O5 0.250000 0.266696 0.295319
O O6 0.007545 0.282872 0.258676
O O7 0.096008 0.000000 0.285092
O O8 0.250000 0.500000 0.461899
O O9 0.000000 0.500000 0.500000
O O10 0.250000 0.273172 0.040936
O O11 0.015389 0.211472 0.086746
O O12 0.111377 0.000000 0.029096
O O13 0.000000 0.275164 0.000000
O O14 0.250000 0.228359 0.768683
O O15 0.120689 0.500000 0.789261
O O16 0.048392 0.239644 0.829902
O O17 0.750000 0.264700 0.109300
O O18 0.558505 0.500000 0.114542
#
# Coordination Sequence:
#
# PCOD8211593 Si02
#       6
#     8   8   4   8   8   8
#     4   8  16  32  52  75 104 137 175 219 263 313
#     4   9  18  32  51  76 102 130 171 216 253 299
#     4  10  20  34  54  78 104 138 178 218 267 320
#     4  10  21  36  54  76 100 127 163 207 254 304
#     4   9  19  34  50  72 103 137 169 204 250 303
#     4   9  19  36  54  72  99 134 170 205 246 300
#
# _framework density 19.168310999999999
#
# number of rings (size 3 to 8) (size 9 to 14) (size 15 to 20)
#    0.000    2.909    0.000    2.727    1.273    4.364 
#    0.000    6.364    0.000    1.091    0.000    0.000 
#    0.000    0.000    0.000    0.000    0.000    0.000 
#
# Total GULP energy -545224.944449 kJ/mol
# GULP energy per Si atom -12391.476010 kJ/mol
# Density = 1.912468 g / cm^3
# Si number density = 19.168311 Si / 1000 Ang^3
#
#
#
# Elastic Constant Matrix: (Units=GPa)
#
#
# Indices 1 2 3 4 5 6 
#
# 1 82.2029 25.5094 61.0755 0.0000 0.0000 0.0000
# 2 25.5094 61.8118 47.6051 0.0000 0.0000 0.0000
# 3 61.0755 47.6051 144.7920 0.0000 0.0000 0.0000
# 4 0.0000 0.0000 0.0000 34.7469 0.0000 0.0000
# 5 0.0000 0.0000 0.0000 0.0000 35.8923 0.0000
# 6 0.0000 0.0000 0.0000 0.0000 0.0000 18.5705
#
#
#
# Elastic Compliance Matrix: (Units=1/GPa)
#
#
# Indices 1 2 3 4 5 6 
#
# 1 0.017921 -0.002108 -0.006866 0.000000 0.000000 0.000000
# 2 -0.002108 0.021912 -0.006315 0.000000 0.000000 0.000000
# 3 -0.006866 -0.006315 0.011879 0.000000 0.000000 0.000000
# 4 0.000000 0.000000 0.000000 0.028780 0.000000 0.000000
# 5 0.000000 0.000000 0.000000 0.000000 0.027861 0.000000
# 6 0.000000 0.000000 0.000000 0.000000 0.000000 0.053849
#
#
# Mechanical properties :
#
#
# Convention : Reuss Voigt Hill
#
# Bulk Modulus (GPa) = 47.31877 61.90964 54.61420
# Shear Modulus (GPa) = 25.02214 28.14973 26.58594
#
# Velocity S-wave (km/s) = 3.61694 3.83633 3.72825
# Velocity P-wave (km/s) = 6.49481 7.21050 6.86199
#
# Compressibility (1/GPa) = 0.02113326
#
# Stress axis : x y z
#
# Youngs Moduli (GPa) = 55.80182 45.63791 84.18194
#
# Poissons Ratio (x) = 0.09619 0.57801
# Poissons Ratio (y) = 0.11761 0.53162
# Poissons Ratio (z) = 0.38315 0.28821
#
# Static dielectric constant tensor:
#      x y z
#    x 3.461660 0.000000 0.000000 
#    y 0.000000 3.493900 0.000000 
#    z 0.000000 0.000000 3.571860 
# 
# 
# High freq. dielectric constant tensor:
#      x y z
#    x 1.721870 0.000000 0.000000 
#    y 0.000000 1.735210 0.000000 
#    z 0.000000 0.000000 1.750070 
# 
# From -- ./inp_files/36814.got.cif
#   From: 2010.03.12/outbox.cif.g09.slc.cpg/sg51_19_cif.got.tgz:36814.got - 2010.04.16 13:43:02.
