data_PCOD8211328
_publ_section_title
;
Structure prediction by ZEFSAII (Michael W. Deem and Ramdas Pophale) SiO2 
 PCOD8211328
Probable space group: P M M A
;
_chemical_formula_sum "Si O2"
_cell_formula_units_Z 44
_cell_length_a 9.387912
_cell_length_b 14.072489
_cell_length_c 19.211000
_cell_angle_alpha 90.000000
_cell_angle_beta 90.000000
_cell_angle_gamma 90.000000
_cell_volume 2537.989961
_symmetry_space_group_name_H-M "P M M A"
_symmetry_group_IT_number 51
_symmetry_cell_setting 'orthorhombic'
loop_
_space_group_symop_operation_xyz
x,y,z
1/2-x,-y,z
1/2+x,-y,-z
-x,y,-z
-x,-y,-z
1/2+x,y,-z
1/2-x,y,z
x,-y,z
loop_
_atom_site_type_symbol
_atom_site_label
_atom_site_fract_x
_atom_site_fract_y
_atom_site_fract_z
Si Si1 0.584859 0.109921 0.837869
Si Si2 0.914545 0.608294 0.192923
Si Si3 0.086330 0.707177 0.429640
Si Si4 0.584675 0.249904 0.717668
Si Si5 0.583180 0.749866 0.069946
Si Si6 0.409423 0.500000 0.433006
O O1 0.750000 0.125555 0.858463
O O2 0.550951 0.156383 0.762843
O O3 0.485017 0.155712 0.896510
O O4 0.545477 0.000000 0.832165
O O5 0.750000 0.612962 0.213847
O O6 0.967813 0.500000 0.185985
O O7 0.941524 0.659745 0.119514
O O8 0.999990 0.659761 0.253770
O O9 0.250000 0.722444 0.450691
O O10 0.042677 0.772552 0.363345
O O11 0.059111 0.600933 0.396041
O O12 0.000000 0.730157 0.500000
O O13 0.750000 0.277707 0.721475
O O14 0.750000 0.768512 0.055537
O O15 0.500000 0.725108 0.000000
O O16 0.250000 0.500000 0.460095
O O17 0.500000 0.500000 0.500000
#
# Coordination Sequence:
#
# PCOD8211328 Si02
#       6
#     8   8   8   8   8   4
#     4   9  18  34  54  74  96 123 157 197 243 292
#     4   9  19  34  49  69  98 131 163 195 233 278
#     4   9  17  28  43  64  92 123 158 196 236 279
#     4   9  18  31  49  72  95 123 161 203 242 283
#     4  10  20  34  52  74 101 128 158 195 234 280
#     4   8  14  24  36  54  82 114 145 180 219 262
#
# _framework density 17.336555000000001
#
# number of rings (size 3 to 8) (size 9 to 14) (size 15 to 20)
#    0.000    2.909    0.000    0.545    1.273    2.909 
#    0.000    0.000    0.000    0.545    0.000    0.000 
#    0.000    0.000    0.000    0.000    0.000    0.000 
#
# Total GULP energy -545194.403744 kJ/mol
# GULP energy per Si atom -12390.781903 kJ/mol
# Density = 1.729710 g / cm^3
# Si number density = 17.336555 Si / 1000 Ang^3
#
#
#
# Elastic Constant Matrix: (Units=GPa)
#
#
# Indices 1 2 3 4 5 6 
#
# 1 70.3368 38.1092 55.0174 0.0000 0.0000 0.0000
# 2 38.1092 94.5457 37.2203 0.0000 0.0000 0.0000
# 3 55.0174 37.2203 121.8226 0.0000 0.0000 0.0000
# 4 0.0000 0.0000 0.0000 13.0916 0.0000 0.0000
# 5 0.0000 0.0000 0.0000 0.0000 28.8350 0.0000
# 6 0.0000 0.0000 0.0000 0.0000 0.0000 21.7668
#
#
#
# Elastic Compliance Matrix: (Units=1/GPa)
#
#
# Indices 1 2 3 4 5 6 
#
# 1 0.024978 -0.006397 -0.009326 0.000000 0.000000 0.000000
# 2 -0.006397 0.013661 -0.001285 0.000000 0.000000 0.000000
# 3 -0.009326 -0.001285 0.012813 0.000000 0.000000 0.000000
# 4 0.000000 0.000000 0.000000 0.076385 0.000000 0.000000
# 5 0.000000 0.000000 0.000000 0.000000 0.034680 0.000000
# 6 0.000000 0.000000 0.000000 0.000000 0.000000 0.045941
#
#
# Mechanical properties :
#
#
# Convention : Reuss Voigt Hill
#
# Bulk Modulus (GPa) = 57.35054 60.82208 59.08631
# Shear Modulus (GPa) = 20.13802 23.16256 21.65029
#
# Velocity S-wave (km/s) = 3.41191 3.65917 3.53770
# Velocity P-wave (km/s) = 6.97668 7.28094 7.13043
#
# Compressibility (1/GPa) = 0.01743663
#
# Stress axis : x y z
#
# Youngs Moduli (GPa) = 40.03527 73.20057 78.04474
#
# Poissons Ratio (x) = 0.46823 0.72786
# Poissons Ratio (y) = 0.25609 0.10029
# Poissons Ratio (z) = 0.37338 0.09407
#
# Static dielectric constant tensor:
#      x y z
#    x 3.279780 0.000000 0.000000 
#    y 0.000000 3.077490 0.000000 
#    z 0.000000 0.000000 3.196170 
# 
# 
# High freq. dielectric constant tensor:
#      x y z
#    x 1.671540 0.000000 0.000000 
#    y 0.000000 1.650230 0.000000 
#    z 0.000000 0.000000 1.669420 
# 
# From -- ./inp_files/27423.got.cif
#   From: 2010.03.12/outbox.cif.g09.slc.cpg/sg51_14_cif.got.tgz:27423.got - 2010.04.16 13:43:02.
