data_PCOD8211706
_publ_section_title
;
Structure prediction by ZEFSAII (Michael W. Deem and Ramdas Pophale) SiO2 
 PCOD8211706
Probable space group: P M M A
;
_chemical_formula_sum "Si O2"
_cell_formula_units_Z 56
_cell_length_a 8.651158
_cell_length_b 14.556861
_cell_length_c 23.270241
_cell_angle_alpha 90.000000
_cell_angle_beta 90.000000
_cell_angle_gamma 90.000000
_cell_volume 2930.507654
_symmetry_space_group_name_H-M "P M M A"
_symmetry_group_IT_number 51
_symmetry_cell_setting 'orthorhombic'
loop_
_space_group_symop_operation_xyz
x,y,z
1/2-x,-y,z
1/2+x,-y,-z
-x,y,-z
-x,-y,-z
1/2+x,y,-z
1/2-x,y,z
x,-y,z
loop_
_atom_site_type_symbol
_atom_site_label
_atom_site_fract_x
_atom_site_fract_y
_atom_site_fract_z
Si Si1 0.068855 0.353199 0.850554
Si Si2 0.433443 0.104108 0.561249
Si Si3 0.571772 0.237661 0.339101
Si Si4 0.567208 0.500000 0.935563
Si Si5 0.422408 0.101875 0.261085
Si Si6 0.574637 0.841573 0.865928
Si Si7 0.426806 0.604648 0.272395
Si Si8 0.066952 0.000000 0.937933
O O1 0.250000 0.370449 0.856218
O O2 0.984678 0.411307 0.899710
O O3 0.028384 0.248509 0.861689
O O4 0.020169 0.380958 0.786191
O O5 0.500000 0.133584 0.500000
O O6 0.250000 0.106978 0.559290
O O7 0.495815 0.180071 0.606611
O O8 0.488731 0.000000 0.577346
O O9 0.750000 0.261005 0.348138
O O10 0.549334 0.172491 0.284083
O O11 0.484925 0.333106 0.325857
O O12 0.750000 0.500000 0.940958
O O13 0.500000 0.500000 0.000000
O O14 0.250000 0.129045 0.282921
O O15 0.426181 0.102917 0.193019
O O16 0.466051 0.000000 0.282453
O O17 0.750000 0.816407 0.884042
O O18 0.496377 0.906924 0.911371
O O19 0.250000 0.630417 0.258823
O O20 0.444400 0.500000 0.293207
O O21 0.250000 0.000000 0.935595
O O22 0.000000 0.000000 0.000000
#
# Coordination Sequence:
#
# PCOD8211706 Si02
#       8
#     8   8   8   4   8   8   8   4
#     4  12  24  40  64  93 120 153 196 244 301 363
#     4   9  19  36  57  85 122 165 206 248 295 350
#     4  11  22  35  56  88 123 155 197 249 300 355
#     4  12  26  46  68  92 120 154 193 244 303 366
#     4  10  20  34  54  81 116 154 191 231 285 347
#     4  11  22  40  62  86 118 154 193 241 295 354
#     4  11  23  39  60  86 119 158 199 245 301 363
#     4  12  26  44  64  86 114 154 203 248 297 356
#
# _framework density 19.109317999999998
#
# number of rings (size 3 to 8) (size 9 to 14) (size 15 to 20)
#    0.000    1.143    2.857    4.286    0.000    4.000 
#    0.000    4.286    0.000    0.429    0.000    0.000 
#    0.000    0.000    0.000    0.000    0.000    0.000 
#
# Total GULP energy -694386.793777 kJ/mol
# GULP energy per Si atom -12399.764175 kJ/mol
# Density = 1.906582 g / cm^3
# Si number density = 19.109318 Si / 1000 Ang^3
#
#
#
# Elastic Constant Matrix: (Units=GPa)
#
#
# Indices 1 2 3 4 5 6 
#
# 1 101.5753 37.1624 41.5866 0.0000 0.0000 0.0000
# 2 37.1624 127.9328 53.6434 0.0000 0.0000 0.0000
# 3 41.5866 53.6434 110.8496 0.0000 0.0000 0.0000
# 4 0.0000 0.0000 0.0000 22.6994 0.0000 0.0000
# 5 0.0000 0.0000 0.0000 0.0000 31.0813 0.0000
# 6 0.0000 0.0000 0.0000 0.0000 0.0000 30.6177
#
#
#
# Elastic Compliance Matrix: (Units=1/GPa)
#
#
# Indices 1 2 3 4 5 6 
#
# 1 0.012030 -0.002010 -0.003540 0.000000 0.000000 0.000000
# 2 -0.002010 0.010142 -0.004154 0.000000 0.000000 0.000000
# 3 -0.003540 -0.004154 0.012360 0.000000 0.000000 0.000000
# 4 0.000000 0.000000 0.000000 0.044054 0.000000 0.000000
# 5 0.000000 0.000000 0.000000 0.000000 0.032174 0.000000
# 6 0.000000 0.000000 0.000000 0.000000 0.000000 0.032661
#
#
# Mechanical properties :
#
#
# Convention : Reuss Voigt Hill
#
# Bulk Modulus (GPa) = 66.12494 67.23804 66.68149
# Shear Modulus (GPa) = 29.78487 30.74402 30.26444
#
# Velocity S-wave (km/s) = 3.95227 4.01540 3.98396
# Velocity P-wave (km/s) = 7.45022 7.53394 7.49220
#
# Compressibility (1/GPa) = 0.01512289
#
# Stress axis : x y z
#
# Youngs Moduli (GPa) = 83.12706 98.59692 80.90757
#
# Poissons Ratio (x) = 0.19817 0.28645
# Poissons Ratio (y) = 0.16708 0.33610
# Poissons Ratio (z) = 0.29431 0.40958
#
# Static dielectric constant tensor:
#      x y z
#    x 3.617020 0.000000 0.000000 
#    y 0.000000 3.680180 0.000000 
#    z 0.000000 0.000000 3.467650 
# 
# 
# High freq. dielectric constant tensor:
#      x y z
#    x 1.751710 0.000000 0.000000 
#    y 0.000000 1.751920 0.000000 
#    z 0.000000 0.000000 1.728490 
# 
# From -- ./inp_files/32048.got.cif
#   From: 2010.03.12/outbox.cif.g09.slc.cpg/sg51_17_cif.got.tgz:32048.got - 2010.04.16 13:43:02.
