data_PCOD8211310
_publ_section_title
;
Structure prediction by ZEFSAII (Michael W. Deem and Ramdas Pophale) SiO2 
 PCOD8211310
Probable space group: P M M A
;
_chemical_formula_sum "Si O2"
_cell_formula_units_Z 48
_cell_length_a 8.834465
_cell_length_b 13.739518
_cell_length_c 23.926659
_cell_angle_alpha 90.000000
_cell_angle_beta 90.000000
_cell_angle_gamma 90.000000
_cell_volume 2904.248756
_symmetry_space_group_name_H-M "P M M A"
_symmetry_group_IT_number 51
_symmetry_cell_setting 'orthorhombic'
loop_
_space_group_symop_operation_xyz
x,y,z
1/2-x,-y,z
1/2+x,-y,-z
-x,y,-z
-x,-y,-z
1/2+x,y,-z
1/2-x,y,z
x,-y,z
loop_
_atom_site_type_symbol
_atom_site_label
_atom_site_fract_x
_atom_site_fract_y
_atom_site_fract_z
Si Si1 0.928361 0.612091 0.943053
Si Si2 0.427461 0.293329 0.168033
Si Si3 0.928893 0.211657 0.336616
Si Si4 0.428589 0.610877 0.280982
Si Si5 0.426623 0.890363 0.233564
Si Si6 0.427280 0.887754 0.441275
O O1 0.750000 0.624864 0.947774
O O2 0.974200 0.500000 0.933826
O O3 0.998817 0.673200 0.891000
O O4 0.000000 0.653339 0.000000
O O5 0.250000 0.307764 0.161991
O O6 0.484724 0.361987 0.218502
O O7 0.469952 0.181184 0.182194
O O8 0.750000 0.210100 0.340262
O O9 0.985827 0.321038 0.325018
O O10 0.981371 0.137344 0.288630
O O11 0.997213 0.179435 0.395109
O O12 0.250000 0.629635 0.286366
O O13 0.472138 0.500000 0.293994
O O14 0.250000 0.878724 0.248578
O O15 0.466830 0.000000 0.215199
O O16 0.500000 0.858468 0.500000
O O17 0.250000 0.866733 0.443740
O O18 0.461439 0.000000 0.426829
#
# Coordination Sequence:
#
# PCOD8211310 Si02
#       6
#     8   8   8   8   8   8
#     4   9  16  26  41  61  85 113 145 182 225 274
#     4   8  14  26  45  67  88 113 148 188 229 271
#     4  11  21  31  46  70 100 129 154 184 226 277
#     4   9  17  31  51  71  91 119 156 195 232 271
#     4   9  17  30  48  68  89 116 153 194 231 270
#     4  10  20  34  52  73  97 125 158 195 232 271
#
# _framework density 16.527509999999999
#
# number of rings (size 3 to 8) (size 9 to 14) (size 15 to 20)
#    0.000    2.667    0.000    4.000    0.000    5.667 
#    0.000    3.333    0.000    5.000    0.000    0.000 
#    0.000    0.000    0.000    0.000    0.000    0.000 
#
# Total GULP energy -595108.260826 kJ/mol
# GULP energy per Si atom -12398.088767 kJ/mol
# Density = 1.648989 g / cm^3
# Si number density = 16.527510 Si / 1000 Ang^3
#
#
#
# Elastic Constant Matrix: (Units=GPa)
#
#
# Indices 1 2 3 4 5 6 
#
# 1 61.2387 42.0188 53.5179 0.0000 0.0000 0.0000
# 2 42.0188 122.9125 80.1509 0.0000 0.0000 0.0000
# 3 53.5179 80.1509 150.9680 0.0000 0.0000 0.0000
# 4 0.0000 0.0000 0.0000 26.9560 0.0000 0.0000
# 5 0.0000 0.0000 0.0000 0.0000 25.3020 0.0000
# 6 0.0000 0.0000 0.0000 0.0000 0.0000 15.9559
#
#
#
# Elastic Compliance Matrix: (Units=1/GPa)
#
#
# Indices 1 2 3 4 5 6 
#
# 1 0.025023 -0.004237 -0.006621 0.000000 0.000000 0.000000
# 2 -0.004237 0.013161 -0.005486 0.000000 0.000000 0.000000
# 3 -0.006621 -0.005486 0.011884 0.000000 0.000000 0.000000
# 4 0.000000 0.000000 0.000000 0.037097 0.000000 0.000000
# 5 0.000000 0.000000 0.000000 0.000000 0.039523 0.000000
# 6 0.000000 0.000000 0.000000 0.000000 0.000000 0.062673
#
#
# Mechanical properties :
#
#
# Convention : Reuss Voigt Hill
#
# Bulk Modulus (GPa) = 57.53495 76.27715 66.90605
# Shear Modulus (GPa) = 21.94505 24.27155 23.10830
#
# Velocity S-wave (km/s) = 3.64784 3.83633 3.74327
# Velocity P-wave (km/s) = 7.25462 8.11634 7.69755
#
# Compressibility (1/GPa) = 0.01738074
#
# Stress axis : x y z
#
# Youngs Moduli (GPa) = 39.96323 75.97974 84.14953
#
# Poissons Ratio (x) = 0.32189 0.55718
# Poissons Ratio (y) = 0.16931 0.46162
# Poissons Ratio (z) = 0.26461 0.41680
#
# Static dielectric constant tensor:
#      x y z
#    x 2.944210 0.000000 0.000000 
#    y 0.000000 3.191630 0.000000 
#    z 0.000000 0.000000 3.160780 
# 
# 
# High freq. dielectric constant tensor:
#      x y z
#    x 1.621390 0.000000 0.000000 
#    y 0.000000 1.629110 0.000000 
#    z 0.000000 0.000000 1.630260 
# 
# From -- ./inp_files/34646.got.cif
#   From: 2010.03.12/outbox.cif.g09.slc.cpg/sg51_18_cif.got.tgz:34646.got - 2010.04.16 13:43:02.
