data_PCOD8211970
_publ_section_title
;
Structure prediction by ZEFSAII (Michael W. Deem and Ramdas Pophale) SiO2 
 PCOD8211970
Probable space group: P M M A
;
_chemical_formula_sum "Si O2"
_cell_formula_units_Z 40
_cell_length_a 25.589302
_cell_length_b 8.897113
_cell_length_c 9.617538
_cell_angle_alpha 90.000000
_cell_angle_beta 90.000000
_cell_angle_gamma 90.000000
_cell_volume 2189.633643
_symmetry_space_group_name_H-M "P M M A"
_symmetry_group_IT_number 51
_symmetry_cell_setting 'orthorhombic'
loop_
_space_group_symop_operation_xyz
x,y,z
1/2-x,-y,z
1/2+x,-y,-z
-x,y,-z
-x,-y,-z
1/2+x,y,-z
1/2-x,y,z
x,-y,z
loop_
_atom_site_type_symbol
_atom_site_label
_atom_site_fract_x
_atom_site_fract_y
_atom_site_fract_z
Si Si1 0.951699 0.825547 0.410492
Si Si2 0.750000 0.822675 0.898474
Si Si3 0.750000 0.323895 0.598397
Si Si4 0.160083 0.821087 0.895594
Si Si5 0.955038 0.173880 0.092597
Si Si6 0.342682 0.677481 0.603428
O O1 0.969035 0.800409 0.252474
O O2 0.899334 0.734756 0.446138
O O3 0.000000 0.763247 0.500000
O O4 0.940495 0.000000 0.442715
O O5 0.750000 0.753519 0.747148
O O6 0.750000 0.000000 0.882451
O O7 0.800610 0.768318 0.984474
O O8 0.750000 0.500000 0.624032
O O9 0.801368 0.273812 0.513947
O O10 0.102607 0.760424 0.939285
O O11 0.175930 0.750503 0.748060
O O12 0.160290 0.000000 0.874323
O O13 0.953455 0.000000 0.052374
O O14 0.000000 0.254510 0.000000
O O15 0.344171 0.500000 0.623864
#
# Coordination Sequence:
#
# PCOD8211970 Si02
#       6
#     8   4   4   8   8   8
#     4   9  18  32  51  75 101 131 168 210 257 304
#     4  10  21  34  52  78 102 128 167 216 264 306
#     4  10  23  38  50  72 106 140 173 210 256 308
#     4   9  18  33  52  75 100 127 166 212 255 302
#     4   8  14  26  45  68  94 123 154 192 240 294
#     4  10  20  35  54  74 100 139 180 212 250 304
#
# _framework density 18.267894999999999
#
# number of rings (size 3 to 8) (size 9 to 14) (size 15 to 20)
#    0.000    2.800    0.000    2.400    0.000    4.400 
#    0.000    4.000    0.000    9.600    0.000    0.000 
#    0.000    0.000    0.000    0.000    0.000    0.000 
#
# Total GULP energy -495899.073383 kJ/mol
# GULP energy per Si atom -12397.476835 kJ/mol
# Density = 1.822632 g / cm^3
# Si number density = 18.267895 Si / 1000 Ang^3
#
#
#
# Elastic Constant Matrix: (Units=GPa)
#
#
# Indices 1 2 3 4 5 6 
#
# 1 150.4459 36.7378 104.3297 0.0000 0.0000 0.0000
# 2 36.7378 38.6404 36.7326 0.0000 0.0000 0.0000
# 3 104.3297 36.7326 138.9676 0.0000 0.0000 0.0000
# 4 0.0000 0.0000 0.0000 22.2776 0.0000 0.0000
# 5 0.0000 0.0000 0.0000 0.0000 41.1633 0.0000
# 6 0.0000 0.0000 0.0000 0.0000 0.0000 23.1174
#
#
#
# Elastic Compliance Matrix: (Units=1/GPa)
#
#
# Indices 1 2 3 4 5 6 
#
# 1 0.014447 -0.004574 -0.009637 0.000000 0.000000 0.000000
# 2 -0.004574 0.036013 -0.006085 0.000000 0.000000 0.000000
# 3 -0.009637 -0.006085 0.016039 0.000000 0.000000 0.000000
# 4 0.000000 0.000000 0.000000 0.044888 0.000000 0.000000
# 5 0.000000 0.000000 0.000000 0.000000 0.024294 0.000000
# 6 0.000000 0.000000 0.000000 0.000000 0.000000 0.043257
#
#
# Mechanical properties :
#
#
# Convention : Reuss Voigt Hill
#
# Bulk Modulus (GPa) = 38.59975 75.96155 57.28065
# Shear Modulus (GPa) = 21.91387 27.32859 24.62123
#
# Velocity S-wave (km/s) = 3.46726 3.87200 3.67520
# Velocity P-wave (km/s) = 6.09958 7.85252 7.03090
#
# Compressibility (1/GPa) = 0.02590690
#
# Stress axis : x y z
#
# Youngs Moduli (GPa) = 69.21986 27.76747 62.34775
#
# Poissons Ratio (x) = 0.12702 0.60083
# Poissons Ratio (y) = 0.31664 0.37938
# Poissons Ratio (z) = 0.66705 0.16896
#
# Static dielectric constant tensor:
#      x y z
#    x 3.814730 0.000000 0.000000 
#    y 0.000000 3.078830 0.000000 
#    z 0.000000 0.000000 3.370510 
# 
# 
# High freq. dielectric constant tensor:
#      x y z
#    x 1.725130 0.000000 0.000000 
#    y 0.000000 1.677960 0.000000 
#    z 0.000000 0.000000 1.705040 
# 
# From -- ./inp_files/12180.got.cif
#   From: 2010.03.12/outbox.cif.g09.slc.cpg/sg51_7_cif.got.tgz:12180.got - 2010.04.16 13:43:02.
