data_PCOD8211827
_publ_section_title
;
Structure prediction by ZEFSAII (Michael W. Deem and Ramdas Pophale) SiO2 
 PCOD8211827
Probable space group: P M M A
;
_chemical_formula_sum "Si O2"
_cell_formula_units_Z 40
_cell_length_a 28.282637
_cell_length_b 9.360152
_cell_length_c 7.711917
_cell_angle_alpha 90.000000
_cell_angle_beta 90.000000
_cell_angle_gamma 90.000000
_cell_volume 2041.574101
_symmetry_space_group_name_H-M "P M M A"
_symmetry_group_IT_number 51
_symmetry_cell_setting 'orthorhombic'
loop_
_space_group_symop_operation_xyz
x,y,z
1/2-x,-y,z
1/2+x,-y,-z
-x,y,-z
-x,-y,-z
1/2+x,y,-z
1/2-x,y,z
x,-y,z
loop_
_atom_site_type_symbol
_atom_site_label
_atom_site_fract_x
_atom_site_fract_y
_atom_site_fract_z
Si Si1 0.451362 0.836003 0.580082
Si Si2 0.305768 0.336276 0.728046
Si Si3 0.354057 0.663422 0.082830
Si Si4 0.647221 0.165088 0.579838
Si Si5 0.548137 0.336304 0.080936
O O1 0.500000 0.774759 0.500000
O O2 0.409193 0.817443 0.442649
O O3 0.437086 0.749361 0.749523
O O4 0.458273 0.000000 0.634719
O O5 0.250000 0.320466 0.738088
O O6 0.321238 0.500000 0.692041
O O7 0.325138 0.236835 0.577263
O O8 0.327291 0.284209 0.910438
O O9 0.340433 0.500000 0.125422
O O10 0.337201 0.760929 0.241529
O O11 0.410353 0.679575 0.058985
O O12 0.662026 0.000000 0.587279
O O13 0.540629 0.500000 0.136465
O O14 0.500000 0.272840 0.000000
#
# Coordination Sequence:
#
# PCOD8211827 Si02
#       5
#     8   8   8   8   8
#     4  10  21  36  54  81 119 162 201 237 287 354
#     4  10  22  42  66  88 114 154 201 248 299 355
#     4  10  21  38  60  87 120 156 198 245 296 354
#     4  11  23  38  60  90 123 158 198 245 299 353
#     4  10  20  34  55  85 117 152 197 247 294 341
#
# _framework density 19.592725000000002
#
# number of rings (size 3 to 8) (size 9 to 14) (size 15 to 20)
#    0.000    1.800    2.000    1.800    0.000    4.400 
#    0.000    2.000    0.000    0.000    0.000    0.000 
#    0.000    0.000    0.000    0.000    0.000    0.000 
#
# Total GULP energy -496194.726590 kJ/mol
# GULP energy per Si atom -12404.868165 kJ/mol
# Density = 1.954813 g / cm^3
# Si number density = 19.592725 Si / 1000 Ang^3
#
#
#
# Elastic Constant Matrix: (Units=GPa)
#
#
# Indices 1 2 3 4 5 6 
#
# 1 83.5022 32.4128 38.9028 0.0000 0.0000 0.0000
# 2 32.4128 96.2080 82.9989 0.0000 0.0000 0.0000
# 3 38.9028 82.9989 155.0316 0.0000 0.0000 0.0000
# 4 0.0000 0.0000 0.0000 63.5745 0.0000 0.0000
# 5 0.0000 0.0000 0.0000 0.0000 26.0977 0.0000
# 6 0.0000 0.0000 0.0000 0.0000 0.0000 23.7058
#
#
#
# Elastic Compliance Matrix: (Units=1/GPa)
#
#
# Indices 1 2 3 4 5 6 
#
# 1 0.014055 -0.003145 -0.001843 0.000000 0.000000 0.000000
# 2 -0.003145 0.020019 -0.009928 0.000000 0.000000 0.000000
# 3 -0.001843 -0.009928 0.012228 0.000000 0.000000 0.000000
# 4 0.000000 0.000000 0.000000 0.015730 0.000000 0.000000
# 5 0.000000 0.000000 0.000000 0.000000 0.038318 0.000000
# 6 0.000000 0.000000 0.000000 0.000000 0.000000 0.042184
#
#
# Mechanical properties :
#
#
# Convention : Reuss Voigt Hill
#
# Bulk Modulus (GPa) = 60.71968 71.48563 66.10265
# Shear Modulus (GPa) = 28.11265 34.70408 31.40836
#
# Velocity S-wave (km/s) = 3.79205 4.21322 4.00817
# Velocity P-wave (km/s) = 7.08739 7.76101 7.43184
#
# Compressibility (1/GPa) = 0.01646913
#
# Stress axis : x y z
#
# Youngs Moduli (GPa) = 71.14759 49.95290 81.77927
#
# Poissons Ratio (x) = 0.15711 0.15073
# Poissons Ratio (y) = 0.22377 0.81192
# Poissons Ratio (z) = 0.13113 0.49594
#
# Static dielectric constant tensor:
#      x y z
#    x 3.635620 0.000000 0.000000 
#    y 0.000000 3.550180 0.000000 
#    z 0.000000 0.000000 3.452290 
# 
# 
# High freq. dielectric constant tensor:
#      x y z
#    x 1.767850 0.000000 0.000000 
#    y 0.000000 1.757120 0.000000 
#    z 0.000000 0.000000 1.762280 
# 
# From -- ./inp_files/12595.got.cif
#   From: 2010.03.12/outbox.cif.g09.slc.cpg/sg51_7_cif.got.tgz:12595.got - 2010.04.16 13:43:02.
