data_PCOD8211126
_publ_section_title
;
Structure prediction by ZEFSAII (Michael W. Deem and Ramdas Pophale) SiO2 
 PCOD8211126
Probable space group: P M M A
;
_chemical_formula_sum "Si O2"
_cell_formula_units_Z 48
_cell_length_a 8.830609
_cell_length_b 30.608713
_cell_length_c 9.121258
_cell_angle_alpha 90.000000
_cell_angle_beta 90.000000
_cell_angle_gamma 90.000000
_cell_volume 2465.417447
_symmetry_space_group_name_H-M "P M M A"
_symmetry_group_IT_number 51
_symmetry_cell_setting 'orthorhombic'
loop_
_space_group_symop_operation_xyz
x,y,z
1/2-x,-y,z
1/2+x,-y,-z
-x,y,-z
-x,-y,-z
1/2+x,y,-z
1/2-x,y,z
x,-y,z
loop_
_atom_site_type_symbol
_atom_site_label
_atom_site_fract_x
_atom_site_fract_y
_atom_site_fract_z
Si Si1 0.071411 0.782416 0.658711
Si Si2 0.573702 0.294539 0.841968
Si Si3 0.428238 0.867245 0.840522
Si Si4 0.926312 0.449270 0.152125
Si Si5 0.072560 0.047338 0.159199
Si Si6 0.925590 0.379518 0.652880
O O1 0.250000 0.776909 0.645101
O O2 0.025139 0.826832 0.740032
O O3 0.000000 0.783410 0.500000
O O4 0.006440 0.742065 0.747093
O O5 0.750000 0.283189 0.856014
O O6 0.545885 0.340971 0.767225
O O7 0.500000 0.296115 0.000000
O O8 0.250000 0.871622 0.858265
O O9 0.493567 0.911324 0.761082
O O10 0.500000 0.860142 0.000000
O O11 0.750000 0.438665 0.142597
O O12 0.959006 0.500000 0.181140
O O13 0.998812 0.423509 0.286897
O O14 0.000000 0.433756 0.000000
O O15 0.250000 0.056491 0.145405
O O16 0.043214 0.000000 0.237718
O O17 0.000000 0.045276 0.000000
O O18 0.750000 0.388609 0.626653
O O19 0.000000 0.365894 0.500000
#
# Coordination Sequence:
#
# PCOD8211126 Si02
#       6
#     8   8   8   8   8   8
#     4  11  24  40  59  83 112 147 186 229 280 335
#     4  11  24  41  63  89 116 148 187 231 279 333
#     4  10  20  33  52  79 108 141 181 224 272 326
#     4  10  21  38  61  88 118 154 196 241 288 338
#     4   9  16  26  44  72 104 138 176 220 270 321
#     4  11  24  40  60  87 119 155 193 235 284 338
#
# _framework density 19.46932
#
# number of rings (size 3 to 8) (size 9 to 14) (size 15 to 20)
#    0.000    1.667    0.000    5.500    0.000   11.667 
#    0.000    0.000    0.000    0.500    0.000    0.000 
#    0.000    0.000    0.000    0.000    0.000    0.000 
#
# Total GULP energy -595233.352907 kJ/mol
# GULP energy per Si atom -12400.694852 kJ/mol
# Density = 1.942501 g / cm^3
# Si number density = 19.469320 Si / 1000 Ang^3
#
#
#
# Elastic Constant Matrix: (Units=GPa)
#
#
# Indices 1 2 3 4 5 6 
#
# 1 114.4209 68.9403 54.3008 0.0000 0.0000 0.0000
# 2 68.9403 118.5860 51.7751 0.0000 0.0000 0.0000
# 3 54.3008 51.7751 110.0541 0.0000 0.0000 0.0000
# 4 0.0000 0.0000 0.0000 -42.3735 0.0000 0.0000
# 5 0.0000 0.0000 0.0000 0.0000 33.9368 0.0000
# 6 0.0000 0.0000 0.0000 0.0000 0.0000 33.5658
#
#
#
# Elastic Compliance Matrix: (Units=1/GPa)
#
#
# Indices 1 2 3 4 5 6 
#
# 1 0.014783 -0.006808 -0.004091 0.000000 0.000000 0.000000
# 2 -0.006808 0.013748 -0.003109 0.000000 0.000000 0.000000
# 3 -0.004091 -0.003109 0.012567 0.000000 0.000000 0.000000
# 4 0.000000 0.000000 0.000000 -0.023600 0.000000 0.000000
# 5 0.000000 0.000000 0.000000 0.000000 0.029467 0.000000
# 6 0.000000 0.000000 0.000000 0.000000 0.000000 0.029792
#
#
# Mechanical properties :
#
#
# Convention : Reuss Voigt Hill
#
# Bulk Modulus (GPa) = 76.43596 77.01040 76.72318
# Shear Modulus (GPa) = 45.81528 16.22881 31.02204
#
# Velocity S-wave (km/s) = 4.85625 2.89027 3.99605
# Velocity P-wave (km/s) = 8.41363 7.12593 7.79641
#
# Compressibility (1/GPa) = 0.01308285
#
# Stress axis : x y z
#
# Youngs Moduli (GPa) = 67.64470 72.73909 79.57055
#
# Poissons Ratio (x) = 0.49521 0.32554
# Poissons Ratio (y) = 0.46052 0.24735
# Poissons Ratio (z) = 0.27675 0.22612
#
# Static dielectric constant tensor:
#      x y z
#    x 3.749620 0.000000 0.000000 
#    y 0.000000 4.142740 0.000000 
#    z 0.000000 0.000000 3.355910 
# 
# 
# High freq. dielectric constant tensor:
#      x y z
#    x 1.778200 0.000000 0.000000 
#    y 0.000000 1.781370 0.000000 
#    z 0.000000 0.000000 1.735780 
# 
# From -- ./inp_files/6017.got.cif
#   From: 2010.03.12/outbox.cif.g09.slc.cpg/sg51_4_cif.got.tgz:6017.got - 2010.04.16 13:43:02.
