data_PCOD8211454
_publ_section_title
;
Structure prediction by ZEFSAII (Michael W. Deem and Ramdas Pophale) SiO2 
 PCOD8211454
Probable space group: P M M A
;
_chemical_formula_sum "Si O2"
_cell_formula_units_Z 64
_cell_length_a 29.048732
_cell_length_b 8.961929
_cell_length_c 12.782116
_cell_angle_alpha 90.000000
_cell_angle_beta 90.000000
_cell_angle_gamma 90.000000
_cell_volume 3327.602434
_symmetry_space_group_name_H-M "P M M A"
_symmetry_group_IT_number 51
_symmetry_cell_setting 'orthorhombic'
loop_
_space_group_symop_operation_xyz
x,y,z
1/2-x,-y,z
1/2+x,-y,-z
-x,y,-z
-x,-y,-z
1/2+x,y,-z
1/2-x,y,z
x,-y,z
loop_
_atom_site_type_symbol
_atom_site_label
_atom_site_fract_x
_atom_site_fract_y
_atom_site_fract_z
Si Si1 0.007328 0.172385 0.250120
Si Si2 0.196826 0.673654 0.649062
Si Si3 0.458436 0.338857 0.924754
Si Si4 0.304369 0.827317 0.861823
Si Si5 0.134605 0.677136 0.034691
Si Si6 0.132176 0.675990 0.459936
Si Si7 0.541332 0.660486 0.425793
Si Si8 0.111566 0.821611 0.247750
O O1 0.058802 0.243297 0.248729
O O2 0.975318 0.214171 0.153874
O O3 0.976150 0.216222 0.347040
O O4 0.016098 0.000000 0.251268
O O5 0.250000 0.710730 0.630359
O O6 0.188160 0.500000 0.671818
O O7 0.177827 0.762306 0.750500
O O8 0.171317 0.723837 0.542867
O O9 0.446501 0.500000 0.871047
O O10 0.500000 0.370596 0.000000
O O11 0.414362 0.276458 0.985733
O O12 0.250000 0.804698 0.870181
O O13 0.318726 0.000000 0.868102
O O14 0.325904 0.738294 0.958672
O O15 0.139818 0.500000 0.048083
O O16 0.138338 0.754682 0.147946
O O17 0.133583 0.500000 0.435816
O O18 0.084010 0.726722 0.510414
O O19 0.138166 0.764879 0.351414
O O20 0.500000 0.622572 0.500000
O O21 0.555316 0.500000 0.372683
O O22 0.113597 0.000000 0.243111
#
# Coordination Sequence:
#
# PCOD8211454 Si02
#       8
#     8   8   8   8   8   8   8   8
#     4  11  23  35  51  77 112 151 189 236 288 337
#     4   9  19  38  63  89 116 146 186 235 281 332
#     4  10  21  37  56  79 110 150 194 236 280 335
#     4  10  22  41  64  90 121 152 183 230 293 351
#     4  11  23  39  62  87 113 152 199 242 284 338
#     4  10  21  37  58  83 111 150 196 237 284 340
#     4  10  20  34  53  76 107 148 191 233 276 332
#     4  11  23  38  56  81 117 156 193 237 290 344
#
# _framework density 19.233066999999998
#
# number of rings (size 3 to 8) (size 9 to 14) (size 15 to 20)
#    0.000    1.750    2.500    1.500    1.750    4.250 
#    0.000    0.625    0.000    2.250    0.000    0.000 
#    0.000    0.000    0.000    0.000    0.000    0.000 
#
# Total GULP energy -793382.526161 kJ/mol
# GULP energy per Si atom -12396.601971 kJ/mol
# Density = 1.918929 g / cm^3
# Si number density = 19.233067 Si / 1000 Ang^3
#
#
#
# Elastic Constant Matrix: (Units=GPa)
#
#
# Indices 1 2 3 4 5 6 
#
# 1 68.9873 29.7157 52.2290 0.0000 0.0000 0.0000
# 2 29.7157 85.8658 63.0654 0.0000 0.0000 0.0000
# 3 52.2290 63.0654 157.7930 0.0000 0.0000 0.0000
# 4 0.0000 0.0000 0.0000 5.4487 0.0000 0.0000
# 5 0.0000 0.0000 0.0000 0.0000 32.2464 0.0000
# 6 0.0000 0.0000 0.0000 0.0000 0.0000 23.4722
#
#
#
# Elastic Compliance Matrix: (Units=1/GPa)
#
#
# Indices 1 2 3 4 5 6 
#
# 1 0.019837 -0.002891 -0.005410 0.000000 0.000000 0.000000
# 2 -0.002891 0.016907 -0.005800 0.000000 0.000000 0.000000
# 3 -0.005410 -0.005800 0.010446 0.000000 0.000000 0.000000
# 4 0.000000 0.000000 0.000000 0.183530 0.000000 0.000000
# 5 0.000000 0.000000 0.000000 0.000000 0.031011 0.000000
# 6 0.000000 0.000000 0.000000 0.000000 0.000000 0.042604
#
#
# Mechanical properties :
#
#
# Convention : Reuss Voigt Hill
#
# Bulk Modulus (GPa) = 52.66924 66.96294 59.81609
# Shear Modulus (GPa) = 14.75502 23.40917 19.08210
#
# Velocity S-wave (km/s) = 2.77279 3.49253 3.15326
# Velocity P-wave (km/s) = 6.13965 7.15233 6.66525
#
# Compressibility (1/GPa) = 0.01898641
#
# Stress axis : x y z
#
# Youngs Moduli (GPa) = 50.41102 59.14840 95.72689
#
# Poissons Ratio (x) = 0.17101 0.51792
# Poissons Ratio (y) = 0.14575 0.55523
# Poissons Ratio (z) = 0.27274 0.34307
#
# Static dielectric constant tensor:
#      x y z
#    x 3.143090 0.000000 0.000000 
#    y 0.000000 3.409770 0.000000 
#    z 0.000000 0.000000 3.420190 
# 
# 
# High freq. dielectric constant tensor:
#      x y z
#    x 1.736700 0.000000 0.000000 
#    y 0.000000 1.746860 0.000000 
#    z 0.000000 0.000000 1.751710 
# 
# From -- ./inp_files/19489.got.cif
#   From: 2010.03.12/outbox.cif.g09.slc.cpg/sg51_10_cif.got.tgz:19489.got - 2010.04.16 13:43:02.
