data_PCOD8211344
_publ_section_title
;
Structure prediction by ZEFSAII (Michael W. Deem and Ramdas Pophale) SiO2 
 PCOD8211344
Probable space group: P M M A
;
_chemical_formula_sum "Si O2"
_cell_formula_units_Z 44
_cell_length_a 9.135110
_cell_length_b 8.131014
_cell_length_c 30.103730
_cell_angle_alpha 90.000000
_cell_angle_beta 90.000000
_cell_angle_gamma 90.000000
_cell_volume 2236.036046
_symmetry_space_group_name_H-M "P M M A"
_symmetry_group_IT_number 51
_symmetry_cell_setting 'orthorhombic'
loop_
_space_group_symop_operation_xyz
x,y,z
1/2-x,-y,z
1/2+x,-y,-z
-x,y,-z
-x,-y,-z
1/2+x,y,-z
1/2-x,y,z
x,-y,z
loop_
_atom_site_type_symbol
_atom_site_label
_atom_site_fract_x
_atom_site_fract_y
_atom_site_fract_z
Si Si1 0.423877 0.818142 0.897860
Si Si2 0.575899 0.316819 0.193482
Si Si3 0.586611 0.810344 0.628637
Si Si4 0.424768 0.500000 0.952787
Si Si5 0.589153 0.307863 0.289334
Si Si6 0.081136 0.692991 0.544152
O O1 0.250000 0.814294 0.898384
O O2 0.481760 0.794062 0.847287
O O3 0.480403 0.666343 0.927978
O O4 0.478752 0.000000 0.914334
O O5 0.750000 0.326733 0.192156
O O6 0.510230 0.500000 0.187271
O O7 0.530695 0.238833 0.241656
O O8 0.750000 0.742632 0.618867
O O9 0.524571 0.721074 0.671630
O O10 0.485725 0.783202 0.586190
O O11 0.590645 0.000000 0.640308
O O12 0.250000 0.500000 0.957413
O O13 0.500000 0.500000 0.000000
O O14 0.750000 0.232734 0.301476
O O15 0.608337 0.500000 0.282163
O O16 0.250000 0.741763 0.539807
O O17 0.058971 0.500000 0.550936
O O18 0.000000 0.755472 0.500000
#
# Coordination Sequence:
#
# PCOD8211344 Si02
#       6
#     8   8   8   4   8   8
#     4   9  16  27  47  75 104 136 174 217 268 321
#     4   8  13  25  46  73 104 131 161 210 264 311
#     4  11  24  38  51  72 106 145 180 214 254 304
#     4  10  20  34  52  74 104 138 176 224 269 316
#     4   9  18  32  53  80 106 133 168 213 263 312
#     4  10  21  38  61  85 105 129 167 214 264 318
#
# _framework density 19.677678
#
# number of rings (size 3 to 8) (size 9 to 14) (size 15 to 20)
#    0.000    2.545    0.909    2.727    0.000    6.545 
#    0.000    1.818    0.000    1.091    0.000    0.000 
#    0.000    0.000    0.000    0.000    0.000    0.000 
#
# Total GULP energy -545278.258263 kJ/mol
# GULP energy per Si atom -12392.687688 kJ/mol
# Density = 1.963289 g / cm^3
# Si number density = 19.677678 Si / 1000 Ang^3
#
#
#
# Elastic Constant Matrix: (Units=GPa)
#
#
# Indices 1 2 3 4 5 6 
#
# 1 63.4978 18.4524 36.2987 0.0000 0.0000 0.0000
# 2 18.4524 87.8898 50.4283 0.0000 0.0000 0.0000
# 3 36.2987 50.4283 155.0017 0.0000 0.0000 0.0000
# 4 0.0000 0.0000 0.0000 10.0586 0.0000 0.0000
# 5 0.0000 0.0000 0.0000 0.0000 26.3072 0.0000
# 6 0.0000 0.0000 0.0000 0.0000 0.0000 15.7166
#
#
#
# Elastic Compliance Matrix: (Units=1/GPa)
#
#
# Indices 1 2 3 4 5 6 
#
# 1 0.018389 -0.001709 -0.003750 0.000000 0.000000 0.000000
# 2 -0.001709 0.014148 -0.004203 0.000000 0.000000 0.000000
# 3 -0.003750 -0.004203 0.008697 0.000000 0.000000 0.000000
# 4 0.000000 0.000000 0.000000 0.099417 0.000000 0.000000
# 5 0.000000 0.000000 0.000000 0.000000 0.038012 0.000000
# 6 0.000000 0.000000 0.000000 0.000000 0.000000 0.063627
#
#
# Mechanical properties :
#
#
# Convention : Reuss Voigt Hill
#
# Bulk Modulus (GPa) = 45.64088 57.41645 51.52867
# Shear Modulus (GPa) = 18.59298 23.83047 21.21173
#
# Velocity S-wave (km/s) = 3.07722 3.48378 3.28679
# Velocity P-wave (km/s) = 5.98918 6.73974 6.37552
#
# Compressibility (1/GPa) = 0.02191018
#
# Stress axis : x y z
#
# Youngs Moduli (GPa) = 54.37996 70.68108 114.98013
#
# Poissons Ratio (x) = 0.12079 0.43123
# Poissons Ratio (y) = 0.09293 0.48323
# Poissons Ratio (z) = 0.20395 0.29705
#
# Static dielectric constant tensor:
#      x y z
#    x 3.274470 0.000000 0.000000 
#    y 0.000000 3.658770 0.000000 
#    z 0.000000 0.000000 3.780300 
# 
# 
# High freq. dielectric constant tensor:
#      x y z
#    x 1.719990 0.000000 0.000000 
#    y 0.000000 1.760320 0.000000 
#    z 0.000000 0.000000 1.779050 
# 
# From -- ./inp_files/36791.got.cif
#   From: 2010.03.12/outbox.cif.g09.slc.cpg/sg51_19_cif.got.tgz:36791.got - 2010.04.16 13:43:02.
