data_PCOD8211358
_publ_section_title
;
Structure prediction by ZEFSAII (Michael W. Deem and Ramdas Pophale) SiO2 
 PCOD8211358
Probable space group: P M M A
;
_chemical_formula_sum "Si O2"
_cell_formula_units_Z 48
_cell_length_a 9.126933
_cell_length_b 18.568290
_cell_length_c 15.467061
_cell_angle_alpha 90.000000
_cell_angle_beta 90.000000
_cell_angle_gamma 90.000000
_cell_volume 2621.226628
_symmetry_space_group_name_H-M "P M M A"
_symmetry_group_IT_number 51
_symmetry_cell_setting 'orthorhombic'
loop_
_space_group_symop_operation_xyz
x,y,z
1/2-x,-y,z
1/2+x,-y,-z
-x,y,-z
-x,-y,-z
1/2+x,y,-z
1/2-x,y,z
x,-y,z
loop_
_atom_site_type_symbol
_atom_site_label
_atom_site_fract_x
_atom_site_fract_y
_atom_site_fract_z
Si Si1 0.078637 0.416280 0.088136
Si Si2 0.921160 0.417422 0.414446
Si Si3 0.578350 0.917065 0.413058
Si Si4 0.078374 0.917053 0.913498
Si Si5 0.423161 0.664707 0.757160
Si Si6 0.423364 0.169988 0.750247
O O1 0.250000 0.399201 0.079703
O O2 0.049319 0.500000 0.107090
O O3 0.010165 0.371286 0.165395
O O4 0.000000 0.392211 0.000000
O O5 0.750000 0.408784 0.430162
O O6 0.966048 0.500000 0.397428
O O7 0.972950 0.371983 0.332073
O O8 0.000000 0.387202 0.500000
O O9 0.500000 0.891089 0.500000
O O10 0.750000 0.904977 0.425848
O O11 0.514202 0.868784 0.335236
O O12 0.541966 0.000000 0.391949
O O13 0.250000 0.904938 0.926095
O O14 0.014305 0.869880 0.834935
O O15 0.041161 0.000000 0.893753
O O16 0.000000 0.889933 0.000000
O O17 0.250000 0.655243 0.773102
O O18 0.471800 0.747400 0.751751
O O19 0.250000 0.161628 0.749518
#
# Coordination Sequence:
#
# PCOD8211358 Si02
#       6
#     8   8   8   8   8   8
#     4  10  21  37  57  79 102 131 168 208 249 296
#     4   9  18  32  50  71  95 126 163 202 244 290
#     4   9  17  31  51  73  98 131 172 214 253 296
#     4   9  17  31  51  72  94 124 163 203 241 284
#     4  10  20  34  52  75 104 135 167 206 253 304
#     4   9  18  32  50  72  99 133 167 199 244 301
#
# _framework density 18.312038000000001
#
# number of rings (size 3 to 8) (size 9 to 14) (size 15 to 20)
#    0.000    2.667    0.000    1.500    0.000    5.667 
#    0.000    5.833    0.000    4.000    0.000    0.000 
#    0.000    0.000    0.000    0.000    0.000    0.000 
#
# Total GULP energy -595292.522266 kJ/mol
# GULP energy per Si atom -12401.927547 kJ/mol
# Density = 1.827036 g / cm^3
# Si number density = 18.312038 Si / 1000 Ang^3
#
#
#
# Elastic Constant Matrix: (Units=GPa)
#
#
# Indices 1 2 3 4 5 6 
#
# 1 47.5851 42.0930 61.4892 0.0000 0.0000 0.0000
# 2 42.0930 111.8634 106.5788 0.0000 0.0000 0.0000
# 3 61.4892 106.5788 210.1000 0.0000 0.0000 0.0000
# 4 0.0000 0.0000 0.0000 -33.1393 0.0000 0.0000
# 5 0.0000 0.0000 0.0000 0.0000 36.7152 0.0000
# 6 0.0000 0.0000 0.0000 0.0000 0.0000 19.2859
#
#
#
# Elastic Compliance Matrix: (Units=1/GPa)
#
#
# Indices 1 2 3 4 5 6 
#
# 1 0.036320 -0.006850 -0.007155 0.000000 0.000000 0.000000
# 2 -0.006850 0.018593 -0.007427 0.000000 0.000000 0.000000
# 3 -0.007155 -0.007427 0.010621 0.000000 0.000000 0.000000
# 4 0.000000 0.000000 0.000000 -0.030176 0.000000 0.000000
# 5 0.000000 0.000000 0.000000 0.000000 0.027237 0.000000
# 6 0.000000 0.000000 0.000000 0.000000 0.000000 0.051851
#
#
# Mechanical properties :
#
#
# Convention : Reuss Voigt Hill
#
# Bulk Modulus (GPa) = 44.11038 87.76338 65.93688
# Shear Modulus (GPa) = 30.32742 15.19819 22.76280
#
# Velocity S-wave (km/s) = 4.07399 2.88402 3.52952
# Velocity P-wave (km/s) = 6.80223 7.68900 7.25917
#
# Compressibility (1/GPa) = 0.02267040
#
# Stress axis : x y z
#
# Youngs Moduli (GPa) = 27.53337 53.78238 94.15094
#
# Poissons Ratio (x) = 0.36841 0.67362
# Poissons Ratio (y) = 0.18860 0.69928
# Poissons Ratio (z) = 0.19699 0.39946
#
# Static dielectric constant tensor:
#      x y z
#    x 3.110330 0.000000 0.000000 
#    y 0.000000 3.441090 0.000000 
#    z 0.000000 0.000000 3.598030 
# 
# 
# High freq. dielectric constant tensor:
#      x y z
#    x 1.686100 0.000000 0.000000 
#    y 0.000000 1.706420 0.000000 
#    z 0.000000 0.000000 1.725410 
# 
# From -- ./inp_files/21419.got.cif
#   From: 2010.03.12/outbox.cif.g09.slc.cpg/sg51_11_cif.got.tgz:21419.got - 2010.04.16 13:43:02.
