data_PCOD8211007
_publ_section_title
;
Structure prediction by ZEFSAII (Michael W. Deem and Ramdas Pophale) SiO2 
 PCOD8211007
Probable space group: P M M A
;
_chemical_formula_sum "Si O2"
_cell_formula_units_Z 48
_cell_length_a 9.029643
_cell_length_b 15.331317
_cell_length_c 19.443356
_cell_angle_alpha 90.000000
_cell_angle_beta 90.000000
_cell_angle_gamma 90.000000
_cell_volume 2691.666638
_symmetry_space_group_name_H-M "P M M A"
_symmetry_group_IT_number 51
_symmetry_cell_setting 'orthorhombic'
loop_
_space_group_symop_operation_xyz
x,y,z
1/2-x,-y,z
1/2+x,-y,-z
-x,y,-z
-x,-y,-z
1/2+x,y,-z
1/2-x,y,z
x,-y,z
loop_
_atom_site_type_symbol
_atom_site_label
_atom_site_fract_x
_atom_site_fract_y
_atom_site_fract_z
Si Si1 0.577730 0.404072 0.326466
Si Si2 0.422892 0.101218 0.570208
Si Si3 0.079030 0.232735 0.332679
Si Si4 0.417679 0.407042 0.186424
Si Si5 0.422964 0.099620 0.931089
Si Si6 0.416699 0.778938 0.169964
O O1 0.750000 0.381179 0.333760
O O2 0.543665 0.500000 0.359893
O O3 0.483689 0.325702 0.360749
O O4 0.536965 0.409124 0.246547
O O5 0.500000 0.131871 0.500000
O O6 0.250000 0.120944 0.563913
O O7 0.490634 0.153970 0.633320
O O8 0.455075 0.000000 0.584849
O O9 0.250000 0.226310 0.353279
O O10 0.053696 0.223352 0.251282
O O11 0.250000 0.398475 0.217749
O O12 0.430858 0.500000 0.145152
O O13 0.444304 0.320104 0.140603
O O14 0.250000 0.109134 0.941864
O O15 0.470553 0.155504 0.865467
O O16 0.470464 0.000000 0.917209
O O17 0.500000 0.135532 0.000000
O O18 0.250000 0.810351 0.153737
#
# Coordination Sequence:
#
# PCOD8211007 Si02
#       6
#     8   8   8   8   8   8
#     4   9  16  26  43  69 100 132 166 205 247 291
#     4  10  21  37  56  76 100 132 169 208 250 299
#     4  10  20  33  51  76 105 136 169 206 248 293
#     4   8  14  26  44  67  97 131 163 195 237 290
#     4  10  21  36  53  71  93 125 163 202 246 297
#     4   9  18  31  49  75 103 130 161 200 244 286
#
# _framework density 17.832816999999999
#
# number of rings (size 3 to 8) (size 9 to 14) (size 15 to 20)
#    0.000    2.667    0.000    3.000    0.000    7.000 
#    0.000    3.333    0.000    1.000    0.000    0.000 
#    0.000    0.000    0.000    0.000    0.000    0.000 
#
# Total GULP energy -594826.987968 kJ/mol
# GULP energy per Si atom -12392.228916 kJ/mol
# Density = 1.779223 g / cm^3
# Si number density = 17.832817 Si / 1000 Ang^3
#
#
#
# Elastic Constant Matrix: (Units=GPa)
#
#
# Indices 1 2 3 4 5 6 
#
# 1 90.6891 56.8342 31.4752 0.0000 0.0000 0.0000
# 2 56.8342 118.0827 45.1588 0.0000 0.0000 0.0000
# 3 31.4752 45.1588 46.0360 0.0000 0.0000 0.0000
# 4 0.0000 0.0000 0.0000 3.7388 0.0000 0.0000
# 5 0.0000 0.0000 0.0000 0.0000 27.8272 0.0000
# 6 0.0000 0.0000 0.0000 0.0000 0.0000 32.1473
#
#
#
# Elastic Compliance Matrix: (Units=1/GPa)
#
#
# Indices 1 2 3 4 5 6 
#
# 1 0.016657 -0.005860 -0.005640 0.000000 0.000000 0.000000
# 2 -0.005860 0.015615 -0.011311 0.000000 0.000000 0.000000
# 3 -0.005640 -0.011311 0.036673 0.000000 0.000000 0.000000
# 4 0.000000 0.000000 0.000000 0.267464 0.000000 0.000000
# 5 0.000000 0.000000 0.000000 0.000000 0.035936 0.000000
# 6 0.000000 0.000000 0.000000 0.000000 0.000000 0.031107
#
#
# Mechanical properties :
#
#
# Convention : Reuss Voigt Hill
#
# Bulk Modulus (GPa) = 42.87528 57.97159 50.42343
# Shear Modulus (GPa) = 10.94460 20.83198 15.88829
#
# Velocity S-wave (km/s) = 2.48005 3.42158 2.98813
# Velocity P-wave (km/s) = 5.68296 6.94180 6.34368
#
# Compressibility (1/GPa) = 0.02332347
#
# Stress axis : x y z
#
# Youngs Moduli (GPa) = 60.03647 64.04230 27.26794
#
# Poissons Ratio (x) = 0.37529 0.15379
# Poissons Ratio (y) = 0.35182 0.30842
# Poissons Ratio (z) = 0.33859 0.72435
#
# Static dielectric constant tensor:
#      x y z
#    x 3.359990 0.000000 0.000000 
#    y 0.000000 3.750850 0.000000 
#    z 0.000000 0.000000 2.816810 
# 
# 
# High freq. dielectric constant tensor:
#      x y z
#    x 1.702080 0.000000 0.000000 
#    y 0.000000 1.711450 0.000000 
#    z 0.000000 0.000000 1.631590 
# 
# From -- ./inp_files/27532.got.cif
#   From: 2010.03.12/outbox.cif.g09.slc.cpg/sg51_14_cif.got.tgz:27532.got - 2010.04.16 13:43:02.
