data_PCOD8211710
_publ_section_title
;
Structure prediction by ZEFSAII (Michael W. Deem and Ramdas Pophale) SiO2 
 PCOD8211710
Probable space group: P M M A
;
_chemical_formula_sum "Si O2"
_cell_formula_units_Z 52
_cell_length_a 8.894394
_cell_length_b 19.916271
_cell_length_c 14.702959
_cell_angle_alpha 90.000000
_cell_angle_beta 90.000000
_cell_angle_gamma 90.000000
_cell_volume 2604.528638
_symmetry_space_group_name_H-M "P M M A"
_symmetry_group_IT_number 51
_symmetry_cell_setting 'orthorhombic'
loop_
_space_group_symop_operation_xyz
x,y,z
1/2-x,-y,z
1/2+x,-y,-z
-x,y,-z
-x,-y,-z
1/2+x,y,-z
1/2-x,y,z
x,-y,z
loop_
_atom_site_type_symbol
_atom_site_label
_atom_site_fract_x
_atom_site_fract_y
_atom_site_fract_z
Si Si1 0.922432 0.425677 0.733547
Si Si2 0.926530 0.772676 0.093817
Si Si3 0.070642 0.000000 0.899412
Si Si4 0.074481 0.164702 0.407457
Si Si5 0.076632 0.383492 0.908653
Si Si6 0.427773 0.683081 0.407333
Si Si7 0.427727 0.120350 0.211626
O O1 0.750000 0.409091 0.755967
O O2 0.938554 0.500000 0.689146
O O3 0.989754 0.368025 0.668587
O O4 0.013848 0.426473 0.826349
O O5 0.750000 0.790653 0.093917
O O6 0.957848 0.694636 0.108134
O O7 0.014438 0.808299 0.175657
O O8 0.000000 0.798477 0.000000
O O9 0.018072 0.936045 0.842239
O O10 0.250000 0.000000 0.908955
O O11 0.000000 0.000000 0.000000
O O12 0.250000 0.164981 0.426062
O O13 0.019060 0.240714 0.386500
O O14 0.035783 0.118192 0.320063
O O15 0.000000 0.136048 0.500000
O O16 0.250000 0.398181 0.919165
O O17 0.000000 0.409420 0.000000
O O18 0.500000 0.657520 0.500000
O O19 0.250000 0.677824 0.415270
O O20 0.250000 0.112079 0.194778
#
# Coordination Sequence:
#
# PCOD8211710 Si02
#       7
#     8   8   4   8   8   8   8
#     4  10  21  36  53  74 104 143 185 228 277 335
#     4  10  20  34  54  82 111 141 179 226 279 333
#     4  12  26  44  63  86 119 158 195 232 272 320
#     4   9  19  35  58  85 113 144 181 228 278 328
#     4  10  21  36  55  78 105 138 179 228 280 334
#     4   9  18  34  55  81 111 143 179 223 277 331
#     4  11  22  38  60  86 116 152 190 229 274 324
#
# _framework density 19.965225
#
# number of rings (size 3 to 8) (size 9 to 14) (size 15 to 20)
#    0.000    2.000    0.000    3.462    0.000    5.846 
#    0.000    3.462    0.000    0.000    0.000    0.000 
#    0.000    0.000    0.000    0.000    0.000    0.000 
#
# Total GULP energy -644830.208242 kJ/mol
# GULP energy per Si atom -12400.580928 kJ/mol
# Density = 1.991978 g / cm^3
# Si number density = 19.965225 Si / 1000 Ang^3
#
#
#
# Elastic Constant Matrix: (Units=GPa)
#
#
# Indices 1 2 3 4 5 6 
#
# 1 79.6396 32.5975 50.3152 0.0000 0.0000 0.0000
# 2 32.5975 62.3670 47.6011 0.0000 0.0000 0.0000
# 3 50.3152 47.6011 144.9209 0.0000 0.0000 0.0000
# 4 0.0000 0.0000 0.0000 26.5725 0.0000 0.0000
# 5 0.0000 0.0000 0.0000 0.0000 38.3802 0.0000
# 6 0.0000 0.0000 0.0000 0.0000 0.0000 88.4205
#
#
#
# Elastic Compliance Matrix: (Units=1/GPa)
#
#
# Indices 1 2 3 4 5 6 
#
# 1 0.017654 -0.006071 -0.004135 0.000000 0.000000 0.000000
# 2 -0.006071 0.023487 -0.005607 0.000000 0.000000 0.000000
# 3 -0.004135 -0.005607 0.010178 0.000000 0.000000 0.000000
# 4 0.000000 0.000000 0.000000 0.037633 0.000000 0.000000
# 5 0.000000 0.000000 0.000000 0.000000 0.026055 0.000000
# 6 0.000000 0.000000 0.000000 0.000000 0.000000 0.011310
#
#
# Mechanical properties :
#
#
# Convention : Reuss Voigt Hill
#
# Bulk Modulus (GPa) = 50.78123 60.88391 55.83257
# Shear Modulus (GPa) = 30.39403 41.10222 35.74812
#
# Velocity S-wave (km/s) = 3.90596 4.54220 4.23604
# Velocity P-wave (km/s) = 6.76994 7.62037 7.20771
#
# Compressibility (1/GPa) = 0.01969232
#
# Stress axis : x y z
#
# Youngs Moduli (GPa) = 56.64393 42.57750 98.25516
#
# Poissons Ratio (x) = 0.25850 0.40630
# Poissons Ratio (y) = 0.34390 0.55088
# Poissons Ratio (z) = 0.23423 0.23872
#
# Static dielectric constant tensor:
#      x y z
#    x 3.552490 0.000000 0.000000 
#    y 0.000000 3.604900 0.000000 
#    z 0.000000 0.000000 3.723220 
# 
# 
# High freq. dielectric constant tensor:
#      x y z
#    x 1.778760 0.000000 0.000000 
#    y 0.000000 1.770050 0.000000 
#    z 0.000000 0.000000 1.784220 
# 
# From -- ./inp_files/21607.got.cif
#   From: 2010.03.12/outbox.cif.g09.slc.cpg/sg51_11_cif.got.tgz:21607.got - 2010.04.16 13:43:02.
