data_PCOD8211858
_publ_section_title
;
Structure prediction by ZEFSAII (Michael W. Deem and Ramdas Pophale) SiO2 
 PCOD8211858
Probable space group: P M M A
;
_chemical_formula_sum "Si O2"
_cell_formula_units_Z 64
_cell_length_a 8.919073
_cell_length_b 25.223736
_cell_length_c 14.320890
_cell_angle_alpha 90.000000
_cell_angle_beta 90.000000
_cell_angle_gamma 90.000000
_cell_volume 3221.804173
_symmetry_space_group_name_H-M "P M M A"
_symmetry_group_IT_number 51
_symmetry_cell_setting 'orthorhombic'
loop_
_space_group_symop_operation_xyz
x,y,z
1/2-x,-y,z
1/2+x,-y,-z
-x,y,-z
-x,-y,-z
1/2+x,y,-z
1/2-x,y,z
x,-y,z
loop_
_atom_site_type_symbol
_atom_site_label
_atom_site_fract_x
_atom_site_fract_y
_atom_site_fract_z
Si Si1 0.571791 0.152785 0.901097
Si Si2 0.072440 0.243217 0.780600
Si Si3 0.924270 0.402261 0.594839
Si Si4 0.914747 0.062876 0.411419
Si Si5 0.425555 0.345243 0.900805
Si Si6 0.073376 0.061358 0.795084
Si Si7 0.073329 0.720838 0.403638
Si Si8 0.577488 0.440498 0.224660
O O1 0.750000 0.156138 0.908699
O O2 0.509859 0.193905 0.826488
O O3 0.521442 0.094184 0.869955
O O4 0.500000 0.167136 0.000000
O O5 0.250000 0.233728 0.779147
O O6 0.028216 0.296333 0.835737
O O7 0.009397 0.246391 0.676437
O O8 0.750000 0.412866 0.584851
O O9 0.961787 0.340901 0.612798
O O10 0.000000 0.422605 0.500000
O O11 0.985861 0.436289 0.680206
O O12 0.750000 0.087632 0.415445
O O13 0.984678 0.076362 0.309804
O O14 0.000000 0.088245 0.500000
O O15 0.906900 0.000000 0.422044
O O16 0.250000 0.347565 0.917585
O O17 0.484276 0.399390 0.852566
O O18 0.500000 0.337557 0.000000
O O19 0.250000 0.073858 0.804121
O O20 0.042143 0.000000 0.816341
O O21 0.250000 0.732572 0.403795
O O22 0.000000 0.740089 0.500000
O O23 0.750000 0.426929 0.247338
O O24 0.558977 0.500000 0.184748
#
# Coordination Sequence:
#
# PCOD8211858 Si02
#       8
#     8   8   8   8   8   8   8   8
#     4  12  26  43  63  89 120 154 198 248 302 359
#     4  11  22  40  65  90 119 154 194 244 296 351
#     4  10  20  34  56  84 116 153 194 238 287 348
#     4   8  14  26  48  79 114 151 190 232 277 328
#     4  10  22  38  59  85 111 146 191 239 296 354
#     4   9  19  38  62  88 121 161 203 246 296 353
#     4  10  20  35  59  91 123 157 194 238 290 352
#     4  10  21  38  57  80 114 153 195 244 296 352
#
# _framework density 19.864647000000001
#
# number of rings (size 3 to 8) (size 9 to 14) (size 15 to 20)
#    0.000    2.000    1.250    3.375    0.000    5.250 
#    0.000    1.875    0.000    1.500    0.000    0.000 
#    0.000    0.000    0.000    0.000    0.000    0.000 
#
# Total GULP energy -793698.532127 kJ/mol
# GULP energy per Si atom -12401.539564 kJ/mol
# Density = 1.981943 g / cm^3
# Si number density = 19.864647 Si / 1000 Ang^3
#
#
#
# Elastic Constant Matrix: (Units=GPa)
#
#
# Indices 1 2 3 4 5 6 
#
# 1 94.4701 42.3166 51.8017 0.0000 0.0000 0.0000
# 2 42.3166 83.6266 45.1293 0.0000 0.0000 0.0000
# 3 51.8017 45.1293 128.9748 0.0000 0.0000 0.0000
# 4 0.0000 0.0000 0.0000 13.3884 0.0000 0.0000
# 5 0.0000 0.0000 0.0000 0.0000 40.5114 0.0000
# 6 0.0000 0.0000 0.0000 0.0000 0.0000 18.1108
#
#
#
# Elastic Compliance Matrix: (Units=1/GPa)
#
#
# Indices 1 2 3 4 5 6 
#
# 1 0.015376 -0.005483 -0.004257 0.000000 0.000000 0.000000
# 2 -0.005483 0.016697 -0.003640 0.000000 0.000000 0.000000
# 3 -0.004257 -0.003640 0.010737 0.000000 0.000000 0.000000
# 4 0.000000 0.000000 0.000000 0.074692 0.000000 0.000000
# 5 0.000000 0.000000 0.000000 0.000000 0.024684 0.000000
# 6 0.000000 0.000000 0.000000 0.000000 0.000000 0.055216
#
#
# Mechanical properties :
#
#
# Convention : Reuss Voigt Hill
#
# Bulk Modulus (GPa) = 62.30862 65.06298 63.68580
# Shear Modulus (GPa) = 21.78542 25.59038 23.68790
#
# Velocity S-wave (km/s) = 3.31523 3.59310 3.45696
# Velocity P-wave (km/s) = 6.78889 7.07376 6.93279
#
# Compressibility (1/GPa) = 0.01604914
#
# Stress axis : x y z
#
# Youngs Moduli (GPa) = 65.03776 59.89150 93.13649
#
# Poissons Ratio (x) = 0.32839 0.39648
# Poissons Ratio (y) = 0.35661 0.33903
# Poissons Ratio (z) = 0.27686 0.21801
#
# Static dielectric constant tensor:
#      x y z
#    x 3.609070 0.000000 0.000000 
#    y 0.000000 3.503250 0.000000 
#    z 0.000000 0.000000 3.730310 
# 
# 
# High freq. dielectric constant tensor:
#      x y z
#    x 1.771920 0.000000 0.000000 
#    y 0.000000 1.762240 0.000000 
#    z 0.000000 0.000000 1.783950 
# 
# From -- ./inp_files/22201.got.cif
#   From: 2010.03.12/outbox.cif.g09.slc.cpg/sg51_12_cif.got.tgz:22201.got - 2010.04.16 13:43:02.
