data_PCOD8211859
_publ_section_title
;
Structure prediction by ZEFSAII (Michael W. Deem and Ramdas Pophale) SiO2 
 PCOD8211859
Probable space group: P M M A
;
_chemical_formula_sum "Si O2"
_cell_formula_units_Z 64
_cell_length_a 8.813541
_cell_length_b 25.159829
_cell_length_c 14.347106
_cell_angle_alpha 90.000000
_cell_angle_beta 90.000000
_cell_angle_gamma 90.000000
_cell_volume 3181.430360
_symmetry_space_group_name_H-M "P M M A"
_symmetry_group_IT_number 51
_symmetry_cell_setting 'orthorhombic'
loop_
_space_group_symop_operation_xyz
x,y,z
1/2-x,-y,z
1/2+x,-y,-z
-x,y,-z
-x,-y,-z
1/2+x,y,-z
1/2-x,y,z
x,-y,z
loop_
_atom_site_type_symbol
_atom_site_label
_atom_site_fract_x
_atom_site_fract_y
_atom_site_fract_z
Si Si1 0.571823 0.155616 0.100040
Si Si2 0.070358 0.257997 0.781752
Si Si3 0.920767 0.563213 0.592715
Si Si4 0.072963 0.099054 0.404849
Si Si5 0.429814 0.350788 0.099812
Si Si6 0.074933 0.059574 0.776393
Si Si7 0.070623 0.778295 0.403252
Si Si8 0.573475 0.437849 0.216919
O O1 0.750000 0.153640 0.086162
O O2 0.521985 0.204639 0.164331
O O3 0.511466 0.101204 0.147461
O O4 0.500000 0.163071 0.000000
O O5 0.250000 0.266624 0.782492
O O6 0.988677 0.307488 0.828214
O O7 0.009473 0.255494 0.676958
O O8 0.750000 0.585734 0.599165
O O9 0.918679 0.500000 0.587491
O O10 0.000000 0.586531 0.500000
O O11 0.013946 0.582213 0.682840
O O12 0.250000 0.091359 0.414464
O O13 0.027779 0.160177 0.387534
O O14 0.000000 0.077591 0.500000
O O15 0.014430 0.064009 0.319794
O O16 0.250000 0.349019 0.092178
O O17 0.483240 0.408586 0.134749
O O18 0.500000 0.338017 0.000000
O O19 0.250000 0.072506 0.755306
O O20 0.053124 0.000000 0.816154
O O21 0.250000 0.768712 0.402568
O O22 0.000000 0.758016 0.500000
O O23 0.750000 0.423837 0.210048
O O24 0.542334 0.500000 0.203555
#
# Coordination Sequence:
#
# PCOD8211859 Si02
#       8
#     8   8   8   8   8   8   8   8
#     4  10  22  38  59  85 112 148 193 242 298 355
#     4  11  22  40  65  91 121 156 196 245 298 355
#     4   9  16  28  50  82 119 159 202 246 292 344
#     4  10  20  34  56  84 116 153 195 240 290 351
#     4  12  26  44  65  91 123 158 201 250 303 358
#     4  10  21  38  57  80 114 154 197 246 299 355
#     4  10  20  35  59  91 123 158 196 240 292 355
#     4  10  21  39  63  91 124 163 206 250 300 358
#
# _framework density 20.116738000000002
#
# number of rings (size 3 to 8) (size 9 to 14) (size 15 to 20)
#    0.000    1.750    1.250    3.375    0.000    6.750 
#    0.000    0.625    0.000    0.000    0.000    0.000 
#    0.000    0.000    0.000    0.000    0.000    0.000 
#
# Total GULP energy -793907.836213 kJ/mol
# GULP energy per Si atom -12404.809941 kJ/mol
# Density = 2.007095 g / cm^3
# Si number density = 20.116738 Si / 1000 Ang^3
#
#
#
# Elastic Constant Matrix: (Units=GPa)
#
#
# Indices 1 2 3 4 5 6 
#
# 1 111.3786 43.1754 53.1790 0.0000 0.0000 0.0000
# 2 43.1754 77.4434 45.5503 0.0000 0.0000 0.0000
# 3 53.1790 45.5503 134.1456 0.0000 0.0000 0.0000
# 4 0.0000 0.0000 0.0000 6.4254 0.0000 0.0000
# 5 0.0000 0.0000 0.0000 0.0000 42.2282 0.0000
# 6 0.0000 0.0000 0.0000 0.0000 0.0000 20.0947
#
#
#
# Elastic Compliance Matrix: (Units=1/GPa)
#
#
# Indices 1 2 3 4 5 6 
#
# 1 0.012482 -0.005059 -0.003230 0.000000 0.000000 0.000000
# 2 -0.005059 0.018185 -0.004170 0.000000 0.000000 0.000000
# 3 -0.003230 -0.004170 0.010151 0.000000 0.000000 0.000000
# 4 0.000000 0.000000 0.000000 0.155631 0.000000 0.000000
# 5 0.000000 0.000000 0.000000 0.000000 0.023681 0.000000
# 6 0.000000 0.000000 0.000000 0.000000 0.000000 0.049764
#
#
# Mechanical properties :
#
#
# Convention : Reuss Voigt Hill
#
# Bulk Modulus (GPa) = 62.88983 67.41968 65.15476
# Shear Modulus (GPa) = 16.66043 25.82053 21.24048
#
# Velocity S-wave (km/s) = 2.88095 3.58653 3.25293
# Velocity P-wave (km/s) = 6.51128 7.12306 6.82403
#
# Compressibility (1/GPa) = 0.01590082
#
# Stress axis : x y z
#
# Youngs Moduli (GPa) = 80.11708 54.98924 98.51214
#
# Poissons Ratio (x) = 0.27817 0.31823
# Poissons Ratio (y) = 0.40528 0.41076
# Poissons Ratio (z) = 0.25881 0.22928
#
# Static dielectric constant tensor:
#      x y z
#    x 3.671220 0.000000 0.000000 
#    y 0.000000 3.568280 0.000000 
#    z 0.000000 0.000000 3.795620 
# 
# 
# High freq. dielectric constant tensor:
#      x y z
#    x 1.792800 0.000000 0.000000 
#    y 0.000000 1.772440 0.000000 
#    z 0.000000 0.000000 1.793180 
# 
# From -- ./inp_files/22199.got.cif
#   From: 2010.03.12/outbox.cif.g09.slc.cpg/sg51_12_cif.got.tgz:22199.got - 2010.04.16 13:43:02.
