data_PCOD8211949
_publ_section_title
;
Structure prediction by ZEFSAII (Michael W. Deem and Ramdas Pophale) SiO2 
 PCOD8211949
Probable space group: P M M A
;
_chemical_formula_sum "Si O2"
_cell_formula_units_Z 64
_cell_length_a 22.493162
_cell_length_b 8.964002
_cell_length_c 17.393392
_cell_angle_alpha 90.000000
_cell_angle_beta 90.000000
_cell_angle_gamma 90.000000
_cell_volume 3507.007873
_symmetry_space_group_name_H-M "P M M A"
_symmetry_group_IT_number 51
_symmetry_cell_setting 'orthorhombic'
loop_
_space_group_symop_operation_xyz
x,y,z
1/2-x,-y,z
1/2+x,-y,-z
-x,y,-z
-x,-y,-z
1/2+x,y,-z
1/2-x,y,z
x,-y,z
loop_
_atom_site_type_symbol
_atom_site_label
_atom_site_fract_x
_atom_site_fract_y
_atom_site_fract_z
Si Si1 0.068816 0.663728 0.517873
Si Si2 0.095122 0.326732 0.811584
Si Si3 0.361650 0.175886 0.093391
Si Si4 0.482017 0.327719 0.084035
Si Si5 0.454109 0.824032 0.667074
Si Si6 0.580631 0.323006 0.649839
Si Si7 0.180099 0.827656 0.926754
Si Si8 0.816137 0.327864 0.762475
O O1 0.093932 0.500000 0.541631
O O2 0.077932 0.780327 0.586772
O O3 0.098610 0.720147 0.438058
O O4 0.000000 0.647156 0.500000
O O5 0.104531 0.500000 0.793038
O O6 0.089563 0.235703 0.732916
O O7 0.151297 0.268217 0.859025
O O8 0.035924 0.297880 0.859604
O O9 0.427559 0.230356 0.114285
O O10 0.317670 0.240895 0.157170
O O11 0.357626 0.000000 0.097050
O O12 0.342477 0.233470 0.009114
O O13 0.462578 0.500000 0.082010
O O14 0.500000 0.270662 0.000000
O O15 0.519535 0.753744 0.676358
O O16 0.460054 0.000000 0.672010
O O17 0.570464 0.500000 0.656587
O O18 0.634746 0.265874 0.702845
O O19 0.250000 0.804939 0.921548
O O20 0.161919 0.000000 0.916546
O O21 0.750000 0.306415 0.727240
O O22 0.829528 0.500000 0.779678
#
# Coordination Sequence:
#
# PCOD8211949 Si02
#       8
#     8   8   8   8   8   8   8   8
#     4   8  15  30  52  76 104 137 169 204 253 309
#     4  11  22  36  55  77 104 137 175 218 262 310
#     4  11  22  35  54  78 107 140 176 217 263 316
#     4  10  20  35  53  76 105 135 172 218 266 311
#     4  11  21  32  51  81 112 138 170 212 265 323
#     4   9  18  34  54  77 107 141 175 214 262 313
#     4  10  22  39  55  72  99 135 174 218 265 309
#     4  10  21  36  54  76 104 141 183 222 260 307
#
# _framework density 18.249175000000001
#
# number of rings (size 3 to 8) (size 9 to 14) (size 15 to 20)
#    0.000    2.000    1.250    3.750    0.000    8.500 
#    0.000    0.000    0.000    0.750    0.000    1.750 
#    0.000    0.000    0.000    0.000    0.000    0.000 
#
# Total GULP energy -793654.058117 kJ/mol
# GULP energy per Si atom -12400.844658 kJ/mol
# Density = 1.820764 g / cm^3
# Si number density = 18.249175 Si / 1000 Ang^3
#
#
#
# Elastic Constant Matrix: (Units=GPa)
#
#
# Indices 1 2 3 4 5 6 
#
# 1 70.0754 28.4607 37.2537 0.0000 0.0000 0.0000
# 2 28.4607 70.4809 43.4752 0.0000 0.0000 0.0000
# 3 37.2537 43.4752 120.6506 0.0000 0.0000 0.0000
# 4 0.0000 0.0000 0.0000 25.0081 0.0000 0.0000
# 5 0.0000 0.0000 0.0000 0.0000 20.4685 0.0000
# 6 0.0000 0.0000 0.0000 0.0000 0.0000 13.5338
#
#
#
# Elastic Compliance Matrix: (Units=1/GPa)
#
#
# Indices 1 2 3 4 5 6 
#
# 1 0.018366 -0.005038 -0.003856 0.000000 0.000000 0.000000
# 2 -0.005038 0.019625 -0.005516 0.000000 0.000000 0.000000
# 3 -0.003856 -0.005516 0.011467 0.000000 0.000000 0.000000
# 4 0.000000 0.000000 0.000000 0.039987 0.000000 0.000000
# 5 0.000000 0.000000 0.000000 0.000000 0.048856 0.000000
# 6 0.000000 0.000000 0.000000 0.000000 0.000000 0.073889
#
#
# Mechanical properties :
#
#
# Convention : Reuss Voigt Hill
#
# Bulk Modulus (GPa) = 48.45340 53.28735 50.87037
# Shear Modulus (GPa) = 20.17034 21.93656 21.05345
#
# Velocity S-wave (km/s) = 3.32817 3.47083 3.40025
# Velocity P-wave (km/s) = 6.43254 6.73242 6.58419
#
# Compressibility (1/GPa) = 0.02063838
#
# Stress axis : x y z
#
# Youngs Moduli (GPa) = 54.44759 50.95482 87.21023
#
# Poissons Ratio (x) = 0.25672 0.33624
# Poissons Ratio (y) = 0.27432 0.48106
# Poissons Ratio (z) = 0.20993 0.28107
#
# Static dielectric constant tensor:
#      x y z
#    x 3.175450 0.000000 0.000000 
#    y 0.000000 3.290830 0.000000 
#    z 0.000000 0.000000 3.784310 
# 
# 
# High freq. dielectric constant tensor:
#      x y z
#    x 1.682710 0.000000 0.000000 
#    y 0.000000 1.701990 0.000000 
#    z 0.000000 0.000000 1.715140 
# 
# From -- ./inp_files/30679.got.cif
#   From: 2010.03.12/outbox.cif.g09.slc.cpg/sg51_16_cif.got.tgz:30679.got - 2010.04.16 13:43:02.
