data_PCOD8211260
_publ_section_title
;
Structure prediction by ZEFSAII (Michael W. Deem and Ramdas Pophale) SiO2 
 PCOD8211260
Probable space group: P M M A
;
_chemical_formula_sum "Si O2"
_cell_formula_units_Z 48
_cell_length_a 13.967052
_cell_length_b 9.061215
_cell_length_c 20.400837
_cell_angle_alpha 90.000000
_cell_angle_beta 90.000000
_cell_angle_gamma 90.000000
_cell_volume 2581.898536
_symmetry_space_group_name_H-M "P M M A"
_symmetry_group_IT_number 51
_symmetry_cell_setting 'orthorhombic'
loop_
_space_group_symop_operation_xyz
x,y,z
1/2-x,-y,z
1/2+x,-y,-z
-x,y,-z
-x,-y,-z
1/2+x,y,-z
1/2-x,y,z
x,-y,z
loop_
_atom_site_type_symbol
_atom_site_label
_atom_site_fract_x
_atom_site_fract_y
_atom_site_fract_z
Si Si1 0.857788 0.171515 0.385775
Si Si2 0.542489 0.175248 0.900916
Si Si3 0.861474 0.171752 0.769475
Si Si4 0.461155 0.673639 0.349004
Si Si5 0.644148 0.824374 0.030683
Si Si6 0.860870 0.832983 0.537683
O O1 0.750000 0.222436 0.368667
O O2 0.879755 0.202071 0.461916
O O3 0.930948 0.264470 0.341311
O O4 0.870470 0.000000 0.369431
O O5 0.579748 0.236430 0.831558
O O6 0.432534 0.226629 0.914010
O O7 0.549258 0.000000 0.899998
O O8 0.609849 0.234696 0.959666
O O9 0.750000 0.197862 0.783152
O O10 0.892257 0.260603 0.705829
O O11 0.883696 0.000000 0.757527
O O12 0.462982 0.500000 0.342128
O O13 0.421318 0.718783 0.419947
O O14 0.750000 0.760394 0.046772
O O15 0.647377 0.000000 0.028790
O O16 0.750000 0.814614 0.555130
O O17 0.894187 0.000000 0.554051
#
# Coordination Sequence:
#
# PCOD8211260 Si02
#       6
#     8   8   8   8   8   8
#     4   9  19  37  59  78  96 124 164 207 250 299
#     4   8  14  24  40  65  95 126 160 199 247 301
#     4  10  20  34  51  69  94 132 174 210 245 293
#     4  12  24  34  48  73 104 135 166 204 251 299
#     4   8  12  20  38  66  98 124 149 194 255 306
#     4   9  18  34  56  79 101 127 162 205 251 298
#
# _framework density 18.590972000000001
#
# number of rings (size 3 to 8) (size 9 to 14) (size 15 to 20)
#    0.000    2.667    0.000    5.000    0.000    7.667 
#    0.000    2.500    0.000    3.000    0.000    2.333 
#    0.000    1.333    0.000    0.000    0.000    0.000 
#
# Total GULP energy -595062.517535 kJ/mol
# GULP energy per Si atom -12397.135782 kJ/mol
# Density = 1.854866 g / cm^3
# Si number density = 18.590972 Si / 1000 Ang^3
#
#
#
# Elastic Constant Matrix: (Units=GPa)
#
#
# Indices 1 2 3 4 5 6 
#
# 1 125.8662 37.7145 44.8107 0.0000 0.0000 0.0000
# 2 37.7145 59.3118 25.2516 0.0000 0.0000 0.0000
# 3 44.8107 25.2516 40.6886 0.0000 0.0000 0.0000
# 4 0.0000 0.0000 0.0000 -1.0891 0.0000 0.0000
# 5 0.0000 0.0000 0.0000 0.0000 31.7269 0.0000
# 6 0.0000 0.0000 0.0000 0.0000 0.0000 8.2296
#
#
#
# Elastic Compliance Matrix: (Units=1/GPa)
#
#
# Indices 1 2 3 4 5 6 
#
# 1 0.013465 -0.003056 -0.012932 0.000000 0.000000 0.000000
# 2 -0.003056 0.023608 -0.011286 0.000000 0.000000 0.000000
# 3 -0.012932 -0.011286 0.045823 0.000000 0.000000 0.000000
# 4 0.000000 0.000000 0.000000 -0.918169 0.000000 0.000000
# 5 0.000000 0.000000 0.000000 0.000000 0.031519 0.000000
# 6 0.000000 0.000000 0.000000 0.000000 0.000000 0.121512
#
#
# Mechanical properties :
#
#
# Convention : Reuss Voigt Hill
#
# Bulk Modulus (GPa) = 35.27565 49.04669 42.16117
# Shear Modulus (GPa) = -8.08742 15.64612 3.77935
#
# Velocity S-wave (km/s) = -2.08797 2.90418 1.42734
# Velocity P-wave (km/s) = 3.63359 6.13881 5.04420
#
# Compressibility (1/GPa) = 0.02834816
#
# Stress axis : x y z
#
# Youngs Moduli (GPa) = 74.26779 42.35835 21.82292
#
# Poissons Ratio (x) = 0.12945 0.28222
# Poissons Ratio (y) = 0.22696 0.24629
# Poissons Ratio (z) = 0.96045 0.47805
#
# Static dielectric constant tensor:
#      x y z
#    x 3.786690 0.000000 0.000000 
#    y 0.000000 2.915370 0.000000 
#    z 0.000000 0.000000 3.368760 
# 
# 
# High freq. dielectric constant tensor:
#      x y z
#    x 1.741610 0.000000 0.000000 
#    y 0.000000 1.666360 0.000000 
#    z 0.000000 0.000000 1.705090 
# 
# From -- ./inp_files/29401.got.cif
#   From: 2010.03.12/outbox.cif.g09.slc.cpg/sg51_15_cif.got.tgz:29401.got - 2010.04.16 13:43:02.
