data_PCOD8211787
_publ_section_title
;
Structure prediction by ZEFSAII (Michael W. Deem and Ramdas Pophale) SiO2 
 PCOD8211787
Probable space group: P M M A
;
_chemical_formula_sum "Si O2"
_cell_formula_units_Z 40
_cell_length_a 9.180887
_cell_length_b 15.488345
_cell_length_c 14.620626
_cell_angle_alpha 90.000000
_cell_angle_beta 90.000000
_cell_angle_gamma 90.000000
_cell_volume 2079.005431
_symmetry_space_group_name_H-M "P M M A"
_symmetry_group_IT_number 51
_symmetry_cell_setting 'orthorhombic'
loop_
_space_group_symop_operation_xyz
x,y,z
1/2-x,-y,z
1/2+x,-y,-z
-x,y,-z
-x,-y,-z
1/2+x,y,-z
1/2-x,y,z
x,-y,z
loop_
_atom_site_type_symbol
_atom_site_label
_atom_site_fract_x
_atom_site_fract_y
_atom_site_fract_z
Si Si1 0.919312 0.154185 0.220014
Si Si2 0.419242 0.346990 0.770985
Si Si3 0.085235 0.102402 0.586931
Si Si4 0.421407 0.500000 0.903359
Si Si5 0.419078 0.601479 0.408903
Si Si6 0.576377 0.000000 0.095967
O O1 0.750000 0.132216 0.230518
O O2 0.946063 0.251998 0.185996
O O3 0.987836 0.140907 0.320988
O O4 0.982749 0.085406 0.148184
O O5 0.250000 0.362018 0.746030
O O6 0.471069 0.415899 0.846374
O O7 0.511605 0.353206 0.678924
O O8 0.250000 0.134437 0.575782
O O9 0.000000 0.139759 0.500000
O O10 0.074630 0.000000 0.592355
O O11 0.250000 0.500000 0.921456
O O12 0.500000 0.500000 0.000000
O O13 0.500000 0.634945 0.500000
O O14 0.250000 0.626077 0.415975
O O15 0.442953 0.500000 0.397210
O O16 0.750000 0.000000 0.083531
O O17 0.500000 0.000000 0.000000
#
# Coordination Sequence:
#
# PCOD8211787 Si02
#       6
#     8   8   8   4   8   4
#     4   9  18  34  57  79 106 143 181 217 266 327
#     4  10  20  36  57  82 109 143 184 227 273 325
#     4   9  16  29  50  75 102 137 174 209 250 302
#     4  10  22  38  57  78 105 138 177 224 278 330
#     4  10  20  34  55  82 113 150 186 224 268 320
#     4  10  20  38  59  80 106 140 181 226 277 330
#
# _framework density 19.239968000000001
#
# number of rings (size 3 to 8) (size 9 to 14) (size 15 to 20)
#    0.000    2.400    2.000    0.600    0.000    3.200 
#    0.000    5.000    0.000    0.000    0.000    0.000 
#    0.000    0.000    0.000    0.000    0.000    0.000 
#
# Total GULP energy -495973.763211 kJ/mol
# GULP energy per Si atom -12399.344080 kJ/mol
# Density = 1.919618 g / cm^3
# Si number density = 19.239968 Si / 1000 Ang^3
#
#
#
# Elastic Constant Matrix: (Units=GPa)
#
#
# Indices 1 2 3 4 5 6 
#
# 1 60.5763 35.8811 49.4313 0.0000 0.0000 0.0000
# 2 35.8811 117.1207 79.1744 0.0000 0.0000 0.0000
# 3 49.4313 79.1744 172.8456 0.0000 0.0000 0.0000
# 4 0.0000 0.0000 0.0000 12.3648 0.0000 0.0000
# 5 0.0000 0.0000 0.0000 0.0000 38.0165 0.0000
# 6 0.0000 0.0000 0.0000 0.0000 0.0000 12.3864
#
#
#
# Elastic Compliance Matrix: (Units=1/GPa)
#
#
# Indices 1 2 3 4 5 6 
#
# 1 0.022588 -0.003698 -0.004766 0.000000 0.000000 0.000000
# 2 -0.003698 0.012974 -0.004885 0.000000 0.000000 0.000000
# 3 -0.004766 -0.004885 0.009386 0.000000 0.000000 0.000000
# 4 0.000000 0.000000 0.000000 0.080875 0.000000 0.000000
# 5 0.000000 0.000000 0.000000 0.000000 0.026304 0.000000
# 6 0.000000 0.000000 0.000000 0.000000 0.000000 0.080733
#
#
# Mechanical properties :
#
#
# Convention : Reuss Voigt Hill
#
# Bulk Modulus (GPa) = 54.79704 75.50181 65.14943
# Shear Modulus (GPa) = 18.82239 24.95726 21.88982
#
# Velocity S-wave (km/s) = 3.13117 3.60551 3.37668
# Velocity P-wave (km/s) = 6.45096 7.52731 7.00982
#
# Compressibility (1/GPa) = 0.01824916
#
# Stress axis : x y z
#
# Youngs Moduli (GPa) = 44.27211 77.07999 106.54076
#
# Poissons Ratio (x) = 0.28507 0.50774
# Poissons Ratio (y) = 0.16373 0.52046
# Poissons Ratio (z) = 0.21099 0.37654
#
# Static dielectric constant tensor:
#      x y z
#    x 3.282040 0.000000 0.000000 
#    y 0.000000 3.566270 0.000000 
#    z 0.000000 0.000000 3.518930 
# 
# 
# High freq. dielectric constant tensor:
#      x y z
#    x 1.718170 0.000000 0.000000 
#    y 0.000000 1.753580 0.000000 
#    z 0.000000 0.000000 1.748810 
# 
# From -- ./inp_files/20546.got.cif
#   From: 2010.03.12/outbox.cif.g09.slc.cpg/sg51_11_cif.got.tgz:20546.got - 2010.04.16 13:43:02.
