data_PCOD8211305
_publ_section_title
;
Structure prediction by ZEFSAII (Michael W. Deem and Ramdas Pophale) SiO2 
 PCOD8211305
Probable space group: P M M A
;
_chemical_formula_sum "Si O2"
_cell_formula_units_Z 64
_cell_length_a 8.899398
_cell_length_b 23.687920
_cell_length_c 15.777436
_cell_angle_alpha 90.000000
_cell_angle_beta 90.000000
_cell_angle_gamma 90.000000
_cell_volume 3326.013324
_symmetry_space_group_name_H-M "P M M A"
_symmetry_group_IT_number 51
_symmetry_cell_setting 'orthorhombic'
loop_
_space_group_symop_operation_xyz
x,y,z
1/2-x,-y,z
1/2+x,-y,-z
-x,y,-z
-x,-y,-z
1/2+x,y,-z
1/2-x,y,z
x,-y,z
loop_
_atom_site_type_symbol
_atom_site_label
_atom_site_fract_x
_atom_site_fract_y
_atom_site_fract_z
Si Si1 0.428293 0.629234 0.241219
Si Si2 0.927578 0.130068 0.243774
Si Si3 0.924322 0.756248 0.747604
Si Si4 0.084008 0.383295 0.582003
Si Si5 0.083262 0.748077 0.578551
Si Si6 0.077836 0.566858 0.913804
Si Si7 0.925997 0.935364 0.082852
Si Si8 0.572525 0.064921 0.411064
O O1 0.250000 0.623454 0.247165
O O2 0.475088 0.694128 0.220016
O O3 0.494038 0.607158 0.330536
O O4 0.491240 0.591331 0.166352
O O5 0.750000 0.130493 0.245565
O O6 0.989876 0.090463 0.169457
O O7 0.985889 0.106088 0.334808
O O8 0.983034 0.192021 0.213800
O O9 0.750000 0.766143 0.764421
O O10 0.961712 0.759461 0.649432
O O11 0.250000 0.411045 0.590943
O O12 0.105621 0.317746 0.562860
O O13 0.000000 0.410637 0.500000
O O14 0.250000 0.775023 0.596142
O O15 0.000000 0.777428 0.500000
O O16 0.250000 0.587489 0.913373
O O17 0.066616 0.500000 0.907858
O O18 0.000000 0.588783 0.000000
O O19 0.750000 0.926126 0.075792
O O20 0.973898 0.000000 0.086290
O O21 0.000000 0.906463 0.000000
O O22 0.500000 0.084356 0.500000
O O23 0.750000 0.070129 0.420515
O O24 0.527325 0.000000 0.389801
#
# Coordination Sequence:
#
# PCOD8211305 Si02
#       8
#     8   8   8   8   8   8   8   8
#     4  10  20  35  55  79 110 148 186 225 270 318
#     4  10  20  34  52  73 101 138 174 211 261 319
#     4  10  21  34  48  71 104 140 179 220 260 309
#     4   9  16  27  46  73 104 139 180 223 264 309
#     4   9  16  27  44  65  92 129 173 218 260 300
#     4  10  21  38  62  91 118 143 176 221 271 323
#     4   9  18  34  56  79  99 121 156 205 260 315
#     4   9  18  33  52  74 101 135 177 223 271 324
#
# _framework density 19.242256000000001
#
# number of rings (size 3 to 8) (size 9 to 14) (size 15 to 20)
#    0.000    2.500    0.000    2.250    0.000    8.250 
#    0.000    1.875    0.000    5.625    0.000    0.000 
#    0.000    0.000    0.000    0.000    0.000    0.000 
#
# Total GULP energy -793100.392707 kJ/mol
# GULP energy per Si atom -12392.193636 kJ/mol
# Density = 1.919846 g / cm^3
# Si number density = 19.242256 Si / 1000 Ang^3
#
#
#
# Elastic Constant Matrix: (Units=GPa)
#
#
# Indices 1 2 3 4 5 6 
#
# 1 66.5672 19.8447 48.6462 0.0000 0.0000 0.0000
# 2 19.8447 28.2303 28.9241 0.0000 0.0000 0.0000
# 3 48.6462 28.9241 142.8052 0.0000 0.0000 0.0000
# 4 0.0000 0.0000 0.0000 9.1804 0.0000 0.0000
# 5 0.0000 0.0000 0.0000 0.0000 32.6850 0.0000
# 6 0.0000 0.0000 0.0000 0.0000 0.0000 22.9653
#
#
#
# Elastic Compliance Matrix: (Units=1/GPa)
#
#
# Indices 1 2 3 4 5 6 
#
# 1 0.021962 -0.009809 -0.005495 0.000000 0.000000 0.000000
# 2 -0.009809 0.049080 -0.006599 0.000000 0.000000 0.000000
# 3 -0.005495 -0.006599 0.010211 0.000000 0.000000 0.000000
# 4 0.000000 0.000000 0.000000 0.108928 0.000000 0.000000
# 5 0.000000 0.000000 0.000000 0.000000 0.030595 0.000000
# 6 0.000000 0.000000 0.000000 0.000000 0.000000 0.043544
#
#
# Mechanical properties :
#
#
# Convention : Reuss Voigt Hill
#
# Bulk Modulus (GPa) = 26.70430 48.04808 37.37619
# Shear Modulus (GPa) = 15.59543 22.31199 18.95371
#
# Velocity S-wave (km/s) = 2.84998 3.40888 3.14188
# Velocity P-wave (km/s) = 4.97372 6.36540 5.71210
#
# Compressibility (1/GPa) = 0.03744715
#
# Stress axis : x y z
#
# Youngs Moduli (GPa) = 45.53344 20.37504 97.93436
#
# Poissons Ratio (x) = 0.19985 0.53811
# Poissons Ratio (y) = 0.44662 0.64631
# Poissons Ratio (z) = 0.25019 0.13446
#
# Static dielectric constant tensor:
#      x y z
#    x 3.635360 0.000000 0.000000 
#    y 0.000000 3.516570 0.000000 
#    z 0.000000 0.000000 3.756920 
# 
# 
# High freq. dielectric constant tensor:
#      x y z
#    x 1.750960 0.000000 0.000000 
#    y 0.000000 1.725190 0.000000 
#    z 0.000000 0.000000 1.746580 
# 
# From -- ./inp_files/22326.got.cif
#   From: 2010.03.12/outbox.cif.g09.slc.cpg/sg51_12_cif.got.tgz:22326.got - 2010.04.16 13:43:02.
