data_PCOD8211237
_publ_section_title
;
Structure prediction by ZEFSAII (Michael W. Deem and Ramdas Pophale) SiO2 
 PCOD8211237
Probable space group: P M M A
;
_chemical_formula_sum "Si O2"
_cell_formula_units_Z 40
_cell_length_a 8.700484
_cell_length_b 25.776076
_cell_length_c 10.063273
_cell_angle_alpha 90.000000
_cell_angle_beta 90.000000
_cell_angle_gamma 90.000000
_cell_volume 2256.833246
_symmetry_space_group_name_H-M "P M M A"
_symmetry_group_IT_number 51
_symmetry_cell_setting 'orthorhombic'
loop_
_space_group_symop_operation_xyz
x,y,z
1/2-x,-y,z
1/2+x,-y,-z
-x,y,-z
-x,-y,-z
1/2+x,y,-z
1/2-x,y,z
x,-y,z
loop_
_atom_site_type_symbol
_atom_site_label
_atom_site_fract_x
_atom_site_fract_y
_atom_site_fract_z
Si Si1 0.931307 0.558472 0.137814
Si Si2 0.933070 0.250727 0.642169
Si Si3 0.568228 0.167119 0.854439
Si Si4 0.567167 0.361196 0.358890
Si Si5 0.930856 0.054683 0.855687
O O1 0.750000 0.560122 0.125869
O O2 0.989554 0.500000 0.167692
O O3 0.988963 0.595722 0.254777
O O4 0.000000 0.579207 0.000000
O O5 0.750000 0.252969 0.632801
O O6 0.992745 0.209729 0.751148
O O7 0.000000 0.233896 0.500000
O O8 0.997761 0.306352 0.686196
O O9 0.750000 0.171080 0.868295
O O10 0.517597 0.110210 0.793897
O O11 0.500000 0.177508 0.000000
O O12 0.500000 0.378500 0.500000
O O13 0.750000 0.356672 0.367830
O O14 0.750000 0.055553 0.870268
O O15 0.979848 0.000000 0.780521
O O16 0.000000 0.052452 0.000000
#
# Coordination Sequence:
#
# PCOD8211237 Si02
#       5
#     8   8   8   8   8
#     4   9  19  35  53  74 100 128 157 190 230 276
#     4  10  20  34  50  68  93 125 160 194 232 278
#     4   9  18  30  46  70  95 120 153 192 233 278
#     4  10  20  34  52  73  96 123 158 196 233 275
#     4   8  13  23  40  62  88 116 146 183 227 272
#
# _framework density 17.723949000000001
#
# number of rings (size 3 to 8) (size 9 to 14) (size 15 to 20)
#    0.000    2.800    0.000    2.400    0.000    4.400 
#    0.000    4.000    0.000    0.600    0.000    0.000 
#    0.000    0.000    0.000    0.000    0.000    0.800 
#
# Total GULP energy -495535.122586 kJ/mol
# GULP energy per Si atom -12388.378065 kJ/mol
# Density = 1.768361 g / cm^3
# Si number density = 17.723949 Si / 1000 Ang^3
#
#
#
# Elastic Constant Matrix: (Units=GPa)
#
#
# Indices 1 2 3 4 5 6 
#
# 1 38.0980 34.3172 28.8166 0.0000 0.0000 0.0000
# 2 34.3172 164.7209 108.0689 0.0000 0.0000 0.0000
# 3 28.8166 108.0689 113.9089 0.0000 0.0000 0.0000
# 4 0.0000 0.0000 0.0000 17.0871 0.0000 0.0000
# 5 0.0000 0.0000 0.0000 0.0000 24.4868 0.0000
# 6 0.0000 0.0000 0.0000 0.0000 0.0000 19.2372
#
#
#
# Elastic Compliance Matrix: (Units=1/GPa)
#
#
# Indices 1 2 3 4 5 6 
#
# 1 0.033306 -0.003737 -0.004880 0.000000 0.000000 0.000000
# 2 -0.003737 0.016498 -0.014707 0.000000 0.000000 0.000000
# 3 -0.004880 -0.014707 0.023967 0.000000 0.000000 0.000000
# 4 0.000000 0.000000 0.000000 0.058524 0.000000 0.000000
# 5 0.000000 0.000000 0.000000 0.000000 0.040838 0.000000
# 6 0.000000 0.000000 0.000000 0.000000 0.000000 0.051983
#
#
# Mechanical properties :
#
#
# Convention : Reuss Voigt Hill
#
# Bulk Modulus (GPa) = 36.87057 73.23703 55.05380
# Shear Modulus (GPa) = 17.80598 21.86389 19.83494
#
# Velocity S-wave (km/s) = 3.17303 3.51604 3.34893
# Velocity P-wave (km/s) = 5.85423 7.60882 6.78845
#
# Compressibility (1/GPa) = 0.02712191
#
# Stress axis : x y z
#
# Youngs Moduli (GPa) = 30.02502 60.61214 41.72464
#
# Poissons Ratio (x) = 0.22650 0.20363
# Poissons Ratio (y) = 0.11220 0.61365
# Poissons Ratio (z) = 0.14653 0.89143
#
# Static dielectric constant tensor:
#      x y z
#    x 3.224570 0.000000 0.000000 
#    y 0.000000 4.031410 0.000000 
#    z 0.000000 0.000000 3.132230 
# 
# 
# High freq. dielectric constant tensor:
#      x y z
#    x 1.685690 0.000000 0.000000 
#    y 0.000000 1.707520 0.000000 
#    z 0.000000 0.000000 1.654470 
# 
# From -- ./inp_files/5476.got.cif
#   From: 2010.03.12/outbox.cif.g09.slc.cpg/sg51_3_cif.got.tgz:5476.got - 2010.04.16 13:43:02.
