data_PCOD8211538
_publ_section_title
;
Structure prediction by ZEFSAII (Michael W. Deem and Ramdas Pophale) SiO2 
 PCOD8211538
Probable space group: P M M A
;
_chemical_formula_sum "Si O2"
_cell_formula_units_Z 56
_cell_length_a 22.764776
_cell_length_b 8.689339
_cell_length_c 14.869053
_cell_angle_alpha 90.000000
_cell_angle_beta 90.000000
_cell_angle_gamma 90.000000
_cell_volume 2941.260101
_symmetry_space_group_name_H-M "P M M A"
_symmetry_group_IT_number 51
_symmetry_cell_setting 'orthorhombic'
loop_
_space_group_symop_operation_xyz
x,y,z
1/2-x,-y,z
1/2+x,-y,-z
-x,y,-z
-x,-y,-z
1/2+x,y,-z
1/2-x,y,z
x,-y,z
loop_
_atom_site_type_symbol
_atom_site_label
_atom_site_fract_x
_atom_site_fract_y
_atom_site_fract_z
Si Si1 0.577923 0.681825 0.581939
Si Si2 0.414341 0.180627 0.794797
Si Si3 0.640591 0.818787 0.880173
Si Si4 0.946833 0.682317 0.382717
Si Si5 0.184339 0.680640 0.297971
Si Si6 0.314838 0.817702 0.929220
Si Si7 0.517984 0.679815 0.901051
O O1 0.582350 0.500000 0.581826
O O2 0.515727 0.729667 0.626566
O O3 0.578675 0.737959 0.478649
O O4 0.633857 0.751651 0.636240
O O5 0.408665 0.224447 0.690220
O O6 0.355678 0.233519 0.846560
O O7 0.466508 0.283596 0.832707
O O8 0.426694 0.000000 0.808460
O O9 0.680197 0.751354 0.801037
O O10 0.573545 0.772356 0.865198
O O11 0.647318 0.000000 0.878159
O O12 0.661699 0.750472 0.976120
O O13 0.939183 0.500000 0.369865
O O14 0.250000 0.717032 0.335750
O O15 0.174229 0.500000 0.289086
O O16 0.250000 0.751120 0.910490
O O17 0.313341 0.000000 0.936517
O O18 0.532647 0.500000 0.900379
O O19 0.500000 0.737958 0.000000
#
# Coordination Sequence:
#
# PCOD8211538 Si02
#       7
#     8   8   8   8   8   8   8
#     4   8  16  33  55  76 101 138 178 216 269 333
#     4  11  21  34  54  80 109 140 178 221 266 317
#     4  11  21  35  56  79 107 142 184 226 267 319
#     4   9  17  33  57  79 102 136 177 222 273 326
#     4  10  20  34  53  79 111 146 185 229 276 329
#     4   9  19  35  52  70 100 144 184 214 252 309
#     4  11  22  35  53  78 110 142 175 218 271 322
#
# _framework density 19.039459000000001
#
# number of rings (size 3 to 8) (size 9 to 14) (size 15 to 20)
#    0.000    2.143    1.429    3.429    0.000    2.571 
#    0.000    2.857    0.000    5.143    0.000    0.000 
#    0.000    0.000    0.000    0.000    0.000    0.000 
#
# Total GULP energy -694355.734201 kJ/mol
# GULP energy per Si atom -12399.209539 kJ/mol
# Density = 1.899612 g / cm^3
# Si number density = 19.039459 Si / 1000 Ang^3
#
#
#
# Elastic Constant Matrix: (Units=GPa)
#
#
# Indices 1 2 3 4 5 6 
#
# 1 137.0512 22.0692 68.2288 0.0000 0.0000 0.0000
# 2 22.0692 22.4245 23.8454 0.0000 0.0000 0.0000
# 3 68.2288 23.8454 134.5611 0.0000 0.0000 0.0000
# 4 0.0000 0.0000 0.0000 27.4808 0.0000 0.0000
# 5 0.0000 0.0000 0.0000 0.0000 29.6355 0.0000
# 6 0.0000 0.0000 0.0000 0.0000 0.0000 11.7665
#
#
#
# Elastic Compliance Matrix: (Units=1/GPa)
#
#
# Indices 1 2 3 4 5 6 
#
# 1 0.010311 -0.005653 -0.004226 0.000000 0.000000 0.000000
# 2 -0.005653 0.058048 -0.007420 0.000000 0.000000 0.000000
# 3 -0.004226 -0.007420 0.010889 0.000000 0.000000 0.000000
# 4 0.000000 0.000000 0.000000 0.036389 0.000000 0.000000
# 5 0.000000 0.000000 0.000000 0.000000 0.033743 0.000000
# 6 0.000000 0.000000 0.000000 0.000000 0.000000 0.084987
#
#
# Mechanical properties :
#
#
# Convention : Reuss Voigt Hill
#
# Bulk Modulus (GPa) = 22.39702 58.03595 40.21649
# Shear Modulus (GPa) = 17.61495 25.76947 21.69221
#
# Velocity S-wave (km/s) = 3.04498 3.68295 3.37906
# Velocity P-wave (km/s) = 4.91442 6.97378 6.03263
#
# Compressibility (1/GPa) = 0.04464880
#
# Stress axis : x y z
#
# Youngs Moduli (GPa) = 96.98490 17.22710 91.83253
#
# Poissons Ratio (x) = 0.09739 0.38811
# Poissons Ratio (y) = 0.54830 0.68141
# Poissons Ratio (z) = 0.40988 0.12783
#
# Static dielectric constant tensor:
#      x y z
#    x 3.751510 0.000000 0.000000 
#    y 0.000000 3.128560 0.000000 
#    z 0.000000 0.000000 3.745640 
# 
# 
# High freq. dielectric constant tensor:
#      x y z
#    x 1.738360 0.000000 0.000000 
#    y 0.000000 1.710510 0.000000 
#    z 0.000000 0.000000 1.744890 
# 
# From -- ./inp_files/25787.got.cif
#   From: 2010.03.12/outbox.cif.g09.slc.cpg/sg51_13_cif.got.tgz:25787.got - 2010.04.16 13:43:02.
