data_PCOD8211920
_publ_section_title
;
Structure prediction by ZEFSAII (Michael W. Deem and Ramdas Pophale) SiO2 
 PCOD8211920
Probable space group: P M M A
;
_chemical_formula_sum "Si O2"
_cell_formula_units_Z 48
_cell_length_a 8.718170
_cell_length_b 24.243112
_cell_length_c 13.626529
_cell_angle_alpha 90.000000
_cell_angle_beta 90.000000
_cell_angle_gamma 90.000000
_cell_volume 2880.042828
_symmetry_space_group_name_H-M "P M M A"
_symmetry_group_IT_number 51
_symmetry_cell_setting 'orthorhombic'
loop_
_space_group_symop_operation_xyz
x,y,z
1/2-x,-y,z
1/2+x,-y,-z
-x,y,-z
-x,-y,-z
1/2+x,y,-z
1/2-x,y,z
x,-y,z
loop_
_atom_site_type_symbol
_atom_site_label
_atom_site_fract_x
_atom_site_fract_y
_atom_site_fract_z
Si Si1 0.428671 0.062347 0.779122
Si Si2 0.428284 0.834473 0.897695
Si Si3 0.568770 0.669463 0.608623
Si Si4 0.429434 0.559729 0.606879
Si Si5 0.068877 0.120993 0.397778
Si Si6 0.068630 0.774745 0.701925
O O1 0.250000 0.072452 0.753679
O O2 0.480566 0.103754 0.865909
O O3 0.526406 0.074916 0.682304
O O4 0.460439 0.000000 0.814028
O O5 0.250000 0.833042 0.914634
O O6 0.476819 0.791626 0.812830
O O7 0.500000 0.816346 0.000000
O O8 0.500000 0.677048 0.500000
O O9 0.750000 0.671328 0.601176
O O10 0.513780 0.611470 0.658455
O O11 0.510131 0.716800 0.680485
O O12 0.500000 0.555187 0.500000
O O13 0.250000 0.573009 0.599007
O O14 0.456262 0.500000 0.660392
O O15 0.250000 0.127818 0.404865
O O16 0.000000 0.099919 0.500000
O O17 0.994058 0.179814 0.373020
O O18 0.250000 0.770228 0.687843
#
# Coordination Sequence:
#
# PCOD8211920 Si02
#       6
#     8   8   8   8   8   8
#     4   9  19  36  53  70  94 122 152 185 222 267
#     4   9  19  34  53  73  93 118 145 182 231 279
#     4  11  20  29  44  67  95 128 163 198 234 271
#     4   9  16  26  40  59  87 125 165 200 232 267
#     4  11  21  33  49  69  93 122 155 189 228 271
#     4  10  20  35  50  67  93 122 154 191 231 274
#
# _framework density 16.666419999999999
#
# number of rings (size 3 to 8) (size 9 to 14) (size 15 to 20)
#    0.000    2.167    0.000    6.500    0.000    5.333 
#    0.000    0.000    0.000    0.000    0.000    0.000 
#    0.000    0.667    0.000    2.167    0.000    3.000 
#
# Total GULP energy -595031.715175 kJ/mol
# GULP energy per Si atom -12396.494066 kJ/mol
# Density = 1.662849 g / cm^3
# Si number density = 16.666420 Si / 1000 Ang^3
#
#
#
# Elastic Constant Matrix: (Units=GPa)
#
#
# Indices 1 2 3 4 5 6 
#
# 1 104.1027 50.4297 35.5732 0.0000 0.0000 0.0000
# 2 50.4297 130.6758 36.1264 0.0000 0.0000 0.0000
# 3 35.5732 36.1264 81.9488 0.0000 0.0000 0.0000
# 4 0.0000 0.0000 0.0000 10.1484 0.0000 0.0000
# 5 0.0000 0.0000 0.0000 0.0000 24.7927 0.0000
# 6 0.0000 0.0000 0.0000 0.0000 0.0000 27.2858
#
#
#
# Elastic Compliance Matrix: (Units=1/GPa)
#
#
# Indices 1 2 3 4 5 6 
#
# 1 0.012798 -0.003875 -0.003847 0.000000 0.000000 0.000000
# 2 -0.003875 0.009888 -0.002677 0.000000 0.000000 0.000000
# 3 -0.003847 -0.002677 0.015053 0.000000 0.000000 0.000000
# 4 0.000000 0.000000 0.000000 0.098538 0.000000 0.000000
# 5 0.000000 0.000000 0.000000 0.000000 0.040334 0.000000
# 6 0.000000 0.000000 0.000000 0.000000 0.000000 0.036649
#
#
# Mechanical properties :
#
#
# Convention : Reuss Voigt Hill
#
# Bulk Modulus (GPa) = 59.03078 62.33177 60.68127
# Shear Modulus (GPa) = 20.85898 25.41858 23.13878
#
# Velocity S-wave (km/s) = 3.54157 3.90954 3.73010
# Velocity P-wave (km/s) = 7.22631 7.60658 7.41888
#
# Compressibility (1/GPa) = 0.01694031
#
# Stress axis : x y z
#
# Youngs Moduli (GPa) = 78.13870 101.13165 66.43302
#
# Poissons Ratio (x) = 0.39192 0.25557
# Poissons Ratio (y) = 0.30281 0.17783
# Poissons Ratio (z) = 0.30060 0.27071
#
# Static dielectric constant tensor:
#      x y z
#    x 3.252560 0.000000 0.000000 
#    y 0.000000 3.612020 0.000000 
#    z 0.000000 0.000000 2.935450 
# 
# 
# High freq. dielectric constant tensor:
#      x y z
#    x 1.655950 0.000000 0.000000 
#    y 0.000000 1.647970 0.000000 
#    z 0.000000 0.000000 1.598770 
# 
# From -- ./inp_files/14449.got.cif
#   From: 2010.03.12/outbox.cif.g09.slc.cpg/sg51_8_cif.got.tgz:14449.got - 2010.04.16 13:43:02.
