data_PCOD8211753
_publ_section_title
;
Structure prediction by ZEFSAII (Michael W. Deem and Ramdas Pophale) SiO2 
 PCOD8211753
Probable space group: P M M A
;
_chemical_formula_sum "Si O2"
_cell_formula_units_Z 52
_cell_length_a 9.167075
_cell_length_b 21.438752
_cell_length_c 13.914910
_cell_angle_alpha 90.000000
_cell_angle_beta 90.000000
_cell_angle_gamma 90.000000
_cell_volume 2734.706272
_symmetry_space_group_name_H-M "P M M A"
_symmetry_group_IT_number 51
_symmetry_cell_setting 'orthorhombic'
loop_
_space_group_symop_operation_xyz
x,y,z
1/2-x,-y,z
1/2+x,-y,-z
-x,y,-z
-x,-y,-z
1/2+x,y,-z
1/2-x,y,z
x,-y,z
loop_
_atom_site_type_symbol
_atom_site_label
_atom_site_fract_x
_atom_site_fract_y
_atom_site_fract_z
Si Si1 0.418828 0.572208 0.097193
Si Si2 0.423710 0.930631 0.212760
Si Si3 0.080911 0.135208 0.401710
Si Si4 0.420520 0.500000 0.599803
Si Si5 0.578871 0.186629 0.902092
Si Si6 0.077840 0.619293 0.723127
Si Si7 0.417958 0.259250 0.289596
O O1 0.250000 0.590233 0.087255
O O2 0.439963 0.500000 0.123958
O O3 0.493842 0.614123 0.176919
O O4 0.500000 0.589122 0.000000
O O5 0.250000 0.927555 0.215490
O O6 0.480026 0.910675 0.318470
O O7 0.478184 0.881857 0.131852
O O8 0.481353 0.000000 0.187742
O O9 0.250000 0.122827 0.419991
O O10 0.053460 0.205839 0.367737
O O11 0.000000 0.120392 0.500000
O O12 0.250000 0.500000 0.580403
O O13 0.500000 0.500000 0.500000
O O14 0.468887 0.438264 0.656467
O O15 0.750000 0.185223 0.922422
O O16 0.542052 0.235594 0.817631
O O17 0.500000 0.206903 0.000000
O O18 0.250000 0.620040 0.740713
O O19 0.022743 0.684127 0.677874
O O20 0.250000 0.281013 0.292606
#
# Coordination Sequence:
#
# PCOD8211753 Si02
#       7
#     8   8   8   4   8   8   8
#     4  10  20  34  55  81 108 140 172 206 253 311
#     4   8  15  30  51  75 105 142 178 210 255 316
#     4   9  18  33  53  75 102 136 174 220 267 315
#     4  10  24  42  59  80 107 136 171 216 266 322
#     4   9  18  33  53  76 105 140 178 218 256 301
#     4  11  22  38  58  81 109 138 173 222 272 318
#     4   9  20  37  53  73 103 140 179 214 259 321
#
# _framework density 19.014838999999998
#
# number of rings (size 3 to 8) (size 9 to 14) (size 15 to 20)
#    0.000    2.615    0.769    2.769    0.000    4.923 
#    0.000    6.923    0.000    0.923    0.000    0.000 
#    0.000    0.000    0.000    0.000    0.000    0.000 
#
# Total GULP energy -644752.107849 kJ/mol
# GULP energy per Si atom -12399.078997 kJ/mol
# Density = 1.897156 g / cm^3
# Si number density = 19.014839 Si / 1000 Ang^3
#
#
#
# Elastic Constant Matrix: (Units=GPa)
#
#
# Indices 1 2 3 4 5 6 
#
# 1 55.8091 26.3796 24.9744 0.0000 0.0000 0.0000
# 2 26.3796 92.2724 11.9016 0.0000 0.0000 0.0000
# 3 24.9744 11.9016 69.8300 0.0000 0.0000 0.0000
# 4 0.0000 0.0000 0.0000 13.0893 0.0000 0.0000
# 5 0.0000 0.0000 0.0000 0.0000 36.6709 0.0000
# 6 0.0000 0.0000 0.0000 0.0000 0.0000 21.5614
#
#
#
# Elastic Compliance Matrix: (Units=1/GPa)
#
#
# Indices 1 2 3 4 5 6 
#
# 1 0.024123 -0.005914 -0.007620 0.000000 0.000000 0.000000
# 2 -0.005914 0.012531 -0.000021 0.000000 0.000000 0.000000
# 3 -0.007620 -0.000021 0.017049 0.000000 0.000000 0.000000
# 4 0.000000 0.000000 0.000000 0.076398 0.000000 0.000000
# 5 0.000000 0.000000 0.000000 0.000000 0.027270 0.000000
# 6 0.000000 0.000000 0.000000 0.000000 0.000000 0.046379
#
#
# Mechanical properties :
#
#
# Convention : Reuss Voigt Hill
#
# Bulk Modulus (GPa) = 37.60099 38.26920 37.93509
# Shear Modulus (GPa) = 20.85735 24.57471 22.71603
#
# Velocity S-wave (km/s) = 3.31554 3.59889 3.46012
# Velocity P-wave (km/s) = 5.87150 6.11874 5.99640
#
# Compressibility (1/GPa) = 0.02659505
#
# Stress axis : x y z
#
# Youngs Moduli (GPa) = 41.45364 79.80318 58.65383
#
# Poissons Ratio (x) = 0.47194 0.44692
# Poissons Ratio (y) = 0.24515 0.00121
# Poissons Ratio (z) = 0.31586 0.00165
#
# Static dielectric constant tensor:
#      x y z
#    x 3.230170 0.000000 0.000000 
#    y 0.000000 3.646810 0.000000 
#    z 0.000000 0.000000 3.354100 
# 
# 
# High freq. dielectric constant tensor:
#      x y z
#    x 1.719190 0.000000 0.000000 
#    y 0.000000 1.743360 0.000000 
#    z 0.000000 0.000000 1.735980 
# 
# From -- ./inp_files/21569.got.cif
#   From: 2010.03.12/outbox.cif.g09.slc.cpg/sg51_11_cif.got.tgz:21569.got - 2010.04.16 13:43:02.
