data_PCOD8211552
_publ_section_title
;
Structure prediction by ZEFSAII (Michael W. Deem and Ramdas Pophale) SiO2 
 PCOD8211552
Probable space group: P M M A
;
_chemical_formula_sum "Si O2"
_cell_formula_units_Z 48
_cell_length_a 18.449869
_cell_length_b 9.218196
_cell_length_c 14.720096
_cell_angle_alpha 90.000000
_cell_angle_beta 90.000000
_cell_angle_gamma 90.000000
_cell_volume 2503.513094
_symmetry_space_group_name_H-M "P M M A"
_symmetry_group_IT_number 51
_symmetry_cell_setting 'orthorhombic'
loop_
_space_group_symop_operation_xyz
x,y,z
1/2-x,-y,z
1/2+x,-y,-z
-x,y,-z
-x,-y,-z
1/2+x,y,-z
1/2-x,y,z
x,-y,z
loop_
_atom_site_type_symbol
_atom_site_label
_atom_site_fract_x
_atom_site_fract_y
_atom_site_fract_z
Si Si1 0.053873 0.331563 0.635057
Si Si2 0.334192 0.329138 0.964728
Si Si3 0.897030 0.666661 0.558209
Si Si4 0.831276 0.836305 0.707717
Si Si5 0.919276 0.169620 0.878255
Si Si6 0.419926 0.169641 0.818865
O O1 0.059578 0.500000 0.664090
O O2 0.106006 0.297948 0.549076
O O3 0.076615 0.228725 0.716883
O O4 0.973669 0.291923 0.602525
O O5 0.250000 0.295654 0.985201
O O6 0.348513 0.500000 0.958223
O O7 0.355959 0.254760 0.869796
O O8 0.385166 0.262822 0.041826
O O9 0.880362 0.500000 0.573874
O O10 0.836037 0.754033 0.612057
O O11 0.750000 0.823801 0.745490
O O12 0.884357 0.772348 0.784533
O O13 0.854215 0.000000 0.687670
O O14 0.005158 0.196102 0.873203
O O15 0.901140 0.000000 0.894574
O O16 0.401366 0.000000 0.815080
#
# Coordination Sequence:
#
# PCOD8211552 Si02
#       6
#     8   8   8   8   8   8
#     4   9  18  34  56  82 112 146 184 230 280 327
#     4  11  25  42  59  82 113 150 190 233 284 338
#     4   9  18  33  54  80 111 147 187 229 276 330
#     4  10  20  34  53  80 117 155 188 230 284 337
#     4  10  21  38  59  85 115 148 187 232 284 339
#     4  11  22  37  61  90 114 145 189 235 283 337
#
# _framework density 19.173058000000001
#
# number of rings (size 3 to 8) (size 9 to 14) (size 15 to 20)
#    0.000    2.000    1.667    3.000    0.000    7.000 
#    0.000    2.500    0.000    1.000    0.000    0.000 
#    0.000    0.000    0.000    0.000    0.000    0.000 
#
# Total GULP energy -595231.158761 kJ/mol
# GULP energy per Si atom -12400.649141 kJ/mol
# Density = 1.912942 g / cm^3
# Si number density = 19.173058 Si / 1000 Ang^3
#
#
#
# Elastic Constant Matrix: (Units=GPa)
#
#
# Indices 1 2 3 4 5 6 
#
# 1 47.9903 31.5347 26.2071 0.0000 0.0000 0.0000
# 2 31.5347 83.5459 58.9445 0.0000 0.0000 0.0000
# 3 26.2071 58.9445 111.6947 0.0000 0.0000 0.0000
# 4 0.0000 0.0000 0.0000 29.3034 0.0000 0.0000
# 5 0.0000 0.0000 0.0000 0.0000 20.2974 0.0000
# 6 0.0000 0.0000 0.0000 0.0000 0.0000 24.3812
#
#
#
# Elastic Compliance Matrix: (Units=1/GPa)
#
#
# Indices 1 2 3 4 5 6 
#
# 1 0.027883 -0.009414 -0.001574 0.000000 0.000000 0.000000
# 2 -0.009414 0.022248 -0.009532 0.000000 0.000000 0.000000
# 3 -0.001574 -0.009532 0.014353 0.000000 0.000000 0.000000
# 4 0.000000 0.000000 0.000000 0.034126 0.000000 0.000000
# 5 0.000000 0.000000 0.000000 0.000000 0.049267 0.000000
# 6 0.000000 0.000000 0.000000 0.000000 0.000000 0.041015
#
#
# Mechanical properties :
#
#
# Convention : Reuss Voigt Hill
#
# Bulk Modulus (GPa) = 42.65609 52.95595 47.80602
# Shear Modulus (GPa) = 21.03074 23.23270 22.13172
#
# Velocity S-wave (km/s) = 3.31553 3.48478 3.40120
# Velocity P-wave (km/s) = 6.07891 6.62356 6.35707
#
# Compressibility (1/GPa) = 0.02344331
#
# Stress axis : x y z
#
# Youngs Moduli (GPa) = 35.86392 44.94787 69.67314
#
# Poissons Ratio (x) = 0.42313 0.10969
# Poissons Ratio (y) = 0.33762 0.66413
# Poissons Ratio (z) = 0.05646 0.42845
#
# Static dielectric constant tensor:
#      x y z
#    x 3.385140 0.000000 0.000000 
#    y 0.000000 3.452720 0.000000 
#    z 0.000000 0.000000 3.624530 
# 
# 
# High freq. dielectric constant tensor:
#      x y z
#    x 1.730910 0.000000 0.000000 
#    y 0.000000 1.743860 0.000000 
#    z 0.000000 0.000000 1.754170 
# 
# From -- ./inp_files/24711.got.cif
#   From: 2010.03.12/outbox.cif.g09.slc.cpg/sg51_13_cif.got.tgz:24711.got - 2010.04.16 13:43:02.
