data_PCOD8211318
_publ_section_title
;
Structure prediction by ZEFSAII (Michael W. Deem and Ramdas Pophale) SiO2 
 PCOD8211318
Probable space group: P M M A
;
_chemical_formula_sum "Si O2"
_cell_formula_units_Z 64
_cell_length_a 18.244200
_cell_length_b 9.027123
_cell_length_c 20.429623
_cell_angle_alpha 90.000000
_cell_angle_beta 90.000000
_cell_angle_gamma 90.000000
_cell_volume 3364.608494
_symmetry_space_group_name_H-M "P M M A"
_symmetry_group_IT_number 51
_symmetry_cell_setting 'orthorhombic'
loop_
_space_group_symop_operation_xyz
x,y,z
1/2-x,-y,z
1/2+x,-y,-z
-x,y,-z
-x,-y,-z
1/2+x,y,-z
1/2-x,y,z
x,-y,z
loop_
_atom_site_type_symbol
_atom_site_label
_atom_site_fract_x
_atom_site_fract_y
_atom_site_fract_z
Si Si1 0.408976 0.675656 0.680747
Si Si2 0.575351 0.675585 0.697199
Si Si3 0.091459 0.824741 0.065724
Si Si4 0.573149 0.824451 0.078897
Si Si5 0.334929 0.828479 0.799606
Si Si6 0.333741 0.671858 0.180794
Si Si7 0.834617 0.671220 0.573253
Si Si8 0.834684 0.826657 0.438926
O O1 0.403009 0.500000 0.677440
O O2 0.491403 0.728541 0.696786
O O3 0.354701 0.735930 0.735759
O O4 0.386114 0.741344 0.611371
O O5 0.582358 0.500000 0.698018
O O6 0.614955 0.739733 0.761972
O O7 0.616543 0.734309 0.632584
O O8 0.151378 0.752055 0.112289
O O9 0.010534 0.772287 0.088240
O O10 0.099133 0.000000 0.070455
O O11 0.104708 0.769525 0.991086
O O12 0.621362 0.761106 0.138399
O O13 0.576615 0.000000 0.078836
O O14 0.250000 0.808551 0.815249
O O15 0.354848 0.000000 0.786916
O O16 0.250000 0.699001 0.201424
O O17 0.350657 0.500000 0.170500
O O18 0.750000 0.690425 0.593147
O O19 0.852475 0.500000 0.557446
O O20 0.855063 0.768863 0.510650
O O21 0.750000 0.792054 0.422455
O O22 0.851229 0.000000 0.434877
#
# Coordination Sequence:
#
# PCOD8211318 Si02
#       8
#     8   8   8   8   8   8   8   8
#     4  11  22  35  53  76 102 132 169 212 252 296
#     4   9  19  35  54  76 102 134 170 207 251 301
#     4   9  17  32  54  77 102 133 171 212 251 299
#     4   8  16  32  53  76 102 134 170 208 254 305
#     4  10  20  34  52  73  99 133 171 210 254 303
#     4  10  20  34  52  75 105 138 170 207 254 306
#     4   9  17  33  58  81 100 129 170 209 243 288
#     4  10  21  37  55  76 105 137 166 201 249 302
#
# _framework density 19.021529999999998
#
# number of rings (size 3 to 8) (size 9 to 14) (size 15 to 20)
#    0.000    2.500    0.000    3.000    0.000    5.250 
#    0.000    8.125    0.000    1.500    0.000    0.000 
#    0.000    0.000    0.000    0.000    0.000    0.000 
#
# Total GULP energy -793678.554118 kJ/mol
# GULP energy per Si atom -12401.227408 kJ/mol
# Density = 1.897824 g / cm^3
# Si number density = 19.021530 Si / 1000 Ang^3
#
#
#
# Elastic Constant Matrix: (Units=GPa)
#
#
# Indices 1 2 3 4 5 6 
#
# 1 62.8134 26.2398 35.0948 0.0000 0.0000 0.0000
# 2 26.2398 47.1757 29.2989 0.0000 0.0000 0.0000
# 3 35.0948 29.2989 105.6505 0.0000 0.0000 0.0000
# 4 0.0000 0.0000 0.0000 28.1117 0.0000 0.0000
# 5 0.0000 0.0000 0.0000 0.0000 42.9042 0.0000
# 6 0.0000 0.0000 0.0000 0.0000 0.0000 22.8615
#
#
#
# Elastic Compliance Matrix: (Units=1/GPa)
#
#
# Indices 1 2 3 4 5 6 
#
# 1 0.022636 -0.009569 -0.004866 0.000000 0.000000 0.000000
# 2 -0.009569 0.029653 -0.005045 0.000000 0.000000 0.000000
# 3 -0.004866 -0.005045 0.012480 0.000000 0.000000 0.000000
# 4 0.000000 0.000000 0.000000 0.035572 0.000000 0.000000
# 5 0.000000 0.000000 0.000000 0.000000 0.023308 0.000000
# 6 0.000000 0.000000 0.000000 0.000000 0.000000 0.043742
#
#
# Mechanical properties :
#
#
# Convention : Reuss Voigt Hill
#
# Bulk Modulus (GPa) = 38.74309 44.10074 41.42192
# Shear Modulus (GPa) = 23.26099 27.10922 25.18510
#
# Velocity S-wave (km/s) = 3.50076 3.77926 3.64267
# Velocity P-wave (km/s) = 6.06240 6.50221 6.28615
#
# Compressibility (1/GPa) = 0.02581105
#
# Stress axis : x y z
#
# Youngs Moduli (GPa) = 44.17775 33.72380 80.12544
#
# Poissons Ratio (x) = 0.32269 0.38986
# Poissons Ratio (y) = 0.42272 0.40421
# Poissons Ratio (z) = 0.21495 0.17013
#
# Static dielectric constant tensor:
#      x y z
#    x 3.544640 0.000000 0.000000 
#    y 0.000000 3.170720 0.000000 
#    z 0.000000 0.000000 3.703470 
# 
# 
# High freq. dielectric constant tensor:
#      x y z
#    x 1.740330 0.000000 0.000000 
#    y 0.000000 1.708430 0.000000 
#    z 0.000000 0.000000 1.753910 
# 
# From -- ./inp_files/33862.got.cif
#   From: 2010.03.12/outbox.cif.g09.slc.cpg/sg51_17_cif.got.tgz:33862.got - 2010.04.16 13:43:02.
