data_PCOD8211222
_publ_section_title
;
Structure prediction by ZEFSAII (Michael W. Deem and Ramdas Pophale) SiO2 
 PCOD8211222
Probable space group: P M M A
;
_chemical_formula_sum "Si O2"
_cell_formula_units_Z 64
_cell_length_a 17.869966
_cell_length_b 21.172087
_cell_length_c 8.541702
_cell_angle_alpha 90.000000
_cell_angle_beta 90.000000
_cell_angle_gamma 90.000000
_cell_volume 3231.705757
_symmetry_space_group_name_H-M "P M M A"
_symmetry_group_IT_number 51
_symmetry_cell_setting 'orthorhombic'
loop_
_space_group_symop_operation_xyz
x,y,z
1/2-x,-y,z
1/2+x,-y,-z
-x,y,-z
-x,-y,-z
1/2+x,y,-z
1/2-x,y,z
x,-y,z
loop_
_atom_site_type_symbol
_atom_site_label
_atom_site_fract_x
_atom_site_fract_y
_atom_site_fract_z
Si Si1 0.569271 0.150982 0.901705
Si Si2 0.976829 0.926741 0.334961
Si Si3 0.167000 0.615999 0.098252
Si Si4 0.566321 0.570443 0.657909
Si Si5 0.420938 0.309985 0.543875
Si Si6 0.336501 0.073398 0.857954
Si Si7 0.334499 0.252955 0.273712
Si Si8 0.949371 0.355518 0.138170
O O1 0.531946 0.097111 0.798256
O O2 0.607606 0.202483 0.791767
O O3 0.500000 0.181578 0.000000
O O4 0.634335 0.118653 0.004297
O O5 0.889236 0.913527 0.293791
O O6 0.000000 0.894532 0.500000
O O7 0.992980 0.000000 0.345316
O O8 0.250000 0.597322 0.051082
O O9 0.140846 0.569605 0.236294
O O10 0.159693 0.687558 0.159526
O O11 0.119089 0.607646 0.940851
O O12 0.550048 0.500000 0.596422
O O13 0.577351 0.615909 0.508443
O O14 0.500247 0.594866 0.769813
O O15 0.500000 0.277886 0.500000
O O16 0.356202 0.272418 0.452452
O O17 0.414353 0.306233 0.733926
O O18 0.250000 0.090226 0.817917
O O19 0.343466 0.000000 0.909085
O O20 0.250000 0.226288 0.278815
O O21 0.000000 0.322873 0.000000
#
# Coordination Sequence:
#
# PCOD8211222 Si02
#       8
#     8   8   8   8   8   8   8   8
#     4  10  20  33  55  82 108 142 182 225 267 316
#     4   9  18  34  54  78 110 146 182 220 265 318
#     4   9  19  34  51  71  97 132 170 210 259 311
#     4   9  18  33  52  74 101 132 166 207 257 312
#     4   9  19  34  54  76  99 134 174 213 258 317
#     4   9  17  32  55  81 109 142 181 225 272 320
#     4  10  21  37  54  75 107 142 177 220 269 317
#     4   9  18  32  52  77 100 126 166 212 258 305
#
# _framework density 19.803782000000002
#
# number of rings (size 3 to 8) (size 9 to 14) (size 15 to 20)
#    0.000    2.750    0.000    1.500    0.000   10.750 
#    0.000    2.500    0.000    3.000    0.000    3.500 
#    0.000    0.000    0.000    0.000    0.000    0.125 
#
# Total GULP energy -793013.872401 kJ/mol
# GULP energy per Si atom -12390.841756 kJ/mol
# Density = 1.975871 g / cm^3
# Si number density = 19.803782 Si / 1000 Ang^3
#
#
#
# Elastic Constant Matrix: (Units=GPa)
#
#
# Indices 1 2 3 4 5 6 
#
# 1 137.7244 32.7225 57.9409 0.0000 0.0000 0.0000
# 2 32.7225 51.1961 27.4477 0.0000 0.0000 0.0000
# 3 57.9409 27.4477 132.3204 0.0000 0.0000 0.0000
# 4 0.0000 0.0000 0.0000 4.2894 0.0000 0.0000
# 5 0.0000 0.0000 0.0000 0.0000 28.4365 0.0000
# 6 0.0000 0.0000 0.0000 0.0000 0.0000 15.0043
#
#
#
# Elastic Compliance Matrix: (Units=1/GPa)
#
#
# Indices 1 2 3 4 5 6 
#
# 1 0.009715 -0.004420 -0.003337 0.000000 0.000000 0.000000
# 2 -0.004420 0.023988 -0.003040 0.000000 0.000000 0.000000
# 3 -0.003337 -0.003040 0.009649 0.000000 0.000000 0.000000
# 4 0.000000 0.000000 0.000000 0.233131 0.000000 0.000000
# 5 0.000000 0.000000 0.000000 0.000000 0.035166 0.000000
# 6 0.000000 0.000000 0.000000 0.000000 0.000000 0.066647
#
#
# Mechanical properties :
#
#
# Convention : Reuss Voigt Hill
#
# Bulk Modulus (GPa) = 45.96252 61.94034 53.95143
# Shear Modulus (GPa) = 12.28063 23.08802 17.68432
#
# Velocity S-wave (km/s) = 2.49291 3.41814 2.99151
# Velocity P-wave (km/s) = 5.61654 6.85005 6.26373
#
# Compressibility (1/GPa) = 0.02175686
#
# Stress axis : x y z
#
# Youngs Moduli (GPa) = 102.93288 41.68736 103.63378
#
# Poissons Ratio (x) = 0.18427 0.34584
# Poissons Ratio (y) = 0.45500 0.31508
# Poissons Ratio (z) = 0.34350 0.12674
#
# Static dielectric constant tensor:
#      x y z
#    x 3.833440 0.000000 0.000000 
#    y 0.000000 3.280620 0.000000 
#    z 0.000000 0.000000 3.862140 
# 
# 
# High freq. dielectric constant tensor:
#      x y z
#    x 1.775130 0.000000 0.000000 
#    y 0.000000 1.743940 0.000000 
#    z 0.000000 0.000000 1.773790 
# 
# From -- ./inp_files/10046.got.cif
#   From: 2010.03.12/outbox.cif.g09.slc.cpg/sg51_6_cif.got.tgz:10046.got - 2010.04.16 13:43:02.
