data_PCOD8211604
_publ_section_title
;
Structure prediction by ZEFSAII (Michael W. Deem and Ramdas Pophale) SiO2 
 PCOD8211604
Probable space group: P M M A
;
_chemical_formula_sum "Si O2"
_cell_formula_units_Z 48
_cell_length_a 9.196556
_cell_length_b 8.610732
_cell_length_c 31.564069
_cell_angle_alpha 90.000000
_cell_angle_beta 90.000000
_cell_angle_gamma 90.000000
_cell_volume 2499.529555
_symmetry_space_group_name_H-M "P M M A"
_symmetry_group_IT_number 51
_symmetry_cell_setting 'orthorhombic'
loop_
_space_group_symop_operation_xyz
x,y,z
1/2-x,-y,z
1/2+x,-y,-z
-x,y,-z
-x,-y,-z
1/2+x,y,-z
1/2-x,y,z
x,-y,z
loop_
_atom_site_type_symbol
_atom_site_label
_atom_site_fract_x
_atom_site_fract_y
_atom_site_fract_z
Si Si1 0.413072 0.686161 0.460278
Si Si2 0.922337 0.670212 0.629920
Si Si3 0.582547 0.818264 0.200479
Si Si4 0.913591 0.683759 0.877670
Si Si5 0.417209 0.314972 0.278024
Si Si6 0.914613 0.685199 0.041042
O O1 0.500000 0.756091 0.500000
O O2 0.250000 0.743909 0.467147
O O3 0.422386 0.500000 0.459157
O O4 0.474063 0.750989 0.414450
O O5 0.750000 0.651955 0.626559
O O6 0.994081 0.500000 0.631955
O O7 0.959263 0.752088 0.674881
O O8 0.750000 0.767273 0.196905
O O9 0.490754 0.728660 0.165580
O O10 0.523861 0.771581 0.246310
O O11 0.563425 0.000000 0.193361
O O12 0.750000 0.752276 0.878777
O O13 0.907055 0.500000 0.880671
O O14 0.004253 0.750857 0.917384
O O15 0.250000 0.273976 0.267038
O O16 0.439383 0.500000 0.275770
O O17 0.750000 0.749719 0.040410
O O18 0.913284 0.500000 0.041202
O O19 0.000000 0.747946 0.000000
#
# Coordination Sequence:
#
# PCOD8211604 Si02
#       6
#     8   8   8   8   8   8
#     4   8  12  18  29  47  75 111 145 175 211 259
#     4   7  11  21  37  57  82 112 145 182 225 271
#     4  11  24  38  50  68  97 130 161 196 242 294
#     4  10  20  34  54  79 103 129 165 205 242 283
#     4   9  17  31  52  74  93 118 157 201 241 284
#     4   9  16  27  46  74 107 138 166 199 238 278
#
# _framework density 19.203612
#
# number of rings (size 3 to 8) (size 9 to 14) (size 15 to 20)
#    0.000    3.000    0.000    4.000    0.000    6.667 
#    0.000    0.833    0.000    3.500    0.000    0.000 
#    0.000    0.667    0.000    1.500    0.000    4.333 
#
# Total GULP energy -594680.646182 kJ/mol
# GULP energy per Si atom -12389.180129 kJ/mol
# Density = 1.915990 g / cm^3
# Si number density = 19.203612 Si / 1000 Ang^3
#
#
#
# Elastic Constant Matrix: (Units=GPa)
#
#
# Indices 1 2 3 4 5 6 
#
# 1 125.6413 9.9355 74.4017 0.0000 0.0000 0.0000
# 2 9.9355 6.1049 1.5278 0.0000 0.0000 0.0000
# 3 74.4017 1.5278 178.2766 0.0000 0.0000 0.0000
# 4 0.0000 0.0000 0.0000 -3.0113 0.0000 0.0000
# 5 0.0000 0.0000 0.0000 0.0000 38.2315 0.0000
# 6 0.0000 0.0000 0.0000 0.0000 0.0000 13.2086
#
#
#
# Elastic Compliance Matrix: (Units=1/GPa)
#
#
# Indices 1 2 3 4 5 6 
#
# 1 0.012438 -0.018984 -0.005028 0.000000 0.000000 0.000000
# 2 -0.018984 0.193128 0.006268 0.000000 0.000000 0.000000
# 3 -0.005028 0.006268 0.007654 0.000000 0.000000 0.000000
# 4 0.000000 0.000000 0.000000 -0.332083 0.000000 0.000000
# 5 0.000000 0.000000 0.000000 0.000000 0.026156 0.000000
# 6 0.000000 0.000000 0.000000 0.000000 0.000000 0.075709
#
#
# Mechanical properties :
#
#
# Convention : Reuss Voigt Hill
#
# Bulk Modulus (GPa) = 5.62647 53.52809 29.57728
# Shear Modulus (GPa) = 64.32205 24.62961 44.47583
#
# Velocity S-wave (km/s) = 5.79375 3.58516 4.81772
# Velocity P-wave (km/s) = 6.90601 6.71359 6.81048
#
# Compressibility (1/GPa) = 0.17773134
#
# Stress axis : x y z
#
# Youngs Moduli (GPa) = 80.39946 5.17791 130.65099
#
# Poissons Ratio (x) = 0.09830 0.65693
# Poissons Ratio (y) = 1.52628 -0.81886
# Poissons Ratio (z) = 0.40426 -0.03245
#
# Static dielectric constant tensor:
#      x y z
#    x 3.521200 0.000000 0.000000 
#    y 0.000000 2.839330 0.000000 
#    z 0.000000 0.000000 4.061840 
# 
# 
# High freq. dielectric constant tensor:
#      x y z
#    x 1.731880 0.000000 0.000000 
#    y 0.000000 1.677590 0.000000 
#    z 0.000000 0.000000 1.777590 
# 
# From -- ./inp_files/37056.got.cif
#   From: 2010.03.12/outbox.cif.g09.slc.cpg/sg51_19_cif.got.tgz:37056.got - 2010.04.16 13:43:02.
