data_PCOD8211506
_publ_section_title
;
Structure prediction by ZEFSAII (Michael W. Deem and Ramdas Pophale) SiO2 
 PCOD8211506
Probable space group: P M M A
;
_chemical_formula_sum "Si O2"
_cell_formula_units_Z 64
_cell_length_a 9.403272
_cell_length_b 23.228549
_cell_length_c 15.129413
_cell_angle_alpha 90.000000
_cell_angle_beta 90.000000
_cell_angle_gamma 90.000000
_cell_volume 3304.632418
_symmetry_space_group_name_H-M "P M M A"
_symmetry_group_IT_number 51
_symmetry_cell_setting 'orthorhombic'
loop_
_space_group_symop_operation_xyz
x,y,z
1/2-x,-y,z
1/2+x,-y,-z
-x,y,-z
-x,-y,-z
1/2+x,y,-z
1/2-x,y,z
x,-y,z
loop_
_atom_site_type_symbol
_atom_site_label
_atom_site_fract_x
_atom_site_fract_y
_atom_site_fract_z
Si Si1 0.417220 0.861976 0.587396
Si Si2 0.586947 0.933659 0.727138
Si Si3 0.590578 0.562554 0.255808
Si Si4 0.583742 0.243426 0.913936
Si Si5 0.904366 0.434108 0.574554
Si Si6 0.912048 0.313761 0.223981
Si Si7 0.412552 0.728797 0.584469
Si Si8 0.587066 0.109792 0.916351
O O1 0.500000 0.882727 0.500000
O O2 0.250000 0.875109 0.576479
O O3 0.478497 0.896878 0.669702
O O4 0.447978 0.795178 0.606069
O O5 0.750000 0.912689 0.712373
O O6 0.544331 0.925798 0.829608
O O7 0.570391 0.000000 0.700836
O O8 0.750000 0.564129 0.296659
O O9 0.567800 0.500000 0.207104
O O10 0.476299 0.569450 0.331293
O O11 0.572556 0.618899 0.193784
O O12 0.750000 0.257082 0.925488
O O13 0.523989 0.276553 0.829523
O O14 0.553500 0.176526 0.897855
O O15 0.500000 0.265670 0.000000
O O16 0.750000 0.403619 0.579051
O O17 0.883142 0.500000 0.545892
O O18 0.000000 0.402543 0.500000
O O19 0.750000 0.291896 0.207396
O O20 0.949895 0.308376 0.328344
O O21 0.500000 0.706516 0.500000
O O22 0.250000 0.721647 0.557600
O O23 0.750000 0.100452 0.941227
O O24 0.500000 0.086245 0.000000
#
# Coordination Sequence:
#
# PCOD8211506 Si02
#       8
#     8   8   8   8   8   8   8   8
#     4  10  20  35  55  76 100 134 177 223 269 313
#     4  10  21  36  53  76 108 143 178 216 256 301
#     4   9  18  32  48  67  95 132 169 204 248 303
#     4  10  20  35  57  83 108 134 167 210 260 312
#     4   9  16  26  41  60  84 118 161 206 246 286
#     4  10  20  34  53  78 107 136 169 213 261 308
#     4   9  19  34  52  76 105 137 173 216 264 311
#     4   9  19  35  55  80 109 140 172 208 254 307
#
# _framework density 19.366752999999999
#
# number of rings (size 3 to 8) (size 9 to 14) (size 15 to 20)
#    0.000    2.500    0.000    1.875    0.000    5.250 
#    0.000    1.250    0.000    0.375    0.000    0.000 
#    0.000    0.000    0.000    0.000    0.000    0.000 
#
# Total GULP energy -793396.947025 kJ/mol
# GULP energy per Si atom -12396.827297 kJ/mol
# Density = 1.932267 g / cm^3
# Si number density = 19.366753 Si / 1000 Ang^3
#
#
#
# Elastic Constant Matrix: (Units=GPa)
#
#
# Indices 1 2 3 4 5 6 
#
# 1 101.9004 29.2728 36.2381 0.0000 0.0000 0.0000
# 2 29.2728 65.4160 23.6067 0.0000 0.0000 0.0000
# 3 36.2381 23.6067 67.1413 0.0000 0.0000 0.0000
# 4 0.0000 0.0000 0.0000 8.1974 0.0000 0.0000
# 5 0.0000 0.0000 0.0000 0.0000 38.5285 0.0000
# 6 0.0000 0.0000 0.0000 0.0000 0.0000 14.6396
#
#
#
# Elastic Compliance Matrix: (Units=1/GPa)
#
#
# Indices 1 2 3 4 5 6 
#
# 1 0.012894 -0.003732 -0.005647 0.000000 0.000000 0.000000
# 2 -0.003732 0.018588 -0.004521 0.000000 0.000000 0.000000
# 3 -0.005647 -0.004521 0.019532 0.000000 0.000000 0.000000
# 4 0.000000 0.000000 0.000000 0.121990 0.000000 0.000000
# 5 0.000000 0.000000 0.000000 0.000000 0.025955 0.000000
# 6 0.000000 0.000000 0.000000 0.000000 0.000000 0.068308
#
#
# Mechanical properties :
#
#
# Convention : Reuss Voigt Hill
#
# Bulk Modulus (GPa) = 43.07930 45.85479 44.46704
# Shear Modulus (GPa) = 16.51227 21.96241 19.23734
#
# Velocity S-wave (km/s) = 2.92311 3.37118 3.15511
# Velocity P-wave (km/s) = 5.80388 6.23551 6.02357
#
# Compressibility (1/GPa) = 0.02321301
#
# Stress axis : x y z
#
# Youngs Moduli (GPa) = 77.55669 53.79690 51.19922
#
# Poissons Ratio (x) = 0.20077 0.28912
# Poissons Ratio (y) = 0.28944 0.23149
# Poissons Ratio (z) = 0.43796 0.24324
#
# Static dielectric constant tensor:
#      x y z
#    x 3.652640 0.000000 0.000000 
#    y 0.000000 3.616190 0.000000 
#    z 0.000000 0.000000 3.273070 
# 
# 
# High freq. dielectric constant tensor:
#      x y z
#    x 1.760580 0.000000 0.000000 
#    y 0.000000 1.754260 0.000000 
#    z 0.000000 0.000000 1.725110 
# 
# From -- ./inp_files/22299.got.cif
#   From: 2010.03.12/outbox.cif.g09.slc.cpg/sg51_12_cif.got.tgz:22299.got - 2010.04.16 13:43:02.
