data_PCOD8211777
_publ_section_title
;
Structure prediction by ZEFSAII (Michael W. Deem and Ramdas Pophale) SiO2 
 PCOD8211777
Probable space group: P M M A
;
_chemical_formula_sum "Si O2"
_cell_formula_units_Z 44
_cell_length_a 9.123786
_cell_length_b 17.929511
_cell_length_c 14.180319
_cell_angle_alpha 90.000000
_cell_angle_beta 90.000000
_cell_angle_gamma 90.000000
_cell_volume 2319.687788
_symmetry_space_group_name_H-M "P M M A"
_symmetry_group_IT_number 51
_symmetry_cell_setting 'orthorhombic'
loop_
_space_group_symop_operation_xyz
x,y,z
1/2-x,-y,z
1/2+x,-y,-z
-x,y,-z
-x,-y,-z
1/2+x,y,-z
1/2-x,y,z
x,-y,z
loop_
_atom_site_type_symbol
_atom_site_label
_atom_site_fract_x
_atom_site_fract_y
_atom_site_fract_z
Si Si1 0.422068 0.357882 0.221276
Si Si2 0.582136 0.915500 0.770575
Si Si3 0.579157 0.855789 0.405661
Si Si4 0.921017 0.216908 0.901842
Si Si5 0.421690 0.317586 0.595276
Si Si6 0.421442 0.500000 0.099368
O O1 0.250000 0.358382 0.244698
O O2 0.469683 0.282976 0.167540
O O3 0.510902 0.363905 0.318471
O O4 0.469138 0.427467 0.157591
O O5 0.750000 0.897427 0.742224
O O6 0.481094 0.904006 0.680239
O O7 0.531857 0.861431 0.855086
O O8 0.564376 0.000000 0.806869
O O9 0.500000 0.883764 0.500000
O O10 0.750000 0.871243 0.417259
O O11 0.544514 0.769284 0.387017
O O12 0.750000 0.220672 0.922611
O O13 0.000000 0.227136 0.000000
O O14 0.500000 0.345006 0.500000
O O15 0.250000 0.333906 0.586808
O O16 0.250000 0.500000 0.079127
O O17 0.500000 0.500000 0.000000
#
# Coordination Sequence:
#
# PCOD8211777 Si02
#       6
#     8   8   8   8   8   4
#     4  10  20  37  59  84 115 149 185 227 275 328
#     4  10  21  37  55  77 108 145 185 229 277 328
#     4  10  20  34  55  82 111 144 183 227 276 330
#     4  10  21  36  56  79 106 142 183 228 276 326
#     4  10  20  34  57  87 115 147 186 228 274 329
#     4  10  22  38  59  88 119 152 187 230 282 330
#
# _framework density 18.968070000000001
#
# number of rings (size 3 to 8) (size 9 to 14) (size 15 to 20)
#    0.000    2.000    1.818    1.636    0.000    4.727 
#    0.000    0.455    0.000    0.000    0.000    0.000 
#    0.000    0.000    0.000    0.000    0.000    0.000 
#
# Total GULP energy -545824.471706 kJ/mol
# GULP energy per Si atom -12405.101630 kJ/mol
# Density = 1.892490 g / cm^3
# Si number density = 18.968070 Si / 1000 Ang^3
#
#
#
# Elastic Constant Matrix: (Units=GPa)
#
#
# Indices 1 2 3 4 5 6 
#
# 1 75.1972 39.5914 65.9580 0.0000 0.0000 0.0000
# 2 39.5914 104.3848 60.3133 0.0000 0.0000 0.0000
# 3 65.9580 60.3133 155.7101 0.0000 0.0000 0.0000
# 4 0.0000 0.0000 0.0000 17.8816 0.0000 0.0000
# 5 0.0000 0.0000 0.0000 0.0000 42.7396 0.0000
# 6 0.0000 0.0000 0.0000 0.0000 0.0000 16.0753
#
#
#
# Elastic Compliance Matrix: (Units=1/GPa)
#
#
# Indices 1 2 3 4 5 6 
#
# 1 0.022310 -0.003867 -0.007952 0.000000 0.000000 0.000000
# 2 -0.003867 0.013012 -0.003402 0.000000 0.000000 0.000000
# 3 -0.007952 -0.003402 0.011109 0.000000 0.000000 0.000000
# 4 0.000000 0.000000 0.000000 0.055923 0.000000 0.000000
# 5 0.000000 0.000000 0.000000 0.000000 0.023398 0.000000
# 6 0.000000 0.000000 0.000000 0.000000 0.000000 0.062207
#
#
# Mechanical properties :
#
#
# Convention : Reuss Voigt Hill
#
# Bulk Modulus (GPa) = 62.54856 74.11306 68.33081
# Shear Modulus (GPa) = 22.34826 26.63460 24.49143
#
# Velocity S-wave (km/s) = 3.43622 3.75131 3.59722
# Velocity P-wave (km/s) = 6.98504 7.61055 7.30449
#
# Compressibility (1/GPa) = 0.01598758
#
# Stress axis : x y z
#
# Youngs Moduli (GPa) = 44.82383 76.84985 90.01969
#
# Poissons Ratio (x) = 0.29716 0.71588
# Poissons Ratio (y) = 0.17332 0.30628
# Poissons Ratio (z) = 0.35646 0.26147
#
# Static dielectric constant tensor:
#      x y z
#    x 3.364230 0.000000 0.000000 
#    y 0.000000 3.482690 0.000000 
#    z 0.000000 0.000000 3.407580 
# 
# 
# High freq. dielectric constant tensor:
#      x y z
#    x 1.735380 0.000000 0.000000 
#    y 0.000000 1.729500 0.000000 
#    z 0.000000 0.000000 1.742560 
# 
# From -- ./inp_files/20942.got.cif
#   From: 2010.03.12/outbox.cif.g09.slc.cpg/sg51_11_cif.got.tgz:20942.got - 2010.04.16 13:43:02.
