data_PCOD8211987
_publ_section_title
;
Structure prediction by ZEFSAII (Michael W. Deem and Ramdas Pophale) SiO2 
 PCOD8211987
Probable space group: P M M A
;
_chemical_formula_sum "Si O2"
_cell_formula_units_Z 48
_cell_length_a 8.933899
_cell_length_b 28.557109
_cell_length_c 10.258492
_cell_angle_alpha 90.000000
_cell_angle_beta 90.000000
_cell_angle_gamma 90.000000
_cell_volume 2617.211390
_symmetry_space_group_name_H-M "P M M A"
_symmetry_group_IT_number 51
_symmetry_cell_setting 'orthorhombic'
loop_
_space_group_symop_operation_xyz
x,y,z
1/2-x,-y,z
1/2+x,-y,-z
-x,y,-z
-x,-y,-z
1/2+x,y,-z
1/2-x,y,z
x,-y,z
loop_
_atom_site_type_symbol
_atom_site_label
_atom_site_fract_x
_atom_site_fract_y
_atom_site_fract_z
Si Si1 0.073817 0.946524 0.133093
Si Si2 0.074841 0.117177 0.367198
Si Si3 0.423271 0.719282 0.866118
Si Si4 0.075754 0.554498 0.365642
Si Si5 0.077029 0.390623 0.866441
Si Si6 0.073738 0.224908 0.365183
O O1 0.250000 0.940925 0.117653
O O2 0.011706 0.914369 0.249678
O O3 0.027542 0.000000 0.162618
O O4 0.000000 0.928574 0.000000
O O5 0.250000 0.109891 0.383927
O O6 0.033838 0.170886 0.337596
O O7 0.000000 0.099597 0.500000
O O8 0.250000 0.733804 0.870337
O O9 0.444043 0.664317 0.844298
O O10 0.505437 0.744784 0.749299
O O11 0.500000 0.735557 0.000000
O O12 0.250000 0.566583 0.373935
O O13 0.046941 0.500000 0.338853
O O14 0.000000 0.570424 0.500000
O O15 0.002161 0.583249 0.250627
O O16 0.250000 0.405075 0.872237
O O17 0.000000 0.406945 0.000000
O O18 0.250000 0.233549 0.373484
O O19 0.000000 0.241603 0.500000
#
# Coordination Sequence:
#
# PCOD8211987 Si02
#       6
#     8   8   8   8   8   8
#     4   9  18  33  51  72 100 132 167 208 252 300
#     4   9  19  34  51  74 102 132 168 209 253 302
#     4  10  21  37  56  79 106 137 174 215 260 309
#     4  10  21  37  57  81 109 141 177 217 260 307
#     4  10  21  37  57  80 107 139 175 216 260 308
#     4  10  20  35  54  76 104 137 173 214 259 308
#
# _framework density 18.340131
#
# number of rings (size 3 to 8) (size 9 to 14) (size 15 to 20)
#    0.000    2.333    0.000    2.000    0.000    6.333 
#    0.000    1.667    0.000    0.000    0.000    0.000 
#    0.000    0.000    0.000    0.000    0.000    0.000 
#
# Total GULP energy -595386.827374 kJ/mol
# GULP energy per Si atom -12403.892237 kJ/mol
# Density = 1.829839 g / cm^3
# Si number density = 18.340131 Si / 1000 Ang^3
#
#
#
# Elastic Constant Matrix: (Units=GPa)
#
#
# Indices 1 2 3 4 5 6 
#
# 1 103.8137 45.3176 83.0135 0.0000 0.0000 0.0000
# 2 45.3176 52.7733 73.4810 0.0000 0.0000 0.0000
# 3 83.0135 73.4810 192.1985 0.0000 0.0000 0.0000
# 4 0.0000 0.0000 0.0000 46.4661 0.0000 0.0000
# 5 0.0000 0.0000 0.0000 0.0000 42.8210 0.0000
# 6 0.0000 0.0000 0.0000 0.0000 0.0000 26.7721
#
#
#
# Elastic Compliance Matrix: (Units=1/GPa)
#
#
# Indices 1 2 3 4 5 6 
#
# 1 0.016533 -0.009097 -0.003663 0.000000 0.000000 0.000000
# 2 -0.009097 0.045524 -0.013475 0.000000 0.000000 0.000000
# 3 -0.003663 -0.013475 0.011937 0.000000 0.000000 0.000000
# 4 0.000000 0.000000 0.000000 0.021521 0.000000 0.000000
# 5 0.000000 0.000000 0.000000 0.000000 0.023353 0.000000
# 6 0.000000 0.000000 0.000000 0.000000 0.000000 0.037352
#
#
# Mechanical properties :
#
#
# Convention : Reuss Voigt Hill
#
# Bulk Modulus (GPa) = 46.46197 83.60107 65.03152
# Shear Modulus (GPa) = 23.16270 33.01009 28.08639
#
# Velocity S-wave (km/s) = 3.55766 4.24711 3.91758
# Velocity P-wave (km/s) = 6.50111 8.35064 7.48323
#
# Compressibility (1/GPa) = 0.02152298
#
# Stress axis : x y z
#
# Youngs Moduli (GPa) = 60.48666 21.96653 83.77395
#
# Poissons Ratio (x) = 0.19983 0.30684
# Poissons Ratio (y) = 0.55024 1.12890
# Poissons Ratio (z) = 0.22155 0.29601
#
# Static dielectric constant tensor:
#      x y z
#    x 3.360640 0.000000 0.000000 
#    y 0.000000 3.363450 0.000000 
#    z 0.000000 0.000000 3.508190 
# 
# 
# High freq. dielectric constant tensor:
#      x y z
#    x 1.721590 0.000000 0.000000 
#    y 0.000000 1.704160 0.000000 
#    z 0.000000 0.000000 1.723890 
# 
# From -- ./inp_files/5945.got.cif
#   From: 2010.03.12/outbox.cif.g09.slc.cpg/sg51_3_cif.got.tgz:5945.got - 2010.04.16 13:43:02.
