data_PCOD8211341
_publ_section_title
;
Structure prediction by ZEFSAII (Michael W. Deem and Ramdas Pophale) SiO2 
 PCOD8211341
Probable space group: P M M A
;
_chemical_formula_sum "Si O2"
_cell_formula_units_Z 48
_cell_length_a 9.531904
_cell_length_b 14.549278
_cell_length_c 18.463154
_cell_angle_alpha 90.000000
_cell_angle_beta 90.000000
_cell_angle_gamma 90.000000
_cell_volume 2560.513053
_symmetry_space_group_name_H-M "P M M A"
_symmetry_group_IT_number 51
_symmetry_cell_setting 'orthorhombic'
loop_
_space_group_symop_operation_xyz
x,y,z
1/2-x,-y,z
1/2+x,-y,-z
-x,y,-z
-x,-y,-z
1/2+x,y,-z
1/2-x,y,z
x,-y,z
loop_
_atom_site_type_symbol
_atom_site_label
_atom_site_fract_x
_atom_site_fract_y
_atom_site_fract_z
Si Si1 0.413680 0.851076 0.931374
Si Si2 0.412043 0.895940 0.769526
Si Si3 0.094457 0.599558 0.782160
Si Si4 0.912763 0.395221 0.571091
Si Si5 0.415594 0.736760 0.296950
Si Si6 0.096370 0.359405 0.940207
O O1 0.250000 0.871672 0.945255
O O2 0.460994 0.893017 0.853773
O O3 0.450790 0.744417 0.923698
O O4 0.500000 0.893235 0.000000
O O5 0.250000 0.863159 0.764614
O O6 0.505142 0.833603 0.714738
O O7 0.429324 0.000000 0.741435
O O8 0.250000 0.637543 0.759707
O O9 0.069049 0.500000 0.745215
O O10 0.090358 0.582355 0.867584
O O11 0.970385 0.669251 0.765137
O O12 0.750000 0.386482 0.551592
O O13 0.945419 0.500000 0.598387
O O14 0.955278 0.316807 0.629000
O O15 0.000000 0.372037 0.500000
O O16 0.250000 0.752626 0.289633
O O17 0.250000 0.359420 0.974494
O O18 0.000000 0.407214 0.000000
#
# Coordination Sequence:
#
# PCOD8211341 Si02
#       6
#     8   8   8   8   8   8
#     4   9  17  31  50  72 100 133 175 229 285 335
#     4  10  21  38  58  79 106 143 187 231 277 333
#     4  10  20  34  52  74 102 140 184 222 262 321
#     4   9  19  36  58  87 120 150 179 212 254 308
#     4  11  22  36  56  82 115 145 174 220 273 320
#     4   9  17  30  46  66  95 131 174 222 270 320
#
# _framework density 18.746243
#
# number of rings (size 3 to 8) (size 9 to 14) (size 15 to 20)
#    0.000    2.333    1.667    1.000    0.000    4.667 
#    0.000    1.667    0.000    0.500    0.000    0.000 
#    0.000    0.000    0.000    0.000    0.000    0.000 
#
# Total GULP energy -594772.847789 kJ/mol
# GULP energy per Si atom -12391.100996 kJ/mol
# Density = 1.870358 g / cm^3
# Si number density = 18.746243 Si / 1000 Ang^3
#
#
#
# Elastic Constant Matrix: (Units=GPa)
#
#
# Indices 1 2 3 4 5 6 
#
# 1 84.9413 48.2854 56.5303 0.0000 0.0000 0.0000
# 2 48.2854 105.6144 42.9827 0.0000 0.0000 0.0000
# 3 56.5303 42.9827 92.7379 0.0000 0.0000 0.0000
# 4 0.0000 0.0000 0.0000 228.1246 0.0000 0.0000
# 5 0.0000 0.0000 0.0000 0.0000 33.8737 0.0000
# 6 0.0000 0.0000 0.0000 0.0000 0.0000 13.4983
#
#
#
# Elastic Compliance Matrix: (Units=1/GPa)
#
#
# Indices 1 2 3 4 5 6 
#
# 1 0.022326 -0.005754 -0.010943 0.000000 0.000000 0.000000
# 2 -0.005754 0.013152 -0.002589 0.000000 0.000000 0.000000
# 3 -0.010943 -0.002589 0.018653 0.000000 0.000000 0.000000
# 4 0.000000 0.000000 0.000000 0.004384 0.000000 0.000000
# 5 0.000000 0.000000 0.000000 0.000000 0.029521 0.000000
# 6 0.000000 0.000000 0.000000 0.000000 0.000000 0.074083
#
#
# Mechanical properties :
#
#
# Convention : Reuss Voigt Hill
#
# Bulk Modulus (GPa) = 64.26012 64.32118 64.29065
# Shear Modulus (GPa) = 24.28630 64.13233 44.20932
#
# Velocity S-wave (km/s) = 3.60325 5.85534 4.86150
# Velocity P-wave (km/s) = 7.18781 8.94983 8.11677
#
# Compressibility (1/GPa) = 0.01556175
#
# Stress axis : x y z
#
# Youngs Moduli (GPa) = 44.79050 76.03128 53.61027
#
# Poissons Ratio (x) = 0.43747 0.58663
# Poissons Ratio (y) = 0.25772 0.13878
# Poissons Ratio (z) = 0.49012 0.19682
#
# Static dielectric constant tensor:
#      x y z
#    x 3.509490 0.000000 0.000000 
#    y 0.000000 3.403810 0.000000 
#    z 0.000000 0.000000 3.285620 
# 
# 
# High freq. dielectric constant tensor:
#      x y z
#    x 1.724130 0.000000 0.000000 
#    y 0.000000 1.726020 0.000000 
#    z 0.000000 0.000000 1.702010 
# 
# From -- ./inp_files/27527.got.cif
#   From: 2010.03.12/outbox.cif.g09.slc.cpg/sg51_14_cif.got.tgz:27527.got - 2010.04.16 13:43:02.
