data_PCOD8211971
_publ_section_title
;
Structure prediction by ZEFSAII (Michael W. Deem and Ramdas Pophale) SiO2 
 PCOD8211971
Probable space group: P M M A
;
_chemical_formula_sum "Si O2"
_cell_formula_units_Z 52
_cell_length_a 9.128360
_cell_length_b 19.649859
_cell_length_c 14.993222
_cell_angle_alpha 90.000000
_cell_angle_beta 90.000000
_cell_angle_gamma 90.000000
_cell_volume 2689.349027
_symmetry_space_group_name_H-M "P M M A"
_symmetry_group_IT_number 51
_symmetry_cell_setting 'orthorhombic'
loop_
_space_group_symop_operation_xyz
x,y,z
1/2-x,-y,z
1/2+x,-y,-z
-x,y,-z
-x,-y,-z
1/2+x,y,-z
1/2-x,y,z
x,-y,z
loop_
_atom_site_type_symbol
_atom_site_label
_atom_site_fract_x
_atom_site_fract_y
_atom_site_fract_z
Si Si1 0.581493 0.000000 0.589804
Si Si2 0.921555 0.312413 0.765789
Si Si3 0.921263 0.422702 0.910434
Si Si4 0.412597 0.787107 0.083736
Si Si5 0.914806 0.922191 0.835941
Si Si6 0.078157 0.732867 0.594885
Si Si7 0.081848 0.119762 0.675436
O O1 0.500000 0.000000 0.500000
O O2 0.536934 0.066582 0.641697
O O3 0.750000 0.000000 0.569142
O O4 0.750000 0.311484 0.741378
O O5 0.965892 0.378020 0.824481
O O6 0.968828 0.245278 0.822597
O O7 0.010266 0.314734 0.672321
O O8 0.750000 0.416708 0.928700
O O9 0.969111 0.500000 0.889204
O O10 0.000000 0.396000 0.000000
O O11 0.250000 0.757992 0.070777
O O12 0.412364 0.869991 0.081038
O O13 0.500000 0.758299 0.000000
O O14 0.750000 0.923100 0.792816
O O15 0.040445 0.883637 0.779038
O O16 0.959355 0.000000 0.861869
O O17 0.250000 0.716961 0.584674
O O18 0.050568 0.810014 0.625982
O O19 0.000000 0.719854 0.500000
O O20 0.250000 0.097133 0.661102
#
# Coordination Sequence:
#
# PCOD8211971 Si02
#       7
#     4   8   8   8   8   8   8
#     4  12  24  36  52  74 101 134 173 224 282 344
#     4  10  20  36  58  83 115 152 188 231 280 330
#     4   9  18  33  56  89 126 161 194 229 274 328
#     4  10  21  35  53  78 107 142 186 231 279 332
#     4  10  20  35  54  74 100 140 183 227 282 337
#     4  11  24  39  58  83 111 144 185 233 283 337
#     4  11  22  36  54  78 103 133 177 227 283 341
#
# _framework density 19.335535
#
# number of rings (size 3 to 8) (size 9 to 14) (size 15 to 20)
#    0.000    1.692    2.308    2.538    0.000    5.231 
#    0.000    0.000    0.000    0.462    0.000    0.000 
#    0.000    0.000    0.000    0.000    0.000    0.000 
#
# Total GULP energy -644302.895841 kJ/mol
# GULP energy per Si atom -12390.440305 kJ/mol
# Density = 1.929153 g / cm^3
# Si number density = 19.335535 Si / 1000 Ang^3
#
#
#
# Elastic Constant Matrix: (Units=GPa)
#
#
# Indices 1 2 3 4 5 6 
#
# 1 97.6568 33.1891 59.0133 0.0000 0.0000 0.0000
# 2 33.1891 96.1763 41.7251 0.0000 0.0000 0.0000
# 3 59.0133 41.7251 122.1435 0.0000 0.0000 0.0000
# 4 0.0000 0.0000 0.0000 34.8913 0.0000 0.0000
# 5 0.0000 0.0000 0.0000 0.0000 36.4258 0.0000
# 6 0.0000 0.0000 0.0000 0.0000 0.0000 58.4562
#
#
#
# Elastic Compliance Matrix: (Units=1/GPa)
#
#
# Indices 1 2 3 4 5 6 
#
# 1 0.014909 -0.002371 -0.006393 0.000000 0.000000 0.000000
# 2 -0.002371 0.012584 -0.003153 0.000000 0.000000 0.000000
# 3 -0.006393 -0.003153 0.012353 0.000000 0.000000 0.000000
# 4 0.000000 0.000000 0.000000 0.028660 0.000000 0.000000
# 5 0.000000 0.000000 0.000000 0.000000 0.027453 0.000000
# 6 0.000000 0.000000 0.000000 0.000000 0.000000 0.017107
#
#
# Mechanical properties :
#
#
# Convention : Reuss Voigt Hill
#
# Bulk Modulus (GPa) = 62.45760 64.87019 63.66389
# Shear Modulus (GPa) = 35.15216 38.09125 36.62170
#
# Velocity S-wave (km/s) = 4.26844 4.44330 4.35674
# Velocity P-wave (km/s) = 7.52760 7.74251 7.63581
#
# Compressibility (1/GPa) = 0.01601086
#
# Stress axis : x y z
#
# Youngs Moduli (GPa) = 67.07233 79.46730 80.95130
#
# Poissons Ratio (x) = 0.18844 0.51755
# Poissons Ratio (y) = 0.15905 0.25524
# Poissons Ratio (z) = 0.42881 0.25056
#
# Static dielectric constant tensor:
#      x y z
#    x 3.538590 0.000000 0.000000 
#    y 0.000000 3.481770 0.000000 
#    z 0.000000 0.000000 3.392130 
# 
# 
# High freq. dielectric constant tensor:
#      x y z
#    x 1.753120 0.000000 0.000000 
#    y 0.000000 1.740240 0.000000 
#    z 0.000000 0.000000 1.742790 
# 
# From -- ./inp_files/21590.got.cif
#   From: 2010.03.12/outbox.cif.g09.slc.cpg/sg51_11_cif.got.tgz:21590.got - 2010.04.16 13:43:02.
