data_PCOD8211148
_publ_section_title
;
Structure prediction by ZEFSAII (Michael W. Deem and Ramdas Pophale) SiO2 
 PCOD8211148
Probable space group: P M M A
;
_chemical_formula_sum "Si O2"
_cell_formula_units_Z 64
_cell_length_a 17.462673
_cell_length_b 8.989685
_cell_length_c 22.937674
_cell_angle_alpha 90.000000
_cell_angle_beta 90.000000
_cell_angle_gamma 90.000000
_cell_volume 3600.846199
_symmetry_space_group_name_H-M "P M M A"
_symmetry_group_IT_number 51
_symmetry_cell_setting 'orthorhombic'
loop_
_space_group_symop_operation_xyz
x,y,z
1/2-x,-y,z
1/2+x,-y,-z
-x,y,-z
-x,-y,-z
1/2+x,y,-z
1/2-x,y,z
x,-y,z
loop_
_atom_site_type_symbol
_atom_site_label
_atom_site_fract_x
_atom_site_fract_y
_atom_site_fract_z
Si Si1 0.491799 0.324448 0.746944
Si Si2 0.833871 0.327681 0.303054
Si Si3 0.660980 0.325959 0.944509
Si Si4 0.954502 0.829244 0.634319
Si Si5 0.925020 0.836009 0.038895
Si Si6 0.035851 0.823102 0.134873
Si Si7 0.881214 0.169342 0.416018
Si Si8 0.663814 0.823837 0.541183
O O1 0.498935 0.500000 0.756651
O O2 0.402798 0.271928 0.738902
O O3 0.539553 0.275900 0.690419
O O4 0.529478 0.240648 0.800794
O O5 0.750000 0.297226 0.274190
O O6 0.847408 0.500000 0.314909
O O7 0.834660 0.251357 0.365735
O O8 0.750000 0.287992 0.934668
O O9 0.644892 0.500000 0.939451
O O10 0.611624 0.242491 0.895596
O O11 0.636485 0.274328 0.009776
O O12 0.886255 0.763256 0.594898
O O13 0.028781 0.818162 0.594019
O O14 0.940729 0.000000 0.654401
O O15 0.956949 0.777461 0.101181
O O16 0.887279 0.000000 0.044844
O O17 0.000000 0.848550 0.000000
O O18 0.045202 0.000000 0.135923
O O19 0.862514 0.242408 0.478794
O O20 0.852588 0.000000 0.414756
O O21 0.750000 0.774656 0.554019
O O22 0.652908 0.000000 0.538741
#
# Coordination Sequence:
#
# PCOD8211148 Si02
#       8
#     8   8   8   8   8   8   8   8
#     4  10  20  34  52  71  94 128 167 206 246 289
#     4   9  18  32  48  68  95 124 154 193 246 304
#     4  10  20  33  52  81 112 138 167 204 244 286
#     4   9  17  30  47  66  91 124 160 198 241 293
#     4   8  16  31  51  75 102 131 162 197 239 286
#     4  10  20  35  55  77 101 133 173 210 244 287
#     4   9  16  27  46  70  92 116 151 195 242 294
#     4   9  16  26  43  68  94 119 152 196 244 293
#
# _framework density 17.773599999999998
#
# number of rings (size 3 to 8) (size 9 to 14) (size 15 to 20)
#    0.000    2.750    0.000    2.625    0.000    6.500 
#    0.000    1.875    0.000    8.625    0.000    0.000 
#    0.000    0.000    0.000    0.000    0.000    0.000 
#
# Total GULP energy -793319.372445 kJ/mol
# GULP energy per Si atom -12395.615194 kJ/mol
# Density = 1.773315 g / cm^3
# Si number density = 17.773600 Si / 1000 Ang^3
#
#
#
# Elastic Constant Matrix: (Units=GPa)
#
#
# Indices 1 2 3 4 5 6 
#
# 1 102.8338 43.7095 57.8309 0.0000 0.0000 0.0000
# 2 43.7095 62.7666 37.9415 0.0000 0.0000 0.0000
# 3 57.8309 37.9415 97.6363 0.0000 0.0000 0.0000
# 4 0.0000 0.0000 0.0000 13.5520 0.0000 0.0000
# 5 0.0000 0.0000 0.0000 0.0000 20.3612 0.0000
# 6 0.0000 0.0000 0.0000 0.0000 0.0000 20.8626
#
#
#
# Elastic Compliance Matrix: (Units=1/GPa)
#
#
# Indices 1 2 3 4 5 6 
#
# 1 0.016895 -0.007471 -0.007104 0.000000 0.000000 0.000000
# 2 -0.007471 0.024127 -0.004951 0.000000 0.000000 0.000000
# 3 -0.007104 -0.004951 0.016374 0.000000 0.000000 0.000000
# 4 0.000000 0.000000 0.000000 0.073790 0.000000 0.000000
# 5 0.000000 0.000000 0.000000 0.000000 0.049113 0.000000
# 6 0.000000 0.000000 0.000000 0.000000 0.000000 0.047933
#
#
# Mechanical properties :
#
#
# Convention : Reuss Voigt Hill
#
# Bulk Modulus (GPa) = 54.51162 60.24452 57.37807
# Shear Modulus (GPa) = 18.28837 19.20548 18.74693
#
# Velocity S-wave (km/s) = 3.21122 3.29076 3.25123
# Velocity P-wave (km/s) = 6.66977 6.95758 6.81519
#
# Compressibility (1/GPa) = 0.01834471
#
# Stress axis : x y z
#
# Youngs Moduli (GPa) = 59.18900 41.44651 61.07420
#
# Poissons Ratio (x) = 0.30966 0.43386
# Poissons Ratio (y) = 0.44222 0.30236
# Poissons Ratio (z) = 0.42046 0.20519
#
# Static dielectric constant tensor:
#      x y z
#    x 3.331110 0.000000 0.000000 
#    y 0.000000 3.181580 0.000000 
#    z 0.000000 0.000000 3.389010 
# 
# 
# High freq. dielectric constant tensor:
#      x y z
#    x 1.681650 0.000000 0.000000 
#    y 0.000000 1.674310 0.000000 
#    z 0.000000 0.000000 1.678810 
# 
# From -- ./inp_files/35903.got.cif
#   From: 2010.03.12/outbox.cif.g09.slc.cpg/sg51_18_cif.got.tgz:35903.got - 2010.04.16 13:43:02.
