data_PCOD8211602
_publ_section_title
;
Structure prediction by ZEFSAII (Michael W. Deem and Ramdas Pophale) SiO2 
 PCOD8211602
Probable space group: P M M A
;
_chemical_formula_sum "Si O2"
_cell_formula_units_Z 64
_cell_length_a 8.772145
_cell_length_b 31.652102
_cell_length_c 14.348402
_cell_angle_alpha 90.000000
_cell_angle_beta 90.000000
_cell_angle_gamma 90.000000
_cell_volume 3983.931790
_symmetry_space_group_name_H-M "P M M A"
_symmetry_group_IT_number 51
_symmetry_cell_setting 'orthorhombic'
loop_
_space_group_symop_operation_xyz
x,y,z
1/2-x,-y,z
1/2+x,-y,-z
-x,y,-z
-x,-y,-z
1/2+x,y,-z
1/2-x,y,z
x,-y,z
loop_
_atom_site_type_symbol
_atom_site_label
_atom_site_fract_x
_atom_site_fract_y
_atom_site_fract_z
Si Si1 0.430581 0.634958 0.897611
Si Si2 0.569865 0.794537 0.217031
Si Si3 0.571422 0.544696 0.100889
Si Si4 0.428761 0.876347 0.899871
Si Si5 0.430514 0.177183 0.402843
Si Si6 0.926283 0.047410 0.223322
Si Si7 0.428123 0.920085 0.404616
Si Si8 0.069400 0.281032 0.102622
O O1 0.250000 0.642876 0.901287
O O2 0.471528 0.589368 0.847795
O O3 0.510684 0.675195 0.848784
O O4 0.500000 0.632844 0.000000
O O5 0.750000 0.786982 0.215123
O O6 0.522747 0.837753 0.165872
O O7 0.509920 0.795724 0.322334
O O8 0.484631 0.756760 0.166737
O O9 0.750000 0.545467 0.084937
O O10 0.525035 0.500000 0.153096
O O11 0.500000 0.544109 0.000000
O O12 0.250000 0.878374 0.913979
O O13 0.490324 0.919697 0.853220
O O14 0.500000 0.869655 0.000000
O O15 0.500000 0.193515 0.500000
O O16 0.250000 0.184199 0.401754
O O17 0.476050 0.128387 0.387465
O O18 0.750000 0.057375 0.243429
O O19 0.014437 0.051622 0.319944
O O20 0.950295 0.000000 0.184534
O O21 0.500000 0.937374 0.500000
O O22 0.250000 0.925208 0.413998
O O23 0.250000 0.281203 0.094945
O O24 0.000000 0.275325 0.000000
#
# Coordination Sequence:
#
# PCOD8211602 Si02
#       8
#     8   8   8   8   8   8   8   8
#     4   9  15  24  37  53  77 110 148 190 237 281
#     4  11  21  35  54  74  96 122 153 190 230 274
#     4   8  13  20  31  48  70  99 139 187 234 278
#     4  10  22  37  54  74  95 121 152 188 228 267
#     4  10  20  34  54  79 102 125 149 181 220 267
#     4  10  21  38  56  74  98 126 155 187 225 269
#     4  10  20  34  55  79 103 127 152 181 218 264
#     4  11  21  32  45  64  91 122 159 198 239 283
#
# _framework density 16.064532
#
# number of rings (size 3 to 8) (size 9 to 14) (size 15 to 20)
#    0.000    2.125    1.250    3.750    0.000    4.750 
#    0.000    0.000    0.000    0.000    0.000    0.000 
#    0.000    0.000    0.000    0.000    0.000    0.625 
#
# Total GULP energy -793136.031743 kJ/mol
# GULP energy per Si atom -12392.750496 kJ/mol
# Density = 1.602797 g / cm^3
# Si number density = 16.064532 Si / 1000 Ang^3
#
#
#
# Elastic Constant Matrix: (Units=GPa)
#
#
# Indices 1 2 3 4 5 6 
#
# 1 70.1887 46.1813 30.4058 0.0000 0.0000 0.0000
# 2 46.1813 130.6841 40.9186 0.0000 0.0000 0.0000
# 3 30.4058 40.9186 77.7076 0.0000 0.0000 0.0000
# 4 0.0000 0.0000 0.0000 75.5316 0.0000 0.0000
# 5 0.0000 0.0000 0.0000 0.0000 23.7214 0.0000
# 6 0.0000 0.0000 0.0000 0.0000 0.0000 0.6760
#
#
#
# Elastic Compliance Matrix: (Units=1/GPa)
#
#
# Indices 1 2 3 4 5 6 
#
# 1 0.020020 -0.005534 -0.004919 0.000000 0.000000 0.000000
# 2 -0.005534 0.010693 -0.003465 0.000000 0.000000 0.000000
# 3 -0.004919 -0.003465 0.016618 0.000000 0.000000 0.000000
# 4 0.000000 0.000000 0.000000 0.013239 0.000000 0.000000
# 5 0.000000 0.000000 0.000000 0.000000 0.042156 0.000000
# 6 0.000000 0.000000 0.000000 0.000000 0.000000 1.479385
#
#
# Mechanical properties :
#
#
# Convention : Reuss Voigt Hill
#
# Bulk Modulus (GPa) = 51.29911 57.06577 54.18244
# Shear Modulus (GPa) = 3.09321 30.72410 16.90865
#
# Velocity S-wave (km/s) = 1.38912 4.37801 3.24782
# Velocity P-wave (km/s) = 5.88008 7.82022 6.91850
#
# Compressibility (1/GPa) = 0.01949352
#
# Stress axis : x y z
#
# Youngs Moduli (GPa) = 49.95092 93.52182 60.17535
#
# Poissons Ratio (x) = 0.51758 0.29601
# Poissons Ratio (y) = 0.27644 0.20851
# Poissons Ratio (z) = 0.24572 0.32405
#
# Static dielectric constant tensor:
#      x y z
#    x 3.169770 0.000000 0.000000 
#    y 0.000000 3.772340 0.000000 
#    z 0.000000 0.000000 3.031600 
# 
# 
# High freq. dielectric constant tensor:
#      x y z
#    x 1.629820 0.000000 0.000000 
#    y 0.000000 1.624520 0.000000 
#    z 0.000000 0.000000 1.570530 
# 
# From -- ./inp_files/22582.got.cif
#   From: 2010.03.12/outbox.cif.g09.slc.cpg/sg51_12_cif.got.tgz:22582.got - 2010.04.16 13:43:02.
