data_PCOD8211287
_publ_section_title
;
Structure prediction by ZEFSAII (Michael W. Deem and Ramdas Pophale) SiO2 
 PCOD8211287
Probable space group: P M M A
;
_chemical_formula_sum "Si O2"
_cell_formula_units_Z 36
_cell_length_a 8.720600
_cell_length_b 18.582512
_cell_length_c 14.282551
_cell_angle_alpha 90.000000
_cell_angle_beta 90.000000
_cell_angle_gamma 90.000000
_cell_volume 2314.496732
_symmetry_space_group_name_H-M "P M M A"
_symmetry_group_IT_number 51
_symmetry_cell_setting 'orthorhombic'
loop_
_space_group_symop_operation_xyz
x,y,z
1/2-x,-y,z
1/2+x,-y,-z
-x,y,-z
-x,-y,-z
1/2+x,y,-z
1/2-x,y,z
x,-y,z
loop_
_atom_site_type_symbol
_atom_site_label
_atom_site_fract_x
_atom_site_fract_y
_atom_site_fract_z
Si Si1 0.431491 0.500000 0.602628
Si Si2 0.071020 0.583970 0.901633
Si Si3 0.069338 0.231269 0.398010
Si Si4 0.430624 0.924090 0.398234
Si Si5 0.068671 0.368831 0.284645
O O1 0.250000 0.500000 0.596331
O O2 0.500000 0.500000 0.500000
O O3 0.484783 0.570174 0.656901
O O4 0.250000 0.601935 0.900903
O O5 0.040215 0.500000 0.882731
O O6 0.985261 0.629548 0.822474
O O7 0.000000 0.608073 0.000000
O O8 0.250000 0.234982 0.411108
O O9 0.018079 0.152909 0.353900
O O10 0.014930 0.292263 0.326081
O O11 0.000000 0.245469 0.500000
O O12 0.500000 0.926248 0.500000
O O13 0.250000 0.923365 0.408378
O O14 0.480113 0.000000 0.345815
O O15 0.250000 0.380723 0.290856
#
# Coordination Sequence:
#
# PCOD8211287 Si02
#       5
#     4   8   8   8   8
#     4  12  24  36  47  62  85 118 158 192 222 260
#     4  10  20  34  52  71  89 111 142 183 227 273
#     4   9  18  29  42  63  89 120 153 184 219 257
#     4   8  13  23  39  58  82 112 146 181 215 253
#     4  11  21  33  48  66  90 118 149 186 224 265
#
# _framework density 15.554137000000001
#
# number of rings (size 3 to 8) (size 9 to 14) (size 15 to 20)
#    0.000    2.222    1.111    3.000    0.000    4.444 
#    0.000    0.000    0.000    0.000    0.000    0.000 
#    0.000    0.889    0.000    1.556    0.000    2.667 
#
# Total GULP energy -445995.089767 kJ/mol
# GULP energy per Si atom -12388.752494 kJ/mol
# Density = 1.551874 g / cm^3
# Si number density = 15.554137 Si / 1000 Ang^3
#
#
#
# Elastic Constant Matrix: (Units=GPa)
#
#
# Indices 1 2 3 4 5 6 
#
# 1 58.1837 41.0394 32.7412 0.0000 0.0000 0.0000
# 2 41.0394 156.9794 63.7039 0.0000 0.0000 0.0000
# 3 32.7412 63.7039 97.4835 0.0000 0.0000 0.0000
# 4 0.0000 0.0000 0.0000 -1.1261 0.0000 0.0000
# 5 0.0000 0.0000 0.0000 0.0000 24.8242 0.0000
# 6 0.0000 0.0000 0.0000 0.0000 0.0000 7.9164
#
#
#
# Elastic Compliance Matrix: (Units=1/GPa)
#
#
# Indices 1 2 3 4 5 6 
#
# 1 0.022809 -0.003884 -0.005122 0.000000 0.000000 0.000000
# 2 -0.003884 0.009331 -0.004793 0.000000 0.000000 0.000000
# 3 -0.005122 -0.004793 0.015111 0.000000 0.000000 0.000000
# 4 0.000000 0.000000 0.000000 -0.887988 0.000000 0.000000
# 5 0.000000 0.000000 0.000000 0.000000 0.040283 0.000000
# 6 0.000000 0.000000 0.000000 0.000000 0.000000 0.126321
#
#
# Mechanical properties :
#
#
# Convention : Reuss Voigt Hill
#
# Bulk Modulus (GPa) = 50.88713 65.29061 58.08887
# Shear Modulus (GPa) = -7.81270 18.00035 5.09383
#
# Velocity S-wave (km/s) = -2.24362 3.40556 1.81163
# Velocity P-wave (km/s) = 5.10641 7.58494 6.46555
#
# Compressibility (1/GPa) = 0.01965133
#
# Stress axis : x y z
#
# Youngs Moduli (GPa) = 43.84188 107.17251 66.17843
#
# Poissons Ratio (x) = 0.41629 0.33900
# Poissons Ratio (y) = 0.17030 0.31719
# Poissons Ratio (z) = 0.22458 0.51367
#
# Static dielectric constant tensor:
#      x y z
#    x 3.032040 0.000000 0.000000 
#    y 0.000000 3.721980 0.000000 
#    z 0.000000 0.000000 2.798250 
# 
# 
# High freq. dielectric constant tensor:
#      x y z
#    x 1.607910 0.000000 0.000000 
#    y 0.000000 1.603720 0.000000 
#    z 0.000000 0.000000 1.558290 
# 
# From -- ./inp_files/20765.got.cif
#   From: 2010.03.12/outbox.cif.g09.slc.cpg/sg51_11_cif.got.tgz:20765.got - 2010.04.16 13:43:02.
