data_PCOD8211991
_publ_section_title
;
Structure prediction by ZEFSAII (Michael W. Deem and Ramdas Pophale) SiO2 
 PCOD8211991
Probable space group: P M M A
;
_chemical_formula_sum "Si O2"
_cell_formula_units_Z 48
_cell_length_a 16.041403
_cell_length_b 8.897054
_cell_length_c 18.019186
_cell_angle_alpha 90.000000
_cell_angle_beta 90.000000
_cell_angle_gamma 90.000000
_cell_volume 2571.720367
_symmetry_space_group_name_H-M "P M M A"
_symmetry_group_IT_number 51
_symmetry_cell_setting 'orthorhombic'
loop_
_space_group_symop_operation_xyz
x,y,z
1/2-x,-y,z
1/2+x,-y,-z
-x,y,-z
-x,-y,-z
1/2+x,y,-z
1/2-x,y,z
x,-y,z
loop_
_atom_site_type_symbol
_atom_site_label
_atom_site_fract_x
_atom_site_fract_y
_atom_site_fract_z
Si Si1 0.427076 0.673820 0.191872
Si Si2 0.085542 0.178234 0.035514
Si Si3 0.589061 0.675713 0.285131
Si Si4 0.750000 0.821846 0.217265
Si Si5 0.750000 0.821123 0.048554
Si Si6 0.842893 0.829539 0.679715
Si Si7 0.501885 0.825097 0.583946
O O1 0.418575 0.500000 0.171548
O O2 0.409994 0.771232 0.119829
O O3 0.517380 0.712893 0.225460
O O4 0.357608 0.717687 0.251932
O O5 0.085390 0.000000 0.032372
O O6 0.166521 0.241218 0.991691
O O7 0.000000 0.242563 0.000000
O O8 0.608150 0.500000 0.289394
O O9 0.669882 0.763759 0.259987
O O10 0.563398 0.732457 0.366663
O O11 0.750000 0.761070 0.132816
O O12 0.750000 0.000000 0.218178
O O13 0.750000 0.000000 0.046452
O O14 0.750000 0.804306 0.649018
O O15 0.904676 0.794361 0.612261
O O16 0.856241 0.000000 0.708340
O O17 0.500000 0.765100 0.500000
O O18 0.477202 0.000000 0.588186
#
# Coordination Sequence:
#
# PCOD8211991 Si02
#       7
#     8   8   8   4   4   8   8
#     4  10  21  35  53  77 108 144 182 225 270 326
#     4  10  20  35  54  76 105 141 181 228 279 331
#     4  10  21  37  56  80 112 149 184 222 274 331
#     4  11  21  37  61  83 106 139 188 237 271 320
#     4   9  20  35  53  79 106 137 182 231 283 332
#     4   9  18  33  54  78 105 142 181 221 269 319
#     4   9  18  35  57  83 113 143 182 227 271 320
#
# _framework density 18.664549999999998
#
# number of rings (size 3 to 8) (size 9 to 14) (size 15 to 20)
#    0.000    2.333    0.000    2.250    1.167    4.333 
#    1.500    1.667    0.000    0.000    0.000    0.000 
#    0.000    0.000    0.000    0.000    0.000    0.000 
#
# Total GULP energy -595298.388692 kJ/mol
# GULP energy per Si atom -12402.049764 kJ/mol
# Density = 1.862207 g / cm^3
# Si number density = 18.664550 Si / 1000 Ang^3
#
#
#
# Elastic Constant Matrix: (Units=GPa)
#
#
# Indices 1 2 3 4 5 6 
#
# 1 143.6377 36.1902 72.3533 0.0000 0.0000 0.0000
# 2 36.1902 40.3386 30.1699 0.0000 0.0000 0.0000
# 3 72.3533 30.1699 141.9795 0.0000 0.0000 0.0000
# 4 0.0000 0.0000 0.0000 11.0132 0.0000 0.0000
# 5 0.0000 0.0000 0.0000 0.0000 17.6506 0.0000
# 6 0.0000 0.0000 0.0000 0.0000 0.0000 21.7703
#
#
#
# Elastic Compliance Matrix: (Units=1/GPa)
#
#
# Indices 1 2 3 4 5 6 
#
# 1 0.010639 -0.006527 -0.004035 0.000000 0.000000 0.000000
# 2 -0.006527 0.033479 -0.003788 0.000000 0.000000 0.000000
# 3 -0.004035 -0.003788 0.009904 0.000000 0.000000 0.000000
# 4 0.000000 0.000000 0.000000 0.090800 0.000000 0.000000
# 5 0.000000 0.000000 0.000000 0.000000 0.056655 0.000000
# 6 0.000000 0.000000 0.000000 0.000000 0.000000 0.045934
#
#
# Mechanical properties :
#
#
# Convention : Reuss Voigt Hill
#
# Bulk Modulus (GPa) = 39.48998 67.04250 53.26624
# Shear Modulus (GPa) = 17.57147 22.56964 20.07055
#
# Velocity S-wave (km/s) = 3.07161 3.48116 3.28278
# Velocity P-wave (km/s) = 5.81235 7.22189 6.55512
#
# Compressibility (1/GPa) = 0.02532288
#
# Stress axis : x y z
#
# Youngs Moduli (GPa) = 93.99533 29.86937 100.96715
#
# Poissons Ratio (x) = 0.19496 0.40736
# Poissons Ratio (y) = 0.61353 0.38245
# Poissons Ratio (z) = 0.37923 0.11314
#
# Static dielectric constant tensor:
#      x y z
#    x 3.637280 0.000000 0.000000 
#    y 0.000000 3.313440 0.000000 
#    z 0.000000 0.000000 3.411320 
# 
# 
# High freq. dielectric constant tensor:
#      x y z
#    x 1.731890 0.000000 0.000000 
#    y 0.000000 1.712380 0.000000 
#    z 0.000000 0.000000 1.723520 
# 
# From -- ./inp_files/29582.got.cif
#   From: 2010.03.12/outbox.cif.g09.slc.cpg/sg51_15_cif.got.tgz:29582.got - 2010.04.16 13:43:02.
