data_PCOD8211861
_publ_section_title
;
Structure prediction by ZEFSAII (Michael W. Deem and Ramdas Pophale) SiO2 
 PCOD8211861
Probable space group: P M M A
;
_chemical_formula_sum "Si O2"
_cell_formula_units_Z 44
_cell_length_a 10.084123
_cell_length_b 8.060196
_cell_length_c 28.076363
_cell_angle_alpha 90.000000
_cell_angle_beta 90.000000
_cell_angle_gamma 90.000000
_cell_volume 2282.047006
_symmetry_space_group_name_H-M "P M M A"
_symmetry_group_IT_number 51
_symmetry_cell_setting 'orthorhombic'
loop_
_space_group_symop_operation_xyz
x,y,z
1/2-x,-y,z
1/2+x,-y,-z
-x,y,-z
-x,-y,-z
1/2+x,y,-z
1/2-x,y,z
x,-y,z
loop_
_atom_site_type_symbol
_atom_site_label
_atom_site_fract_x
_atom_site_fract_y
_atom_site_fract_z
Si Si1 0.399289 0.193068 0.284701
Si Si2 0.750000 0.689541 0.044344
Si Si3 0.010843 0.302392 0.894111
Si Si4 0.750000 0.813379 0.940763
Si Si5 0.408913 0.500000 0.453939
Si Si6 0.093320 0.816180 0.391929
Si Si7 0.895937 0.692733 0.207570
O O1 0.250000 0.266085 0.278027
O O2 0.452167 0.225457 0.338242
O O3 0.501406 0.280224 0.249897
O O4 0.396851 0.000000 0.273205
O O5 0.750000 0.500000 0.060177
O O6 0.618155 0.766519 0.067813
O O7 0.750000 0.699973 0.987551
O O8 0.994654 0.500000 0.895609
O O9 0.873721 0.219476 0.907340
O O10 0.049565 0.233517 0.841941
O O11 0.750000 0.000000 0.959730
O O12 0.250000 0.500000 0.464841
O O13 0.500000 0.500000 0.500000
O O14 0.453004 0.333474 0.425872
O O15 0.250000 0.827581 0.392062
O O16 0.037722 0.000000 0.407712
O O17 0.750000 0.769972 0.219324
O O18 0.877848 0.500000 0.199471
#
# Coordination Sequence:
#
# PCOD8211861 Si02
#       7
#     8   4   8   4   4   8   8
#     4   9  19  35  56  83 112 144 187 231 275 332
#     4  10  20  40  66  82 100 140 182 222 266 331
#     4  10  21  40  61  80 106 140 181 222 270 329
#     4  12  26  38  54  84 114 136 174 226 274 323
#     4  10  20  34  56  84 116 154 196 242 291 340
#     4   8  16  33  55  80 113 152 195 241 285 340
#     4  10  21  37  56  81 110 141 179 225 276 333
#
# _framework density 19.280934999999999
#
# number of rings (size 3 to 8) (size 9 to 14) (size 15 to 20)
#    0.000    2.364    0.909    2.455    2.545    4.727 
#    0.000    0.909    0.000    1.091    0.000    0.000 
#    0.000    0.000    0.000    0.000    0.000    0.000 
#
# Total GULP energy -545378.047385 kJ/mol
# GULP energy per Si atom -12394.955622 kJ/mol
# Density = 1.923705 g / cm^3
# Si number density = 19.280935 Si / 1000 Ang^3
#
#
#
# Elastic Constant Matrix: (Units=GPa)
#
#
# Indices 1 2 3 4 5 6 
#
# 1 126.9103 30.2064 63.1932 0.0000 0.0000 0.0000
# 2 30.2064 67.9283 45.6083 0.0000 0.0000 0.0000
# 3 63.1932 45.6083 134.9955 0.0000 0.0000 0.0000
# 4 0.0000 0.0000 0.0000 3.0948 0.0000 0.0000
# 5 0.0000 0.0000 0.0000 0.0000 37.6393 0.0000
# 6 0.0000 0.0000 0.0000 0.0000 0.0000 -87.0608
#
#
#
# Elastic Compliance Matrix: (Units=1/GPa)
#
#
# Indices 1 2 3 4 5 6 
#
# 1 0.010435 -0.001760 -0.004290 0.000000 0.000000 0.000000
# 2 -0.001760 0.019337 -0.005709 0.000000 0.000000 0.000000
# 3 -0.004290 -0.005709 0.011345 0.000000 0.000000 0.000000
# 4 0.000000 0.000000 0.000000 0.323120 0.000000 0.000000
# 5 0.000000 0.000000 0.000000 0.000000 0.026568 0.000000
# 6 0.000000 0.000000 0.000000 0.000000 0.000000 -0.011486
#
#
# Mechanical properties :
#
#
# Convention : Reuss Voigt Hill
#
# Bulk Modulus (GPa) = 56.82314 67.53888 62.18101
# Shear Modulus (GPa) = 12.23384 3.45641 7.84513
#
# Velocity S-wave (km/s) = 2.52167 1.34035 2.01933
# Velocity P-wave (km/s) = 6.16551 6.12375 6.14467
#
# Compressibility (1/GPa) = 0.01759846
#
# Stress axis : x y z
#
# Youngs Moduli (GPa) = 95.83516 51.71365 88.14592
#
# Poissons Ratio (x) = 0.09100 0.37815
# Poissons Ratio (y) = 0.16863 0.50326
# Poissons Ratio (z) = 0.41114 0.29525
#
# Static dielectric constant tensor:
#      x y z
#    x 3.559310 0.000000 0.000000 
#    y 0.000000 3.729370 0.000000 
#    z 0.000000 0.000000 3.529320 
# 
# 
# High freq. dielectric constant tensor:
#      x y z
#    x 1.739480 0.000000 0.000000 
#    y 0.000000 1.742760 0.000000 
#    z 0.000000 0.000000 1.747520 
# 
# From -- ./inp_files/36840.got.cif
#   From: 2010.03.12/outbox.cif.g09.slc.cpg/sg51_19_cif.got.tgz:36840.got - 2010.04.16 13:43:02.
