data_PCOD8211751
_publ_section_title
;
Structure prediction by ZEFSAII (Michael W. Deem and Ramdas Pophale) SiO2 
 PCOD8211751
Probable space group: P M M A
;
_chemical_formula_sum "Si O2"
_cell_formula_units_Z 64
_cell_length_a 24.781851
_cell_length_b 13.921138
_cell_length_c 9.976360
_cell_angle_alpha 90.000000
_cell_angle_beta 90.000000
_cell_angle_gamma 90.000000
_cell_volume 3441.760076
_symmetry_space_group_name_H-M "P M M A"
_symmetry_group_IT_number 51
_symmetry_cell_setting 'orthorhombic'
loop_
_space_group_symop_operation_xyz
x,y,z
1/2-x,-y,z
1/2+x,-y,-z
-x,y,-z
-x,-y,-z
1/2+x,y,-z
1/2-x,y,z
x,-y,z
loop_
_atom_site_type_symbol
_atom_site_label
_atom_site_fract_x
_atom_site_fract_y
_atom_site_fract_z
Si Si1 0.187929 0.300674 0.664893
Si Si2 0.187697 0.893423 0.553161
Si Si3 0.810701 0.389476 0.618421
Si Si4 0.383266 0.700782 0.161305
Si Si5 0.608112 0.613484 0.122248
Si Si6 0.503767 0.106280 0.651161
Si Si7 0.504988 0.266197 0.151696
Si Si8 0.872247 0.104901 0.719045
O O1 0.250000 0.323643 0.702274
O O2 0.175828 0.185538 0.668975
O O3 0.174433 0.330710 0.513740
O O4 0.150247 0.359164 0.763786
O O5 0.250000 0.888710 0.511743
O O6 0.155300 0.866860 0.419980
O O7 0.171880 0.000000 0.606483
O O8 0.750000 0.364532 0.666837
O O9 0.815980 0.500000 0.579714
O O10 0.852136 0.366734 0.736180
O O11 0.446838 0.693671 0.198089
O O12 0.361349 0.810838 0.173163
O O13 0.371445 0.664762 0.012343
O O14 0.606543 0.500000 0.101447
O O15 0.548052 0.647864 0.160772
O O16 0.500000 0.146376 0.500000
O O17 0.474227 0.180179 0.751900
O O18 0.564770 0.098016 0.695395
O O19 0.476360 0.000000 0.659379
O O20 0.500000 0.226066 0.000000
O O21 0.851256 0.000000 0.770530
#
# Coordination Sequence:
#
# PCOD8211751 Si02
#       8
#     8   8   8   8   8   8   8   8
#     4  10  21  38  57  81 113 144 176 222 278 335
#     4   9  17  31  55  84 111 142 176 212 262 326
#     4  10  20  34  55  81 107 139 184 233 279 328
#     4  10  20  37  57  80 108 145 185 234 279 324
#     4  11  24  39  56  78 107 146 192 235 283 334
#     4   9  18  31  51  81 111 140 176 222 271 321
#     4   9  21  37  54  76 106 147 187 228 275 329
#     4   9  17  31  53  81 112 140 173 218 270 324
#
# _framework density 18.595137000000001
#
# number of rings (size 3 to 8) (size 9 to 14) (size 15 to 20)
#    0.000    2.375    1.250    0.750    1.750    4.250 
#    0.000    2.500    0.000    1.875    0.000    0.000 
#    0.000    0.000    0.000    0.000    0.000    0.000 
#
# Total GULP energy -793399.143766 kJ/mol
# GULP energy per Si atom -12396.861621 kJ/mol
# Density = 1.855281 g / cm^3
# Si number density = 18.595137 Si / 1000 Ang^3
#
#
#
# Elastic Constant Matrix: (Units=GPa)
#
#
# Indices 1 2 3 4 5 6 
#
# 1 40.3867 18.3490 18.6851 0.0000 0.0000 0.0000
# 2 18.3490 118.7136 40.9673 0.0000 0.0000 0.0000
# 3 18.6851 40.9673 64.6900 0.0000 0.0000 0.0000
# 4 0.0000 0.0000 0.0000 27.3375 0.0000 0.0000
# 5 0.0000 0.0000 0.0000 0.0000 30.3153 0.0000
# 6 0.0000 0.0000 0.0000 0.0000 0.0000 27.9718
#
#
#
# Elastic Compliance Matrix: (Units=1/GPa)
#
#
# Indices 1 2 3 4 5 6 
#
# 1 0.028959 -0.002034 -0.007076 0.000000 0.000000 0.000000
# 2 -0.002034 0.010922 -0.006329 0.000000 0.000000 0.000000
# 3 -0.007076 -0.006329 0.021511 0.000000 0.000000 0.000000
# 4 0.000000 0.000000 0.000000 0.036580 0.000000 0.000000
# 5 0.000000 0.000000 0.000000 0.000000 0.032987 0.000000
# 6 0.000000 0.000000 0.000000 0.000000 0.000000 0.035750
#
#
# Mechanical properties :
#
#
# Convention : Reuss Voigt Hill
#
# Bulk Modulus (GPa) = 32.77399 42.19924 37.48661
# Shear Modulus (GPa) = 24.06642 26.84417 25.45530
#
# Velocity S-wave (km/s) = 3.60145 3.80361 3.70391
# Velocity P-wave (km/s) = 5.91246 6.48328 6.20444
#
# Compressibility (1/GPa) = 0.03051200
#
# Stress axis : x y z
#
# Youngs Moduli (GPa) = 34.53205 91.55607 46.48874
#
# Poissons Ratio (x) = 0.18623 0.32897
# Poissons Ratio (y) = 0.07024 0.29425
# Poissons Ratio (z) = 0.24436 0.57950
#
# Static dielectric constant tensor:
#      x y z
#    x 3.392100 0.000000 0.000000 
#    y 0.000000 3.889000 0.000000 
#    z 0.000000 0.000000 3.257460 
# 
# 
# High freq. dielectric constant tensor:
#      x y z
#    x 1.717490 0.000000 0.000000 
#    y 0.000000 1.736430 0.000000 
#    z 0.000000 0.000000 1.698910 
# 
# From -- ./inp_files/11883.got.cif
#   From: 2010.03.12/outbox.cif.g09.slc.cpg/sg51_6_cif.got.tgz:11883.got - 2010.04.16 13:43:02.
