data_PCOD8211612
_publ_section_title
;
Structure prediction by ZEFSAII (Michael W. Deem and Ramdas Pophale) SiO2 
 PCOD8211612
Probable space group: P M M A
;
_chemical_formula_sum "Si O2"
_cell_formula_units_Z 48
_cell_length_a 8.982369
_cell_length_b 9.176134
_cell_length_c 30.913391
_cell_angle_alpha 90.000000
_cell_angle_beta 90.000000
_cell_angle_gamma 90.000000
_cell_volume 2547.987459
_symmetry_space_group_name_H-M "P M M A"
_symmetry_group_IT_number 51
_symmetry_cell_setting 'orthorhombic'
loop_
_space_group_symop_operation_xyz
x,y,z
1/2-x,-y,z
1/2+x,-y,-z
-x,y,-z
-x,-y,-z
1/2+x,y,-z
1/2-x,y,z
x,-y,z
loop_
_atom_site_type_symbol
_atom_site_label
_atom_site_fract_x
_atom_site_fract_y
_atom_site_fract_z
Si Si1 0.927031 0.164271 0.872801
Si Si2 0.575476 0.832830 0.289436
Si Si3 0.925170 0.332439 0.956328
Si Si4 0.579735 0.327687 0.456594
Si Si5 0.422583 0.328963 0.212331
Si Si6 0.922875 0.830582 0.621586
O O1 0.750000 0.166639 0.874009
O O2 0.989132 0.240468 0.916085
O O3 0.983201 0.252326 0.831040
O O4 0.989019 0.000000 0.870406
O O5 0.750000 0.811172 0.295998
O O6 0.519159 0.728701 0.251805
O O7 0.495038 0.783440 0.333208
O O8 0.535538 0.000000 0.277962
O O9 0.750000 0.312476 0.961154
O O10 0.968877 0.500000 0.948258
O O11 0.000000 0.272520 0.000000
O O12 0.500000 0.271346 0.500000
O O13 0.750000 0.275264 0.457989
O O14 0.567052 0.500000 0.452559
O O15 0.499183 0.259865 0.415828
O O16 0.250000 0.290532 0.220622
O O17 0.447089 0.500000 0.206958
O O18 0.750000 0.790799 0.623307
O O19 0.950400 0.000000 0.612379
#
# Coordination Sequence:
#
# PCOD8211612 Si02
#       6
#     8   8   8   8   8   8
#     4   9  17  30  50  74  99 130 169 212 256 303
#     4  10  21  37  56  78 106 139 173 212 261 314
#     4   9  17  30  48  70  97 129 165 206 253 305
#     4  10  21  37  57  81 110 145 183 223 268 316
#     4  10  20  34  54  79 104 133 172 215 258 308
#     4  10  21  37  58  83 109 140 179 221 265 314
#
# _framework density 18.838398000000002
#
# number of rings (size 3 to 8) (size 9 to 14) (size 15 to 20)
#    0.000    2.333    0.000    2.500    0.000    7.333 
#    0.000    0.833    0.000    3.000    0.000    0.000 
#    0.000    0.000    0.000    0.000    0.000    0.000 
#
# Total GULP energy -595362.611115 kJ/mol
# GULP energy per Si atom -12403.387732 kJ/mol
# Density = 1.879552 g / cm^3
# Si number density = 18.838398 Si / 1000 Ang^3
#
#
#
# Elastic Constant Matrix: (Units=GPa)
#
#
# Indices 1 2 3 4 5 6 
#
# 1 76.5655 32.5720 56.4380 0.0000 0.0000 0.0000
# 2 32.5720 73.3994 60.9270 0.0000 0.0000 0.0000
# 3 56.4380 60.9270 164.7329 0.0000 0.0000 0.0000
# 4 0.0000 0.0000 0.0000 39.0533 0.0000 0.0000
# 5 0.0000 0.0000 0.0000 0.0000 34.4334 0.0000
# 6 0.0000 0.0000 0.0000 0.0000 0.0000 24.2309
#
#
#
# Elastic Compliance Matrix: (Units=1/GPa)
#
#
# Indices 1 2 3 4 5 6 
#
# 1 0.018335 -0.004217 -0.004722 0.000000 0.000000 0.000000
# 2 -0.004217 0.020630 -0.006185 0.000000 0.000000 0.000000
# 3 -0.004722 -0.006185 0.009976 0.000000 0.000000 0.000000
# 4 0.000000 0.000000 0.000000 0.025606 0.000000 0.000000
# 5 0.000000 0.000000 0.000000 0.000000 0.029042 0.000000
# 6 0.000000 0.000000 0.000000 0.000000 0.000000 0.041270
#
#
# Mechanical properties :
#
#
# Convention : Reuss Voigt Hill
#
# Bulk Modulus (GPa) = 53.49758 68.28575 60.89167
# Shear Modulus (GPa) = 27.57294 30.52759 29.05026
#
# Velocity S-wave (km/s) = 3.82993 4.02991 3.93119
# Velocity P-wave (km/s) = 6.92947 7.61449 7.28004
#
# Compressibility (1/GPa) = 0.01869243
#
# Stress axis : x y z
#
# Youngs Moduli (GPa) = 54.53930 48.47414 100.24177
#
# Poissons Ratio (x) = 0.20441 0.47336
# Poissons Ratio (y) = 0.22998 0.62002
# Poissons Ratio (z) = 0.25754 0.29982
#
# Static dielectric constant tensor:
#      x y z
#    x 3.244660 0.000000 0.000000 
#    y 0.000000 3.455720 0.000000 
#    z 0.000000 0.000000 3.534730 
# 
# 
# High freq. dielectric constant tensor:
#      x y z
#    x 1.717640 0.000000 0.000000 
#    y 0.000000 1.729190 0.000000 
#    z 0.000000 0.000000 1.747760 
# 
# From -- ./inp_files/36875.got.cif
#   From: 2010.03.12/outbox.cif.g09.slc.cpg/sg51_19_cif.got.tgz:36875.got - 2010.04.16 13:43:02.
