data_PCOD8211659
_publ_section_title
;
Structure prediction by ZEFSAII (Michael W. Deem and Ramdas Pophale) SiO2 
 PCOD8211659
Probable space group: P M M A
;
_chemical_formula_sum "Si O2"
_cell_formula_units_Z 44
_cell_length_a 9.167850
_cell_length_b 7.994132
_cell_length_c 29.944198
_cell_angle_alpha 90.000000
_cell_angle_beta 90.000000
_cell_angle_gamma 90.000000
_cell_volume 2194.580419
_symmetry_space_group_name_H-M "P M M A"
_symmetry_group_IT_number 51
_symmetry_cell_setting 'orthorhombic'
loop_
_space_group_symop_operation_xyz
x,y,z
1/2-x,-y,z
1/2+x,-y,-z
-x,y,-z
-x,-y,-z
1/2+x,y,-z
1/2-x,y,z
x,-y,z
loop_
_atom_site_type_symbol
_atom_site_label
_atom_site_fract_x
_atom_site_fract_y
_atom_site_fract_z
Si Si1 0.076720 0.814277 0.394892
Si Si2 0.089381 0.693454 0.787708
Si Si3 0.583423 0.802055 0.043797
Si Si4 0.411488 0.695251 0.129963
Si Si5 0.585813 0.805420 0.705222
Si Si6 0.424089 0.500000 0.452677
O O1 0.250000 0.818562 0.394440
O O2 0.023583 0.774235 0.344641
O O3 0.020362 0.667327 0.427301
O O4 0.019564 0.000000 0.409988
O O5 0.250000 0.778218 0.787556
O O6 0.107317 0.500000 0.798808
O O7 0.991173 0.776928 0.826806
O O8 0.017275 0.710625 0.739409
O O9 0.750000 0.739456 0.041621
O O10 0.507101 0.724683 0.086510
O O11 0.574517 0.000000 0.047004
O O12 0.500000 0.735963 0.000000
O O13 0.250000 0.776705 0.124821
O O14 0.393134 0.500000 0.137938
O O15 0.750000 0.733711 0.709479
O O16 0.584933 0.000000 0.716740
O O17 0.250000 0.500000 0.457795
O O18 0.500000 0.500000 0.500000
#
# Coordination Sequence:
#
# PCOD8211659 Si02
#       6
#     8   8   8   8   8   4
#     4   8  16  32  53  78 107 139 181 229 273 324
#     4  10  21  35  51  75 107 141 173 210 260 316
#     4  10  21  37  57  80 105 135 172 215 265 319
#     4  10  21  37  56  78 104 137 178 220 262 312
#     4   9  18  33  54  79 103 132 176 223 263 311
#     4  10  20  34  54  80 108 144 184 226 277 328
#
# _framework density 20.049391
#
# number of rings (size 3 to 8) (size 9 to 14) (size 15 to 20)
#    0.000    2.545    0.000    2.727    1.273    5.091 
#    0.000    0.909    0.000    1.091    0.000    0.000 
#    0.000    0.000    0.000    0.000    0.000    0.000 
#
# Total GULP energy -545472.797873 kJ/mol
# GULP energy per Si atom -12397.109043 kJ/mol
# Density = 2.000376 g / cm^3
# Si number density = 20.049391 Si / 1000 Ang^3
#
#
#
# Elastic Constant Matrix: (Units=GPa)
#
#
# Indices 1 2 3 4 5 6 
#
# 1 125.2067 28.9064 61.4001 0.0000 0.0000 0.0000
# 2 28.9064 59.7764 50.1402 0.0000 0.0000 0.0000
# 3 61.4001 50.1402 156.4339 0.0000 0.0000 0.0000
# 4 0.0000 0.0000 0.0000 1853.5543 0.0000 0.0000
# 5 0.0000 0.0000 0.0000 0.0000 33.9123 0.0000
# 6 0.0000 0.0000 0.0000 0.0000 0.0000 17.8151
#
#
#
# Elastic Compliance Matrix: (Units=1/GPa)
#
#
# Indices 1 2 3 4 5 6 
#
# 1 0.010085 -0.002129 -0.003276 0.000000 0.000000 0.000000
# 2 -0.002129 0.023330 -0.006642 0.000000 0.000000 0.000000
# 3 -0.003276 -0.006642 0.009807 0.000000 0.000000 0.000000
# 4 0.000000 0.000000 0.000000 0.000540 0.000000 0.000000
# 5 0.000000 0.000000 0.000000 0.000000 0.029488 0.000000
# 6 0.000000 0.000000 0.000000 0.000000 0.000000 0.056132
#
#
# Mechanical properties :
#
#
# Convention : Reuss Voigt Hill
#
# Bulk Modulus (GPa) = 52.27942 69.14559 60.71251
# Shear Modulus (GPa) = 31.27913 394.45437 212.86675
#
# Velocity S-wave (km/s) = 3.95410 14.04167 10.31512
# Velocity P-wave (km/s) = 6.85408 17.24685 13.12311
#
# Compressibility (1/GPa) = 0.01912799
#
# Stress axis : x y z
#
# Youngs Moduli (GPa) = 99.15955 42.86350 101.96616
#
# Poissons Ratio (x) = 0.09125 0.33403
# Poissons Ratio (y) = 0.21110 0.67727
# Poissons Ratio (z) = 0.32484 0.28470
#
# Static dielectric constant tensor:
#      x y z
#    x 4.021040 0.000000 0.000000 
#    y 0.000000 3.612650 0.000000 
#    z 0.000000 0.000000 3.664830 
# 
# 
# High freq. dielectric constant tensor:
#      x y z
#    x 1.768860 0.000000 0.000000 
#    y 0.000000 1.769260 0.000000 
#    z 0.000000 0.000000 1.786970 
# 
# From -- ./inp_files/36770.got.cif
#   From: 2010.03.12/outbox.cif.g09.slc.cpg/sg51_19_cif.got.tgz:36770.got - 2010.04.16 13:43:02.
