data_PCOD8211486
_publ_section_title
;
Structure prediction by ZEFSAII (Michael W. Deem and Ramdas Pophale) SiO2 
 PCOD8211486
Probable space group: P M M A
;
_chemical_formula_sum "Si O2"
_cell_formula_units_Z 48
_cell_length_a 30.314039
_cell_length_b 8.846544
_cell_length_c 9.388481
_cell_angle_alpha 90.000000
_cell_angle_beta 90.000000
_cell_angle_gamma 90.000000
_cell_volume 2517.751009
_symmetry_space_group_name_H-M "P M M A"
_symmetry_group_IT_number 51
_symmetry_cell_setting 'orthorhombic'
loop_
_space_group_symop_operation_xyz
x,y,z
1/2-x,-y,z
1/2+x,-y,-z
-x,y,-z
-x,-y,-z
1/2+x,y,-z
1/2-x,y,z
x,-y,z
loop_
_atom_site_type_symbol
_atom_site_label
_atom_site_fract_x
_atom_site_fract_y
_atom_site_fract_z
Si Si1 0.750000 0.828051 0.317052
Si Si2 0.179045 0.664136 0.522541
Si Si3 0.156442 0.175432 0.010557
Si Si4 0.250000 0.321447 0.978488
Si Si5 0.623909 0.826882 0.685318
Si Si6 0.105600 0.333650 0.753486
Si Si7 0.451407 0.822466 0.532421
O O1 0.791650 0.797356 0.414871
O O2 0.750000 0.709004 0.189512
O O3 0.750000 0.000000 0.261128
O O4 0.202917 0.500000 0.506385
O O5 0.163367 0.720643 0.368854
O O6 0.137763 0.644346 0.622832
O O7 0.204479 0.251101 0.040404
O O8 0.130324 0.244066 0.877888
O O9 0.165519 0.000000 0.978429
O O10 0.123447 0.197317 0.144586
O O11 0.250000 0.500000 0.007063
O O12 0.578413 0.780976 0.606227
O O13 0.635118 0.000000 0.647960
O O14 0.091317 0.500000 0.810467
O O15 0.064128 0.246531 0.684356
O O16 0.500000 0.758251 0.500000
O O17 0.452403 0.000000 0.557483
#
# Coordination Sequence:
#
# PCOD8211486 Si02
#       7
#     4   8   8   4   8   8   8
#     4  12  22  33  54  79 106 142 186 234 274 321
#     4  10  20  34  53  77 106 141 182 229 276 324
#     4  11  22  37  57  81 112 152 191 231 279 333
#     4  12  24  37  54  79 112 148 190 234 274 327
#     4   9  20  37  56  81 112 144 185 232 282 338
#     4  10  20  34  55  81 111 145 183 229 277 335
#     4   9  18  36  62  87 111 143 186 236 287 342
#
# _framework density 19.064634000000002
#
# number of rings (size 3 to 8) (size 9 to 14) (size 15 to 20)
#    0.000    1.833    1.667    3.000    0.000    3.667 
#    0.000    1.667    0.000    5.000    0.000    0.000 
#    0.000    0.000    0.000    0.000    0.000    0.000 
#
# Total GULP energy -594827.768256 kJ/mol
# GULP energy per Si atom -12392.245172 kJ/mol
# Density = 1.902124 g / cm^3
# Si number density = 19.064634 Si / 1000 Ang^3
#
#
#
# Elastic Constant Matrix: (Units=GPa)
#
#
# Indices 1 2 3 4 5 6 
#
# 1 98.2995 35.8779 39.4007 0.0000 0.0000 0.0000
# 2 35.8779 105.3767 37.8178 0.0000 0.0000 0.0000
# 3 39.4007 37.8178 94.4093 0.0000 0.0000 0.0000
# 4 0.0000 0.0000 0.0000 20.1114 0.0000 0.0000
# 5 0.0000 0.0000 0.0000 0.0000 32.3813 0.0000
# 6 0.0000 0.0000 0.0000 0.0000 0.0000 20.2762
#
#
#
# Elastic Compliance Matrix: (Units=1/GPa)
#
#
# Indices 1 2 3 4 5 6 
#
# 1 0.012923 -0.002878 -0.004240 0.000000 0.000000 0.000000
# 2 -0.002878 0.011724 -0.003495 0.000000 0.000000 0.000000
# 3 -0.004240 -0.003495 0.013762 0.000000 0.000000 0.000000
# 4 0.000000 0.000000 0.000000 0.049723 0.000000 0.000000
# 5 0.000000 0.000000 0.000000 0.000000 0.030882 0.000000
# 6 0.000000 0.000000 0.000000 0.000000 0.000000 0.049319
#
#
# Mechanical properties :
#
#
# Convention : Reuss Voigt Hill
#
# Bulk Modulus (GPa) = 58.20172 58.25317 58.22744
# Shear Modulus (GPa) = 25.60324 26.88639 26.24482
#
# Velocity S-wave (km/s) = 3.66863 3.75944 3.71431
# Velocity P-wave (km/s) = 6.96707 7.03324 7.00023
#
# Compressibility (1/GPa) = 0.01718162
#
# Stress axis : x y z
#
# Youngs Moduli (GPa) = 77.38061 85.29477 72.66421
#
# Poissons Ratio (x) = 0.24549 0.30813
# Poissons Ratio (y) = 0.22271 0.25397
# Poissons Ratio (z) = 0.32813 0.29812
#
# Static dielectric constant tensor:
#      x y z
#    x 3.526020 0.000000 0.000000 
#    y 0.000000 3.837150 0.000000 
#    z 0.000000 0.000000 3.386370 
# 
# 
# High freq. dielectric constant tensor:
#      x y z
#    x 1.723790 0.000000 0.000000 
#    y 0.000000 1.752390 0.000000 
#    z 0.000000 0.000000 1.732640 
# 
# From -- ./inp_files/12890.got.cif
#   From: 2010.03.12/outbox.cif.g09.slc.cpg/sg51_7_cif.got.tgz:12890.got - 2010.04.16 13:43:02.
