data_PCOD8211530
_publ_section_title
;
Structure prediction by ZEFSAII (Michael W. Deem and Ramdas Pophale) SiO2 
 PCOD8211530
Probable space group: P M M A
;
_chemical_formula_sum "Si O2"
_cell_formula_units_Z 56
_cell_length_a 9.144561
_cell_length_b 20.675040
_cell_length_c 15.121937
_cell_angle_alpha 90.000000
_cell_angle_beta 90.000000
_cell_angle_gamma 90.000000
_cell_volume 2859.016384
_symmetry_space_group_name_H-M "P M M A"
_symmetry_group_IT_number 51
_symmetry_cell_setting 'orthorhombic'
loop_
_space_group_symop_operation_xyz
x,y,z
1/2-x,-y,z
1/2+x,-y,-z
-x,y,-z
-x,-y,-z
1/2+x,y,-z
1/2-x,y,z
x,-y,z
loop_
_atom_site_type_symbol
_atom_site_label
_atom_site_fract_x
_atom_site_fract_y
_atom_site_fract_z
Si Si1 0.590313 0.612919 0.154411
Si Si2 0.078400 0.162028 0.769404
Si Si3 0.924146 0.230177 0.410257
Si Si4 0.081835 0.500000 0.091507
Si Si5 0.580579 0.076162 0.909181
Si Si6 0.086624 0.745282 0.919382
Si Si7 0.925499 0.500000 0.593492
Si Si8 0.585765 0.371401 0.352292
O O1 0.750000 0.580651 0.135860
O O2 0.460977 0.561692 0.149011
O O3 0.561012 0.668495 0.083009
O O4 0.592740 0.645952 0.249580
O O5 0.250000 0.144096 0.769373
O O6 0.027257 0.181543 0.669614
O O7 0.040559 0.225519 0.825963
O O8 0.990282 0.104646 0.818405
O O9 0.750000 0.228068 0.419369
O O10 0.973955 0.305415 0.397021
O O11 0.000000 0.204609 0.500000
O O12 0.250000 0.500000 0.071582
O O13 0.000000 0.500000 0.000000
O O14 0.750000 0.097122 0.915269
O O15 0.563715 0.000000 0.899158
O O16 0.500000 0.099301 0.000000
O O17 0.250000 0.764140 0.941244
O O18 0.000000 0.776795 0.000000
O O19 0.750000 0.500000 0.590745
O O20 0.000000 0.500000 0.500000
O O21 0.979886 0.566614 0.638195
O O22 0.750000 0.388555 0.387418
#
# Coordination Sequence:
#
# PCOD8211530 Si02
#       8
#     8   8   8   4   8   8   4   8
#     4  10  20  37  57  75 101 139 178 221 279 341
#     4  10  20  37  59  85 119 155 195 238 285 338
#     4  10  21  38  60  86 116 152 194 244 296 354
#     4  12  25  38  51  71  99 135 183 235 282 337
#     4  10  21  37  59  91 129 166 202 238 279 331
#     4  10  20  34  53  79 110 144 181 225 273 330
#     4  12  25  38  53  77 105 135 179 235 294 355
#     4  10  20  38  60  80 107 143 182 229 293 358
#
# _framework density 19.587156
#
# number of rings (size 3 to 8) (size 9 to 14) (size 15 to 20)
#    0.000    1.714    1.429    3.429    0.000    8.857 
#    0.000    0.000    0.000    0.429    0.000    0.000 
#    0.000    0.000    0.000    0.000    0.000    0.000 
#
# Total GULP energy -693935.827858 kJ/mol
# GULP energy per Si atom -12391.711212 kJ/mol
# Density = 1.954257 g / cm^3
# Si number density = 19.587156 Si / 1000 Ang^3
#
#
#
# Elastic Constant Matrix: (Units=GPa)
#
#
# Indices 1 2 3 4 5 6 
#
# 1 98.3080 43.5708 51.9997 0.0000 0.0000 0.0000
# 2 43.5708 73.1623 40.2323 0.0000 0.0000 0.0000
# 3 51.9997 40.2323 134.4701 0.0000 0.0000 0.0000
# 4 0.0000 0.0000 0.0000 32.7593 0.0000 0.0000
# 5 0.0000 0.0000 0.0000 0.0000 33.6394 0.0000
# 6 0.0000 0.0000 0.0000 0.0000 0.0000 25.2584
#
#
#
# Elastic Compliance Matrix: (Units=1/GPa)
#
#
# Indices 1 2 3 4 5 6 
#
# 1 0.015300 -0.007012 -0.003819 0.000000 0.000000 0.000000
# 2 -0.007012 0.019573 -0.003145 0.000000 0.000000 0.000000
# 3 -0.003819 -0.003145 0.009854 0.000000 0.000000 0.000000
# 4 0.000000 0.000000 0.000000 0.030526 0.000000 0.000000
# 5 0.000000 0.000000 0.000000 0.000000 0.029727 0.000000
# 6 0.000000 0.000000 0.000000 0.000000 0.000000 0.039591
#
#
# Mechanical properties :
#
#
# Convention : Reuss Voigt Hill
#
# Bulk Modulus (GPa) = 59.60507 64.17179 61.88843
# Shear Modulus (GPa) = 28.07214 29.67390 28.87302
#
# Velocity S-wave (km/s) = 3.78986 3.89648 3.84354
# Velocity P-wave (km/s) = 7.04609 7.28538 7.16673
#
# Compressibility (1/GPa) = 0.01677710
#
# Stress axis : x y z
#
# Youngs Moduli (GPa) = 65.36157 51.09020 101.48049
#
# Poissons Ratio (x) = 0.35822 0.38751
# Poissons Ratio (y) = 0.45829 0.31913
# Poissons Ratio (z) = 0.24959 0.16067
#
# Static dielectric constant tensor:
#      x y z
#    x 3.686890 0.000000 0.000000 
#    y 0.000000 4.018720 0.000000 
#    z 0.000000 0.000000 3.397410 
# 
# 
# High freq. dielectric constant tensor:
#      x y z
#    x 1.754800 0.000000 0.000000 
#    y 0.000000 1.751010 0.000000 
#    z 0.000000 0.000000 1.765800 
# 
# From -- ./inp_files/21924.got.cif
#   From: 2010.03.12/outbox.cif.g09.slc.cpg/sg51_11_cif.got.tgz:21924.got - 2010.04.16 13:43:02.
