data_PCOD8211167
_publ_section_title
;
Structure prediction by ZEFSAII (Michael W. Deem and Ramdas Pophale) SiO2 
 PCOD8211167
Probable space group: P M M A
;
_chemical_formula_sum "Si O2"
_cell_formula_units_Z 40
_cell_length_a 14.810340
_cell_length_b 9.171732
_cell_length_c 15.062587
_cell_angle_alpha 90.000000
_cell_angle_beta 90.000000
_cell_angle_gamma 90.000000
_cell_volume 2046.048637
_symmetry_space_group_name_H-M "P M M A"
_symmetry_group_IT_number 51
_symmetry_cell_setting 'orthorhombic'
loop_
_space_group_symop_operation_xyz
x,y,z
1/2-x,-y,z
1/2+x,-y,-z
-x,y,-z
-x,-y,-z
1/2+x,y,-z
1/2-x,y,z
x,-y,z
loop_
_atom_site_type_symbol
_atom_site_label
_atom_site_fract_x
_atom_site_fract_y
_atom_site_fract_z
Si Si1 0.079744 0.334372 0.731881
Si Si2 0.579165 0.333245 0.064691
Si Si3 0.750000 0.827324 0.341507
Si Si4 0.750000 0.828190 0.999306
Si Si5 0.250000 0.333368 0.475678
Si Si6 0.250000 0.827732 0.203435
Si Si7 0.885753 0.332003 0.676740
O O1 0.111869 0.500000 0.713614
O O2 0.048541 0.315538 0.833571
O O3 0.161131 0.227868 0.708640
O O4 0.992309 0.296042 0.671590
O O5 0.605207 0.500000 0.042879
O O6 0.500000 0.278930 0.000000
O O7 0.663984 0.231356 0.050276
O O8 0.750000 0.774881 0.442447
O O9 0.750000 0.000000 0.339383
O O10 0.750000 0.775549 0.897927
O O11 0.750000 0.000000 0.006980
O O12 0.250000 0.500000 0.509715
O O13 0.160060 0.301047 0.418349
O O14 0.340124 0.766590 0.248444
O O15 0.250000 0.000000 0.212807
O O16 0.870047 0.500000 0.704070
#
# Coordination Sequence:
#
# PCOD8211167 Si02
#       7
#     8   8   4   4   4   4   8
#     4  10  21  39  61  84 111 145 187 235 282 327
#     4  10  21  37  59  85 111 144 189 238 282 325
#     4  12  26  40  56  81 116 155 190 225 272 333
#     4  11  23  35  50  77 115 156 191 227 276 333
#     4   9  19  38  62  88 113 139 177 226 281 338
#     4  10  20  33  52  82 118 152 184 226 281 334
#     4   9  19  37  63  88 109 140 184 233 283 335
#
# _framework density 19.549878
#
# number of rings (size 3 to 8) (size 9 to 14) (size 15 to 20)
#    0.000    2.000    0.000    3.900    0.000   10.000 
#    0.000    4.000    0.000    0.000    0.000    0.000 
#    0.000    0.000    0.000    0.000    0.000    0.000 
#
# Total GULP energy -496141.631438 kJ/mol
# GULP energy per Si atom -12403.540786 kJ/mol
# Density = 1.950538 g / cm^3
# Si number density = 19.549878 Si / 1000 Ang^3
#
#
#
# Elastic Constant Matrix: (Units=GPa)
#
#
# Indices 1 2 3 4 5 6 
#
# 1 142.7155 51.6578 48.8968 0.0000 0.0000 0.0000
# 2 51.6578 84.8658 39.2724 0.0000 0.0000 0.0000
# 3 48.8968 39.2724 92.3422 0.0000 0.0000 0.0000
# 4 0.0000 0.0000 0.0000 29.4495 0.0000 0.0000
# 5 0.0000 0.0000 0.0000 0.0000 14.9868 0.0000
# 6 0.0000 0.0000 0.0000 0.0000 0.0000 53.9396
#
#
#
# Elastic Compliance Matrix: (Units=1/GPa)
#
#
# Indices 1 2 3 4 5 6 
#
# 1 0.009723 -0.004402 -0.003276 0.000000 0.000000 0.000000
# 2 -0.004402 0.016664 -0.004756 0.000000 0.000000 0.000000
# 3 -0.003276 -0.004756 0.014587 0.000000 0.000000 0.000000
# 4 0.000000 0.000000 0.000000 0.033956 0.000000 0.000000
# 5 0.000000 0.000000 0.000000 0.000000 0.066725 0.000000
# 6 0.000000 0.000000 0.000000 0.000000 0.000000 0.018539
#
#
# Mechanical properties :
#
#
# Convention : Reuss Voigt Hill
#
# Bulk Modulus (GPa) = 62.09361 66.61972 64.35666
# Shear Modulus (GPa) = 26.25619 31.68164 28.96892
#
# Velocity S-wave (km/s) = 3.66872 4.02998 3.85359
# Velocity P-wave (km/s) = 7.05525 7.47028 7.26573
#
# Compressibility (1/GPa) = 0.01610472
#
# Stress axis : x y z
#
# Youngs Moduli (GPa) = 102.85029 60.01044 68.55545
#
# Poissons Ratio (x) = 0.26418 0.22460
# Poissons Ratio (y) = 0.45277 0.32604
# Poissons Ratio (z) = 0.33696 0.28540
#
# Static dielectric constant tensor:
#      x y z
#    x 2.572690 0.000000 0.000000 
#    y 0.000000 3.446550 0.000000 
#    z 0.000000 0.000000 3.582950 
# 
# 
# High freq. dielectric constant tensor:
#      x y z
#    x 1.768850 0.000000 0.000000 
#    y 0.000000 1.751020 0.000000 
#    z 0.000000 0.000000 1.764720 
# 
# From -- ./inp_files/23867.got.cif
#   From: 2010.03.12/outbox.cif.g09.slc.cpg/sg51_12_cif.got.tgz:23867.got - 2010.04.16 13:43:02.
