data_PCOD8211153
_publ_section_title
;
Structure prediction by ZEFSAII (Michael W. Deem and Ramdas Pophale) SiO2 
 PCOD8211153
Probable space group: P M M A
;
_chemical_formula_sum "Si O2"
_cell_formula_units_Z 56
_cell_length_a 14.205863
_cell_length_b 8.892258
_cell_length_c 22.645933
_cell_angle_alpha 90.000000
_cell_angle_beta 90.000000
_cell_angle_gamma 90.000000
_cell_volume 2860.684053
_symmetry_space_group_name_H-M "P M M A"
_symmetry_group_IT_number 51
_symmetry_cell_setting 'orthorhombic'
loop_
_space_group_symop_operation_xyz
x,y,z
1/2-x,-y,z
1/2+x,-y,-z
-x,y,-z
-x,-y,-z
1/2+x,y,-z
1/2-x,y,z
x,-y,z
loop_
_atom_site_type_symbol
_atom_site_label
_atom_site_fract_x
_atom_site_fract_y
_atom_site_fract_z
Si Si1 0.648776 0.328065 0.090079
Si Si2 0.141839 0.822846 0.249976
Si Si3 0.104665 0.166811 0.023326
Si Si4 0.955191 0.673160 0.641038
Si Si5 0.640674 0.828567 0.535034
Si Si6 0.951809 0.677612 0.862487
Si Si7 0.644763 0.328064 0.413708
O O1 0.750000 0.311758 0.123944
O O2 0.626845 0.500000 0.073798
O O3 0.561243 0.269056 0.129384
O O4 0.664077 0.242177 0.028473
O O5 0.250000 0.767285 0.251069
O O6 0.090899 0.779135 0.310344
O O7 0.085778 0.746464 0.197343
O O8 0.136752 0.000000 0.241937
O O9 0.111221 0.263398 0.083194
O O10 0.143964 0.000000 0.036676
O O11 0.000000 0.159381 0.000000
O O12 0.931034 0.500000 0.655349
O O13 0.914975 0.716642 0.577393
O O14 0.068543 0.698638 0.638402
O O15 0.750000 0.813559 0.550630
O O16 0.620615 0.780793 0.467984
O O17 0.606219 0.000000 0.543491
O O18 0.942541 0.500000 0.858644
O O19 0.750000 0.293706 0.389058
O O20 0.638332 0.500000 0.436269
#
# Coordination Sequence:
#
# PCOD8211153 Si02
#       7
#     8   8   8   8   8   8   8
#     4   9  18  33  54  82 114 145 178 217 262 315
#     4  11  25  43  60  78 103 137 177 222 271 321
#     4   9  17  30  50  77 109 143 178 218 263 309
#     4  11  22  36  57  82 107 140 181 223 267 314
#     4  10  20  33  52  81 115 148 180 217 265 317
#     4  10  20  36  58  81 107 142 182 223 267 315
#     4   9  19  36  56  80 111 144 178 217 262 315
#
# _framework density 19.575738000000001
#
# number of rings (size 3 to 8) (size 9 to 14) (size 15 to 20)
#    0.000    2.143    0.000    3.000    0.000    9.714 
#    0.000    0.714    0.000    4.286    0.000    0.000 
#    0.000    0.000    0.000    0.000    0.000    0.000 
#
# Total GULP energy -694266.937314 kJ/mol
# GULP energy per Si atom -12397.623881 kJ/mol
# Density = 1.953118 g / cm^3
# Si number density = 19.575738 Si / 1000 Ang^3
#
#
#
# Elastic Constant Matrix: (Units=GPa)
#
#
# Indices 1 2 3 4 5 6 
#
# 1 117.1636 38.5836 59.3902 0.0000 0.0000 0.0000
# 2 38.5836 78.2869 29.7018 0.0000 0.0000 0.0000
# 3 59.3902 29.7018 69.5775 0.0000 0.0000 0.0000
# 4 0.0000 0.0000 0.0000 34.3214 0.0000 0.0000
# 5 0.0000 0.0000 0.0000 0.0000 23.4874 0.0000
# 6 0.0000 0.0000 0.0000 0.0000 0.0000 20.7549
#
#
#
# Elastic Compliance Matrix: (Units=1/GPa)
#
#
# Indices 1 2 3 4 5 6 
#
# 1 0.015674 -0.003161 -0.012030 0.000000 0.000000 0.000000
# 2 -0.003161 0.015880 -0.004081 0.000000 0.000000 0.000000
# 3 -0.012030 -0.004081 0.026383 0.000000 0.000000 0.000000
# 4 0.000000 0.000000 0.000000 0.029136 0.000000 0.000000
# 5 0.000000 0.000000 0.000000 0.000000 0.042576 0.000000
# 6 0.000000 0.000000 0.000000 0.000000 0.000000 0.048181
#
#
# Mechanical properties :
#
#
# Convention : Reuss Voigt Hill
#
# Bulk Modulus (GPa) = 51.56298 57.81993 54.69146
# Shear Modulus (GPa) = 22.43796 24.86956 23.65376
#
# Velocity S-wave (km/s) = 3.38925 3.56817 3.47986
# Velocity P-wave (km/s) = 6.45859 6.82469 6.64417
#
# Compressibility (1/GPa) = 0.01939376
#
# Stress axis : x y z
#
# Youngs Moduli (GPa) = 63.80089 62.97404 37.90362
#
# Poissons Ratio (x) = 0.19905 0.45596
# Poissons Ratio (y) = 0.20166 0.15468
# Poissons Ratio (z) = 0.76750 0.25698
#
# Static dielectric constant tensor:
#      x y z
#    x 3.878890 0.000000 0.000000 
#    y 0.000000 3.700260 0.000000 
#    z 0.000000 0.000000 3.344980 
# 
# 
# High freq. dielectric constant tensor:
#      x y z
#    x 1.777390 0.000000 0.000000 
#    y 0.000000 1.770050 0.000000 
#    z 0.000000 0.000000 1.732990 
# 
# From -- ./inp_files/33481.got.cif
#   From: 2010.03.12/outbox.cif.g09.slc.cpg/sg51_17_cif.got.tgz:33481.got - 2010.04.16 13:43:02.
