data_PCOD8211298
_publ_section_title
;
Structure prediction by ZEFSAII (Michael W. Deem and Ramdas Pophale) SiO2 
 PCOD8211298
Probable space group: P M M A
;
_chemical_formula_sum "Si O2"
_cell_formula_units_Z 52
_cell_length_a 23.525480
_cell_length_b 7.557061
_cell_length_c 15.758392
_cell_angle_alpha 90.000000
_cell_angle_beta 90.000000
_cell_angle_gamma 90.000000
_cell_volume 2801.581886
_symmetry_space_group_name_H-M "P M M A"
_symmetry_group_IT_number 51
_symmetry_cell_setting 'orthorhombic'
loop_
_space_group_symop_operation_xyz
x,y,z
1/2-x,-y,z
1/2+x,-y,-z
-x,y,-z
-x,-y,-z
1/2+x,y,-z
1/2-x,y,z
x,-y,z
loop_
_atom_site_type_symbol
_atom_site_label
_atom_site_fract_x
_atom_site_fract_y
_atom_site_fract_z
Si Si1 0.685737 0.000000 0.832035
Si Si2 0.938740 0.700841 0.969201
Si Si3 0.683859 0.705082 0.328408
Si Si4 0.143344 0.000000 0.984130
Si Si5 0.917865 0.291160 0.444681
Si Si6 0.101458 0.295920 0.215284
Si Si7 0.463548 0.289940 0.379543
Si Si8 0.184918 0.000000 0.796955
O O1 0.657332 0.176962 0.794869
O O2 0.750000 0.000000 0.800530
O O3 0.684601 0.000000 0.934663
O O4 0.925159 0.500000 0.996145
O O5 0.937301 0.724905 0.867981
O O6 0.893706 0.823183 0.015915
O O7 0.000000 0.762007 0.000000
O O8 0.750000 0.737934 0.353789
O O9 0.673902 0.500000 0.304710
O O10 0.643227 0.765922 0.406580
O O11 0.662308 0.820461 0.247935
O O12 0.177295 0.000000 0.897099
O O13 0.922058 0.500000 0.446913
O O14 0.925498 0.220396 0.541002
O O15 0.971389 0.220146 0.388543
O O16 0.120435 0.500000 0.228783
O O17 0.064313 0.219244 0.292911
O O18 0.463668 0.500000 0.377007
O O19 0.250000 0.000000 0.775974
#
# Coordination Sequence:
#
# PCOD8211298 Si02
#       8
#     4   8   8   4   8   8   8   4
#     4  10  21  37  54  71  95 129 167 208 254 300
#     4   9  18  32  50  74 104 134 162 197 245 297
#     4   9  18  33  51  71  99 133 166 202 246 296
#     4  10  20  34  52  72  96 128 166 204 243 292
#     4   8  14  27  49  75 101 132 167 202 245 294
#     4   9  18  33  52  74 101 132 165 205 251 296
#     4   8  14  27  49  75 102 131 165 205 247 293
#     4  10  21  35  50  71  97 125 162 206 246 286
#
# _framework density 18.560943000000002
#
# number of rings (size 3 to 8) (size 9 to 14) (size 15 to 20)
#    0.000    3.077    0.000    1.385    0.000    2.154 
#    0.000    5.385    0.000    8.308    0.000    0.000 
#    0.000    0.000    0.000    0.000    0.000    0.000 
#
# Total GULP energy -644415.757010 kJ/mol
# GULP energy per Si atom -12392.610712 kJ/mol
# Density = 1.851870 g / cm^3
# Si number density = 18.560943 Si / 1000 Ang^3
#
#
#
# Elastic Constant Matrix: (Units=GPa)
#
#
# Indices 1 2 3 4 5 6 
#
# 1 105.7907 34.0650 57.6091 0.0000 0.0000 0.0000
# 2 34.0650 70.6679 32.8501 0.0000 0.0000 0.0000
# 3 57.6091 32.8501 106.2256 0.0000 0.0000 0.0000
# 4 0.0000 0.0000 0.0000 16.7653 0.0000 0.0000
# 5 0.0000 0.0000 0.0000 0.0000 27.8999 0.0000
# 6 0.0000 0.0000 0.0000 0.0000 0.0000 14.3912
#
#
#
# Elastic Compliance Matrix: (Units=1/GPa)
#
#
# Indices 1 2 3 4 5 6 
#
# 1 0.014248 -0.003826 -0.006544 0.000000 0.000000 0.000000
# 2 -0.003826 0.017554 -0.003353 0.000000 0.000000 0.000000
# 3 -0.006544 -0.003353 0.014000 0.000000 0.000000 0.000000
# 4 0.000000 0.000000 0.000000 0.059647 0.000000 0.000000
# 5 0.000000 0.000000 0.000000 0.000000 0.035842 0.000000
# 6 0.000000 0.000000 0.000000 0.000000 0.000000 0.069487
#
#
# Mechanical properties :
#
#
# Convention : Reuss Voigt Hill
#
# Bulk Modulus (GPa) = 54.48165 59.08142 56.78154
# Shear Modulus (GPa) = 20.46294 22.35528 21.40911
#
# Velocity S-wave (km/s) = 3.32395 3.47425 3.39993
# Velocity P-wave (km/s) = 6.64441 6.92777 6.78757
#
# Compressibility (1/GPa) = 0.01835480
#
# Stress axis : x y z
#
# Youngs Moduli (GPa) = 70.18394 56.96711 71.42882
#
# Poissons Ratio (x) = 0.21797 0.46743
# Poissons Ratio (y) = 0.26855 0.23953
# Poissons Ratio (z) = 0.45928 0.19104
#
# Static dielectric constant tensor:
#      x y z
#    x 3.388230 0.000000 0.000000 
#    y 0.000000 3.514380 0.000000 
#    z 0.000000 0.000000 3.528540 
# 
# 
# High freq. dielectric constant tensor:
#      x y z
#    x 1.705290 0.000000 0.000000 
#    y 0.000000 1.719580 0.000000 
#    z 0.000000 0.000000 1.714130 
# 
# From -- ./inp_files/25583.got.cif
#   From: 2010.03.12/outbox.cif.g09.slc.cpg/sg51_13_cif.got.tgz:25583.got - 2010.04.16 13:43:02.
