data_PCOD8211903
_publ_section_title
;
Structure prediction by ZEFSAII (Michael W. Deem and Ramdas Pophale) SiO2 
 PCOD8211903
Probable space group: P M M A
;
_chemical_formula_sum "Si O2"
_cell_formula_units_Z 64
_cell_length_a 14.422261
_cell_length_b 8.852433
_cell_length_c 24.184581
_cell_angle_alpha 90.000000
_cell_angle_beta 90.000000
_cell_angle_gamma 90.000000
_cell_volume 3087.696225
_symmetry_space_group_name_H-M "P M M A"
_symmetry_group_IT_number 51
_symmetry_cell_setting 'orthorhombic'
loop_
_space_group_symop_operation_xyz
x,y,z
1/2-x,-y,z
1/2+x,-y,-z
-x,y,-z
-x,-y,-z
1/2+x,y,-z
1/2-x,y,z
x,-y,z
loop_
_atom_site_type_symbol
_atom_site_label
_atom_site_fract_x
_atom_site_fract_y
_atom_site_fract_z
Si Si1 0.852692 0.169788 0.883519
Si Si2 0.141912 0.329152 0.538788
Si Si3 0.530782 0.175935 0.368139
Si Si4 0.354944 0.324054 0.411514
Si Si5 0.015728 0.323993 0.937984
Si Si6 0.050741 0.673504 0.740690
Si Si7 0.349498 0.331286 0.227156
Si Si8 0.642469 0.821437 0.151767
O O1 0.750000 0.183928 0.909642
O O2 0.849120 0.202275 0.818781
O O3 0.917578 0.295703 0.909616
O O4 0.891770 0.000000 0.892502
O O5 0.250000 0.306923 0.549893
O O6 0.111496 0.500000 0.553754
O O7 0.085960 0.213260 0.576278
O O8 0.118178 0.295029 0.475260
O O9 0.424900 0.232004 0.373013
O O10 0.585515 0.251403 0.316204
O O11 0.530420 0.000000 0.357397
O O12 0.250000 0.268555 0.400286
O O13 0.364166 0.500000 0.397038
O O14 0.040731 0.500000 0.937245
O O15 0.097126 0.237201 0.905333
O O16 0.000000 0.262648 0.000000
O O17 0.082069 0.500000 0.742881
O O18 0.090957 0.752355 0.795203
O O19 0.939341 0.693582 0.735336
O O20 0.250000 0.318457 0.259906
O O21 0.356324 0.500000 0.200578
O O22 0.750000 0.773033 0.152468
O O23 0.630935 0.000000 0.154251
#
# Coordination Sequence:
#
# PCOD8211903 Si02
#       8
#     8   8   8   8   8   8   8   8
#     4  10  20  34  57  88 120 153 188 233 292 352
#     4   9  19  38  63  87 113 152 204 258 309 364
#     4  12  25  37  55  87 126 163 200 250 309 365
#     4   9  19  38  63  88 117 157 204 253 306 367
#     4  11  24  41  63  92 125 162 204 249 295 349
#     4  11  23  40  63  88 118 162 209 251 297 355
#     4   9  18  34  58  86 113 144 186 235 289 352
#     4  11  25  45  68  93 124 162 203 252 310 365
#
# _framework density 20.727426999999999
#
# number of rings (size 3 to 8) (size 9 to 14) (size 15 to 20)
#    0.000    1.750    1.250    3.750    0.000    7.250 
#    0.000    5.000    0.000    0.000    0.000    0.000 
#    0.000    0.000    0.000    0.000    0.000    0.000 
#
# Total GULP energy -793400.131387 kJ/mol
# GULP energy per Si atom -12396.877053 kJ/mol
# Density = 2.068025 g / cm^3
# Si number density = 20.727427 Si / 1000 Ang^3
#
#
#
# Elastic Constant Matrix: (Units=GPa)
#
#
# Indices 1 2 3 4 5 6 
#
# 1 89.1676 38.6552 34.8221 0.0000 0.0000 0.0000
# 2 38.6552 97.2958 45.7068 0.0000 0.0000 0.0000
# 3 34.8221 45.7068 94.6455 0.0000 0.0000 0.0000
# 4 0.0000 0.0000 0.0000 20.7098 0.0000 0.0000
# 5 0.0000 0.0000 0.0000 0.0000 10.7215 0.0000
# 6 0.0000 0.0000 0.0000 0.0000 0.0000 24.6310
#
#
#
# Elastic Compliance Matrix: (Units=1/GPa)
#
#
# Indices 1 2 3 4 5 6 
#
# 1 0.014283 -0.004147 -0.003252 0.000000 0.000000 0.000000
# 2 -0.004147 0.014498 -0.005476 0.000000 0.000000 0.000000
# 3 -0.003252 -0.005476 0.014407 0.000000 0.000000 0.000000
# 4 0.000000 0.000000 0.000000 0.048286 0.000000 0.000000
# 5 0.000000 0.000000 0.000000 0.000000 0.093270 0.000000
# 6 0.000000 0.000000 0.000000 0.000000 0.000000 0.040599
#
#
# Mechanical properties :
#
#
# Convention : Reuss Voigt Hill
#
# Bulk Modulus (GPa) = 57.34702 57.71970 57.53336
# Shear Modulus (GPa) = 19.46246 22.00744 20.73495
#
# Velocity S-wave (km/s) = 3.06759 3.26199 3.16628
# Velocity P-wave (km/s) = 6.34619 6.48806 6.41752
#
# Compressibility (1/GPa) = 0.01743770
#
# Stress axis : x y z
#
# Youngs Moduli (GPa) = 70.01562 68.97665 69.41201
#
# Poissons Ratio (x) = 0.28601 0.22575
# Poissons Ratio (y) = 0.29032 0.38008
# Poissons Ratio (z) = 0.22772 0.37770
#
# Static dielectric constant tensor:
#      x y z
#    x 3.950430 0.000000 0.000000 
#    y 0.000000 3.638380 0.000000 
#    z 0.000000 0.000000 3.658410 
# 
# 
# High freq. dielectric constant tensor:
#      x y z
#    x 1.818100 0.000000 0.000000 
#    y 0.000000 1.806550 0.000000 
#    z 0.000000 0.000000 1.802950 
# 
# From -- ./inp_files/35663.got.cif
#   From: 2010.03.12/outbox.cif.g09.slc.cpg/sg51_18_cif.got.tgz:35663.got - 2010.04.16 13:43:02.
