data_PCOD8211121
_publ_section_title
;
Structure prediction by ZEFSAII (Michael W. Deem and Ramdas Pophale) SiO2 
 PCOD8211121
Probable space group: P M M A
;
_chemical_formula_sum "Si O2"
_cell_formula_units_Z 48
_cell_length_a 15.033813
_cell_length_b 9.041353
_cell_length_c 18.495424
_cell_angle_alpha 90.000000
_cell_angle_beta 90.000000
_cell_angle_gamma 90.000000
_cell_volume 2514.009193
_symmetry_space_group_name_H-M "P M M A"
_symmetry_group_IT_number 51
_symmetry_cell_setting 'orthorhombic'
loop_
_space_group_symop_operation_xyz
x,y,z
1/2-x,-y,z
1/2+x,-y,-z
-x,y,-z
-x,-y,-z
1/2+x,y,-z
1/2-x,y,z
x,-y,z
loop_
_atom_site_type_symbol
_atom_site_label
_atom_site_fract_x
_atom_site_fract_y
_atom_site_fract_z
Si Si1 0.505659 0.825240 0.174891
Si Si2 0.650191 0.332849 0.902812
Si Si3 0.018496 0.672918 0.675199
Si Si4 0.649330 0.669679 0.583031
Si Si5 0.096627 0.838286 0.966180
Si Si6 0.853365 0.828971 0.435642
O O1 0.410247 0.764810 0.149439
O O2 0.534782 0.754417 0.249725
O O3 0.582931 0.784356 0.116639
O O4 0.496348 0.000000 0.183486
O O5 0.750000 0.325565 0.872069
O O6 0.613735 0.500000 0.902421
O O7 0.652399 0.276650 0.986120
O O8 0.034016 0.500000 0.686453
O O9 0.090306 0.732078 0.619173
O O10 0.918342 0.706178 0.647808
O O11 0.750000 0.699315 0.610624
O O12 0.638165 0.500000 0.557405
O O13 0.625195 0.774925 0.516378
O O14 0.143339 0.000000 0.967748
O O15 0.000000 0.853698 0.000000
O O16 0.750000 0.804800 0.417402
O O17 0.880738 0.000000 0.429423
#
# Coordination Sequence:
#
# PCOD8211121 Si02
#       6
#     8   8   8   8   8   8
#     4  10  21  36  53  75 105 140 176 216 264 318
#     4  10  20  33  52  79 107 135 171 215 261 313
#     4  11  22  35  55  82 111 146 183 222 274 330
#     4   9  19  36  56  79 109 143 179 221 270 325
#     4   8  16  32  52  72  95 127 167 207 249 300
#     4  10  21  37  57  80 106 139 182 230 275 322
#
# _framework density 19.09301
#
# number of rings (size 3 to 8) (size 9 to 14) (size 15 to 20)
#    0.000    2.333    0.000    3.500    0.000   10.000 
#    0.000    2.500    0.000    1.000    0.000    0.000 
#    0.000    0.000    0.000    0.000    0.000    0.000 
#
# Total GULP energy -595158.362472 kJ/mol
# GULP energy per Si atom -12399.132551 kJ/mol
# Density = 1.904955 g / cm^3
# Si number density = 19.093010 Si / 1000 Ang^3
#
#
#
# Elastic Constant Matrix: (Units=GPa)
#
#
# Indices 1 2 3 4 5 6 
#
# 1 36.7204 17.5389 8.6706 0.0000 0.0000 0.0000
# 2 17.5389 89.0077 23.8572 0.0000 0.0000 0.0000
# 3 8.6706 23.8572 72.3026 0.0000 0.0000 0.0000
# 4 0.0000 0.0000 0.0000 33.6161 0.0000 0.0000
# 5 0.0000 0.0000 0.0000 0.0000 17.4885 0.0000
# 6 0.0000 0.0000 0.0000 0.0000 0.0000 16.4864
#
#
#
# Elastic Compliance Matrix: (Units=1/GPa)
#
#
# Indices 1 2 3 4 5 6 
#
# 1 0.030280 -0.005478 -0.001824 0.000000 0.000000 0.000000
# 2 -0.005478 0.013316 -0.003737 0.000000 0.000000 0.000000
# 3 -0.001824 -0.003737 0.015282 0.000000 0.000000 0.000000
# 4 0.000000 0.000000 0.000000 0.029748 0.000000 0.000000
# 5 0.000000 0.000000 0.000000 0.000000 0.057180 0.000000
# 6 0.000000 0.000000 0.000000 0.000000 0.000000 0.060656
#
#
# Mechanical properties :
#
#
# Convention : Reuss Voigt Hill
#
# Bulk Modulus (GPa) = 27.17280 33.12933 30.15106
# Shear Modulus (GPa) = 20.76358 23.38247 22.07303
#
# Velocity S-wave (km/s) = 3.30130 3.50331 3.40380
# Velocity P-wave (km/s) = 5.36602 5.80977 5.59230
#
# Compressibility (1/GPa) = 0.03680151
#
# Stress axis : x y z
#
# Youngs Moduli (GPa) = 33.02534 75.09766 65.43435
#
# Poissons Ratio (x) = 0.41137 0.11933
# Poissons Ratio (y) = 0.18091 0.24452
# Poissons Ratio (z) = 0.06023 0.28063
#
# Static dielectric constant tensor:
#      x y z
#    x 3.433620 0.000000 0.000000 
#    y 0.000000 3.623510 0.000000 
#    z 0.000000 0.000000 3.611720 
# 
# 
# High freq. dielectric constant tensor:
#      x y z
#    x 1.731080 0.000000 0.000000 
#    y 0.000000 1.752610 0.000000 
#    z 0.000000 0.000000 1.735430 
# 
# From -- ./inp_files/29428.got.cif
#   From: 2010.03.12/outbox.cif.g09.slc.cpg/sg51_15_cif.got.tgz:29428.got - 2010.04.16 13:43:02.
