data_PCOD8211045
_publ_section_title
;
Structure prediction by ZEFSAII (Michael W. Deem and Ramdas Pophale) SiO2 
 PCOD8211045
Probable space group: P M M A
;
_chemical_formula_sum "Si O2"
_cell_formula_units_Z 48
_cell_length_a 9.101970
_cell_length_b 9.107047
_cell_length_c 31.072849
_cell_angle_alpha 90.000000
_cell_angle_beta 90.000000
_cell_angle_gamma 90.000000
_cell_volume 2575.692730
_symmetry_space_group_name_H-M "P M M A"
_symmetry_group_IT_number 51
_symmetry_cell_setting 'orthorhombic'
loop_
_space_group_symop_operation_xyz
x,y,z
1/2-x,-y,z
1/2+x,-y,-z
-x,y,-z
-x,-y,-z
1/2+x,y,-z
1/2-x,y,z
x,-y,z
loop_
_atom_site_type_symbol
_atom_site_label
_atom_site_fract_x
_atom_site_fract_y
_atom_site_fract_z
Si Si1 0.574923 0.165646 0.288807
Si Si2 0.419581 0.172376 0.879841
Si Si3 0.924785 0.334542 0.205717
Si Si4 0.578794 0.670741 0.373601
Si Si5 0.577928 0.331287 0.955928
Si Si6 0.915652 0.674953 0.541580
O O1 0.750000 0.168346 0.287663
O O2 0.511265 0.252555 0.247669
O O3 0.518351 0.242738 0.332227
O O4 0.514767 0.000000 0.287395
O O5 0.250000 0.213376 0.888770
O O6 0.478512 0.250252 0.836764
O O7 0.517437 0.226782 0.919036
O O8 0.440271 0.000000 0.873680
O O9 0.750000 0.334865 0.207716
O O10 0.986795 0.500000 0.204747
O O11 0.750000 0.699861 0.381476
O O12 0.546959 0.500000 0.365536
O O13 0.494148 0.731769 0.415242
O O14 0.750000 0.304547 0.961543
O O15 0.542124 0.500000 0.944175
O O16 0.500000 0.285282 0.000000
O O17 0.750000 0.734913 0.540737
O O18 0.919182 0.500000 0.540538
O O19 0.000000 0.738468 0.500000
#
# Coordination Sequence:
#
# PCOD8211045 Si02
#       6
#     8   8   8   8   8   8
#     4   9  16  26  42  66  96 127 159 197 240 285
#     4  10  20  33  51  77 108 140 173 210 254 303
#     4   9  16  27  46  72 101 132 166 205 247 290
#     4   9  16  26  42  65  92 121 154 192 234 280
#     4  10  21  37  57  79 103 134 173 215 258 304
#     4   9  16  26  42  65  92 120 151 190 235 280
#
# _framework density 18.635763000000001
#
# number of rings (size 3 to 8) (size 9 to 14) (size 15 to 20)
#    0.000    2.667    0.000    2.500    0.000    8.333 
#    0.000    0.000    0.000    2.000    0.000    2.333 
#    0.000    0.000    0.000    0.000    0.000    0.000 
#
# Total GULP energy -595254.062770 kJ/mol
# GULP energy per Si atom -12401.126308 kJ/mol
# Density = 1.859335 g / cm^3
# Si number density = 18.635763 Si / 1000 Ang^3
#
#
#
# Elastic Constant Matrix: (Units=GPa)
#
#
# Indices 1 2 3 4 5 6 
#
# 1 62.8856 32.7801 57.2183 0.0000 0.0000 0.0000
# 2 32.7801 98.9720 77.0550 0.0000 0.0000 0.0000
# 3 57.2183 77.0550 189.6240 0.0000 0.0000 0.0000
# 4 0.0000 0.0000 0.0000 11.5009 0.0000 0.0000
# 5 0.0000 0.0000 0.0000 0.0000 24.2235 0.0000
# 6 0.0000 0.0000 0.0000 0.0000 0.0000 14.4359
#
#
#
# Elastic Compliance Matrix: (Units=1/GPa)
#
#
# Indices 1 2 3 4 5 6 
#
# 1 0.022585 -0.003181 -0.005522 0.000000 0.000000 0.000000
# 2 -0.003181 0.015228 -0.005228 0.000000 0.000000 0.000000
# 3 -0.005522 -0.005228 0.009064 0.000000 0.000000 0.000000
# 4 0.000000 0.000000 0.000000 0.086950 0.000000 0.000000
# 5 0.000000 0.000000 0.000000 0.000000 0.041282 0.000000
# 6 0.000000 0.000000 0.000000 0.000000 0.000000 0.069272
#
#
# Mechanical properties :
#
#
# Convention : Reuss Voigt Hill
#
# Bulk Modulus (GPa) = 52.59176 76.17649 64.38413
# Shear Modulus (GPa) = 17.94811 22.32726 20.13768
#
# Velocity S-wave (km/s) = 3.10675 3.46509 3.29080
# Velocity P-wave (km/s) = 6.41493 7.54814 7.00449
#
# Compressibility (1/GPa) = 0.01901438
#
# Stress axis : x y z
#
# Youngs Moduli (GPa) = 44.27811 65.66985 110.32179
#
# Poissons Ratio (x) = 0.20888 0.60923
# Poissons Ratio (y) = 0.14084 0.57677
# Poissons Ratio (z) = 0.24452 0.34333
#
# Static dielectric constant tensor:
#      x y z
#    x 3.105070 0.000000 0.000000 
#    y 0.000000 3.313130 0.000000 
#    z 0.000000 0.000000 3.639920 
# 
# 
# High freq. dielectric constant tensor:
#      x y z
#    x 1.683170 0.000000 0.000000 
#    y 0.000000 1.708030 0.000000 
#    z 0.000000 0.000000 1.741860 
# 
# From -- ./inp_files/36878.got.cif
#   From: 2010.03.12/outbox.cif.g09.slc.cpg/sg51_19_cif.got.tgz:36878.got - 2010.04.16 13:43:02.
