data_PCOD8211900
_publ_section_title
;
Structure prediction by ZEFSAII (Michael W. Deem and Ramdas Pophale) SiO2 
 PCOD8211900
Probable space group: P M M A
;
_chemical_formula_sum "Si O2"
_cell_formula_units_Z 64
_cell_length_a 9.035334
_cell_length_b 23.969094
_cell_length_c 14.813257
_cell_angle_alpha 90.000000
_cell_angle_beta 90.000000
_cell_angle_gamma 90.000000
_cell_volume 3208.088848
_symmetry_space_group_name_H-M "P M M A"
_symmetry_group_IT_number 51
_symmetry_cell_setting 'orthorhombic'
loop_
_space_group_symop_operation_xyz
x,y,z
1/2-x,-y,z
1/2+x,-y,-z
-x,y,-z
-x,-y,-z
1/2+x,y,-z
1/2-x,y,z
x,-y,z
loop_
_atom_site_type_symbol
_atom_site_label
_atom_site_fract_x
_atom_site_fract_y
_atom_site_fract_z
Si Si1 0.575986 0.659339 0.096871
Si Si2 0.083223 0.411412 0.411373
Si Si3 0.081878 0.279162 0.411043
Si Si4 0.424146 0.126464 0.232680
Si Si5 0.924913 0.241394 0.230304
Si Si6 0.580538 0.562688 0.228862
Si Si7 0.577168 0.937208 0.590310
Si Si8 0.414716 0.934588 0.915016
O O1 0.750000 0.655597 0.080582
O O2 0.532062 0.714526 0.152715
O O3 0.518974 0.605576 0.153670
O O4 0.500000 0.660650 0.000000
O O5 0.250000 0.434168 0.414432
O O6 0.080114 0.345250 0.410908
O O7 0.000000 0.434619 0.500000
O O8 0.008327 0.434180 0.321465
O O9 0.250000 0.256080 0.408822
O O10 0.000000 0.255888 0.500000
O O11 0.994587 0.258594 0.324650
O O12 0.250000 0.133947 0.218433
O O13 0.507674 0.182279 0.202340
O O14 0.463878 0.108086 0.334069
O O15 0.485627 0.076744 0.171840
O O16 0.750000 0.237352 0.242283
O O17 0.750000 0.578438 0.251225
O O18 0.566657 0.500000 0.189644
O O19 0.500000 0.915703 0.500000
O O20 0.750000 0.938370 0.572722
O O21 0.522606 0.000000 0.616238
O O22 0.250000 0.908112 0.906888
O O23 0.399655 0.000000 0.928030
O O24 0.500000 0.907548 0.000000
#
# Coordination Sequence:
#
# PCOD8211900 Si02
#       8
#     8   8   8   8   8   8   8   8
#     4  10  23  42  64  87 113 149 192 241 299 357
#     4  10  20  34  57  87 120 156 194 235 283 342
#     4  10  20  35  58  86 114 150 192 236 285 342
#     4  11  23  38  58  86 121 157 197 246 297 353
#     4  11  23  40  60  84 117 155 197 245 295 352
#     4  10  21  39  62  88 120 155 193 240 294 353
#     4   9  19  36  58  84 116 156 199 242 290 342
#     4  10  21  38  61  88 117 151 192 239 295 356
#
# _framework density 19.949573000000001
#
# number of rings (size 3 to 8) (size 9 to 14) (size 15 to 20)
#    0.000    1.875    1.250    2.250    0.000    6.500 
#    0.000    3.750    0.000    0.000    0.000    0.000 
#    0.000    0.000    0.000    0.000    0.000    0.000 
#
# Total GULP energy -793688.404020 kJ/mol
# GULP energy per Si atom -12401.381313 kJ/mol
# Density = 1.990417 g / cm^3
# Si number density = 19.949573 Si / 1000 Ang^3
#
#
#
# Elastic Constant Matrix: (Units=GPa)
#
#
# Indices 1 2 3 4 5 6 
#
# 1 96.5186 42.4259 54.7548 0.0000 0.0000 0.0000
# 2 42.4259 74.6294 44.5205 0.0000 0.0000 0.0000
# 3 54.7548 44.5205 130.3989 0.0000 0.0000 0.0000
# 4 0.0000 0.0000 0.0000 30.5207 0.0000 0.0000
# 5 0.0000 0.0000 0.0000 0.0000 42.1182 0.0000
# 6 0.0000 0.0000 0.0000 0.0000 0.0000 25.2214
#
#
#
# Elastic Compliance Matrix: (Units=1/GPa)
#
#
# Indices 1 2 3 4 5 6 
#
# 1 0.015613 -0.006235 -0.004427 0.000000 0.000000 0.000000
# 2 -0.006235 0.019316 -0.003977 0.000000 0.000000 0.000000
# 3 -0.004427 -0.003977 0.010886 0.000000 0.000000 0.000000
# 4 0.000000 0.000000 0.000000 0.032765 0.000000 0.000000
# 5 0.000000 0.000000 0.000000 0.000000 0.023743 0.000000
# 6 0.000000 0.000000 0.000000 0.000000 0.000000 0.039649
#
#
# Mechanical properties :
#
#
# Convention : Reuss Voigt Hill
#
# Bulk Modulus (GPa) = 60.47037 64.99437 62.73237
# Shear Modulus (GPa) = 28.28677 30.22841 29.25759
#
# Velocity S-wave (km/s) = 3.76960 3.89683 3.83375
# Velocity P-wave (km/s) = 7.02310 7.27304 7.14916
#
# Compressibility (1/GPa) = 0.01653702
#
# Stress axis : x y z
#
# Youngs Moduli (GPa) = 64.05022 51.76958 91.86441
#
# Poissons Ratio (x) = 0.32276 0.40670
# Poissons Ratio (y) = 0.39933 0.36535
# Poissons Ratio (z) = 0.28357 0.20589
#
# Static dielectric constant tensor:
#      x y z
#    x 3.649050 0.000000 0.000000 
#    y 0.000000 3.746060 0.000000 
#    z 0.000000 0.000000 3.722380 
# 
# 
# High freq. dielectric constant tensor:
#      x y z
#    x 1.785150 0.000000 0.000000 
#    y 0.000000 1.775270 0.000000 
#    z 0.000000 0.000000 1.780290 
# 
# From -- ./inp_files/22268.got.cif
#   From: 2010.03.12/outbox.cif.g09.slc.cpg/sg51_12_cif.got.tgz:22268.got - 2010.04.16 13:43:02.
