data_PCOD8211773
_publ_section_title
;
Structure prediction by ZEFSAII (Michael W. Deem and Ramdas Pophale) SiO2 
 PCOD8211773
Probable space group: P M M A
;
_chemical_formula_sum "Si O2"
_cell_formula_units_Z 48
_cell_length_a 8.733156
_cell_length_b 30.606492
_cell_length_c 9.591869
_cell_angle_alpha 90.000000
_cell_angle_beta 90.000000
_cell_angle_gamma 90.000000
_cell_volume 2563.822839
_symmetry_space_group_name_H-M "P M M A"
_symmetry_group_IT_number 51
_symmetry_cell_setting 'orthorhombic'
loop_
_space_group_symop_operation_xyz
x,y,z
1/2-x,-y,z
1/2+x,-y,-z
-x,y,-z
-x,-y,-z
1/2+x,y,-z
1/2-x,y,z
x,-y,z
loop_
_atom_site_type_symbol
_atom_site_label
_atom_site_fract_x
_atom_site_fract_y
_atom_site_fract_z
Si Si1 0.431527 0.800280 0.844874
Si Si2 0.929941 0.549430 0.355445
Si Si3 0.072308 0.617697 0.151049
Si Si4 0.570204 0.049077 0.856113
Si Si5 0.568612 0.874946 0.653409
Si Si6 0.927841 0.286618 0.849842
O O1 0.250000 0.803750 0.852695
O O2 0.496301 0.836491 0.742786
O O3 0.482468 0.753535 0.776928
O O4 0.500000 0.805864 0.000000
O O5 0.750000 0.552515 0.367681
O O6 0.983389 0.500000 0.321297
O O7 0.000000 0.565696 0.500000
O O8 0.986976 0.580989 0.236331
O O9 0.250000 0.605767 0.139762
O O10 0.051260 0.665864 0.223344
O O11 0.000000 0.617488 0.000000
O O12 0.750000 0.049539 0.876931
O O13 0.521849 0.079588 0.727421
O O14 0.509761 0.000000 0.824981
O O15 0.500000 0.067324 0.000000
O O16 0.500000 0.875118 0.500000
O O17 0.750000 0.868644 0.645781
O O18 0.750000 0.273861 0.861906
O O19 0.000000 0.292037 0.000000
#
# Coordination Sequence:
#
# PCOD8211773 Si02
#       6
#     8   8   8   8   8   8
#     4  11  21  35  57  82 108 141 181 222 265 315
#     4  10  21  37  56  77 104 140 180 221 266 318
#     4  10  20  34  55  82 111 141 175 219 267 317
#     4   9  19  36  58  83 109 139 178 222 266 315
#     4  11  23  38  55  78 111 146 181 223 271 321
#     4   9  17  31  52  79 108 138 175 218 266 316
#
# _framework density 18.722041999999998
#
# number of rings (size 3 to 8) (size 9 to 14) (size 15 to 20)
#    0.000    2.000    0.000    5.000    0.000    6.333 
#    0.000    0.833    0.000    4.000    0.000    0.000 
#    0.000    0.000    0.000    0.000    0.000    0.000 
#
# Total GULP energy -595020.815249 kJ/mol
# GULP energy per Si atom -12396.266984 kJ/mol
# Density = 1.867943 g / cm^3
# Si number density = 18.722042 Si / 1000 Ang^3
#
#
#
# Elastic Constant Matrix: (Units=GPa)
#
#
# Indices 1 2 3 4 5 6 
#
# 1 96.9201 51.7456 44.9257 0.0000 0.0000 0.0000
# 2 51.7456 128.8229 71.4245 0.0000 0.0000 0.0000
# 3 44.9257 71.4245 105.1609 0.0000 0.0000 0.0000
# 4 0.0000 0.0000 0.0000 -51.3015 0.0000 0.0000
# 5 0.0000 0.0000 0.0000 0.0000 33.4132 0.0000
# 6 0.0000 0.0000 0.0000 0.0000 0.0000 -779.8881
#
#
#
# Elastic Compliance Matrix: (Units=1/GPa)
#
#
# Indices 1 2 3 4 5 6 
#
# 1 0.013867 -0.003666 -0.003434 0.000000 0.000000 0.000000
# 2 -0.003666 0.013421 -0.007549 0.000000 0.000000 0.000000
# 3 -0.003434 -0.007549 0.016104 0.000000 0.000000 0.000000
# 4 0.000000 0.000000 0.000000 -0.019493 0.000000 0.000000
# 5 0.000000 0.000000 0.000000 0.000000 0.029928 0.000000
# 6 0.000000 0.000000 0.000000 0.000000 0.000000 -0.001282
#
#
# Mechanical properties :
#
#
# Convention : Reuss Voigt Hill
#
# Bulk Modulus (GPa) = 70.95859 74.12173 72.54016
# Shear Modulus (GPa) = 57.77634 -148.70140 -45.46253
#
# Velocity S-wave (km/s) = 5.56121 -8.92179 -4.93311
# Velocity P-wave (km/s) = 8.90053 8.15196 2.52636
#
# Compressibility (1/GPa) = 0.01409273
#
# Stress axis : x y z
#
# Youngs Moduli (GPa) = 72.11407 74.51194 62.09803
#
# Poissons Ratio (x) = 0.27317 0.21325
# Poissons Ratio (y) = 0.26437 0.46878
# Poissons Ratio (z) = 0.24765 0.56249
#
# Static dielectric constant tensor:
#      x y z
#    x 3.582110 0.000000 0.000000 
#    y 0.000000 4.183090 0.000000 
#    z 0.000000 0.000000 3.213630 
# 
# 
# High freq. dielectric constant tensor:
#      x y z
#    x 1.742910 0.000000 0.000000 
#    y 0.000000 1.747910 0.000000 
#    z 0.000000 0.000000 1.697110 
# 
# From -- ./inp_files/6028.got.cif
#   From: 2010.03.12/outbox.cif.g09.slc.cpg/sg51_4_cif.got.tgz:6028.got - 2010.04.16 13:43:02.
