data_PCOD8211986
_publ_section_title
;
Structure prediction by ZEFSAII (Michael W. Deem and Ramdas Pophale) SiO2 
 PCOD8211986
Probable space group: P M M A
;
_chemical_formula_sum "Si O2"
_cell_formula_units_Z 44
_cell_length_a 9.062150
_cell_length_b 27.011191
_cell_length_c 9.959901
_cell_angle_alpha 90.000000
_cell_angle_beta 90.000000
_cell_angle_gamma 90.000000
_cell_volume 2437.979233
_symmetry_space_group_name_H-M "P M M A"
_symmetry_group_IT_number 51
_symmetry_cell_setting 'orthorhombic'
loop_
_space_group_symop_operation_xyz
x,y,z
1/2-x,-y,z
1/2+x,-y,-z
-x,y,-z
-x,-y,-z
1/2+x,y,-z
1/2-x,y,z
x,-y,z
loop_
_atom_site_type_symbol
_atom_site_label
_atom_site_fract_x
_atom_site_fract_y
_atom_site_fract_z
Si Si1 0.423913 0.500000 0.854567
Si Si2 0.578575 0.234957 0.136421
Si Si3 0.576762 0.121763 0.139343
Si Si4 0.920366 0.942270 0.637681
Si Si5 0.077151 0.420512 0.637449
Si Si6 0.076751 0.307609 0.635227
O O1 0.250000 0.500000 0.880649
O O2 0.473259 0.547637 0.766583
O O3 0.500000 0.500000 0.000000
O O4 0.750000 0.243794 0.112879
O O5 0.545560 0.178608 0.179313
O O6 0.516060 0.271701 0.249227
O O7 0.500000 0.249617 0.000000
O O8 0.750000 0.110587 0.128108
O O9 0.503990 0.087150 0.248392
O O10 0.500000 0.108583 0.000000
O O11 0.750000 0.925916 0.629147
O O12 0.000000 0.928559 0.500000
O O13 0.934972 0.000000 0.670678
O O14 0.250000 0.427191 0.612660
O O15 0.033390 0.364003 0.670233
O O16 0.000000 0.438706 0.500000
O O17 0.250000 0.301505 0.615767
O O18 0.000000 0.289759 0.500000
#
# Coordination Sequence:
#
# PCOD8211986 Si02
#       6
#     4   8   8   8   8   8
#     4  10  21  34  48  72 102 130 163 204 248 294
#     4   9  19  34  51  73 101 132 166 204 247 294
#     4  10  20  35  54  76 103 135 171 210 251 298
#     4  10  21  37  56  78 104 134 168 207 252 301
#     4   9  18  33  52  72  97 129 165 205 247 293
#     4   9  18  33  51  73 100 129 164 205 247 293
#
# _framework density 18.047734999999999
#
# number of rings (size 3 to 8) (size 9 to 14) (size 15 to 20)
#    0.000    2.545    0.000    1.364    0.000    5.091 
#    0.000    1.818    0.000    0.000    0.000    0.000 
#    0.000    0.000    0.000    0.000    0.000    0.000 
#
# Total GULP energy -545644.933006 kJ/mol
# GULP energy per Si atom -12401.021205 kJ/mol
# Density = 1.800666 g / cm^3
# Si number density = 18.047735 Si / 1000 Ang^3
#
#
#
# Elastic Constant Matrix: (Units=GPa)
#
#
# Indices 1 2 3 4 5 6 
#
# 1 79.1140 50.4060 75.1057 0.0000 0.0000 0.0000
# 2 50.4060 88.3383 94.2094 0.0000 0.0000 0.0000
# 3 75.1057 94.2094 175.6867 0.0000 0.0000 0.0000
# 4 0.0000 0.0000 0.0000 42.3103 0.0000 0.0000
# 5 0.0000 0.0000 0.0000 0.0000 39.4025 0.0000
# 6 0.0000 0.0000 0.0000 0.0000 0.0000 21.2967
#
#
#
# Elastic Compliance Matrix: (Units=1/GPa)
#
#
# Indices 1 2 3 4 5 6 
#
# 1 0.022577 -0.006048 -0.006408 0.000000 0.000000 0.000000
# 2 -0.006048 0.028061 -0.012462 0.000000 0.000000 0.000000
# 3 -0.006408 -0.012462 0.015114 0.000000 0.000000 0.000000
# 4 0.000000 0.000000 0.000000 0.023635 0.000000 0.000000
# 5 0.000000 0.000000 0.000000 0.000000 0.025379 0.000000
# 6 0.000000 0.000000 0.000000 0.000000 0.000000 0.046956
#
#
# Mechanical properties :
#
#
# Convention : Reuss Voigt Hill
#
# Bulk Modulus (GPa) = 62.83176 86.95348 74.89262
# Shear Modulus (GPa) = 23.05584 28.82976 25.94280
#
# Velocity S-wave (km/s) = 3.57808 4.00111 3.79549
# Velocity P-wave (km/s) = 7.20833 8.34443 7.79710
#
# Compressibility (1/GPa) = 0.01591552
#
# Stress axis : x y z
#
# Youngs Moduli (GPa) = 44.29221 35.63615 66.16363
#
# Poissons Ratio (x) = 0.21554 0.42401
# Poissons Ratio (y) = 0.26789 0.82452
# Poissons Ratio (z) = 0.28384 0.44409
#
# Static dielectric constant tensor:
#      x y z
#    x 3.356510 0.000000 0.000000 
#    y 0.000000 3.485090 0.000000 
#    z 0.000000 0.000000 3.359840 
# 
# 
# High freq. dielectric constant tensor:
#      x y z
#    x 1.700670 0.000000 0.000000 
#    y 0.000000 1.703370 0.000000 
#    z 0.000000 0.000000 1.701770 
# 
# From -- ./inp_files/5773.got.cif
#   From: 2010.03.12/outbox.cif.g09.slc.cpg/sg51_3_cif.got.tgz:5773.got - 2010.04.16 13:43:02.
