data_PCOD8211608
_publ_section_title
;
Structure prediction by ZEFSAII (Michael W. Deem and Ramdas Pophale) SiO2 
 PCOD8211608
Probable space group: P M M A
;
_chemical_formula_sum "Si O2"
_cell_formula_units_Z 40
_cell_length_a 9.172947
_cell_length_b 8.746354
_cell_length_c 25.857658
_cell_angle_alpha 90.000000
_cell_angle_beta 90.000000
_cell_angle_gamma 90.000000
_cell_volume 2074.555808
_symmetry_space_group_name_H-M "P M M A"
_symmetry_group_IT_number 51
_symmetry_cell_setting 'orthorhombic'
loop_
_space_group_symop_operation_xyz
x,y,z
1/2-x,-y,z
1/2+x,-y,-z
-x,y,-z
-x,-y,-z
1/2+x,y,-z
1/2-x,y,z
x,-y,z
loop_
_atom_site_type_symbol
_atom_site_label
_atom_site_fract_x
_atom_site_fract_y
_atom_site_fract_z
Si Si1 0.414692 0.681276 0.150159
Si Si2 0.589940 0.681080 0.547349
Si Si3 0.417760 0.821558 0.755031
Si Si4 0.921659 0.323121 0.662218
Si Si5 0.084891 0.317717 0.949799
O O1 0.250000 0.746582 0.149128
O O2 0.410920 0.500000 0.148231
O O3 0.494003 0.730720 0.202002
O O4 0.502580 0.745970 0.100816
O O5 0.500000 0.754466 0.500000
O O6 0.750000 0.753200 0.543434
O O7 0.599045 0.500000 0.540967
O O8 0.524880 0.718440 0.604038
O O9 0.250000 0.768701 0.756196
O O10 0.485749 0.783873 0.699558
O O11 0.432755 0.000000 0.766027
O O12 0.750000 0.290012 0.668534
O O13 0.953972 0.500000 0.674982
O O14 0.250000 0.254324 0.950189
O O15 0.086033 0.500000 0.949869
O O16 0.000000 0.255424 0.000000
#
# Coordination Sequence:
#
# PCOD8211608 Si02
#       5
#     8   8   8   8   8
#     4  10  20  34  54  79 104 132 169 210 251 299
#     4   8  14  25  43  70 102 130 157 194 241 292
#     4  11  24  38  51  71 100 133 170 212 256 302
#     4   9  18  33  53  77 103 131 166 207 249 297
#     4   9  16  27  46  74 107 138 167 203 247 293
#
# _framework density 19.281236
#
# number of rings (size 3 to 8) (size 9 to 14) (size 15 to 20)
#    0.000    2.600    0.000    3.600    0.000    8.800 
#    0.000    2.000    0.000    1.200    0.000    0.000 
#    0.000    0.000    0.000    0.000    0.000    0.000 
#
# Total GULP energy -495919.140345 kJ/mol
# GULP energy per Si atom -12397.978509 kJ/mol
# Density = 1.923735 g / cm^3
# Si number density = 19.281236 Si / 1000 Ang^3
#
#
#
# Elastic Constant Matrix: (Units=GPa)
#
#
# Indices 1 2 3 4 5 6 
#
# 1 139.3723 13.1851 77.1095 0.0000 0.0000 0.0000
# 2 13.1851 9.7190 6.0920 0.0000 0.0000 0.0000
# 3 77.1095 6.0920 155.4930 0.0000 0.0000 0.0000
# 4 0.0000 0.0000 0.0000 -1.0950 0.0000 0.0000
# 5 0.0000 0.0000 0.0000 0.0000 44.1695 0.0000
# 6 0.0000 0.0000 0.0000 0.0000 0.0000 17.2485
#
#
#
# Elastic Compliance Matrix: (Units=1/GPa)
#
#
# Indices 1 2 3 4 5 6 
#
# 1 0.011082 -0.011881 -0.005030 0.000000 0.000000 0.000000
# 2 -0.011881 0.118220 0.001260 0.000000 0.000000 0.000000
# 3 -0.005030 0.001260 0.008876 0.000000 0.000000 0.000000
# 4 0.000000 0.000000 0.000000 -0.913259 0.000000 0.000000
# 5 0.000000 0.000000 0.000000 0.000000 0.022640 0.000000
# 6 0.000000 0.000000 0.000000 0.000000 0.000000 0.057976
#
#
# Mechanical properties :
#
#
# Convention : Reuss Voigt Hill
#
# Bulk Modulus (GPa) = 9.35661 55.26194 32.30927
# Shear Modulus (GPa) = -7.96767 25.94444 8.98839
#
# Velocity S-wave (km/s) = -2.03502 3.67219 2.16145
# Velocity P-wave (km/s) = 0.81149 6.83398 4.79816
#
# Compressibility (1/GPa) = 0.10687628
#
# Stress axis : x y z
#
# Youngs Moduli (GPa) = 90.23627 8.45878 112.66040
#
# Poissons Ratio (x) = 0.10050 0.56669
# Poissons Ratio (y) = 1.07213 -0.14198
# Poissons Ratio (z) = 0.45390 -0.01066
#
# Static dielectric constant tensor:
#      x y z
#    x 3.829820 0.000000 0.000000 
#    y 0.000000 2.951810 0.000000 
#    z 0.000000 0.000000 3.749590 
# 
# 
# High freq. dielectric constant tensor:
#      x y z
#    x 1.757750 0.000000 0.000000 
#    y 0.000000 1.693760 0.000000 
#    z 0.000000 0.000000 1.769730 
# 
# From -- ./inp_files/34308.got.cif
#   From: 2010.03.12/outbox.cif.g09.slc.cpg/sg51_18_cif.got.tgz:34308.got - 2010.04.16 13:43:02.
