data_PCOD8211086
_publ_section_title
;
Structure prediction by ZEFSAII (Michael W. Deem and Ramdas Pophale) SiO2 
 PCOD8211086
Probable space group: P M M A
;
_chemical_formula_sum "Si O2"
_cell_formula_units_Z 48
_cell_length_a 15.213315
_cell_length_b 9.248483
_cell_length_c 18.504375
_cell_angle_alpha 90.000000
_cell_angle_beta 90.000000
_cell_angle_gamma 90.000000
_cell_volume 2603.567138
_symmetry_space_group_name_H-M "P M M A"
_symmetry_group_IT_number 51
_symmetry_cell_setting 'orthorhombic'
loop_
_space_group_symop_operation_xyz
x,y,z
1/2-x,-y,z
1/2+x,-y,-z
-x,y,-z
-x,-y,-z
1/2+x,y,-z
1/2-x,y,z
x,-y,z
loop_
_atom_site_type_symbol
_atom_site_label
_atom_site_fract_x
_atom_site_fract_y
_atom_site_fract_z
Si Si1 0.983627 0.831088 0.333570
Si Si2 0.148759 0.669789 0.089365
Si Si3 0.408236 0.662502 0.541358
Si Si4 0.500747 0.830849 0.169665
Si Si5 0.649883 0.833287 0.056646
Si Si6 0.654428 0.163459 0.584277
O O1 0.913680 0.743366 0.381640
O O2 0.972324 0.786286 0.250536
O O3 0.082106 0.785565 0.357899
O O4 0.965731 0.000000 0.345047
O O5 0.250000 0.703366 0.109919
O O6 0.130485 0.500000 0.086443
O O7 0.085906 0.742121 0.148399
O O8 0.125450 0.735695 0.011558
O O9 0.500000 0.667439 0.500000
O O10 0.375949 0.500000 0.555832
O O11 0.340701 0.742179 0.488577
O O12 0.584150 0.789489 0.120592
O O13 0.477554 0.000000 0.164597
O O14 0.750000 0.805063 0.082588
O O15 0.636790 0.000000 0.034007
O O16 0.750000 0.175602 0.622072
O O17 0.633382 0.000000 0.560036
#
# Coordination Sequence:
#
# PCOD8211086 Si02
#       6
#     8   8   8   8   8   8
#     4   9  18  32  49  71 100 130 161 199 243 295
#     4  10  21  35  51  74 103 134 169 210 256 305
#     4   9  17  30  48  68  91 122 158 194 234 281
#     4  10  20  33  52  77 103 135 172 209 254 304
#     4   9  18  34  54  74  98 130 170 214 256 301
#     4   9  17  30  49  71  94 124 162 202 244 290
#
# _framework density 18.436243999999999
#
# number of rings (size 3 to 8) (size 9 to 14) (size 15 to 20)
#    0.000    2.667    0.000    1.500    0.000    7.333 
#    0.000    2.500    0.000    3.000    0.000    0.000 
#    0.000    0.000    0.000    0.000    0.000    0.000 
#
# Total GULP energy -595158.201024 kJ/mol
# GULP energy per Si atom -12399.129188 kJ/mol
# Density = 1.839428 g / cm^3
# Si number density = 18.436244 Si / 1000 Ang^3
#
#
#
# Elastic Constant Matrix: (Units=GPa)
#
#
# Indices 1 2 3 4 5 6 
#
# 1 45.5822 18.3136 16.3234 0.0000 0.0000 0.0000
# 2 18.3136 71.3698 38.9873 0.0000 0.0000 0.0000
# 3 16.3234 38.9873 95.2879 0.0000 0.0000 0.0000
# 4 0.0000 0.0000 0.0000 11.3050 0.0000 0.0000
# 5 0.0000 0.0000 0.0000 0.0000 19.5952 0.0000
# 6 0.0000 0.0000 0.0000 0.0000 0.0000 20.8273
#
#
#
# Elastic Compliance Matrix: (Units=1/GPa)
#
#
# Indices 1 2 3 4 5 6 
#
# 1 0.024787 -0.005204 -0.002117 0.000000 0.000000 0.000000
# 2 -0.005204 0.019137 -0.006939 0.000000 0.000000 0.000000
# 3 -0.002117 -0.006939 0.013696 0.000000 0.000000 0.000000
# 4 0.000000 0.000000 0.000000 0.088456 0.000000 0.000000
# 5 0.000000 0.000000 0.000000 0.000000 0.051033 0.000000
# 6 0.000000 0.000000 0.000000 0.000000 0.000000 0.048014
#
#
# Mechanical properties :
#
#
# Convention : Reuss Voigt Hill
#
# Bulk Modulus (GPa) = 34.36245 39.94315 37.15280
# Shear Modulus (GPa) = 17.64644 19.58655 18.61649
#
# Velocity S-wave (km/s) = 3.09716 3.26297 3.18115
# Velocity P-wave (km/s) = 5.60971 5.99238 5.80420
#
# Compressibility (1/GPa) = 0.02910153
#
# Stress axis : x y z
#
# Youngs Moduli (GPa) = 40.34317 52.25413 73.01349
#
# Poissons Ratio (x) = 0.27193 0.15457
# Poissons Ratio (y) = 0.20995 0.50661
# Poissons Ratio (z) = 0.08541 0.36257
#
# Static dielectric constant tensor:
#      x y z
#    x 3.344040 0.000000 0.000000 
#    y 0.000000 3.421030 0.000000 
#    z 0.000000 0.000000 3.299900 
# 
# 
# High freq. dielectric constant tensor:
#      x y z
#    x 1.708770 0.000000 0.000000 
#    y 0.000000 1.711750 0.000000 
#    z 0.000000 0.000000 1.702580 
# 
# From -- ./inp_files/29425.got.cif
#   From: 2010.03.12/outbox.cif.g09.slc.cpg/sg51_15_cif.got.tgz:29425.got - 2010.04.16 13:43:02.
