data_PCOD8211528
_publ_section_title
;
Structure prediction by ZEFSAII (Michael W. Deem and Ramdas Pophale) SiO2 
 PCOD8211528
Probable space group: P M M A
;
_chemical_formula_sum "Si O2"
_cell_formula_units_Z 56
_cell_length_a 8.741572
_cell_length_b 14.105864
_cell_length_c 25.701191
_cell_angle_alpha 90.000000
_cell_angle_beta 90.000000
_cell_angle_gamma 90.000000
_cell_volume 3169.147702
_symmetry_space_group_name_H-M "P M M A"
_symmetry_group_IT_number 51
_symmetry_cell_setting 'orthorhombic'
loop_
_space_group_symop_operation_xyz
x,y,z
1/2-x,-y,z
1/2+x,-y,-z
-x,y,-z
-x,-y,-z
1/2+x,y,-z
1/2-x,y,z
x,-y,z
loop_
_atom_site_type_symbol
_atom_site_label
_atom_site_fract_x
_atom_site_fract_y
_atom_site_fract_z
Si Si1 0.930140 0.892202 0.946259
Si Si2 0.428739 0.786169 0.850256
Si Si3 0.928419 0.392327 0.807938
Si Si4 0.072372 0.110187 0.246224
Si Si5 0.928373 0.110241 0.445249
Si Si6 0.573341 0.607394 0.302398
Si Si7 0.929331 0.779446 0.649537
O O1 0.750000 0.885659 0.950374
O O2 0.985524 0.828056 0.899439
O O3 0.984733 0.000000 0.936101
O O4 0.000000 0.853483 0.000000
O O5 0.250000 0.794063 0.859857
O O6 0.477156 0.676329 0.845640
O O7 0.472221 0.842716 0.798463
O O8 0.750000 0.370241 0.813736
O O9 0.968372 0.500000 0.823708
O O10 0.973640 0.372184 0.748608
O O11 0.250000 0.126538 0.232866
O O12 0.027331 0.156258 0.301029
O O13 0.031496 0.000000 0.249463
O O14 0.750000 0.134863 0.445207
O O15 0.000000 0.140686 0.500000
O O16 0.014138 0.169090 0.401662
O O17 0.958427 0.000000 0.434208
O O18 0.750000 0.626477 0.288810
O O19 0.548924 0.500000 0.322301
O O20 0.514864 0.678331 0.346890
O O21 0.750000 0.761472 0.645598
#
# Coordination Sequence:
#
# PCOD8211528 Si02
#       7
#     8   8   8   8   8   8   8
#     4  10  21  38  59  81 108 143 185 229 270 317
#     4  12  23  34  53  80 111 145 181 222 271 325
#     4  10  20  35  55  78 106 142 183 224 269 323
#     4  10  21  35  50  73 108 147 182 218 265 320
#     4  10  21  37  57  80 108 143 185 229 271 319
#     4  10  20  34  53  79 110 142 179 223 270 322
#     4  11  21  34  55  80 109 145 183 222 270 325
#
# _framework density 17.670366000000001
#
# number of rings (size 3 to 8) (size 9 to 14) (size 15 to 20)
#    0.000    1.571    1.429    4.286    0.000    6.571 
#    0.000    0.000    0.000    0.857    0.000    0.000 
#    0.000    0.000    0.000    0.000    0.000    0.000 
#
# Total GULP energy -694680.100903 kJ/mol
# GULP energy per Si atom -12405.001802 kJ/mol
# Density = 1.763015 g / cm^3
# Si number density = 17.670366 Si / 1000 Ang^3
#
#
#
# Elastic Constant Matrix: (Units=GPa)
#
#
# Indices 1 2 3 4 5 6 
#
# 1 61.2088 28.6471 25.1498 0.0000 0.0000 0.0000
# 2 28.6471 98.0038 46.8636 0.0000 0.0000 0.0000
# 3 25.1498 46.8636 99.6814 0.0000 0.0000 0.0000
# 4 0.0000 0.0000 0.0000 -61.1101 0.0000 0.0000
# 5 0.0000 0.0000 0.0000 0.0000 33.5192 0.0000
# 6 0.0000 0.0000 0.0000 0.0000 0.0000 23.5299
#
#
#
# Elastic Compliance Matrix: (Units=1/GPa)
#
#
# Indices 1 2 3 4 5 6 
#
# 1 0.019555 -0.004330 -0.002898 0.000000 0.000000 0.000000
# 2 -0.004330 0.014122 -0.005547 0.000000 0.000000 0.000000
# 3 -0.002898 -0.005547 0.013371 0.000000 0.000000 0.000000
# 4 0.000000 0.000000 0.000000 -0.016364 0.000000 0.000000
# 5 0.000000 0.000000 0.000000 0.000000 0.029834 0.000000
# 6 0.000000 0.000000 0.000000 0.000000 0.000000 0.042499
#
#
# Mechanical properties :
#
#
# Convention : Reuss Voigt Hill
#
# Bulk Modulus (GPa) = 46.51634 51.13499 48.82566
# Shear Modulus (GPa) = 36.83741 9.73672 23.28706
#
# Velocity S-wave (km/s) = 4.57080 2.34993 3.63417
# Velocity P-wave (km/s) = 7.36464 6.03025 6.73060
#
# Compressibility (1/GPa) = 0.02149782
#
# Stress axis : x y z
#
# Youngs Moduli (GPa) = 51.13812 70.81300 74.79018
#
# Poissons Ratio (x) = 0.30664 0.21674
# Poissons Ratio (y) = 0.22144 0.41483
# Poissons Ratio (z) = 0.14819 0.39277
#
# Static dielectric constant tensor:
#      x y z
#    x 3.262870 0.000000 0.000000 
#    y 0.000000 3.447420 0.000000 
#    z 0.000000 0.000000 3.401540 
# 
# 
# High freq. dielectric constant tensor:
#      x y z
#    x 1.699120 0.000000 0.000000 
#    y 0.000000 1.687250 0.000000 
#    z 0.000000 0.000000 1.666590 
# 
# From -- ./inp_files/31986.got.cif
#   From: 2010.03.12/outbox.cif.g09.slc.cpg/sg51_16_cif.got.tgz:31986.got - 2010.04.16 13:43:02.
