data_PCOD8211331
_publ_section_title
;
Structure prediction by ZEFSAII (Michael W. Deem and Ramdas Pophale) SiO2 
 PCOD8211331
Probable space group: P M M A
;
_chemical_formula_sum "Si O2"
_cell_formula_units_Z 56
_cell_length_a 18.776542
_cell_length_b 9.158672
_cell_length_c 17.981289
_cell_angle_alpha 90.000000
_cell_angle_beta 90.000000
_cell_angle_gamma 90.000000
_cell_volume 3092.209714
_symmetry_space_group_name_H-M "P M M A"
_symmetry_group_IT_number 51
_symmetry_cell_setting 'orthorhombic'
loop_
_space_group_symop_operation_xyz
x,y,z
1/2-x,-y,z
1/2+x,-y,-z
-x,y,-z
-x,-y,-z
1/2+x,y,-z
1/2-x,y,z
x,-y,z
loop_
_atom_site_type_symbol
_atom_site_label
_atom_site_fract_x
_atom_site_fract_y
_atom_site_fract_z
Si Si1 0.334001 0.167429 0.579037
Si Si2 0.169457 0.826266 0.001819
Si Si3 0.921102 0.330579 0.710194
Si Si4 0.083497 0.170882 0.858962
Si Si5 0.580946 0.170427 0.858526
Si Si6 0.667287 0.331014 0.568853
Si Si7 0.414007 0.670739 0.709389
O O1 0.250000 0.181999 0.588708
O O2 0.358554 0.236707 0.501112
O O3 0.369508 0.256246 0.644711
O O4 0.359124 0.000000 0.581402
O O5 0.250000 0.766107 0.002274
O O6 0.129721 0.770706 0.927958
O O7 0.167897 0.000000 0.002889
O O8 0.128152 0.766058 0.074064
O O9 0.907333 0.500000 0.724652
O O10 0.893921 0.247041 0.782993
O O11 0.876348 0.274372 0.639890
O O12 0.003366 0.296826 0.694103
O O13 0.109864 0.258971 0.787216
O O14 0.001210 0.204320 0.876910
O O15 0.095900 0.000000 0.843830
O O16 0.594144 0.000000 0.847832
O O17 0.750000 0.306007 0.586048
O O18 0.650559 0.500000 0.551599
O O19 0.397014 0.500000 0.711655
#
# Coordination Sequence:
#
# PCOD8211331 Si02
#       7
#     8   8   8   8   8   8   8
#     4  10  21  36  53  74 100 129 163 203 246 292
#     4   9  17  29  47  72  98 124 159 203 247 289
#     4   9  19  34  51  74 102 131 164 202 245 291
#     4   9  17  31  50  70  95 128 164 201 243 290
#     4   9  17  30  49  71  95 126 163 200 241 292
#     4   9  18  34  54  73  97 132 169 201 239 291
#     4  10  20  34  52  74 101 131 164 203 246 293
#
# _framework density 18.110026000000001
#
# number of rings (size 3 to 8) (size 9 to 14) (size 15 to 20)
#    0.000    2.714    0.000    1.286    0.000    5.429 
#    0.000    5.000    0.000    4.286    0.000    0.000 
#    0.000    0.000    0.000    0.000    0.000    0.000 
#
# Total GULP energy -694531.237282 kJ/mol
# GULP energy per Si atom -12402.343523 kJ/mol
# Density = 1.806881 g / cm^3
# Si number density = 18.110026 Si / 1000 Ang^3
#
#
#
# Elastic Constant Matrix: (Units=GPa)
#
#
# Indices 1 2 3 4 5 6 
#
# 1 73.8548 36.5994 82.0015 0.0000 0.0000 0.0000
# 2 36.5994 66.1897 69.3149 0.0000 0.0000 0.0000
# 3 82.0015 69.3149 192.9684 0.0000 0.0000 0.0000
# 4 0.0000 0.0000 0.0000 -28.0185 0.0000 0.0000
# 5 0.0000 0.0000 0.0000 0.0000 22.9003 0.0000
# 6 0.0000 0.0000 0.0000 0.0000 0.0000 19.1473
#
#
#
# Elastic Compliance Matrix: (Units=1/GPa)
#
#
# Indices 1 2 3 4 5 6 
#
# 1 0.026474 -0.004581 -0.009605 0.000000 0.000000 0.000000
# 2 -0.004581 0.025011 -0.007037 0.000000 0.000000 0.000000
# 3 -0.009605 -0.007037 0.011792 0.000000 0.000000 0.000000
# 4 0.000000 0.000000 0.000000 -0.035691 0.000000 0.000000
# 5 0.000000 0.000000 0.000000 0.000000 0.043668 0.000000
# 6 0.000000 0.000000 0.000000 0.000000 0.000000 0.052227
#
#
# Mechanical properties :
#
#
# Convention : Reuss Voigt Hill
#
# Bulk Modulus (GPa) = 48.00556 78.76051 63.38304
# Shear Modulus (GPa) = 28.92355 12.47894 20.70125
#
# Velocity S-wave (km/s) = 4.00071 2.62785 3.38462
# Velocity P-wave (km/s) = 6.92143 7.26580 7.09570
#
# Compressibility (1/GPa) = 0.02083092
#
# Stress axis : x y z
#
# Youngs Moduli (GPa) = 37.77237 39.98309 84.80604
#
# Poissons Ratio (x) = 0.18315 0.81455
# Poissons Ratio (y) = 0.17302 0.59681
# Poissons Ratio (z) = 0.36280 0.28138
#
# Static dielectric constant tensor:
#      x y z
#    x 3.353900 0.000000 0.000000 
#    y 0.000000 3.218640 0.000000 
#    z 0.000000 0.000000 3.528500 
# 
# 
# High freq. dielectric constant tensor:
#      x y z
#    x 1.696060 0.000000 0.000000 
#    y 0.000000 1.684720 0.000000 
#    z 0.000000 0.000000 1.714170 
# 
# From -- ./inp_files/25645.got.cif
#   From: 2010.03.12/outbox.cif.g09.slc.cpg/sg51_13_cif.got.tgz:25645.got - 2010.04.16 13:43:02.
