data_PCOD8211059
_publ_section_title
;
Structure prediction by ZEFSAII (Michael W. Deem and Ramdas Pophale) SiO2 
 PCOD8211059
Probable space group: P M M A
;
_chemical_formula_sum "Si O2"
_cell_formula_units_Z 64
_cell_length_a 19.294842
_cell_length_b 8.921771
_cell_length_c 20.750776
_cell_angle_alpha 90.000000
_cell_angle_beta 90.000000
_cell_angle_gamma 90.000000
_cell_volume 3572.124941
_symmetry_space_group_name_H-M "P M M A"
_symmetry_group_IT_number 51
_symmetry_cell_setting 'orthorhombic'
loop_
_space_group_symop_operation_xyz
x,y,z
1/2-x,-y,z
1/2+x,-y,-z
-x,y,-z
-x,-y,-z
1/2+x,y,-z
1/2-x,y,z
x,-y,z
loop_
_atom_site_type_symbol
_atom_site_label
_atom_site_fract_x
_atom_site_fract_y
_atom_site_fract_z
Si Si1 0.466519 0.322916 0.064580
Si Si2 0.675135 0.321864 0.249542
Si Si3 0.172512 0.325679 0.125808
Si Si4 0.463157 0.825744 0.567094
Si Si5 0.828507 0.324268 0.396341
Si Si6 0.546111 0.322558 0.682135
Si Si7 0.536458 0.678365 0.192712
Si Si8 0.829117 0.174578 0.738673
O O1 0.477298 0.500000 0.062696
O O2 0.384429 0.283657 0.071147
O O3 0.506807 0.254728 0.126240
O O4 0.500000 0.251202 0.000000
O O5 0.750000 0.260057 0.225847
O O6 0.676142 0.500000 0.248848
O O7 0.661072 0.271103 0.322671
O O8 0.614948 0.260909 0.202649
O O9 0.250000 0.288499 0.099672
O O10 0.165657 0.500000 0.144220
O O11 0.155218 0.235182 0.189986
O O12 0.500000 0.792754 0.500000
O O13 0.384104 0.766594 0.561402
O O14 0.505029 0.737985 0.621321
O O15 0.462732 0.000000 0.584312
O O16 0.750000 0.287091 0.419279
O O17 0.843519 0.500000 0.403571
O O18 0.549061 0.500000 0.676797
O O19 0.508951 0.266401 0.747282
O O20 0.623834 0.256650 0.685224
O O21 0.535139 0.500000 0.190432
O O22 0.750000 0.207801 0.719400
O O23 0.846059 0.000000 0.738212
#
# Coordination Sequence:
#
# PCOD8211059 Si02
#       8
#     8   8   8   8   8   8   8   8
#     4   9  16  26  41  66 101 137 171 214 264 310
#     4   8  13  23  42  69  98 124 157 208 261 303
#     4   9  16  28  47  70  96 131 177 220 258 310
#     4  11  24  39  54  78 113 148 179 214 264 323
#     4   9  17  32  56  82 105 133 175 224 267 311
#     4  11  20  34  57  80 102 132 176 224 265 308
#     4   9  15  25  44  71  97 127 168 211 260 305
#     4  10  20  33  51  78 109 137 169 216 274 328
#
# _framework density 17.916506999999999
#
# number of rings (size 3 to 8) (size 9 to 14) (size 15 to 20)
#    0.000    2.500    2.500    1.875    0.000    2.000 
#    0.000    1.250    0.000    4.875    0.000    0.000 
#    0.000    0.000    0.000    0.000    0.000    0.000 
#
# Total GULP energy -793298.981194 kJ/mol
# GULP energy per Si atom -12395.296581 kJ/mol
# Density = 1.787573 g / cm^3
# Si number density = 17.916507 Si / 1000 Ang^3
#
#
#
# Elastic Constant Matrix: (Units=GPa)
#
#
# Indices 1 2 3 4 5 6 
#
# 1 161.6568 44.0498 67.8853 0.0000 0.0000 0.0000
# 2 44.0498 50.9984 37.2290 0.0000 0.0000 0.0000
# 3 67.8853 37.2290 90.7109 0.0000 0.0000 0.0000
# 4 0.0000 0.0000 0.0000 11.3276 0.0000 0.0000
# 5 0.0000 0.0000 0.0000 0.0000 29.6881 0.0000
# 6 0.0000 0.0000 0.0000 0.0000 0.0000 18.9365
#
#
#
# Elastic Compliance Matrix: (Units=1/GPa)
#
#
# Indices 1 2 3 4 5 6 
#
# 1 0.009660 -0.004378 -0.005433 0.000000 0.000000 0.000000
# 2 -0.004378 0.029981 -0.009028 0.000000 0.000000 0.000000
# 3 -0.005433 -0.009028 0.018795 0.000000 0.000000 0.000000
# 4 0.000000 0.000000 0.000000 0.088280 0.000000 0.000000
# 5 0.000000 0.000000 0.000000 0.000000 0.033683 0.000000
# 6 0.000000 0.000000 0.000000 0.000000 0.000000 0.052808
#
#
# Mechanical properties :
#
#
# Convention : Reuss Voigt Hill
#
# Bulk Modulus (GPa) = 48.17371 66.85490 57.51430
# Shear Modulus (GPa) = 17.99831 22.27059 20.13445
#
# Velocity S-wave (km/s) = 3.17293 3.52948 3.35594
# Velocity P-wave (km/s) = 6.35370 7.34883 6.86931
#
# Compressibility (1/GPa) = 0.02075821
#
# Stress axis : x y z
#
# Youngs Moduli (GPa) = 103.51642 33.35495 53.20632
#
# Poissons Ratio (x) = 0.14604 0.28905
# Poissons Ratio (y) = 0.45322 0.48034
# Poissons Ratio (z) = 0.56236 0.30112
#
# Static dielectric constant tensor:
#      x y z
#    x 3.814450 0.000000 0.000000 
#    y 0.000000 2.986400 0.000000 
#    z 0.000000 0.000000 3.221580 
# 
# 
# High freq. dielectric constant tensor:
#      x y z
#    x 1.716630 0.000000 0.000000 
#    y 0.000000 1.657000 0.000000 
#    z 0.000000 0.000000 1.662620 
# 
# From -- ./inp_files/35929.got.cif
#   From: 2010.03.12/outbox.cif.g09.slc.cpg/sg51_18_cif.got.tgz:35929.got - 2010.04.16 13:43:02.
