data_PCOD8211371
_publ_section_title
;
Structure prediction by ZEFSAII (Michael W. Deem and Ramdas Pophale) SiO2 
 PCOD8211371
Probable space group: P M M A
;
_chemical_formula_sum "Si O2"
_cell_formula_units_Z 48
_cell_length_a 8.802004
_cell_length_b 16.373664
_cell_length_c 18.443647
_cell_angle_alpha 90.000000
_cell_angle_beta 90.000000
_cell_angle_gamma 90.000000
_cell_volume 2658.117883
_symmetry_space_group_name_H-M "P M M A"
_symmetry_group_IT_number 51
_symmetry_cell_setting 'orthorhombic'
loop_
_space_group_symop_operation_xyz
x,y,z
1/2-x,-y,z
1/2+x,-y,-z
-x,y,-z
-x,-y,-z
1/2+x,y,-z
1/2-x,y,z
x,-y,z
loop_
_atom_site_type_symbol
_atom_site_label
_atom_site_fract_x
_atom_site_fract_y
_atom_site_fract_z
Si Si1 0.929832 0.167333 0.577334
Si Si2 0.572841 0.406347 0.783207
Si Si3 0.069582 0.000000 0.353145
Si Si4 0.427216 0.265117 0.702114
Si Si5 0.928110 0.689837 0.925880
Si Si6 0.071511 0.833787 0.845134
Si Si7 0.069577 0.000000 0.188737
O O1 0.750000 0.166651 0.571374
O O2 0.992441 0.079951 0.605550
O O3 0.000000 0.187021 0.500000
O O4 0.980610 0.238528 0.631470
O O5 0.750000 0.393658 0.766958
O O6 0.523271 0.500000 0.776657
O O7 0.477934 0.356149 0.723882
O O8 0.532946 0.375995 0.863973
O O9 0.250000 0.000000 0.351618
O O10 0.006923 0.000000 0.271210
O O11 0.250000 0.264651 0.684282
O O12 0.469396 0.203304 0.766732
O O13 0.750000 0.702355 0.935377
O O14 0.003256 0.776714 0.907446
O O15 0.000000 0.655948 0.000000
O O16 0.250000 0.841830 0.856868
O O17 0.993536 0.921415 0.852824
O O18 0.250000 0.000000 0.186367
#
# Coordination Sequence:
#
# PCOD8211371 Si02
#       7
#     8   8   4   8   8   8   4
#     4  11  21  35  52  76 109 146 183 222 266 315
#     4   9  19  36  58  83 109 139 174 212 259 316
#     4   9  19  32  50  75 106 142 179 220 266 311
#     4  10  20  34  53  78 106 139 178 220 264 312
#     4  10  20  35  55  79 109 143 175 213 261 315
#     4  10  20  34  52  76 104 138 181 224 264 310
#     4  11  19  32  53  77 103 137 182 225 268 313
#
# _framework density 18.057891000000001
#
# number of rings (size 3 to 8) (size 9 to 14) (size 15 to 20)
#    0.000    2.000    1.667    2.500    0.000    2.667 
#    0.000    1.667    0.000    0.500    0.000    0.000 
#    0.000    0.000    0.000    0.000    0.000    0.000 
#
# Total GULP energy -595435.083983 kJ/mol
# GULP energy per Si atom -12404.897583 kJ/mol
# Density = 1.801679 g / cm^3
# Si number density = 18.057891 Si / 1000 Ang^3
#
#
#
# Elastic Constant Matrix: (Units=GPa)
#
#
# Indices 1 2 3 4 5 6 
#
# 1 75.3825 39.5519 32.2936 0.0000 0.0000 0.0000
# 2 39.5519 125.8899 37.6395 0.0000 0.0000 0.0000
# 3 32.2936 37.6395 84.6435 0.0000 0.0000 0.0000
# 4 0.0000 0.0000 0.0000 17.7818 0.0000 0.0000
# 5 0.0000 0.0000 0.0000 0.0000 30.9359 0.0000
# 6 0.0000 0.0000 0.0000 0.0000 0.0000 27.5018
#
#
#
# Elastic Compliance Matrix: (Units=1/GPa)
#
#
# Indices 1 2 3 4 5 6 
#
# 1 0.017468 -0.004031 -0.004872 0.000000 0.000000 0.000000
# 2 -0.004031 0.010092 -0.002950 0.000000 0.000000 0.000000
# 3 -0.004872 -0.002950 0.014985 0.000000 0.000000 0.000000
# 4 0.000000 0.000000 0.000000 0.056237 0.000000 0.000000
# 5 0.000000 0.000000 0.000000 0.000000 0.032325 0.000000
# 6 0.000000 0.000000 0.000000 0.000000 0.000000 0.036361
#
#
# Mechanical properties :
#
#
# Convention : Reuss Voigt Hill
#
# Bulk Modulus (GPa) = 53.08176 56.09842 54.59009
# Shear Modulus (GPa) = 25.32245 27.00596 26.16421
#
# Velocity S-wave (km/s) = 3.74878 3.87139 3.81058
# Velocity P-wave (km/s) = 6.94240 7.14961 7.04677
#
# Compressibility (1/GPa) = 0.01883886
#
# Stress axis : x y z
#
# Youngs Moduli (GPa) = 57.24772 99.08889 66.73523
#
# Poissons Ratio (x) = 0.39947 0.32512
# Poissons Ratio (y) = 0.23079 0.19684
# Poissons Ratio (z) = 0.27890 0.29227
#
# Static dielectric constant tensor:
#      x y z
#    x 3.275630 0.000000 0.000000 
#    y 0.000000 3.300550 0.000000 
#    z 0.000000 0.000000 3.242260 
# 
# 
# High freq. dielectric constant tensor:
#      x y z
#    x 1.704420 0.000000 0.000000 
#    y 0.000000 1.692690 0.000000 
#    z 0.000000 0.000000 1.687140 
# 
# From -- ./inp_files/27658.got.cif
#   From: 2010.03.12/outbox.cif.g09.slc.cpg/sg51_14_cif.got.tgz:27658.got - 2010.04.16 13:43:02.
