data_PCOD8211655
_publ_section_title
;
Structure prediction by ZEFSAII (Michael W. Deem and Ramdas Pophale) SiO2 
 PCOD8211655
Probable space group: P M M A
;
_chemical_formula_sum "Si O2"
_cell_formula_units_Z 48
_cell_length_a 9.140933
_cell_length_b 8.708135
_cell_length_c 30.882674
_cell_angle_alpha 90.000000
_cell_angle_beta 90.000000
_cell_angle_gamma 90.000000
_cell_volume 2458.275631
_symmetry_space_group_name_H-M "P M M A"
_symmetry_group_IT_number 51
_symmetry_cell_setting 'orthorhombic'
loop_
_space_group_symop_operation_xyz
x,y,z
1/2-x,-y,z
1/2+x,-y,-z
-x,y,-z
-x,-y,-z
1/2+x,y,-z
1/2-x,y,z
x,-y,z
loop_
_atom_site_type_symbol
_atom_site_label
_atom_site_fract_x
_atom_site_fract_y
_atom_site_fract_z
Si Si1 0.914842 0.317008 0.041566
Si Si2 0.580549 0.676624 0.873906
Si Si3 0.581492 0.679369 0.294443
Si Si4 0.919371 0.178354 0.783793
Si Si5 0.415399 0.183128 0.542105
Si Si6 0.914717 0.181967 0.625777
O O1 0.750000 0.254491 0.040189
O O2 0.919375 0.500000 0.040524
O O3 0.990265 0.257999 0.085507
O O4 0.000000 0.250079 0.000000
O O5 0.750000 0.693838 0.885843
O O6 0.540947 0.500000 0.863762
O O7 0.537490 0.778113 0.832599
O O8 0.750000 0.729844 0.296809
O O9 0.562501 0.500000 0.302677
O O10 0.518958 0.721431 0.247659
O O11 0.492453 0.770325 0.330357
O O12 0.750000 0.218483 0.774905
O O13 0.951195 0.000000 0.775922
O O14 0.500000 0.245789 0.500000
O O15 0.250000 0.246768 0.541619
O O16 0.496606 0.247729 0.584655
O O17 0.414939 0.000000 0.542142
O O18 0.750000 0.248440 0.624703
O O19 0.910401 0.000000 0.623644
#
# Coordination Sequence:
#
# PCOD8211655 Si02
#       6
#     8   8   8   8   8   8
#     4   9  16  26  43  69 100 132 167 208 252 298
#     4   9  17  30  49  73 102 135 169 207 253 303
#     4  11  24  39  55  77 105 137 174 216 262 313
#     4  10  21  37  57  80 105 135 172 213 259 313
#     4   9  16  27  46  74 108 143 178 217 259 303
#     4  10  20  34  54  80 108 139 177 219 263 312
#
# _framework density 19.525883
#
# number of rings (size 3 to 8) (size 9 to 14) (size 15 to 20)
#    0.000    2.333    0.000    3.000    0.000   10.000 
#    0.000    1.667    0.000    1.000    0.000    0.000 
#    0.000    0.000    0.000    0.000    0.000    0.000 
#
# Total GULP energy -595325.614061 kJ/mol
# GULP energy per Si atom -12402.616960 kJ/mol
# Density = 1.948144 g / cm^3
# Si number density = 19.525883 Si / 1000 Ang^3
#
#
#
# Elastic Constant Matrix: (Units=GPa)
#
#
# Indices 1 2 3 4 5 6 
#
# 1 152.9834 15.4674 81.4079 0.0000 0.0000 0.0000
# 2 15.4674 14.0167 6.6077 0.0000 0.0000 0.0000
# 3 81.4079 6.6077 137.9563 0.0000 0.0000 0.0000
# 4 0.0000 0.0000 0.0000 -6.1747 0.0000 0.0000
# 5 0.0000 0.0000 0.0000 0.0000 45.4554 0.0000
# 6 0.0000 0.0000 0.0000 0.0000 0.0000 15.5492
#
#
#
# Elastic Compliance Matrix: (Units=1/GPa)
#
#
# Indices 1 2 3 4 5 6 
#
# 1 0.010507 -0.008872 -0.005775 0.000000 0.000000 0.000000
# 2 -0.008872 0.080483 0.001380 0.000000 0.000000 0.000000
# 3 -0.005775 0.001380 0.010590 0.000000 0.000000 0.000000
# 4 0.000000 0.000000 0.000000 -0.161952 0.000000 0.000000
# 5 0.000000 0.000000 0.000000 0.000000 0.022000 0.000000
# 6 0.000000 0.000000 0.000000 0.000000 0.000000 0.064312
#
#
# Mechanical properties :
#
#
# Convention : Reuss Voigt Hill
#
# Bulk Modulus (GPa) = 13.32499 56.88026 35.10263
# Shear Modulus (GPa) = 64.52554 24.39754 44.46154
#
# Velocity S-wave (km/s) = 5.75482 3.53866 4.77703
# Velocity P-wave (km/s) = 7.14117 6.77422 6.96011
#
# Compressibility (1/GPa) = 0.07504694
#
# Stress axis : x y z
#
# Youngs Moduli (GPa) = 95.17683 12.42502 94.42479
#
# Poissons Ratio (x) = 0.11023 0.54531
# Poissons Ratio (y) = 0.84438 -0.13033
# Poissons Ratio (z) = 0.54966 -0.01715
#
# Static dielectric constant tensor:
#      x y z
#    x 3.781240 0.000000 0.000000 
#    y 0.000000 3.113230 0.000000 
#    z 0.000000 0.000000 3.690320 
# 
# 
# High freq. dielectric constant tensor:
#      x y z
#    x 1.770170 0.000000 0.000000 
#    y 0.000000 1.715360 0.000000 
#    z 0.000000 0.000000 1.777020 
# 
# From -- ./inp_files/36873.got.cif
#   From: 2010.03.12/outbox.cif.g09.slc.cpg/sg51_19_cif.got.tgz:36873.got - 2010.04.16 13:43:02.
