data_PCOD8211642
_publ_section_title
;
Structure prediction by ZEFSAII (Michael W. Deem and Ramdas Pophale) SiO2 
 PCOD8211642
Probable space group: P M M A
;
_chemical_formula_sum "Si O2"
_cell_formula_units_Z 52
_cell_length_a 9.190647
_cell_length_b 14.852409
_cell_length_c 20.507839
_cell_angle_alpha 90.000000
_cell_angle_beta 90.000000
_cell_angle_gamma 90.000000
_cell_volume 2799.386637
_symmetry_space_group_name_H-M "P M M A"
_symmetry_group_IT_number 51
_symmetry_cell_setting 'orthorhombic'
loop_
_space_group_symop_operation_xyz
x,y,z
1/2-x,-y,z
1/2+x,-y,-z
-x,y,-z
-x,-y,-z
1/2+x,y,-z
1/2-x,y,z
x,-y,z
loop_
_atom_site_type_symbol
_atom_site_label
_atom_site_fract_x
_atom_site_fract_y
_atom_site_fract_z
Si Si1 0.420282 0.396547 0.065409
Si Si2 0.416786 0.000000 0.434665
Si Si3 0.080458 0.399310 0.703434
Si Si4 0.914854 0.146086 0.364679
Si Si5 0.083754 0.103822 0.241267
Si Si6 0.416569 0.711505 0.189218
Si Si7 0.914221 0.336988 0.432756
O O1 0.250000 0.382805 0.054098
O O2 0.458095 0.500000 0.082478
O O3 0.480266 0.333451 0.123657
O O4 0.500000 0.365237 0.000000
O O5 0.500000 0.000000 0.500000
O O6 0.459816 0.913773 0.394726
O O7 0.250000 0.000000 0.451551
O O8 0.250000 0.371217 0.704241
O O9 0.055598 0.500000 0.730665
O O10 0.026750 0.397473 0.627542
O O11 0.997689 0.327415 0.747472
O O12 0.750000 0.107500 0.368776
O O13 0.924435 0.237290 0.404249
O O14 0.965170 0.146737 0.289991
O O15 0.250000 0.104515 0.268855
O O16 0.072177 0.178708 0.183446
O O17 0.044343 0.000000 0.220397
O O18 0.250000 0.681187 0.197278
O O19 0.750000 0.363311 0.450537
O O20 0.000000 0.350460 0.500000
#
# Coordination Sequence:
#
# PCOD8211642 Si02
#       7
#     8   4   8   8   8   8   8
#     4   9  18  33  54  83 117 149 182 219 262 316
#     4  12  24  36  50  72 100 130 171 220 279 344
#     4  10  21  37  55  77 106 139 178 225 276 330
#     4  11  21  35  53  73  99 133 174 222 277 331
#     4  10  20  34  54  80 107 139 178 222 271 324
#     4  10  20  35  57  83 113 145 180 224 271 319
#     4  10  22  37  52  72  98 133 176 222 273 327
#
# _framework density 18.575499000000001
#
# number of rings (size 3 to 8) (size 9 to 14) (size 15 to 20)
#    0.000    1.846    2.308    2.077    0.000    4.923 
#    0.000    1.538    0.000    0.462    0.000    0.000 
#    0.000    0.000    0.000    0.000    0.000    0.000 
#
# Total GULP energy -644240.831686 kJ/mol
# GULP energy per Si atom -12389.246763 kJ/mol
# Density = 1.853322 g / cm^3
# Si number density = 18.575499 Si / 1000 Ang^3
#
#
#
# Elastic Constant Matrix: (Units=GPa)
#
#
# Indices 1 2 3 4 5 6 
#
# 1 75.8770 29.4725 41.4645 0.0000 0.0000 0.0000
# 2 29.4725 94.3525 55.0047 0.0000 0.0000 0.0000
# 3 41.4645 55.0047 121.6625 0.0000 0.0000 0.0000
# 4 0.0000 0.0000 0.0000 26.3621 0.0000 0.0000
# 5 0.0000 0.0000 0.0000 0.0000 27.3013 0.0000
# 6 0.0000 0.0000 0.0000 0.0000 0.0000 18.8284
#
#
#
# Elastic Compliance Matrix: (Units=1/GPa)
#
#
# Indices 1 2 3 4 5 6 
#
# 1 0.016642 -0.002569 -0.004510 0.000000 0.000000 0.000000
# 2 -0.002569 0.014788 -0.005810 0.000000 0.000000 0.000000
# 3 -0.004510 -0.005810 0.012384 0.000000 0.000000 0.000000
# 4 0.000000 0.000000 0.000000 0.037933 0.000000 0.000000
# 5 0.000000 0.000000 0.000000 0.000000 0.036628 0.000000
# 6 0.000000 0.000000 0.000000 0.000000 0.000000 0.053111
#
#
# Mechanical properties :
#
#
# Convention : Reuss Voigt Hill
#
# Bulk Modulus (GPa) = 55.44973 60.41948 57.93461
# Shear Modulus (GPa) = 24.59695 25.56172 25.07933
#
# Velocity S-wave (km/s) = 3.64285 3.71360 3.67840
# Velocity P-wave (km/s) = 6.89997 7.14037 7.02120
#
# Compressibility (1/GPa) = 0.01803435
#
# Stress axis : x y z
#
# Youngs Moduli (GPa) = 60.08947 67.62115 80.75206
#
# Poissons Ratio (x) = 0.17371 0.36422
# Poissons Ratio (y) = 0.15437 0.46920
# Poissons Ratio (z) = 0.27103 0.39290
#
# Static dielectric constant tensor:
#      x y z
#    x 3.436710 0.000000 0.000000 
#    y 0.000000 3.648830 0.000000 
#    z 0.000000 0.000000 3.193820 
# 
# 
# High freq. dielectric constant tensor:
#      x y z
#    x 1.717890 0.000000 0.000000 
#    y 0.000000 1.727960 0.000000 
#    z 0.000000 0.000000 1.698810 
# 
# From -- ./inp_files/31684.got.cif
#   From: 2010.03.12/outbox.cif.g09.slc.cpg/sg51_16_cif.got.tgz:31684.got - 2010.04.16 13:43:02.
