data_PCOD8211529
_publ_section_title
;
Structure prediction by ZEFSAII (Michael W. Deem and Ramdas Pophale) SiO2 
 PCOD8211529
Probable space group: P M M A
;
_chemical_formula_sum "Si O2"
_cell_formula_units_Z 48
_cell_length_a 30.979933
_cell_length_b 8.974620
_cell_length_c 9.099972
_cell_angle_alpha 90.000000
_cell_angle_beta 90.000000
_cell_angle_gamma 90.000000
_cell_volume 2530.093664
_symmetry_space_group_name_H-M "P M M A"
_symmetry_group_IT_number 51
_symmetry_cell_setting 'orthorhombic'
loop_
_space_group_symop_operation_xyz
x,y,z
1/2-x,-y,z
1/2+x,-y,-z
-x,y,-z
-x,-y,-z
1/2+x,y,-z
1/2-x,y,z
x,-y,z
loop_
_atom_site_type_symbol
_atom_site_label
_atom_site_fract_x
_atom_site_fract_y
_atom_site_fract_z
Si Si1 0.750000 0.665486 0.823809
Si Si2 0.157654 0.321064 0.850057
Si Si3 0.493945 0.674099 0.169100
Si Si4 0.750000 0.662514 0.172274
Si Si5 0.080354 0.171548 0.341830
Si Si6 0.835696 0.827292 0.842327
Si Si7 0.921706 0.324256 0.346311
O O1 0.750000 0.500000 0.752153
O O2 0.792584 0.754504 0.774061
O O3 0.750000 0.650026 0.997528
O O4 0.158978 0.500000 0.867769
O O5 0.204205 0.259895 0.786073
O O6 0.120698 0.267089 0.739395
O O7 0.148362 0.252462 0.009207
O O8 0.484978 0.500000 0.191598
O O9 0.453060 0.763405 0.225686
O O10 0.536474 0.725753 0.255618
O O11 0.500000 0.715116 0.000000
O O12 0.750000 0.500000 0.246392
O O13 0.128207 0.195222 0.280781
O O14 0.075829 0.253641 0.495129
O O15 0.069461 0.000000 0.366782
O O16 0.827083 0.000000 0.877358
O O17 0.920008 0.500000 0.364823
#
# Coordination Sequence:
#
# PCOD8211529 Si02
#       7
#     4   8   8   4   8   8   8
#     4   9  17  31  54  81 106 138 180 224 268 311
#     4   9  17  32  55  81 107 138 180 227 271 317
#     4  10  21  38  60  83 105 134 177 227 275 321
#     4   7  12  25  48  77 104 128 162 212 262 307
#     4  11  24  38  53  77 111 148 180 216 267 325
#     4  10  20  34  53  79 110 143 179 220 268 319
#     4  10  21  36  55  79 108 143 180 222 272 322
#
# _framework density 18.971630000000001
#
# number of rings (size 3 to 8) (size 9 to 14) (size 15 to 20)
#    0.000    2.333    0.000    3.750    0.000    7.667 
#    0.000    0.833    0.000    1.000    0.000    0.000 
#    0.000    0.000    0.000    0.000    0.000    0.000 
#
# Total GULP energy -595092.161046 kJ/mol
# GULP energy per Si atom -12397.753355 kJ/mol
# Density = 1.892845 g / cm^3
# Si number density = 18.971630 Si / 1000 Ang^3
#
#
#
# Elastic Constant Matrix: (Units=GPa)
#
#
# Indices 1 2 3 4 5 6 
#
# 1 125.9767 32.7347 32.6205 0.0000 0.0000 0.0000
# 2 32.7347 36.2665 7.3862 0.0000 0.0000 0.0000
# 3 32.6205 7.3862 64.7846 0.0000 0.0000 0.0000
# 4 0.0000 0.0000 0.0000 13.9463 0.0000 0.0000
# 5 0.0000 0.0000 0.0000 0.0000 15.4893 0.0000
# 6 0.0000 0.0000 0.0000 0.0000 0.0000 27.8841
#
#
#
# Elastic Compliance Matrix: (Units=1/GPa)
#
#
# Indices 1 2 3 4 5 6 
#
# 1 0.011657 -0.009548 -0.004781 0.000000 0.000000 0.000000
# 2 -0.009548 0.036050 0.000698 0.000000 0.000000 0.000000
# 3 -0.004781 0.000698 0.017764 0.000000 0.000000 0.000000
# 4 0.000000 0.000000 0.000000 0.071704 0.000000 0.000000
# 5 0.000000 0.000000 0.000000 0.000000 0.064561 0.000000
# 6 0.000000 0.000000 0.000000 0.000000 0.000000 0.035863
#
#
# Mechanical properties :
#
#
# Convention : Reuss Voigt Hill
#
# Bulk Modulus (GPa) = 26.17289 41.39005 33.78147
# Shear Modulus (GPa) = 18.01177 21.74971 19.88074
#
# Velocity S-wave (km/s) = 3.08458 3.38958 3.24067
# Velocity P-wave (km/s) = 5.14898 6.09780 5.64336
#
# Compressibility (1/GPa) = 0.03820747
#
# Stress axis : x y z
#
# Youngs Moduli (GPa) = 85.78533 27.73937 56.29504
#
# Poissons Ratio (x) = 0.26486 0.26915
# Poissons Ratio (y) = 0.81908 -0.03927
# Poissons Ratio (z) = 0.41014 -0.01935
#
# Static dielectric constant tensor:
#      x y z
#    x 3.924350 0.000000 0.000000 
#    y 0.000000 3.419690 0.000000 
#    z 0.000000 0.000000 3.276990 
# 
# 
# High freq. dielectric constant tensor:
#      x y z
#    x 1.761770 0.000000 0.000000 
#    y 0.000000 1.725800 0.000000 
#    z 0.000000 0.000000 1.717050 
# 
# From -- ./inp_files/12963.got.cif
#   From: 2010.03.12/outbox.cif.g09.slc.cpg/sg51_7_cif.got.tgz:12963.got - 2010.04.16 13:43:02.
