data_PCOD8211782
_publ_section_title
;
Structure prediction by ZEFSAII (Michael W. Deem and Ramdas Pophale) SiO2 
 PCOD8211782
Probable space group: P M M A
;
_chemical_formula_sum "Si O2"
_cell_formula_units_Z 48
_cell_length_a 8.652720
_cell_length_b 30.436704
_cell_length_c 9.566442
_cell_angle_alpha 90.000000
_cell_angle_beta 90.000000
_cell_angle_gamma 90.000000
_cell_volume 2519.420819
_symmetry_space_group_name_H-M "P M M A"
_symmetry_group_IT_number 51
_symmetry_cell_setting 'orthorhombic'
loop_
_space_group_symop_operation_xyz
x,y,z
1/2-x,-y,z
1/2+x,-y,-z
-x,y,-z
-x,-y,-z
1/2+x,y,-z
1/2-x,y,z
x,-y,z
loop_
_atom_site_type_symbol
_atom_site_label
_atom_site_fract_x
_atom_site_fract_y
_atom_site_fract_z
Si Si1 0.570361 0.448547 0.147179
Si Si2 0.429348 0.119179 0.152229
Si Si3 0.432692 0.303040 0.843911
Si Si4 0.429486 0.215340 0.151551
Si Si5 0.066995 0.379536 0.345381
Si Si6 0.068465 0.049364 0.645130
O O1 0.750000 0.435897 0.148665
O O2 0.542820 0.500000 0.168015
O O3 0.483943 0.425144 0.274666
O O4 0.500000 0.432432 0.000000
O O5 0.250000 0.107247 0.143319
O O6 0.452195 0.167559 0.224707
O O7 0.516418 0.081979 0.235725
O O8 0.500000 0.119228 0.000000
O O9 0.250000 0.307999 0.849087
O O10 0.480741 0.255847 0.775002
O O11 0.502283 0.340083 0.746442
O O12 0.500000 0.307309 0.000000
O O13 0.250000 0.227983 0.141014
O O14 0.500000 0.210070 0.000000
O O15 0.250000 0.376861 0.352931
O O16 0.000000 0.376751 0.500000
O O17 0.250000 0.050138 0.632676
O O18 0.000000 0.066433 0.500000
O O19 0.008834 0.000000 0.678879
#
# Coordination Sequence:
#
# PCOD8211782 Si02
#       6
#     8   8   8   8   8   8
#     4  10  21  39  63  90 118 149 188 232 276 325
#     4  10  20  34  55  82 112 143 178 223 272 324
#     4  11  21  36  59  85 112 146 187 228 272 323
#     4   9  17  31  52  80 110 141 179 223 272 322
#     4  12  25  41  59  82 115 151 188 231 280 332
#     4  10  21  37  56  77 104 140 181 224 271 325
#
# _framework density 19.051998999999999
#
# number of rings (size 3 to 8) (size 9 to 14) (size 15 to 20)
#    0.000    1.667    0.000    6.500    0.000    4.667 
#    0.000    0.833    0.000    4.000    0.000    0.000 
#    0.000    0.000    0.000    0.000    0.000    0.000 
#
# Total GULP energy -595103.375341 kJ/mol
# GULP energy per Si atom -12397.986986 kJ/mol
# Density = 1.900864 g / cm^3
# Si number density = 19.051999 Si / 1000 Ang^3
#
#
#
# Elastic Constant Matrix: (Units=GPa)
#
#
# Indices 1 2 3 4 5 6 
#
# 1 145.1599 53.3210 49.0599 0.0000 0.0000 0.0000
# 2 53.3210 111.5167 59.4124 0.0000 0.0000 0.0000
# 3 49.0599 59.4124 98.3428 0.0000 0.0000 0.0000
# 4 0.0000 0.0000 0.0000 -11.9393 0.0000 0.0000
# 5 0.0000 0.0000 0.0000 0.0000 34.8683 0.0000
# 6 0.0000 0.0000 0.0000 0.0000 0.0000 53.7655
#
#
#
# Elastic Compliance Matrix: (Units=1/GPa)
#
#
# Indices 1 2 3 4 5 6 
#
# 1 0.008829 -0.002765 -0.002734 0.000000 0.000000 0.000000
# 2 -0.002765 0.014089 -0.007133 0.000000 0.000000 0.000000
# 3 -0.002734 -0.007133 0.015841 0.000000 0.000000 0.000000
# 4 0.000000 0.000000 0.000000 -0.083757 0.000000 0.000000
# 5 0.000000 0.000000 0.000000 0.000000 0.028679 0.000000
# 6 0.000000 0.000000 0.000000 0.000000 0.000000 0.018599
#
#
# Mechanical properties :
#
#
# Convention : Reuss Voigt Hill
#
# Bulk Modulus (GPa) = 74.09263 75.40068 74.74665
# Shear Modulus (GPa) = 156.04488 28.22065 92.13276
#
# Velocity S-wave (km/s) = 9.05994 3.85287 6.96158
# Velocity P-wave (km/s) = 12.18267 7.71070 10.19491
#
# Compressibility (1/GPa) = 0.01349662
#
# Stress axis : x y z
#
# Youngs Moduli (GPa) = 113.26935 70.97644 63.12564
#
# Poissons Ratio (x) = 0.19623 0.17258
# Poissons Ratio (y) = 0.31316 0.45025
# Poissons Ratio (z) = 0.30968 0.50624
#
# Static dielectric constant tensor:
#      x y z
#    x 3.705440 0.000000 0.000000 
#    y 0.000000 4.107560 0.000000 
#    z 0.000000 0.000000 3.288260 
# 
# 
# High freq. dielectric constant tensor:
#      x y z
#    x 1.763030 0.000000 0.000000 
#    y 0.000000 1.762420 0.000000 
#    z 0.000000 0.000000 1.710820 
# 
# From -- ./inp_files/5963.got.cif
#   From: 2010.03.12/outbox.cif.g09.slc.cpg/sg51_3_cif.got.tgz:5963.got - 2010.04.16 13:43:02.
