data_PCOD8211323
_publ_section_title
;
Structure prediction by ZEFSAII (Michael W. Deem and Ramdas Pophale) SiO2 
 PCOD8211323
Probable space group: P M M A
;
_chemical_formula_sum "Si O2"
_cell_formula_units_Z 48
_cell_length_a 8.926375
_cell_length_b 14.360035
_cell_length_c 20.940124
_cell_angle_alpha 90.000000
_cell_angle_beta 90.000000
_cell_angle_gamma 90.000000
_cell_volume 2684.169117
_symmetry_space_group_name_H-M "P M M A"
_symmetry_group_IT_number 51
_symmetry_cell_setting 'orthorhombic'
loop_
_space_group_symop_operation_xyz
x,y,z
1/2-x,-y,z
1/2+x,-y,-z
-x,y,-z
-x,-y,-z
1/2+x,y,-z
1/2-x,y,z
x,-y,z
loop_
_atom_site_type_symbol
_atom_site_label
_atom_site_fract_x
_atom_site_fract_y
_atom_site_fract_z
Si Si1 0.426081 0.392705 0.435047
Si Si2 0.074368 0.708128 0.310903
Si Si3 0.576166 0.894123 0.120220
Si Si4 0.571614 0.605092 0.814208
Si Si5 0.577890 0.896547 0.746731
Si Si6 0.572729 0.722002 0.935470
O O1 0.500000 0.355663 0.500000
O O2 0.250000 0.378691 0.441837
O O3 0.468280 0.500000 0.422513
O O4 0.494409 0.332977 0.376221
O O5 0.250000 0.688004 0.312533
O O6 0.006850 0.655680 0.248956
O O7 0.039134 0.818780 0.306493
O O8 0.750000 0.868372 0.114425
O O9 0.527164 0.879398 0.193099
O O10 0.480887 0.828055 0.074193
O O11 0.544694 0.000000 0.098828
O O12 0.750000 0.606363 0.813130
O O13 0.509730 0.500000 0.816129
O O14 0.514075 0.659289 0.876758
O O15 0.750000 0.884027 0.769612
O O16 0.552153 0.000000 0.717578
O O17 0.750000 0.719556 0.941947
O O18 0.500000 0.681466 0.000000
#
# Coordination Sequence:
#
# PCOD8211323 Si02
#       6
#     8   8   8   8   8   8
#     4   9  17  29  47  71 100 132 165 201 241 288
#     4   9  15  27  49  76  99 126 163 202 243 286
#     4  10  20  34  52  74 100 129 161 200 249 302
#     4   9  17  30  50  75  98 123 162 207 246 288
#     4   9  16  28  49  76 101 125 159 203 247 292
#     4  11  22  36  53  73  98 130 165 205 251 298
#
# _framework density 17.882629000000001
#
# number of rings (size 3 to 8) (size 9 to 14) (size 15 to 20)
#    0.000    2.500    1.667    1.500    0.000    3.667 
#    0.000    0.833    0.000    2.000    0.000    0.000 
#    0.000    0.000    0.000    0.000    0.000    0.000 
#
# Total GULP energy -595117.822256 kJ/mol
# GULP energy per Si atom -12398.287964 kJ/mol
# Density = 1.784193 g / cm^3
# Si number density = 17.882629 Si / 1000 Ang^3
#
#
#
# Elastic Constant Matrix: (Units=GPa)
#
#
# Indices 1 2 3 4 5 6 
#
# 1 35.0109 22.7768 26.7502 0.0000 0.0000 0.0000
# 2 22.7768 120.9590 75.3247 0.0000 0.0000 0.0000
# 3 26.7502 75.3247 153.5219 0.0000 0.0000 0.0000
# 4 0.0000 0.0000 0.0000 30.9924 0.0000 0.0000
# 5 0.0000 0.0000 0.0000 0.0000 25.0175 0.0000
# 6 0.0000 0.0000 0.0000 0.0000 0.0000 13.6467
#
#
#
# Elastic Compliance Matrix: (Units=1/GPa)
#
#
# Indices 1 2 3 4 5 6 
#
# 1 0.034199 -0.003930 -0.004031 0.000000 0.000000 0.000000
# 2 -0.003930 0.012356 -0.005378 0.000000 0.000000 0.000000
# 3 -0.004031 -0.005378 0.009855 0.000000 0.000000 0.000000
# 4 0.000000 0.000000 0.000000 0.032266 0.000000 0.000000
# 5 0.000000 0.000000 0.000000 0.000000 0.039972 0.000000
# 6 0.000000 0.000000 0.000000 0.000000 0.000000 0.073278
#
#
# Mechanical properties :
#
#
# Convention : Reuss Voigt Hill
#
# Bulk Modulus (GPa) = 33.63248 62.13280 47.88264
# Shear Modulus (GPa) = 20.96323 26.24066 23.60195
#
# Velocity S-wave (km/s) = 3.42755 3.83480 3.63688
# Velocity P-wave (km/s) = 5.87472 7.37752 6.66859
#
# Compressibility (1/GPa) = 0.02973316
#
# Stress axis : x y z
#
# Youngs Moduli (GPa) = 29.24077 80.93180 101.47478
#
# Poissons Ratio (x) = 0.31802 0.40904
# Poissons Ratio (y) = 0.11490 0.54571
# Poissons Ratio (z) = 0.11787 0.43523
#
# Static dielectric constant tensor:
#      x y z
#    x 3.007600 0.000000 0.000000 
#    y 0.000000 3.517180 0.000000 
#    z 0.000000 0.000000 3.359520 
# 
# 
# High freq. dielectric constant tensor:
#      x y z
#    x 1.658730 0.000000 0.000000 
#    y 0.000000 1.696770 0.000000 
#    z 0.000000 0.000000 1.679570 
# 
# From -- ./inp_files/27542.got.cif
#   From: 2010.03.12/outbox.cif.g09.slc.cpg/sg51_14_cif.got.tgz:27542.got - 2010.04.16 13:43:02.
