data_PCOD8211405
_publ_section_title
;
Structure prediction by ZEFSAII (Michael W. Deem and Ramdas Pophale) SiO2 
 PCOD8211405
Probable space group: P M M A
;
_chemical_formula_sum "Si O2"
_cell_formula_units_Z 64
_cell_length_a 15.340440
_cell_length_b 9.345917
_cell_length_c 23.906023
_cell_angle_alpha 90.000000
_cell_angle_beta 90.000000
_cell_angle_gamma 90.000000
_cell_volume 3427.417968
_symmetry_space_group_name_H-M "P M M A"
_symmetry_group_IT_number 51
_symmetry_cell_setting 'orthorhombic'
loop_
_space_group_symop_operation_xyz
x,y,z
1/2-x,-y,z
1/2+x,-y,-z
-x,y,-z
-x,-y,-z
1/2+x,y,-z
1/2-x,y,z
x,-y,z
loop_
_atom_site_type_symbol
_atom_site_label
_atom_site_fract_x
_atom_site_fract_y
_atom_site_fract_z
Si Si1 0.601837 0.335114 0.937472
Si Si2 0.649256 0.667629 0.440161
Si Si3 0.650994 0.164020 0.552049
Si Si4 0.846421 0.163410 0.166332
Si Si5 0.398467 0.664852 0.937279
Si Si6 0.153608 0.163442 0.166094
Si Si7 0.499499 0.829991 0.243010
Si Si8 0.508676 0.831784 0.369131
O O1 0.625495 0.500000 0.928334
O O2 0.500162 0.308018 0.928191
O O3 0.654522 0.243786 0.892875
O O4 0.629086 0.287949 0.000130
O O5 0.750000 0.694894 0.423664
O O6 0.627375 0.500000 0.441880
O O7 0.628821 0.732981 0.500733
O O8 0.588432 0.745581 0.395579
O O9 0.750000 0.189693 0.573819
O O10 0.583367 0.200954 0.601090
O O11 0.639323 0.000000 0.532030
O O12 0.750000 0.176748 0.192789
O O13 0.845899 0.244184 0.107487
O O14 0.914738 0.228042 0.210872
O O15 0.871290 0.000000 0.153605
O O16 0.374855 0.500000 0.928087
O O17 0.250000 0.175998 0.192599
O O18 0.085317 0.229852 0.210352
O O19 0.128290 0.000000 0.153583
O O20 0.499298 0.772475 0.306147
O O21 0.497655 0.000000 0.245144
O O22 0.531062 0.000000 0.371511
#
# Coordination Sequence:
#
# PCOD8211405 Si02
#       8
#     8   8   8   8   8   8   8   8
#     4   9  18  33  53  76 102 132 167 208 259 315
#     4  10  21  36  54  79 112 145 175 213 263 313
#     4   9  18  33  54  82 113 141 173 215 260 308
#     4  10  20  34  53  75 100 133 172 212 257 311
#     4   9  18  33  53  76 101 131 167 210 260 313
#     4  10  20  34  54  78 103 134 172 211 255 310
#     4   9  19  36  53  74 105 137 171 214 259 299
#     4  10  20  34  56  81 105 140 183 220 257 306
#
# _framework density 18.672948999999999
#
# number of rings (size 3 to 8) (size 9 to 14) (size 15 to 20)
#    0.000    2.500    1.250    1.500    0.000    5.250 
#    0.000    8.750    0.000    0.000    0.000    1.750 
#    0.000    0.000    0.000    0.000    0.000    0.000 
#
# Total GULP energy -793552.150153 kJ/mol
# GULP energy per Si atom -12399.252346 kJ/mol
# Density = 1.863045 g / cm^3
# Si number density = 18.672949 Si / 1000 Ang^3
#
#
#
# Elastic Constant Matrix: (Units=GPa)
#
#
# Indices 1 2 3 4 5 6 
#
# 1 118.9264 42.4038 79.1623 0.0000 0.0000 0.0000
# 2 42.4038 58.1009 50.4530 0.0000 0.0000 0.0000
# 3 79.1623 50.4530 149.9532 0.0000 0.0000 0.0000
# 4 0.0000 0.0000 0.0000 -1.2957 0.0000 0.0000
# 5 0.0000 0.0000 0.0000 0.0000 14.9986 0.0000
# 6 0.0000 0.0000 0.0000 0.0000 0.0000 22.2478
#
#
#
# Elastic Compliance Matrix: (Units=1/GPa)
#
#
# Indices 1 2 3 4 5 6 
#
# 1 0.014067 -0.005394 -0.005611 0.000000 0.000000 0.000000
# 2 -0.005394 0.026384 -0.006030 0.000000 0.000000 0.000000
# 3 -0.005611 -0.006030 0.011660 0.000000 0.000000 0.000000
# 4 0.000000 0.000000 0.000000 -0.771777 0.000000 0.000000
# 5 0.000000 0.000000 0.000000 0.000000 0.066673 0.000000
# 6 0.000000 0.000000 0.000000 0.000000 0.000000 0.044948
#
#
# Mechanical properties :
#
#
# Convention : Reuss Voigt Hill
#
# Bulk Modulus (GPa) = 55.42895 74.55764 64.99330
# Shear Modulus (GPa) = -8.80339 17.52090 4.35875
#
# Velocity S-wave (km/s) = -2.17365 3.06650 1.52949
# Velocity P-wave (km/s) = 4.84240 7.24933 6.16448
#
# Compressibility (1/GPa) = 0.01804111
#
# Stress axis : x y z
#
# Youngs Moduli (GPa) = 71.08912 37.90189 85.76503
#
# Poissons Ratio (x) = 0.20443 0.48125
# Poissons Ratio (y) = 0.38344 0.51713
# Poissons Ratio (z) = 0.39890 0.22854
#
# Static dielectric constant tensor:
#      x y z
#    x 3.536530 0.000000 0.000000 
#    y 0.000000 3.246100 0.000000 
#    z 0.000000 0.000000 3.467560 
# 
# 
# High freq. dielectric constant tensor:
#      x y z
#    x 1.736720 0.000000 0.000000 
#    y 0.000000 1.702280 0.000000 
#    z 0.000000 0.000000 1.716870 
# 
# From -- ./inp_files/35722.got.cif
#   From: 2010.03.12/outbox.cif.g09.slc.cpg/sg51_18_cif.got.tgz:35722.got - 2010.04.16 13:43:02.
