data_PCOD8211966
_publ_section_title
;
Structure prediction by ZEFSAII (Michael W. Deem and Ramdas Pophale) SiO2 
 PCOD8211966
Probable space group: P M M A
;
_chemical_formula_sum "Si O2"
_cell_formula_units_Z 64
_cell_length_a 9.090870
_cell_length_b 17.160967
_cell_length_c 20.891017
_cell_angle_alpha 90.000000
_cell_angle_beta 90.000000
_cell_angle_gamma 90.000000
_cell_volume 3259.168289
_symmetry_space_group_name_H-M "P M M A"
_symmetry_group_IT_number 51
_symmetry_cell_setting 'orthorhombic'
loop_
_space_group_symop_operation_xyz
x,y,z
1/2-x,-y,z
1/2+x,-y,-z
-x,y,-z
-x,-y,-z
1/2+x,y,-z
1/2-x,y,z
x,-y,z
loop_
_atom_site_type_symbol
_atom_site_label
_atom_site_fract_x
_atom_site_fract_y
_atom_site_fract_z
Si Si1 0.084045 0.316404 0.438753
Si Si2 0.084626 0.414097 0.897179
Si Si3 0.076413 0.632720 0.223980
Si Si4 0.583633 0.245980 0.060860
Si Si5 0.919868 0.090127 0.703680
Si Si6 0.582374 0.415147 0.340655
Si Si7 0.425716 0.790984 0.796011
Si Si8 0.084585 0.131778 0.437098
O O1 0.250000 0.348306 0.439524
O O2 0.080049 0.224199 0.437041
O O3 0.000000 0.349898 0.500000
O O4 0.998594 0.347319 0.378118
O O5 0.250000 0.408683 0.867296
O O6 0.064235 0.500000 0.930359
O O7 0.065436 0.340344 0.943977
O O8 0.960075 0.405193 0.843924
O O9 0.250000 0.641218 0.232616
O O10 0.005752 0.574600 0.274924
O O11 0.999530 0.715951 0.235776
O O12 0.750000 0.220316 0.051979
O O13 0.526781 0.210181 0.128545
O O14 0.500000 0.209228 0.000000
O O15 0.750000 0.118437 0.706377
O O16 0.982204 0.103346 0.631133
O O17 0.013942 0.134460 0.757763
O O18 0.934059 0.000000 0.721379
O O19 0.750000 0.389334 0.328816
O O20 0.576318 0.500000 0.375032
O O21 0.250000 0.786875 0.789674
O O22 0.250000 0.099749 0.443013
O O23 0.000000 0.099174 0.500000
#
# Coordination Sequence:
#
# PCOD8211966 Si02
#       8
#     8   8   8   8   8   8   8   8
#     4  10  20  35  54  73  96 130 175 223 269 320
#     4   9  18  33  50  71 106 147 182 221 271 323
#     4  11  21  33  52  77 103 134 177 224 270 323
#     4   9  19  34  53  79 108 142 185 232 280 329
#     4  10  21  37  58  87 121 150 178 219 270 320
#     4  11  23  36  50  70  98 133 174 224 280 331
#     4  10  21  38  59  82 110 145 185 226 270 326
#     4   9  19  35  55  81 112 146 182 219 260 311
#
# _framework density 19.636911000000001
#
# number of rings (size 3 to 8) (size 9 to 14) (size 15 to 20)
#    0.000    2.125    0.000    4.125    0.000    8.250 
#    0.000    0.000    0.000    0.375    0.000    0.000 
#    0.000    0.000    0.000    0.000    0.000    0.000 
#
# Total GULP energy -793182.588103 kJ/mol
# GULP energy per Si atom -12393.477939 kJ/mol
# Density = 1.959222 g / cm^3
# Si number density = 19.636911 Si / 1000 Ang^3
#
#
#
# Elastic Constant Matrix: (Units=GPa)
#
#
# Indices 1 2 3 4 5 6 
#
# 1 119.6191 31.1989 56.2613 0.0000 0.0000 0.0000
# 2 31.1989 53.6483 36.2425 0.0000 0.0000 0.0000
# 3 56.2613 36.2425 108.7123 0.0000 0.0000 0.0000
# 4 0.0000 0.0000 0.0000 11.6506 0.0000 0.0000
# 5 0.0000 0.0000 0.0000 0.0000 36.5274 0.0000
# 6 0.0000 0.0000 0.0000 0.0000 0.0000 31.6029
#
#
#
# Elastic Compliance Matrix: (Units=1/GPa)
#
#
# Indices 1 2 3 4 5 6 
#
# 1 0.011524 -0.003450 -0.004814 0.000000 0.000000 0.000000
# 2 -0.003450 0.025091 -0.006580 0.000000 0.000000 0.000000
# 3 -0.004814 -0.006580 0.013883 0.000000 0.000000 0.000000
# 4 0.000000 0.000000 0.000000 0.085833 0.000000 0.000000
# 5 0.000000 0.000000 0.000000 0.000000 0.027377 0.000000
# 6 0.000000 0.000000 0.000000 0.000000 0.000000 0.031643
#
#
# Mechanical properties :
#
#
# Convention : Reuss Voigt Hill
#
# Bulk Modulus (GPa) = 48.04902 58.82058 53.43480
# Shear Modulus (GPa) = 21.55423 26.50798 24.03111
#
# Velocity S-wave (km/s) = 3.31666 3.67809 3.50204
# Velocity P-wave (km/s) = 6.26010 6.93231 6.60476
#
# Compressibility (1/GPa) = 0.02081208
#
# Stress axis : x y z
#
# Youngs Moduli (GPa) = 86.77791 39.85516 72.02885
#
# Poissons Ratio (x) = 0.13748 0.34673
# Poissons Ratio (y) = 0.29935 0.47392
# Poissons Ratio (z) = 0.41773 0.26223
#
# Static dielectric constant tensor:
#      x y z
#    x 3.553700 0.000000 0.000000 
#    y 0.000000 3.367610 0.000000 
#    z 0.000000 0.000000 3.421370 
# 
# 
# High freq. dielectric constant tensor:
#      x y z
#    x 1.766790 0.000000 0.000000 
#    y 0.000000 1.745950 0.000000 
#    z 0.000000 0.000000 1.759160 
# 
# From -- ./inp_files/32400.got.cif
#   From: 2010.03.12/outbox.cif.g09.slc.cpg/sg51_17_cif.got.tgz:32400.got - 2010.04.16 13:43:02.
