data_PCOD8211145
_publ_section_title
;
Structure prediction by ZEFSAII (Michael W. Deem and Ramdas Pophale) SiO2 
 PCOD8211145
Probable space group: P M M A
;
_chemical_formula_sum "Si O2"
_cell_formula_units_Z 56
_cell_length_a 13.756558
_cell_length_b 9.220267
_cell_length_c 23.026694
_cell_angle_alpha 90.000000
_cell_angle_beta 90.000000
_cell_angle_gamma 90.000000
_cell_volume 2920.686012
_symmetry_space_group_name_H-M "P M M A"
_symmetry_group_IT_number 51
_symmetry_cell_setting 'orthorhombic'
loop_
_space_group_symop_operation_xyz
x,y,z
1/2-x,-y,z
1/2+x,-y,-z
-x,y,-z
-x,-y,-z
1/2+x,y,-z
1/2-x,y,z
x,-y,z
loop_
_atom_site_type_symbol
_atom_site_label
_atom_site_fract_x
_atom_site_fract_y
_atom_site_fract_z
Si Si1 0.359450 0.831772 0.402623
Si Si2 0.865050 0.838605 0.465578
Si Si3 0.954582 0.168059 0.142407
Si Si4 0.463906 0.331025 0.634124
Si Si5 0.359876 0.833957 0.075079
Si Si6 0.634953 0.337051 0.036865
Si Si7 0.637948 0.330525 0.246672
O O1 0.250000 0.771072 0.395053
O O2 0.398140 0.807303 0.468368
O O3 0.431462 0.746463 0.359709
O O4 0.361384 0.000000 0.386277
O O5 0.750000 0.830456 0.463116
O O6 0.908736 0.719575 0.423350
O O7 0.900242 0.000000 0.446842
O O8 0.894089 0.242336 0.091648
O O9 0.929537 0.241815 0.203088
O O10 0.070012 0.188013 0.130476
O O11 0.925227 0.000000 0.144985
O O12 0.483306 0.500000 0.629286
O O13 0.397172 0.291750 0.688889
O O14 0.250000 0.789628 0.093055
O O15 0.362931 0.000000 0.053378
O O16 0.402332 0.735579 0.022927
O O17 0.750000 0.340781 0.034883
O O18 0.592449 0.500000 0.041760
O O19 0.750000 0.282765 0.240208
O O20 0.625894 0.500000 0.233006
#
# Coordination Sequence:
#
# PCOD8211145 Si02
#       7
#     8   8   8   8   8   8   8
#     4   9  19  36  56  79 109 144 180 218 262 316
#     4   9  18  33  54  80 110 144 180 218 263 318
#     4  11  22  35  55  81 105 135 178 223 264 306
#     4  11  22  35  54  80 109 141 178 223 273 320
#     4   9  19  36  55  77 108 140 170 211 261 310
#     4  10  20  33  52  80 112 144 175 209 256 314
#     4  10  23  42  58  74 103 141 176 213 261 316
#
# _framework density 19.173577999999999
#
# number of rings (size 3 to 8) (size 9 to 14) (size 15 to 20)
#    0.000    2.143    0.000    3.857    0.000   10.286 
#    0.000    2.143    0.000    2.571    0.000    0.000 
#    0.000    0.000    0.000    0.000    0.000    0.000 
#
# Total GULP energy -694499.977091 kJ/mol
# GULP energy per Si atom -12401.785305 kJ/mol
# Density = 1.912994 g / cm^3
# Si number density = 19.173578 Si / 1000 Ang^3
#
#
#
# Elastic Constant Matrix: (Units=GPa)
#
#
# Indices 1 2 3 4 5 6 
#
# 1 54.0289 46.3099 48.0192 0.0000 0.0000 0.0000
# 2 46.3099 90.6167 53.2855 0.0000 0.0000 0.0000
# 3 48.0192 53.2855 67.5765 0.0000 0.0000 0.0000
# 4 0.0000 0.0000 0.0000 34.3232 0.0000 0.0000
# 5 0.0000 0.0000 0.0000 0.0000 30.9980 0.0000
# 6 0.0000 0.0000 0.0000 0.0000 0.0000 27.7861
#
#
#
# Elastic Compliance Matrix: (Units=1/GPa)
#
#
# Indices 1 2 3 4 5 6 
#
# 1 0.054232 -0.009425 -0.031105 0.000000 0.000000 0.000000
# 2 -0.009425 0.022214 -0.010819 0.000000 0.000000 0.000000
# 3 -0.031105 -0.010819 0.045432 0.000000 0.000000 0.000000
# 4 0.000000 0.000000 0.000000 0.029135 0.000000 0.000000
# 5 0.000000 0.000000 0.000000 0.000000 0.032260 0.000000
# 6 0.000000 0.000000 0.000000 0.000000 0.000000 0.035989
#
#
# Mechanical properties :
#
#
# Convention : Reuss Voigt Hill
#
# Bulk Modulus (GPa) = 52.13692 56.38347 54.26019
# Shear Modulus (GPa) = 15.22744 22.92863 19.07804
#
# Velocity S-wave (km/s) = 2.82119 3.46185 3.15781
# Velocity P-wave (km/s) = 6.15331 6.74165 6.45419
#
# Compressibility (1/GPa) = 0.01918027
#
# Stress axis : x y z
#
# Youngs Moduli (GPa) = 18.43922 45.01678 22.01072
#
# Poissons Ratio (x) = 0.42426 0.68465
# Poissons Ratio (y) = 0.17378 0.23814
# Poissons Ratio (z) = 0.57356 0.48704
#
# Static dielectric constant tensor:
#      x y z
#    x 3.706000 0.000000 0.000000 
#    y 0.000000 3.610970 0.000000 
#    z 0.000000 0.000000 3.341900 
# 
# 
# High freq. dielectric constant tensor:
#      x y z
#    x 1.763300 0.000000 0.000000 
#    y 0.000000 1.746530 0.000000 
#    z 0.000000 0.000000 1.722930 
# 
# From -- ./inp_files/33320.got.cif
#   From: 2010.03.12/outbox.cif.g09.slc.cpg/sg51_17_cif.got.tgz:33320.got - 2010.04.16 13:43:02.
