data_PCOD8211692
_publ_section_title
;
Structure prediction by ZEFSAII (Michael W. Deem and Ramdas Pophale) SiO2 
 PCOD8211692
Probable space group: P M M A
;
_chemical_formula_sum "Si O2"
_cell_formula_units_Z 48
_cell_length_a 8.936432
_cell_length_b 8.607506
_cell_length_c 30.770732
_cell_angle_alpha 90.000000
_cell_angle_beta 90.000000
_cell_angle_gamma 90.000000
_cell_volume 2366.896769
_symmetry_space_group_name_H-M "P M M A"
_symmetry_group_IT_number 51
_symmetry_cell_setting 'orthorhombic'
loop_
_space_group_symop_operation_xyz
x,y,z
1/2-x,-y,z
1/2+x,-y,-z
-x,y,-z
-x,-y,-z
1/2+x,y,-z
1/2-x,y,z
x,-y,z
loop_
_atom_site_type_symbol
_atom_site_label
_atom_site_fract_x
_atom_site_fract_y
_atom_site_fract_z
Si Si1 0.576829 0.320637 0.373240
Si Si2 0.081226 0.814663 0.956937
Si Si3 0.076892 0.179415 0.291579
Si Si4 0.917186 0.816594 0.871657
Si Si5 0.078411 0.319922 0.790035
Si Si6 0.074849 0.179199 0.454873
O O1 0.750000 0.277756 0.378759
O O2 0.554794 0.500000 0.360388
O O3 0.508368 0.213456 0.336007
O O4 0.493347 0.287843 0.418059
O O5 0.250000 0.750538 0.956219
O O6 0.995489 0.748193 0.914779
O O7 0.080729 0.000000 0.956723
O O8 0.000000 0.750960 0.000000
O O9 0.250000 0.221163 0.298190
O O10 0.011984 0.284536 0.253447
O O11 0.054957 0.000000 0.279005
O O12 0.750000 0.746230 0.867607
O O13 0.013365 0.776383 0.829775
O O14 0.907791 0.000000 0.875610
O O15 0.250000 0.271037 0.782759
O O16 0.062721 0.500000 0.801218
O O17 0.250000 0.210883 0.458421
O O18 0.000000 0.227960 0.500000
O O19 0.040222 0.000000 0.443634
#
# Coordination Sequence:
#
# PCOD8211692 Si02
#       6
#     8   8   8   8   8   8
#     4  11  24  40  59  86 119 154 192 233 280 335
#     4   9  16  27  46  74 108 144 182 227 277 326
#     4  11  24  41  62  88 115 145 185 231 279 333
#     4  10  20  34  54  81 111 144 185 230 276 330
#     4  11  24  40  58  82 112 146 185 228 276 332
#     4  10  21  38  61  88 117 152 195 240 286 336
#
# _framework density 20.279717999999999
#
# number of rings (size 3 to 8) (size 9 to 14) (size 15 to 20)
#    0.000    1.667    0.000    4.500    0.000   14.333 
#    0.000    0.000    0.000    0.500    0.000    0.000 
#    0.000    0.000    0.000    0.000    0.000    0.000 
#
# Total GULP energy -595468.959890 kJ/mol
# GULP energy per Si atom -12405.603331 kJ/mol
# Density = 2.023356 g / cm^3
# Si number density = 20.279718 Si / 1000 Ang^3
#
#
#
# Elastic Constant Matrix: (Units=GPa)
#
#
# Indices 1 2 3 4 5 6 
#
# 1 115.3014 37.2017 51.8739 0.0000 0.0000 0.0000
# 2 37.2017 23.5979 12.2275 0.0000 0.0000 0.0000
# 3 51.8739 12.2275 135.3350 0.0000 0.0000 0.0000
# 4 0.0000 0.0000 0.0000 5.4047 0.0000 0.0000
# 5 0.0000 0.0000 0.0000 0.0000 47.7409 0.0000
# 6 0.0000 0.0000 0.0000 0.0000 0.0000 14.1857
#
#
#
# Elastic Compliance Matrix: (Units=1/GPa)
#
#
# Indices 1 2 3 4 5 6 
#
# 1 0.020654 -0.029857 -0.005219 0.000000 0.000000 0.000000
# 2 -0.029857 0.087617 0.003528 0.000000 0.000000 0.000000
# 3 -0.005219 0.003528 0.009071 0.000000 0.000000 0.000000
# 4 0.000000 0.000000 0.000000 0.185025 0.000000 0.000000
# 5 0.000000 0.000000 0.000000 0.000000 0.020946 0.000000
# 6 0.000000 0.000000 0.000000 0.000000 0.000000 0.070494
#
#
# Mechanical properties :
#
#
# Convention : Reuss Voigt Hill
#
# Bulk Modulus (GPa) = 18.43445 52.98228 35.70837
# Shear Modulus (GPa) = 10.52665 24.99501 17.76083
#
# Velocity S-wave (km/s) = 2.28079 3.51452 2.96259
# Velocity P-wave (km/s) = 4.00572 6.53082 5.41745
#
# Compressibility (1/GPa) = 0.05424625
#
# Stress axis : x y z
#
# Youngs Moduli (GPa) = 48.41637 11.41328 110.24328
#
# Poissons Ratio (x) = 0.34076 0.57538
# Poissons Ratio (y) = 1.44555 -0.38892
# Poissons Ratio (z) = 0.25269 -0.04026
#
# Static dielectric constant tensor:
#      x y z
#    x 3.968320 0.000000 0.000000 
#    y 0.000000 3.397970 0.000000 
#    z 0.000000 0.000000 5.766230 
# 
# 
# High freq. dielectric constant tensor:
#      x y z
#    x 1.813160 0.000000 0.000000 
#    y 0.000000 1.766740 0.000000 
#    z 0.000000 0.000000 1.807340 
# 
# From -- ./inp_files/37038.got.cif
#   From: 2010.03.12/outbox.cif.g09.slc.cpg/sg51_19_cif.got.tgz:37038.got - 2010.04.16 13:43:02.
