data_PCOD8211652
_publ_section_title
;
Structure prediction by ZEFSAII (Michael W. Deem and Ramdas Pophale) SiO2 
 PCOD8211652
Probable space group: P M M A
;
_chemical_formula_sum "Si O2"
_cell_formula_units_Z 48
_cell_length_a 9.139760
_cell_length_b 9.050198
_cell_length_c 30.891212
_cell_angle_alpha 90.000000
_cell_angle_beta 90.000000
_cell_angle_gamma 90.000000
_cell_volume 2555.217190
_symmetry_space_group_name_H-M "P M M A"
_symmetry_group_IT_number 51
_symmetry_cell_setting 'orthorhombic'
loop_
_space_group_symop_operation_xyz
x,y,z
1/2-x,-y,z
1/2+x,-y,-z
-x,y,-z
-x,-y,-z
1/2+x,y,-z
1/2-x,y,z
x,-y,z
loop_
_atom_site_type_symbol
_atom_site_label
_atom_site_fract_x
_atom_site_fract_y
_atom_site_fract_z
Si Si1 0.921046 0.830532 0.457048
Si Si2 0.577930 0.329702 0.370645
Si Si3 0.418550 0.826387 0.120913
Si Si4 0.076102 0.666544 0.207091
Si Si5 0.422391 0.170657 0.292401
Si Si6 0.078830 0.670144 0.955809
O O1 0.750000 0.812757 0.464864
O O2 0.974624 0.732522 0.416833
O O3 0.000000 0.771073 0.500000
O O4 0.964517 0.000000 0.447569
O O5 0.750000 0.306412 0.364837
O O6 0.532378 0.500000 0.367530
O O7 0.497519 0.239611 0.333832
O O8 0.250000 0.782150 0.112118
O O9 0.479694 0.749461 0.164248
O O10 0.517005 0.773653 0.081466
O O11 0.435645 0.000000 0.127104
O O12 0.250000 0.668493 0.207833
O O13 0.014578 0.500000 0.206897
O O14 0.015885 0.749446 0.249485
O O15 0.250000 0.193730 0.296928
O O16 0.465071 0.000000 0.288997
O O17 0.250000 0.699642 0.961481
O O18 0.045583 0.500000 0.944082
O O19 0.000000 0.715915 0.000000
#
# Coordination Sequence:
#
# PCOD8211652 Si02
#       6
#     8   8   8   8   8   8
#     4   9  18  33  52  73  99 132 170 212 258 309
#     4  10  21  36  53  75 105 140 176 214 259 311
#     4  10  20  34  54  80 109 141 176 214 259 311
#     4   9  17  31  53  79 107 139 174 214 260 308
#     4  10  20  34  54  80 108 138 175 218 261 308
#     4  10  21  37  57  80 106 138 177 220 265 313
#
# _framework density 18.785095999999999
#
# number of rings (size 3 to 8) (size 9 to 14) (size 15 to 20)
#    0.000    2.333    0.000    2.500    0.000    7.333 
#    0.000    2.500    0.000    5.000    0.000    0.000 
#    0.000    0.000    0.000    0.000    0.000    0.000 
#
# Total GULP energy -595363.558194 kJ/mol
# GULP energy per Si atom -12403.407462 kJ/mol
# Density = 1.874234 g / cm^3
# Si number density = 18.785096 Si / 1000 Ang^3
#
#
#
# Elastic Constant Matrix: (Units=GPa)
#
#
# Indices 1 2 3 4 5 6 
#
# 1 46.5414 39.0818 51.1714 0.0000 0.0000 0.0000
# 2 39.0818 97.2253 70.8086 0.0000 0.0000 0.0000
# 3 51.1714 70.8086 164.9798 0.0000 0.0000 0.0000
# 4 0.0000 0.0000 0.0000 42.7606 0.0000 0.0000
# 5 0.0000 0.0000 0.0000 0.0000 29.9990 0.0000
# 6 0.0000 0.0000 0.0000 0.0000 0.0000 24.6952
#
#
#
# Elastic Compliance Matrix: (Units=1/GPa)
#
#
# Indices 1 2 3 4 5 6 
#
# 1 0.038045 -0.009745 -0.007618 0.000000 0.000000 0.000000
# 2 -0.009745 0.017458 -0.004471 0.000000 0.000000 0.000000
# 3 -0.007618 -0.004471 0.010343 0.000000 0.000000 0.000000
# 4 0.000000 0.000000 0.000000 0.023386 0.000000 0.000000
# 5 0.000000 0.000000 0.000000 0.000000 0.033334 0.000000
# 6 0.000000 0.000000 0.000000 0.000000 0.000000 0.040494
#
#
# Mechanical properties :
#
#
# Convention : Reuss Voigt Hill
#
# Bulk Modulus (GPa) = 45.08635 70.09669 57.59152
# Shear Modulus (GPa) = 23.35136 29.33660 26.34398
#
# Velocity S-wave (km/s) = 3.52956 3.95612 3.74891
# Velocity P-wave (km/s) = 6.37680 7.63308 7.03305
#
# Compressibility (1/GPa) = 0.02217966
#
# Stress axis : x y z
#
# Youngs Moduli (GPa) = 26.28468 57.27881 96.68498
#
# Poissons Ratio (x) = 0.55818 0.73653
# Poissons Ratio (y) = 0.25614 0.43223
# Poissons Ratio (z) = 0.20023 0.25607
#
# Static dielectric constant tensor:
#      x y z
#    x 3.204650 0.000000 0.000000 
#    y 0.000000 3.568520 0.000000 
#    z 0.000000 0.000000 3.634340 
# 
# 
# High freq. dielectric constant tensor:
#      x y z
#    x 1.703730 0.000000 0.000000 
#    y 0.000000 1.738110 0.000000 
#    z 0.000000 0.000000 1.745310 
# 
# From -- ./inp_files/36899.got.cif
#   From: 2010.03.12/outbox.cif.g09.slc.cpg/sg51_19_cif.got.tgz:36899.got - 2010.04.16 13:43:02.
