data_PCOD8211961
_publ_section_title
;
Structure prediction by ZEFSAII (Michael W. Deem and Ramdas Pophale) SiO2 
 PCOD8211961
Probable space group: P M M A
;
_chemical_formula_sum "Si O2"
_cell_formula_units_Z 64
_cell_length_a 9.139639
_cell_length_b 14.310224
_cell_length_c 31.271785
_cell_angle_alpha 90.000000
_cell_angle_beta 90.000000
_cell_angle_gamma 90.000000
_cell_volume 4090.045559
_symmetry_space_group_name_H-M "P M M A"
_symmetry_group_IT_number 51
_symmetry_cell_setting 'orthorhombic'
loop_
_space_group_symop_operation_xyz
x,y,z
1/2-x,-y,z
1/2+x,-y,-z
-x,y,-z
-x,-y,-z
1/2+x,y,-z
1/2-x,y,z
x,-y,z
loop_
_atom_site_type_symbol
_atom_site_label
_atom_site_fract_x
_atom_site_fract_y
_atom_site_fract_z
Si Si1 0.921976 0.102564 0.827853
Si Si2 0.421202 0.707233 0.956875
Si Si3 0.915533 0.388568 0.541638
Si Si4 0.080938 0.610158 0.120629
Si Si5 0.077395 0.293590 0.206902
Si Si6 0.579783 0.609311 0.708598
Si Si7 0.584775 0.611256 0.375531
Si Si8 0.582036 0.103741 0.084960
O O1 0.750000 0.103604 0.834637
O O2 0.967651 0.183750 0.794618
O O3 0.987912 0.126940 0.873606
O O4 0.974806 0.000000 0.811428
O O5 0.250000 0.685939 0.960987
O O6 0.484108 0.647714 0.917989
O O7 0.452466 0.817916 0.950383
O O8 0.500000 0.674447 0.000000
O O9 0.750000 0.350194 0.541083
O O10 0.915255 0.500000 0.541861
O O11 0.000000 0.350627 0.500000
O O12 0.997176 0.349434 0.583602
O O13 0.250000 0.638763 0.113146
O O14 0.062491 0.500000 0.123888
O O15 0.018686 0.654142 0.164646
O O16 0.250000 0.308225 0.208490
O O17 0.012325 0.338051 0.250118
O O18 0.750000 0.631871 0.701303
O O19 0.554240 0.500000 0.715901
O O20 0.493299 0.647165 0.667425
O O21 0.750000 0.649804 0.376964
O O22 0.583479 0.500000 0.376599
O O23 0.750000 0.109102 0.099319
O O24 0.544156 0.000000 0.066773
#
# Coordination Sequence:
#
# PCOD8211961 Si02
#       8
#     8   8   8   8   8   8   8   8
#     4   9  16  27  47  72  93 113 137 167 204 248
#     4  11  23  37  53  71  92 116 141 171 207 249
#     4   9  15  22  33  49  69  97 136 180 223 264
#     4  10  20  35  54  72  90 114 144 178 213 249
#     4   9  16  28  47  69  90 110 138 173 208 250
#     4   9  16  26  40  57  78 108 143 175 209 249
#     4   9  16  25  35  49  73 103 136 178 222 258
#     4   9  18  33  51  71  94 116 137 164 202 247
#
# _framework density 15.647748
#
# number of rings (size 3 to 8) (size 9 to 14) (size 15 to 20)
#    0.000    2.625    1.250    1.500    0.000    5.750 
#    0.000    1.250    0.000    1.500    0.000    0.000 
#    0.000    0.000    0.000    0.000    0.000    0.625 
#
# Total GULP energy -793400.132804 kJ/mol
# GULP energy per Si atom -12396.877075 kJ/mol
# Density = 1.561213 g / cm^3
# Si number density = 15.647748 Si / 1000 Ang^3
#
#
#
# Elastic Constant Matrix: (Units=GPa)
#
#
# Indices 1 2 3 4 5 6 
#
# 1 75.9617 27.9231 57.7072 0.0000 0.0000 0.0000
# 2 27.9231 54.1999 41.6670 0.0000 0.0000 0.0000
# 3 57.7072 41.6670 144.8960 0.0000 0.0000 0.0000
# 4 0.0000 0.0000 0.0000 7.7498 0.0000 0.0000
# 5 0.0000 0.0000 0.0000 0.0000 24.7343 0.0000
# 6 0.0000 0.0000 0.0000 0.0000 0.0000 13.5856
#
#
#
# Elastic Compliance Matrix: (Units=1/GPa)
#
#
# Indices 1 2 3 4 5 6 
#
# 1 0.020024 -0.005373 -0.006430 0.000000 0.000000 0.000000
# 2 -0.005373 0.025128 -0.005086 0.000000 0.000000 0.000000
# 3 -0.006430 -0.005086 0.010925 0.000000 0.000000 0.000000
# 4 0.000000 0.000000 0.000000 0.129036 0.000000 0.000000
# 5 0.000000 0.000000 0.000000 0.000000 0.040430 0.000000
# 6 0.000000 0.000000 0.000000 0.000000 0.000000 0.073607
#
#
# Mechanical properties :
#
#
# Convention : Reuss Voigt Hill
#
# Bulk Modulus (GPa) = 44.84442 58.85026 51.84734
# Shear Modulus (GPa) = 14.69022 19.06462 16.87742
#
# Velocity S-wave (km/s) = 3.06732 3.49429 3.28774
# Velocity P-wave (km/s) = 6.42382 7.34651 6.90060
#
# Compressibility (1/GPa) = 0.02229932
#
# Stress axis : x y z
#
# Youngs Moduli (GPa) = 49.93906 39.79550 91.53408
#
# Poissons Ratio (x) = 0.21383 0.58855
# Poissons Ratio (y) = 0.26833 0.46555
# Poissons Ratio (z) = 0.32110 0.20240
#
# Static dielectric constant tensor:
#      x y z
#    x 3.036850 0.000000 0.000000 
#    y 0.000000 2.918740 0.000000 
#    z 0.000000 0.000000 3.031220 
# 
# 
# High freq. dielectric constant tensor:
#      x y z
#    x 1.597410 0.000000 0.000000 
#    y 0.000000 1.564250 0.000000 
#    z 0.000000 0.000000 1.593070 
# 
# From -- ./inp_files/37608.got.cif
#   From: 2010.03.12/outbox.cif.g09.slc.cpg/sg51_19_cif.got.tgz:37608.got - 2010.04.16 13:43:02.
