data_PCOD8211269
_publ_section_title
;
Structure prediction by ZEFSAII (Michael W. Deem and Ramdas Pophale) SiO2 
 PCOD8211269
Probable space group: P M M A
;
_chemical_formula_sum "Si O2"
_cell_formula_units_Z 64
_cell_length_a 17.965037
_cell_length_b 9.507410
_cell_length_c 20.577272
_cell_angle_alpha 90.000000
_cell_angle_beta 90.000000
_cell_angle_gamma 90.000000
_cell_volume 3514.618067
_symmetry_space_group_name_H-M "P M M A"
_symmetry_group_IT_number 51
_symmetry_cell_setting 'orthorhombic'
loop_
_space_group_symop_operation_xyz
x,y,z
1/2-x,-y,z
1/2+x,-y,-z
-x,y,-z
-x,-y,-z
1/2+x,y,-z
1/2-x,y,z
x,-y,z
loop_
_atom_site_type_symbol
_atom_site_label
_atom_site_fract_x
_atom_site_fract_y
_atom_site_fract_z
Si Si1 0.571712 0.833448 0.761795
Si Si2 0.332724 0.332769 0.626302
Si Si3 0.423132 0.337382 0.749030
Si Si4 0.661368 0.343607 0.515915
Si Si5 0.585301 0.834734 0.012368
Si Si6 0.166923 0.832888 0.116623
Si Si7 0.664606 0.338430 0.121503
Si Si8 0.664255 0.163746 0.635867
O O1 0.493607 0.756604 0.765293
O O2 0.618829 0.777865 0.823030
O O3 0.616160 0.789180 0.697421
O O4 0.558529 0.000000 0.765123
O O5 0.250000 0.269077 0.637401
O O6 0.326889 0.500000 0.629243
O O7 0.387845 0.278265 0.682179
O O8 0.364630 0.287936 0.555215
O O9 0.447489 0.500000 0.742504
O O10 0.361601 0.318671 0.804664
O O11 0.750000 0.347108 0.515363
O O12 0.629767 0.500000 0.529153
O O13 0.631721 0.242625 0.572697
O O14 0.613344 0.756101 0.075963
O O15 0.596063 0.000000 0.024000
O O16 0.500000 0.796291 0.000000
O O17 0.631594 0.779896 0.950571
O O18 0.250000 0.770673 0.122276
O O19 0.168969 0.000000 0.118209
O O20 0.750000 0.288506 0.116617
O O21 0.656396 0.500000 0.099709
O O22 0.750000 0.204336 0.649757
O O23 0.656249 0.000000 0.621782
#
# Coordination Sequence:
#
# PCOD8211269 Si02
#       8
#     8   8   8   8   8   8   8   8
#     4  10  20  34  51  71  97 128 163 204 247 290
#     4   8  14  28  51  74  94 122 163 204 238 280
#     4  10  20  34  52  73  98 129 164 202 246 295
#     4   8  14  26  47  73  96 120 156 202 244 281
#     4  10  20  34  54  80 107 134 165 203 247 294
#     4   9  17  31  52  74  95 126 169 207 236 277
#     4  10  21  36  54  77 104 134 168 206 249 297
#     4   9  17  30  49  72  97 127 162 199 243 295
#
# _framework density 18.20966
#
# number of rings (size 3 to 8) (size 9 to 14) (size 15 to 20)
#    0.000    2.750    0.000    2.625    0.000    6.000 
#    0.000    1.875    0.000    7.500    0.000    0.000 
#    0.000    0.000    0.000    0.000    0.000    0.000 
#
# Total GULP energy -793537.171775 kJ/mol
# GULP energy per Si atom -12399.018309 kJ/mol
# Density = 1.816821 g / cm^3
# Si number density = 18.209660 Si / 1000 Ang^3
#
#
#
# Elastic Constant Matrix: (Units=GPa)
#
#
# Indices 1 2 3 4 5 6 
#
# 1 87.2679 28.1426 31.5747 0.0000 0.0000 0.0000
# 2 28.1426 35.7705 32.6098 0.0000 0.0000 0.0000
# 3 31.5747 32.6098 114.1434 0.0000 0.0000 0.0000
# 4 0.0000 0.0000 0.0000 27.2516 0.0000 0.0000
# 5 0.0000 0.0000 0.0000 0.0000 20.3607 0.0000
# 6 0.0000 0.0000 0.0000 0.0000 0.0000 22.7606
#
#
#
# Elastic Compliance Matrix: (Units=1/GPa)
#
#
# Indices 1 2 3 4 5 6 
#
# 1 0.015453 -0.011170 -0.001084 0.000000 0.000000 0.000000
# 2 -0.011170 0.045875 -0.010016 0.000000 0.000000 0.000000
# 3 -0.001084 -0.010016 0.011922 0.000000 0.000000 0.000000
# 4 0.000000 0.000000 0.000000 0.036695 0.000000 0.000000
# 5 0.000000 0.000000 0.000000 0.000000 0.049114 0.000000
# 6 0.000000 0.000000 0.000000 0.000000 0.000000 0.043936
#
#
# Mechanical properties :
#
#
# Convention : Reuss Voigt Hill
#
# Bulk Modulus (GPa) = 34.82993 46.87067 40.85030
# Shear Modulus (GPa) = 19.44726 23.73156 21.58941
#
# Velocity S-wave (km/s) = 3.27152 3.61396 3.44699
# Velocity P-wave (km/s) = 5.78266 6.57340 6.19067
#
# Compressibility (1/GPa) = 0.02871094
#
# Stress axis : x y z
#
# Youngs Moduli (GPa) = 64.71154 21.79821 83.87715
#
# Poissons Ratio (x) = 0.24349 0.09088
# Poissons Ratio (y) = 0.72284 0.84014
# Poissons Ratio (z) = 0.07012 0.21834
#
# Static dielectric constant tensor:
#      x y z
#    x 3.308100 0.000000 0.000000 
#    y 0.000000 3.074020 0.000000 
#    z 0.000000 0.000000 3.667500 
# 
# 
# High freq. dielectric constant tensor:
#      x y z
#    x 1.698490 0.000000 0.000000 
#    y 0.000000 1.669710 0.000000 
#    z 0.000000 0.000000 1.724180 
# 
# From -- ./inp_files/29849.got.cif
#   From: 2010.03.12/outbox.cif.g09.slc.cpg/sg51_15_cif.got.tgz:29849.got - 2010.04.16 13:43:02.
