data_PCOD8211821
_publ_section_title
;
Structure prediction by ZEFSAII (Michael W. Deem and Ramdas Pophale) SiO2 
 PCOD8211821
Probable space group: P M M A
;
_chemical_formula_sum "Si O2"
_cell_formula_units_Z 64
_cell_length_a 15.073273
_cell_length_b 17.714610
_cell_length_c 11.874699
_cell_angle_alpha 90.000000
_cell_angle_beta 90.000000
_cell_angle_gamma 90.000000
_cell_volume 3170.748315
_symmetry_space_group_name_H-M "P M M A"
_symmetry_group_IT_number 51
_symmetry_cell_setting 'orthorhombic'
loop_
_space_group_symop_operation_xyz
x,y,z
1/2-x,-y,z
1/2+x,-y,-z
-x,y,-z
-x,-y,-z
1/2+x,y,-z
1/2-x,y,z
x,-y,z
loop_
_atom_site_type_symbol
_atom_site_label
_atom_site_fract_x
_atom_site_fract_y
_atom_site_fract_z
Si Si1 0.507594 0.411976 0.327157
Si Si2 0.504290 0.701785 0.867214
Si Si3 0.094106 0.835563 0.758458
Si Si4 0.850150 0.081771 0.035451
Si Si5 0.151727 0.186913 0.515208
Si Si6 0.348921 0.185251 0.153976
Si Si7 0.578044 0.910366 0.663078
Si Si8 0.642988 0.641158 0.511684
O O1 0.520333 0.500000 0.308504
O O2 0.508089 0.374369 0.203984
O O3 0.412302 0.398519 0.388160
O O4 0.593445 0.382044 0.396198
O O5 0.429914 0.761843 0.830751
O O6 0.598304 0.737245 0.830006
O O7 0.500000 0.682891 0.000000
O O8 0.153135 0.887986 0.837682
O O9 0.147972 0.810298 0.649766
O O10 0.012817 0.887603 0.721344
O O11 0.750000 0.072888 0.992185
O O12 0.897785 0.000000 0.030304
O O13 0.897371 0.138907 0.948042
O O14 0.250000 0.162775 0.479690
O O15 0.084677 0.124979 0.462715
O O16 0.129455 0.269761 0.468272
O O17 0.250000 0.210045 0.122745
O O18 0.346240 0.131366 0.263688
O O19 0.591085 0.000000 0.658042
O O20 0.750000 0.620573 0.510340
#
# Coordination Sequence:
#
# PCOD8211821 Si02
#       8
#     8   8   8   8   8   8   8   8
#     4  11  24  40  66 100 130 161 199 249 309 373
#     4  11  22  41  63  88 120 160 201 248 298 365
#     4  11  21  38  59  81 115 157 203 245 297 358
#     4  10  20  34  55  84 116 151 203 264 307 345
#     4  11  23  38  60  85 114 159 204 245 297 359
#     4  10  21  38  60  84 114 158 208 252 300 358
#     4  11  24  36  53  82 120 160 201 250 307 362
#     4  10  21  41  68  97 128 164 206 253 305 366
#
# _framework density 20.18451
#
# number of rings (size 3 to 8) (size 9 to 14) (size 15 to 20)
#    0.000    1.375    2.500    4.125    1.750    5.750 
#    0.000    2.500    0.000    0.000    0.000    1.750 
#    0.000    0.000    0.000    0.000    0.000    0.000 
#
# Total GULP energy -793307.280525 kJ/mol
# GULP energy per Si atom -12395.426258 kJ/mol
# Density = 2.013857 g / cm^3
# Si number density = 20.184510 Si / 1000 Ang^3
#
#
#
# Elastic Constant Matrix: (Units=GPa)
#
#
# Indices 1 2 3 4 5 6 
#
# 1 81.6100 41.2798 21.1245 0.0000 0.0000 0.0000
# 2 41.2798 112.7427 40.9612 0.0000 0.0000 0.0000
# 3 21.1245 40.9612 121.1222 0.0000 0.0000 0.0000
# 4 0.0000 0.0000 0.0000 29.5463 0.0000 0.0000
# 5 0.0000 0.0000 0.0000 0.0000 24.6361 0.0000
# 6 0.0000 0.0000 0.0000 0.0000 0.0000 13.9793
#
#
#
# Elastic Compliance Matrix: (Units=1/GPa)
#
#
# Indices 1 2 3 4 5 6 
#
# 1 0.015119 -0.005219 -0.000872 0.000000 0.000000 0.000000
# 2 -0.005219 0.011914 -0.003119 0.000000 0.000000 0.000000
# 3 -0.000872 -0.003119 0.009463 0.000000 0.000000 0.000000
# 4 0.000000 0.000000 0.000000 0.033845 0.000000 0.000000
# 5 0.000000 0.000000 0.000000 0.000000 0.040591 0.000000
# 6 0.000000 0.000000 0.000000 0.000000 0.000000 0.071535
#
#
# Mechanical properties :
#
#
# Convention : Reuss Voigt Hill
#
# Bulk Modulus (GPa) = 55.32085 58.02287 56.67186
# Shear Modulus (GPa) = 24.16501 27.77295 25.96898
#
# Velocity S-wave (km/s) = 3.46382 3.71341 3.59078
# Velocity P-wave (km/s) = 6.59276 6.86983 6.73272
#
# Compressibility (1/GPa) = 0.01807637
#
# Stress axis : x y z
#
# Youngs Moduli (GPa) = 66.14241 83.93693 105.67580
#
# Poissons Ratio (x) = 0.43806 0.09214
# Poissons Ratio (y) = 0.34519 0.32958
# Poissons Ratio (z) = 0.05767 0.26178
#
# Static dielectric constant tensor:
#      x y z
#    x 3.605870 0.000000 0.000000 
#    y 0.000000 3.548860 0.000000 
#    z 0.000000 0.000000 3.741550 
# 
# 
# High freq. dielectric constant tensor:
#      x y z
#    x 1.785210 0.000000 0.000000 
#    y 0.000000 1.773000 0.000000 
#    z 0.000000 0.000000 1.795760 
# 
# From -- ./inp_files/16832.got.cif
#   From: 2010.03.12/outbox.cif.g09.slc.cpg/sg51_9_cif.got.tgz:16832.got - 2010.04.16 13:43:02.
