data_PCOD8211905
_publ_section_title
;
Structure prediction by ZEFSAII (Michael W. Deem and Ramdas Pophale) SiO2 
 PCOD8211905
Probable space group: P M M A
;
_chemical_formula_sum "Si O2"
_cell_formula_units_Z 64
_cell_length_a 8.898978
_cell_length_b 14.296557
_cell_length_c 25.550478
_cell_angle_alpha 90.000000
_cell_angle_beta 90.000000
_cell_angle_gamma 90.000000
_cell_volume 3250.653079
_symmetry_space_group_name_H-M "P M M A"
_symmetry_group_IT_number 51
_symmetry_cell_setting 'orthorhombic'
loop_
_space_group_symop_operation_xyz
x,y,z
1/2-x,-y,z
1/2+x,-y,-z
-x,y,-z
-x,-y,-z
1/2+x,y,-z
1/2-x,y,z
x,-y,z
loop_
_atom_site_type_symbol
_atom_site_label
_atom_site_fract_x
_atom_site_fract_y
_atom_site_fract_z
Si Si1 0.425598 0.707070 0.945613
Si Si2 0.424954 0.105682 0.215975
Si Si3 0.073802 0.391046 0.151870
Si Si4 0.926513 0.300838 0.556394
Si Si5 0.572324 0.715422 0.248469
Si Si6 0.925530 0.901760 0.555682
Si Si7 0.421388 0.104022 0.892578
Si Si8 0.078674 0.393039 0.649673
O O1 0.250000 0.685514 0.948365
O O2 0.496362 0.643095 0.901002
O O3 0.457326 0.817379 0.935588
O O4 0.500000 0.678195 0.000000
O O5 0.250000 0.127996 0.222819
O O6 0.521199 0.176426 0.251452
O O7 0.467276 0.120158 0.155541
O O8 0.462704 0.000000 0.234045
O O9 0.250000 0.370954 0.148117
O O10 0.038613 0.500000 0.159989
O O11 0.007531 0.334523 0.200296
O O12 0.750000 0.312387 0.549012
O O13 0.971766 0.197946 0.581004
O O14 0.000000 0.318175 0.500000
O O15 0.982925 0.376705 0.597543
O O16 0.750000 0.707012 0.240889
O O17 0.517769 0.668084 0.302139
O O18 0.750000 0.899247 0.545884
O O19 0.000000 0.906491 0.500000
O O20 0.968027 0.000000 0.586487
O O21 0.250000 0.115146 0.872143
O O22 0.446067 0.000000 0.916786
O O23 0.250000 0.366838 0.636891
O O24 0.061557 0.500000 0.666750
#
# Coordination Sequence:
#
# PCOD8211905 Si02
#       8
#     8   8   8   8   8   8   8   8
#     4  11  23  38  58  84 117 157 197 244 295 347
#     4  10  20  34  57  89 122 156 192 232 281 340
#     4  11  24  41  62  87 114 147 191 244 299 357
#     4  10  20  35  58  86 117 154 194 236 285 341
#     4  11  22  39  64  90 117 151 190 239 294 350
#     4   8  14  26  46  74 107 142 180 221 266 318
#     4   9  18  34  56  83 115 153 195 235 282 342
#     4  10  23  42  61  83 113 149 192 242 293 344
#
# _framework density 19.688351000000001
#
# number of rings (size 3 to 8) (size 9 to 14) (size 15 to 20)
#    0.000    2.000    1.250    2.250    0.000    5.250 
#    0.000    0.625    0.000    2.250    0.000    0.000 
#    0.000    0.000    0.000    0.000    0.000    0.000 
#
# Total GULP energy -793312.546263 kJ/mol
# GULP energy per Si atom -12395.508535 kJ/mol
# Density = 1.964354 g / cm^3
# Si number density = 19.688351 Si / 1000 Ang^3
#
#
#
# Elastic Constant Matrix: (Units=GPa)
#
#
# Indices 1 2 3 4 5 6 
#
# 1 80.3962 44.7458 43.4604 0.0000 0.0000 0.0000
# 2 44.7458 102.4088 48.1098 0.0000 0.0000 0.0000
# 3 43.4604 48.1098 107.7421 0.0000 0.0000 0.0000
# 4 0.0000 0.0000 0.0000 -62.0731 0.0000 0.0000
# 5 0.0000 0.0000 0.0000 0.0000 28.8666 0.0000
# 6 0.0000 0.0000 0.0000 0.0000 0.0000 28.9349
#
#
#
# Elastic Compliance Matrix: (Units=1/GPa)
#
#
# Indices 1 2 3 4 5 6 
#
# 1 0.018205 -0.005700 -0.004798 0.000000 0.000000 0.000000
# 2 -0.005700 0.014142 -0.004015 0.000000 0.000000 0.000000
# 3 -0.004798 -0.004015 0.013010 0.000000 0.000000 0.000000
# 4 0.000000 0.000000 0.000000 -0.016110 0.000000 0.000000
# 5 0.000000 0.000000 0.000000 0.000000 0.034642 0.000000
# 6 0.000000 0.000000 0.000000 0.000000 0.000000 0.034560
#
#
# Mechanical properties :
#
#
# Convention : Reuss Voigt Hill
#
# Bulk Modulus (GPa) = 61.24055 62.57545 61.90800
# Shear Modulus (GPa) = 37.61700 9.42775 23.52237
#
# Velocity S-wave (km/s) = 4.37581 2.19064 3.46024
# Velocity P-wave (km/s) = 7.53012 6.18470 6.89033
#
# Compressibility (1/GPa) = 0.01632905
#
# Stress axis : x y z
#
# Youngs Moduli (GPa) = 54.93109 70.71271 76.86525
#
# Poissons Ratio (x) = 0.40308 0.36880
# Poissons Ratio (y) = 0.31312 0.30864
# Poissons Ratio (z) = 0.26356 0.28394
#
# Static dielectric constant tensor:
#      x y z
#    x 3.640000 0.000000 0.000000 
#    y 0.000000 4.145790 0.000000 
#    z 0.000000 0.000000 3.303150 
# 
# 
# High freq. dielectric constant tensor:
#      x y z
#    x 1.773460 0.000000 0.000000 
#    y 0.000000 1.788730 0.000000 
#    z 0.000000 0.000000 1.737170 
# 
# From -- ./inp_files/35028.got.cif
#   From: 2010.03.12/outbox.cif.g09.slc.cpg/sg51_18_cif.got.tgz:35028.got - 2010.04.16 13:43:02.
