data_PCOD8211417
_publ_section_title
;
Structure prediction by ZEFSAII (Michael W. Deem and Ramdas Pophale) SiO2 
 PCOD8211417
Probable space group: P M M A
;
_chemical_formula_sum "Si O2"
_cell_formula_units_Z 48
_cell_length_a 17.946974
_cell_length_b 9.214466
_cell_length_c 16.396759
_cell_angle_alpha 90.000000
_cell_angle_beta 90.000000
_cell_angle_gamma 90.000000
_cell_volume 2711.561250
_symmetry_space_group_name_H-M "P M M A"
_symmetry_group_IT_number 51
_symmetry_cell_setting 'orthorhombic'
loop_
_space_group_symop_operation_xyz
x,y,z
1/2-x,-y,z
1/2+x,-y,-z
-x,y,-z
-x,-y,-z
1/2+x,y,-z
1/2-x,y,z
x,-y,z
loop_
_atom_site_type_symbol
_atom_site_label
_atom_site_fract_x
_atom_site_fract_y
_atom_site_fract_z
Si Si1 0.162378 0.332971 0.846856
Si Si2 0.481416 0.669963 0.408603
Si Si3 0.398636 0.168019 0.178623
Si Si4 0.051875 0.830077 0.737723
Si Si5 0.336703 0.833077 0.007963
Si Si6 0.167618 0.667683 0.324034
O O1 0.250000 0.315101 0.834438
O O2 0.137404 0.500000 0.845199
O O3 0.124665 0.247010 0.772981
O O4 0.137042 0.264762 0.932684
O O5 0.500000 0.717849 0.500000
O O6 0.497104 0.500000 0.394687
O O7 0.534872 0.761435 0.350077
O O8 0.394907 0.710265 0.390712
O O9 0.484153 0.201014 0.200248
O O10 0.343631 0.249382 0.239591
O O11 0.379017 0.000000 0.187670
O O12 0.383599 0.219312 0.086325
O O13 0.067154 0.000000 0.726649
O O14 0.250000 0.810933 0.027740
O O15 0.354157 0.000000 0.985712
O O16 0.250000 0.704704 0.359224
O O17 0.160593 0.500000 0.301970
#
# Coordination Sequence:
#
# PCOD8211417 Si02
#       6
#     8   8   8   8   8   8
#     4  10  21  36  52  70  95 129 169 209 247 290
#     4   9  18  34  54  74 100 133 166 202 247 298
#     4   9  18  31  48  72 100 131 164 198 241 293
#     4  10  20  34  53  75  99 127 161 203 250 299
#     4   9  17  30  48  69  96 131 168 204 241 282
#     4   9  17  29  47  72 100 129 162 201 244 290
#
# _framework density 17.701978
#
# number of rings (size 3 to 8) (size 9 to 14) (size 15 to 20)
#    0.000    2.667    0.000    1.500    0.000    4.333 
#    0.000    5.833    0.000    3.000    0.000    0.000 
#    0.000    0.000    0.000    0.000    0.000    0.000 
#
# Total GULP energy -595268.240527 kJ/mol
# GULP energy per Si atom -12401.421678 kJ/mol
# Density = 1.766169 g / cm^3
# Si number density = 17.701978 Si / 1000 Ang^3
#
#
#
# Elastic Constant Matrix: (Units=GPa)
#
#
# Indices 1 2 3 4 5 6 
#
# 1 69.1773 43.0348 65.2771 0.0000 0.0000 0.0000
# 2 43.0348 82.9307 69.3571 0.0000 0.0000 0.0000
# 3 65.2771 69.3571 144.3277 0.0000 0.0000 0.0000
# 4 0.0000 0.0000 0.0000 30.5145 0.0000 0.0000
# 5 0.0000 0.0000 0.0000 0.0000 23.3290 0.0000
# 6 0.0000 0.0000 0.0000 0.0000 0.0000 22.0911
#
#
#
# Elastic Compliance Matrix: (Units=1/GPa)
#
#
# Indices 1 2 3 4 5 6 
#
# 1 0.027093 -0.006372 -0.009192 0.000000 0.000000 0.000000
# 2 -0.006372 0.021660 -0.007527 0.000000 0.000000 0.000000
# 3 -0.009192 -0.007527 0.014703 0.000000 0.000000 0.000000
# 4 0.000000 0.000000 0.000000 0.032771 0.000000 0.000000
# 5 0.000000 0.000000 0.000000 0.000000 0.042865 0.000000
# 6 0.000000 0.000000 0.000000 0.000000 0.000000 0.045267
#
#
# Mechanical properties :
#
#
# Convention : Reuss Voigt Hill
#
# Bulk Modulus (GPa) = 57.88751 72.41929 65.15340
# Shear Modulus (GPa) = 21.15975 23.10471 22.13223
#
# Velocity S-wave (km/s) = 3.46111 3.61668 3.53975
# Velocity P-wave (km/s) = 6.98173 7.64458 7.32066
#
# Compressibility (1/GPa) = 0.01727488
#
# Stress axis : x y z
#
# Youngs Moduli (GPa) = 36.90979 46.16902 68.01405
#
# Poissons Ratio (x) = 0.29419 0.62516
# Poissons Ratio (y) = 0.23519 0.51191
# Poissons Ratio (z) = 0.33926 0.34749
#
# Static dielectric constant tensor:
#      x y z
#    x 3.325160 0.000000 0.000000 
#    y 0.000000 3.315510 0.000000 
#    z 0.000000 0.000000 3.186790 
# 
# 
# High freq. dielectric constant tensor:
#      x y z
#    x 1.681320 0.000000 0.000000 
#    y 0.000000 1.686710 0.000000 
#    z 0.000000 0.000000 1.673210 
# 
# From -- ./inp_files/24778.got.cif
#   From: 2010.03.12/outbox.cif.g09.slc.cpg/sg51_13_cif.got.tgz:24778.got - 2010.04.16 13:43:02.
