data_PCOD8211199
_publ_section_title
;
Structure prediction by ZEFSAII (Michael W. Deem and Ramdas Pophale) SiO2 
 PCOD8211199
Probable space group: P M M A
;
_chemical_formula_sum "Si O2"
_cell_formula_units_Z 56
_cell_length_a 21.008815
_cell_length_b 8.775201
_cell_length_c 14.557234
_cell_angle_alpha 90.000000
_cell_angle_beta 90.000000
_cell_angle_gamma 90.000000
_cell_volume 2683.721793
_symmetry_space_group_name_H-M "P M M A"
_symmetry_group_IT_number 51
_symmetry_cell_setting 'orthorhombic'
loop_
_space_group_symop_operation_xyz
x,y,z
1/2-x,-y,z
1/2+x,-y,-z
-x,y,-z
-x,-y,-z
1/2+x,y,-z
1/2-x,y,z
x,-y,z
loop_
_atom_site_type_symbol
_atom_site_label
_atom_site_fract_x
_atom_site_fract_y
_atom_site_fract_z
Si Si1 0.657479 0.333326 0.399288
Si Si2 0.750000 0.319561 0.878172
Si Si3 0.750000 0.319249 0.088839
Si Si4 0.011220 0.667421 0.599114
Si Si5 0.144557 0.818716 0.786958
Si Si6 0.177745 0.174967 0.406509
Si Si7 0.872994 0.320044 0.771525
Si Si8 0.000615 0.175478 0.222112
O O1 0.691558 0.500000 0.399811
O O2 0.584260 0.363206 0.388473
O O3 0.676465 0.237565 0.308561
O O4 0.673968 0.244037 0.491639
O O5 0.750000 0.500000 0.869259
O O6 0.813508 0.253916 0.829479
O O7 0.750000 0.268099 0.983355
O O8 0.750000 0.500000 0.101841
O O9 0.685816 0.250321 0.131265
O O10 0.976882 0.500000 0.610778
O O11 0.000000 0.740155 0.500000
O O12 0.987618 0.793430 0.670060
O O13 0.070503 0.766146 0.804290
O O14 0.147720 0.000000 0.787017
O O15 0.250000 0.190074 0.371514
O O16 0.132823 0.263166 0.334312
O O17 0.155828 0.000000 0.411271
O O18 0.873169 0.500000 0.771851
O O19 0.938855 0.264323 0.821870
O O20 0.008063 0.000000 0.197709
#
# Coordination Sequence:
#
# PCOD8211199 Si02
#       8
#     8   4   4   8   8   8   8   8
#     4  10  20  33  53  82 117 158 204 247 288 341
#     4   9  22  43  66  93 118 149 195 248 308 363
#     4  11  23  43  70  93 116 147 195 252 302 365
#     4   9  17  30  48  74 108 150 198 242 284 334
#     4  10  22  41  62  89 126 163 199 244 302 361
#     4  11  23  36  52  81 122 164 205 250 299 354
#     4  11  21  39  64  88 120 159 201 251 301 357
#     4  10  21  36  57  86 120 157 196 241 296 356
#
# _framework density 20.866546
#
# number of rings (size 3 to 8) (size 9 to 14) (size 15 to 20)
#    0.000    1.857    0.714    3.214    1.000    4.571 
#    0.000    3.571    0.000    4.286    0.000    0.000 
#    0.000    0.000    0.000    0.000    0.000    0.000 
#
# Total GULP energy -693906.985096 kJ/mol
# GULP energy per Si atom -12391.196162 kJ/mol
# Density = 2.081905 g / cm^3
# Si number density = 20.866546 Si / 1000 Ang^3
#
#
#
# Elastic Constant Matrix: (Units=GPa)
#
#
# Indices 1 2 3 4 5 6 
#
# 1 145.3430 43.6202 50.9942 0.0000 0.0000 0.0000
# 2 43.6202 97.2817 26.0098 0.0000 0.0000 0.0000
# 3 50.9942 26.0098 102.7572 0.0000 0.0000 0.0000
# 4 0.0000 0.0000 0.0000 13.2832 0.0000 0.0000
# 5 0.0000 0.0000 0.0000 0.0000 4.2593 0.0000
# 6 0.0000 0.0000 0.0000 0.0000 0.0000 29.5803
#
#
#
# Elastic Compliance Matrix: (Units=1/GPa)
#
#
# Indices 1 2 3 4 5 6 
#
# 1 0.009121 -0.003089 -0.003745 0.000000 0.000000 0.000000
# 2 -0.003089 0.012071 -0.001523 0.000000 0.000000 0.000000
# 3 -0.003745 -0.001523 0.011975 0.000000 0.000000 0.000000
# 4 0.000000 0.000000 0.000000 0.075283 0.000000 0.000000
# 5 0.000000 0.000000 0.000000 0.000000 0.234780 0.000000
# 6 0.000000 0.000000 0.000000 0.000000 0.000000 0.033806
#
#
# Mechanical properties :
#
#
# Convention : Reuss Voigt Hill
#
# Bulk Modulus (GPa) = 60.76829 65.18113 62.97471
# Shear Modulus (GPa) = 12.52395 24.40841 18.46618
#
# Velocity S-wave (km/s) = 2.45254 3.42385 2.97806
# Velocity P-wave (km/s) = 6.09963 6.85094 6.48617
#
# Compressibility (1/GPa) = 0.01645595
#
# Stress axis : x y z
#
# Youngs Moduli (GPa) = 109.63667 82.84000 83.50441
#
# Poissons Ratio (x) = 0.25586 0.31269
# Poissons Ratio (y) = 0.33862 0.12716
# Poissons Ratio (z) = 0.41055 0.12615
#
# Static dielectric constant tensor:
#      x y z
#    x 4.210860 0.000000 0.000000 
#    y 0.000000 3.826570 0.000000 
#    z 0.000000 0.000000 3.102590 
# 
# 
# High freq. dielectric constant tensor:
#      x y z
#    x 1.840110 0.000000 0.000000 
#    y 0.000000 1.814220 0.000000 
#    z 0.000000 0.000000 1.782750 
# 
# From -- ./inp_files/25872.got.cif
#   From: 2010.03.12/outbox.cif.g09.slc.cpg/sg51_13_cif.got.tgz:25872.got - 2010.04.16 13:43:02.
