data_PCOD8211940
_publ_section_title
;
Structure prediction by ZEFSAII (Michael W. Deem and Ramdas Pophale) SiO2 
 PCOD8211940
Probable space group: P M M A
;
_chemical_formula_sum "Si O2"
_cell_formula_units_Z 44
_cell_length_a 9.092668
_cell_length_b 17.611701
_cell_length_c 15.065148
_cell_angle_alpha 90.000000
_cell_angle_beta 90.000000
_cell_angle_gamma 90.000000
_cell_volume 2412.492880
_symmetry_space_group_name_H-M "P M M A"
_symmetry_group_IT_number 51
_symmetry_cell_setting 'orthorhombic'
loop_
_space_group_symop_operation_xyz
x,y,z
1/2-x,-y,z
1/2+x,-y,-z
-x,y,-z
-x,-y,-z
1/2+x,y,-z
1/2-x,y,z
x,-y,z
loop_
_atom_site_type_symbol
_atom_site_label
_atom_site_fract_x
_atom_site_fract_y
_atom_site_fract_z
Si Si1 0.075401 0.369504 0.267629
Si Si2 0.415082 0.380395 0.914745
Si Si3 0.421178 0.500000 0.405089
Si Si4 0.074454 0.212097 0.726840
Si Si5 0.089789 0.798848 0.919573
Si Si6 0.422101 0.085203 0.590087
O O1 0.250000 0.363324 0.252423
O O2 0.035324 0.426523 0.347199
O O3 0.002926 0.398926 0.175854
O O4 0.009278 0.289039 0.298578
O O5 0.250000 0.415006 0.908559
O O6 0.402411 0.291178 0.929505
O O7 0.500000 0.416048 0.000000
O O8 0.250000 0.500000 0.426263
O O9 0.500000 0.500000 0.500000
O O10 0.250000 0.227777 0.726778
O O11 0.020843 0.183116 0.823527
O O12 0.024343 0.145397 0.662144
O O13 0.250000 0.835809 0.926053
O O14 0.000000 0.836127 0.000000
O O15 0.500000 0.108355 0.500000
O O16 0.250000 0.091317 0.574025
O O17 0.466434 0.000000 0.620354
#
# Coordination Sequence:
#
# PCOD8211940 Si02
#       6
#     8   8   4   8   8   8
#     4  10  20  35  53  75 101 130 168 212 254 298
#     4   9  16  28  48  75 104 134 165 201 247 297
#     4  10  24  42  57  72  95 130 171 214 260 308
#     4   9  18  32  50  74 101 130 165 202 244 297
#     4   8  14  24  40  64  94 125 157 192 229 273
#     4   9  18  33  52  73  99 130 162 200 249 302
#
# _framework density 18.238395000000001
#
# number of rings (size 3 to 8) (size 9 to 14) (size 15 to 20)
#    0.000    2.909    0.000    2.182    0.000    7.273 
#    0.000    4.091    0.000    0.545    0.000    0.000 
#    0.000    0.000    0.000    0.000    0.000    2.000 
#
# Total GULP energy -545346.360587 kJ/mol
# GULP energy per Si atom -12394.235468 kJ/mol
# Density = 1.819688 g / cm^3
# Si number density = 18.238395 Si / 1000 Ang^3
#
#
#
# Elastic Constant Matrix: (Units=GPa)
#
#
# Indices 1 2 3 4 5 6 
#
# 1 83.5704 42.2363 69.4463 0.0000 0.0000 0.0000
# 2 42.2363 87.3539 84.9795 0.0000 0.0000 0.0000
# 3 69.4463 84.9795 176.6583 0.0000 0.0000 0.0000
# 4 0.0000 0.0000 0.0000 -15.4486 0.0000 0.0000
# 5 0.0000 0.0000 0.0000 0.0000 36.0631 0.0000
# 6 0.0000 0.0000 0.0000 0.0000 0.0000 14.3127
#
#
#
# Elastic Compliance Matrix: (Units=1/GPa)
#
#
# Indices 1 2 3 4 5 6 
#
# 1 0.018317 -0.003480 -0.005527 0.000000 0.000000 0.000000
# 2 -0.003480 0.022178 -0.009300 0.000000 0.000000 0.000000
# 3 -0.005527 -0.009300 0.012307 0.000000 0.000000 0.000000
# 4 0.000000 0.000000 0.000000 -0.064731 0.000000 0.000000
# 5 0.000000 0.000000 0.000000 0.000000 0.027729 0.000000
# 6 0.000000 0.000000 0.000000 0.000000 0.000000 0.069868
#
#
# Mechanical properties :
#
#
# Convention : Reuss Voigt Hill
#
# Bulk Modulus (GPa) = 61.77395 82.32296 72.04845
# Shear Modulus (GPa) = 39.16067 17.04682 28.10374
#
# Velocity S-wave (km/s) = 4.63877 3.06055 3.92970
# Velocity P-wave (km/s) = 7.91421 7.59766 7.75755
#
# Compressibility (1/GPa) = 0.01618805
#
# Stress axis : x y z
#
# Youngs Moduli (GPa) = 54.59266 45.08986 81.25396
#
# Poissons Ratio (x) = 0.15692 0.44907
# Poissons Ratio (y) = 0.18999 0.75569
# Poissons Ratio (z) = 0.30172 0.41935
#
# Static dielectric constant tensor:
#      x y z
#    x 3.509930 0.000000 0.000000 
#    y 0.000000 3.128940 0.000000 
#    z 0.000000 0.000000 2.687250 
# 
# 
# High freq. dielectric constant tensor:
#      x y z
#    x 1.707900 0.000000 0.000000 
#    y 0.000000 1.674970 0.000000 
#    z 0.000000 0.000000 1.715070 
# 
# From -- ./inp_files/20940.got.cif
#   From: 2010.03.12/outbox.cif.g09.slc.cpg/sg51_11_cif.got.tgz:20940.got - 2010.04.16 13:43:02.
