data_PCOD8211446
_publ_section_title
;
Structure prediction by ZEFSAII (Michael W. Deem and Ramdas Pophale) SiO2 
 PCOD8211446
Probable space group: P M M A
;
_chemical_formula_sum "Si O2"
_cell_formula_units_Z 48
_cell_length_a 8.838595
_cell_length_b 18.235696
_cell_length_c 14.737694
_cell_angle_alpha 90.000000
_cell_angle_beta 90.000000
_cell_angle_gamma 90.000000
_cell_volume 2375.391034
_symmetry_space_group_name_H-M "P M M A"
_symmetry_group_IT_number 51
_symmetry_cell_setting 'orthorhombic'
loop_
_space_group_symop_operation_xyz
x,y,z
1/2-x,-y,z
1/2+x,-y,-z
-x,y,-z
-x,-y,-z
1/2+x,y,-z
1/2-x,y,z
x,-y,z
loop_
_atom_site_type_symbol
_atom_site_label
_atom_site_fract_x
_atom_site_fract_y
_atom_site_fract_z
Si Si1 0.070187 0.232536 0.592698
Si Si2 0.926761 0.917362 0.646718
Si Si3 0.917314 0.203779 0.920089
Si Si4 0.921266 0.687105 0.760302
Si Si5 0.418362 0.081275 0.834142
Si Si6 0.423800 0.413802 0.904986
O O1 0.250000 0.236381 0.590499
O O2 0.000000 0.264489 0.500000
O O3 0.020608 0.147058 0.598534
O O4 0.011948 0.286669 0.671885
O O5 0.750000 0.901308 0.632182
O O6 0.963471 0.913556 0.752382
O O7 0.968892 0.000000 0.610274
O O8 0.750000 0.183198 0.951301
O O9 0.917218 0.243186 0.824724
O O10 0.020934 0.131784 0.914107
O O11 0.000000 0.251196 0.000000
O O12 0.750000 0.663618 0.733832
O O13 0.999969 0.621565 0.815808
O O14 0.250000 0.105888 0.801502
O O15 0.412226 0.000000 0.874114
O O16 0.250000 0.388813 0.909917
O O17 0.440808 0.500000 0.890844
O O18 0.500000 0.389776 0.000000
#
# Coordination Sequence:
#
# PCOD8211446 Si02
#       6
#     8   8   8   8   8   8
#     4  12  25  41  63  88 119 156 201 253 305 365
#     4  10  20  36  58  83 113 149 194 250 310 367
#     4  11  23  36  54  79 111 149 193 241 290 350
#     4  11  23  40  62  89 122 158 198 244 298 356
#     4  10  20  34  53  76 104 143 191 241 295 353
#     4  10  21  38  63  97 134 170 207 245 289 344
#
# _framework density 20.2072
#
# number of rings (size 3 to 8) (size 9 to 14) (size 15 to 20)
#    0.000    1.333    1.667    4.500    0.000    7.000 
#    0.000    0.000    0.000    0.500    0.000    0.000 
#    0.000    0.000    0.000    0.000    0.000    0.000 
#
# Total GULP energy -594976.484387 kJ/mol
# GULP energy per Si atom -12395.343425 kJ/mol
# Density = 2.016121 g / cm^3
# Si number density = 20.207200 Si / 1000 Ang^3
#
#
#
# Elastic Constant Matrix: (Units=GPa)
#
#
# Indices 1 2 3 4 5 6 
#
# 1 175.6195 52.8357 65.3023 0.0000 0.0000 0.0000
# 2 52.8357 72.6702 37.4867 0.0000 0.0000 0.0000
# 3 65.3023 37.4867 117.2670 0.0000 0.0000 0.0000
# 4 0.0000 0.0000 0.0000 43.1145 0.0000 0.0000
# 5 0.0000 0.0000 0.0000 0.0000 36.6183 0.0000
# 6 0.0000 0.0000 0.0000 0.0000 0.0000 48.8969
#
#
#
# Elastic Compliance Matrix: (Units=1/GPa)
#
#
# Indices 1 2 3 4 5 6 
#
# 1 0.008168 -0.004302 -0.003174 0.000000 0.000000 0.000000
# 2 -0.004302 0.018744 -0.003596 0.000000 0.000000 0.000000
# 3 -0.003174 -0.003596 0.011444 0.000000 0.000000 0.000000
# 4 0.000000 0.000000 0.000000 0.023194 0.000000 0.000000
# 5 0.000000 0.000000 0.000000 0.000000 0.027309 0.000000
# 6 0.000000 0.000000 0.000000 0.000000 0.000000 0.020451
#
#
# Mechanical properties :
#
#
# Convention : Reuss Voigt Hill
#
# Bulk Modulus (GPa) = 61.67817 75.20064 68.43941
# Shear Modulus (GPa) = 36.53421 39.72140 38.12780
#
# Velocity S-wave (km/s) = 4.25665 4.43844 4.34849
# Velocity P-wave (km/s) = 7.39918 7.97257 7.69122
#
# Compressibility (1/GPa) = 0.01621319
#
# Stress axis : x y z
#
# Youngs Moduli (GPa) = 122.42281 53.35158 87.37903
#
# Poissons Ratio (x) = 0.22951 0.27730
# Poissons Ratio (y) = 0.52665 0.31423
# Poissons Ratio (z) = 0.38852 0.19186
#
# Static dielectric constant tensor:
#      x y z
#    x 3.906690 0.000000 0.000000 
#    y 0.000000 3.574070 0.000000 
#    z 0.000000 0.000000 3.573830 
# 
# 
# High freq. dielectric constant tensor:
#      x y z
#    x 1.809430 0.000000 0.000000 
#    y 0.000000 1.771120 0.000000 
#    z 0.000000 0.000000 1.782390 
# 
# From -- ./inp_files/21061.got.cif
#   From: 2010.03.12/outbox.cif.g09.slc.cpg/sg51_11_cif.got.tgz:21061.got - 2010.04.16 13:43:02.
