data_PCOD8211820
_publ_section_title
;
Structure prediction by ZEFSAII (Michael W. Deem and Ramdas Pophale) SiO2 
 PCOD8211820
Probable space group: P M M A
;
_chemical_formula_sum "Si O2"
_cell_formula_units_Z 40
_cell_length_a 8.974573
_cell_length_b 14.376544
_cell_length_c 15.705882
_cell_angle_alpha 90.000000
_cell_angle_beta 90.000000
_cell_angle_gamma 90.000000
_cell_volume 2026.425410
_symmetry_space_group_name_H-M "P M M A"
_symmetry_group_IT_number 51
_symmetry_cell_setting 'orthorhombic'
loop_
_space_group_symop_operation_xyz
x,y,z
1/2-x,-y,z
1/2+x,-y,-z
-x,y,-z
-x,-y,-z
1/2+x,y,-z
1/2-x,y,z
x,-y,z
loop_
_atom_site_type_symbol
_atom_site_label
_atom_site_fract_x
_atom_site_fract_y
_atom_site_fract_z
Si Si1 0.076989 0.894326 0.154231
Si Si2 0.572739 0.604858 0.247679
Si Si3 0.077149 0.289775 0.585859
Si Si4 0.919741 0.103414 0.329669
Si Si5 0.573468 0.279269 0.085146
O O1 0.250000 0.868850 0.145341
O O2 0.030407 0.880516 0.251880
O O3 0.980510 0.827013 0.094862
O O4 0.044862 0.000000 0.125163
O O5 0.750000 0.606181 0.248157
O O6 0.510606 0.500000 0.243901
O O7 0.511939 0.654043 0.333234
O O8 0.515130 0.660539 0.165146
O O9 0.250000 0.311254 0.575582
O O10 0.045092 0.179738 0.598407
O O11 0.000000 0.324883 0.500000
O O12 0.750000 0.117398 0.296139
O O13 0.941034 0.000000 0.368822
O O14 0.750000 0.282137 0.076433
O O15 0.500000 0.321863 0.000000
#
# Coordination Sequence:
#
# PCOD8211820 Si02
#       5
#     8   8   8   8   8
#     4  10  20  34  55  84 116 150 188 230 276 327
#     4   9  19  38  61  82 110 148 187 230 286 344
#     4  10  20  35  55  83 113 149 189 229 278 332
#     4   9  17  32  54  79 110 150 192 229 274 335
#     4  11  22  38  60  86 114 149 188 230 280 334
#
# _framework density 19.739191999999999
#
# number of rings (size 3 to 8) (size 9 to 14) (size 15 to 20)
#    0.000    2.200    2.000    1.200    0.000    3.600 
#    0.000    0.000    0.000    4.200    0.000    0.000 
#    0.000    0.000    0.000    0.000    0.000    0.000 
#
# Total GULP energy -496003.231679 kJ/mol
# GULP energy per Si atom -12400.080792 kJ/mol
# Density = 1.969426 g / cm^3
# Si number density = 19.739192 Si / 1000 Ang^3
#
#
#
# Elastic Constant Matrix: (Units=GPa)
#
#
# Indices 1 2 3 4 5 6 
#
# 1 55.9023 33.8181 41.8761 0.0000 0.0000 0.0000
# 2 33.8181 124.3565 70.5775 0.0000 0.0000 0.0000
# 3 41.8761 70.5775 159.9462 0.0000 0.0000 0.0000
# 4 0.0000 0.0000 0.0000 15.3508 0.0000 0.0000
# 5 0.0000 0.0000 0.0000 0.0000 34.4484 0.0000
# 6 0.0000 0.0000 0.0000 0.0000 0.0000 15.1060
#
#
#
# Elastic Compliance Matrix: (Units=1/GPa)
#
#
# Indices 1 2 3 4 5 6 
#
# 1 0.023577 -0.003880 -0.004461 0.000000 0.000000 0.000000
# 2 -0.003880 0.011367 -0.004000 0.000000 0.000000 0.000000
# 3 -0.004461 -0.004000 0.009185 0.000000 0.000000 0.000000
# 4 0.000000 0.000000 0.000000 0.065143 0.000000 0.000000
# 5 0.000000 0.000000 0.000000 0.000000 0.029029 0.000000
# 6 0.000000 0.000000 0.000000 0.000000 0.000000 0.066199
#
#
# Mechanical properties :
#
#
# Convention : Reuss Voigt Hill
#
# Bulk Modulus (GPa) = 51.42029 70.30538 60.86283
# Shear Modulus (GPa) = 21.21675 25.90993 23.56334
#
# Velocity S-wave (km/s) = 3.28205 3.62693 3.45879
# Velocity P-wave (km/s) = 6.36152 7.29616 6.84481
#
# Compressibility (1/GPa) = 0.01944758
#
# Stress axis : x y z
#
# Youngs Moduli (GPa) = 42.41411 87.97726 108.87438
#
# Poissons Ratio (x) = 0.34135 0.48566
# Poissons Ratio (y) = 0.16457 0.43547
# Poissons Ratio (z) = 0.18920 0.35189
#
# Static dielectric constant tensor:
#      x y z
#    x 3.351700 0.000000 0.000000 
#    y 0.000000 3.800430 0.000000 
#    z 0.000000 0.000000 3.514900 
# 
# 
# High freq. dielectric constant tensor:
#      x y z
#    x 1.745290 0.000000 0.000000 
#    y 0.000000 1.771750 0.000000 
#    z 0.000000 0.000000 1.762720 
# 
# From -- ./inp_files/20466.got.cif
#   From: 2010.03.12/outbox.cif.g09.slc.cpg/sg51_11_cif.got.tgz:20466.got - 2010.04.16 13:43:02.
