data_PCOD8211544
_publ_section_title
;
Structure prediction by ZEFSAII (Michael W. Deem and Ramdas Pophale) SiO2 
 PCOD8211544
Probable space group: P M M A
;
_chemical_formula_sum "Si O2"
_cell_formula_units_Z 56
_cell_length_a 19.282887
_cell_length_b 9.454637
_cell_length_c 15.987721
_cell_angle_alpha 90.000000
_cell_angle_beta 90.000000
_cell_angle_gamma 90.000000
_cell_volume 2914.764533
_symmetry_space_group_name_H-M "P M M A"
_symmetry_group_IT_number 51
_symmetry_cell_setting 'orthorhombic'
loop_
_space_group_symop_operation_xyz
x,y,z
1/2-x,-y,z
1/2+x,-y,-z
-x,y,-z
-x,-y,-z
1/2+x,y,-z
1/2-x,y,z
x,-y,z
loop_
_atom_site_type_symbol
_atom_site_label
_atom_site_fract_x
_atom_site_fract_y
_atom_site_fract_z
Si Si1 0.052755 0.161861 0.742660
Si Si2 0.330517 0.335103 0.012620
Si Si3 0.671078 0.665091 0.528897
Si Si4 0.171536 0.664704 0.663448
Si Si5 0.168904 0.840520 0.173886
Si Si6 0.410569 0.165809 0.337250
Si Si7 0.943220 0.162784 0.067711
O O1 0.120163 0.253300 0.724066
O O2 0.027754 0.184735 0.838495
O O3 0.990466 0.205010 0.680656
O O4 0.073570 0.000000 0.728142
O O5 0.250000 0.309115 0.992216
O O6 0.348401 0.500000 0.017219
O O7 0.352418 0.264022 0.099930
O O8 0.374961 0.259990 0.940529
O O9 0.750000 0.707306 0.552952
O O10 0.659528 0.500000 0.545440
O O11 0.656757 0.703401 0.432735
O O12 0.615371 0.751567 0.581841
O O13 0.250000 0.707461 0.687102
O O14 0.159891 0.500000 0.678735
O O15 0.250000 0.838519 0.190127
O O16 0.133714 0.784153 0.257819
O O17 0.143167 0.000000 0.151986
O O18 0.400710 0.000000 0.353635
O O19 0.922402 0.000000 0.051777
O O20 0.000000 0.212674 0.000000
#
# Coordination Sequence:
#
# PCOD8211544 Si02
#       7
#     8   8   8   8   8   8   8
#     4  10  22  37  55  82 110 138 176 222 270 318
#     4  10  21  35  52  78 109 138 173 221 273 321
#     4   9  19  36  57  81 109 143 182 220 260 310
#     4   9  20  40  61  79 105 143 183 222 267 319
#     4   9  17  31  52  76 105 144 184 218 258 313
#     4  10  20  34  53  80 113 144 177 218 265 318
#     4  10  21  39  60  78 103 142 183 222 267 320
#
# _framework density 19.212530000000001
#
# number of rings (size 3 to 8) (size 9 to 14) (size 15 to 20)
#    0.000    2.429    0.000    2.571    0.000    8.000 
#    0.000   10.000    0.000    0.000    0.000    0.000 
#    0.000    0.000    0.000    0.000    0.000    0.000 
#
# Total GULP energy -694521.493297 kJ/mol
# GULP energy per Si atom -12402.169523 kJ/mol
# Density = 1.916880 g / cm^3
# Si number density = 19.212530 Si / 1000 Ang^3
#
#
#
# Elastic Constant Matrix: (Units=GPa)
#
#
# Indices 1 2 3 4 5 6 
#
# 1 90.8244 48.7288 54.6237 0.0000 0.0000 0.0000
# 2 48.7288 71.3707 40.8157 0.0000 0.0000 0.0000
# 3 54.6237 40.8157 81.9945 0.0000 0.0000 0.0000
# 4 0.0000 0.0000 0.0000 25.7869 0.0000 0.0000
# 5 0.0000 0.0000 0.0000 0.0000 38.6548 0.0000
# 6 0.0000 0.0000 0.0000 0.0000 0.0000 33.4328
#
#
#
# Elastic Compliance Matrix: (Units=1/GPa)
#
#
# Indices 1 2 3 4 5 6 
#
# 1 0.022051 -0.009303 -0.010060 0.000000 0.000000 0.000000
# 2 -0.009303 0.023512 -0.005506 0.000000 0.000000 0.000000
# 3 -0.010060 -0.005506 0.021639 0.000000 0.000000 0.000000
# 4 0.000000 0.000000 0.000000 0.038779 0.000000 0.000000
# 5 0.000000 0.000000 0.000000 0.000000 0.025870 0.000000
# 6 0.000000 0.000000 0.000000 0.000000 0.000000 0.029911
#
#
# Mechanical properties :
#
#
# Convention : Reuss Voigt Hill
#
# Bulk Modulus (GPa) = 57.26013 59.16956 58.21484
# Shear Modulus (GPa) = 23.00742 26.24299 24.62521
#
# Velocity S-wave (km/s) = 3.46428 3.69986 3.58400
# Velocity P-wave (km/s) = 6.77273 7.00829 6.89152
#
# Compressibility (1/GPa) = 0.01746416
#
# Stress axis : x y z
#
# Youngs Moduli (GPa) = 45.34862 42.53153 46.21386
#
# Poissons Ratio (x) = 0.39566 0.46489
# Poissons Ratio (y) = 0.42187 0.25448
# Poissons Ratio (z) = 0.45619 0.23420
#
# Static dielectric constant tensor:
#      x y z
#    x 3.495000 0.000000 0.000000 
#    y 0.000000 3.391470 0.000000 
#    z 0.000000 0.000000 3.412990 
# 
# 
# High freq. dielectric constant tensor:
#      x y z
#    x 1.750880 0.000000 0.000000 
#    y 0.000000 1.738430 0.000000 
#    z 0.000000 0.000000 1.745050 
# 
# From -- ./inp_files/25752.got.cif
#   From: 2010.03.12/outbox.cif.g09.slc.cpg/sg51_13_cif.got.tgz:25752.got - 2010.04.16 13:43:02.
