data_PCOD8211924
_publ_section_title
;
Structure prediction by ZEFSAII (Michael W. Deem and Ramdas Pophale) SiO2 
 PCOD8211924
Probable space group: P M M A
;
_chemical_formula_sum "Si O2"
_cell_formula_units_Z 64
_cell_length_a 22.272620
_cell_length_b 9.028330
_cell_length_c 17.653559
_cell_angle_alpha 90.000000
_cell_angle_beta 90.000000
_cell_angle_gamma 90.000000
_cell_volume 3549.858203
_symmetry_space_group_name_H-M "P M M A"
_symmetry_group_IT_number 51
_symmetry_cell_setting 'orthorhombic'
loop_
_space_group_symop_operation_xyz
x,y,z
1/2-x,-y,z
1/2+x,-y,-z
-x,y,-z
-x,-y,-z
1/2+x,y,-z
1/2-x,y,z
x,-y,z
loop_
_atom_site_type_symbol
_atom_site_label
_atom_site_fract_x
_atom_site_fract_y
_atom_site_fract_z
Si Si1 0.915047 0.826515 0.819172
Si Si2 0.949509 0.676827 0.672109
Si Si3 0.989287 0.668436 0.085187
Si Si4 0.085627 0.676974 0.651932
Si Si5 0.681374 0.830626 0.941438
Si Si6 0.570341 0.338745 0.510739
Si Si7 0.349845 0.331056 0.905666
Si Si8 0.317612 0.829692 0.757646
O O1 0.909657 0.745638 0.738637
O O2 0.976071 0.776861 0.859319
O O3 0.858527 0.778994 0.870355
O O4 0.917125 0.000000 0.804705
O O5 0.944691 0.500000 0.673377
O O6 0.921380 0.740959 0.592589
O O7 0.019489 0.724202 0.681296
O O8 0.013086 0.500000 0.094398
O O9 0.920470 0.679753 0.107847
O O10 0.000000 0.724181 0.000000
O O11 0.090815 0.500000 0.652318
O O12 0.095749 0.740393 0.565531
O O13 0.136707 0.742346 0.704771
O O14 0.750000 0.812843 0.916261
O O15 0.666193 0.000000 0.963689
O O16 0.667391 0.727287 0.012067
O O17 0.500000 0.361413 0.500000
O O18 0.601222 0.500000 0.515610
O O19 0.327780 0.500000 0.899395
O O20 0.317216 0.234510 0.842366
O O21 0.250000 0.813518 0.725315
O O22 0.337527 0.000000 0.760904
#
# Coordination Sequence:
#
# PCOD8211924 Si02
#       8
#     8   8   8   8   8   8   8   8
#     4  11  22  33  50  76 103 133 171 209 247 298
#     4   9  17  31  53  80 109 135 160 201 259 312
#     4  10  20  35  52  73 103 132 159 201 259 312
#     4   9  17  32  55  80 103 132 170 207 248 300
#     4  10  22  39  54  68  93 131 171 211 254 294
#     4   7  12  26  50  78 104 129 157 191 238 297
#     4  11  22  36  56  78  98 126 168 213 254 301
#     4  11  24  38  50  69 103 143 176 210 255 302
#
# _framework density 18.028887999999998
#
# number of rings (size 3 to 8) (size 9 to 14) (size 15 to 20)
#    0.000    2.250    1.250    3.750    0.000    8.000 
#    0.000    0.625    0.000    3.000    0.000    3.500 
#    0.000    0.000    0.000    0.000    0.000    0.000 
#
# Total GULP energy -793299.172283 kJ/mol
# GULP energy per Si atom -12395.299567 kJ/mol
# Density = 1.798785 g / cm^3
# Si number density = 18.028888 Si / 1000 Ang^3
#
#
#
# Elastic Constant Matrix: (Units=GPa)
#
#
# Indices 1 2 3 4 5 6 
#
# 1 68.3017 26.9753 41.1932 0.0000 0.0000 0.0000
# 2 26.9753 50.8847 40.7753 0.0000 0.0000 0.0000
# 3 41.1932 40.7753 144.9884 0.0000 0.0000 0.0000
# 4 0.0000 0.0000 0.0000 6.8570 0.0000 0.0000
# 5 0.0000 0.0000 0.0000 0.0000 14.6242 0.0000
# 6 0.0000 0.0000 0.0000 0.0000 0.0000 3.8491
#
#
#
# Elastic Compliance Matrix: (Units=1/GPa)
#
#
# Indices 1 2 3 4 5 6 
#
# 1 0.019767 -0.007718 -0.003446 0.000000 0.000000 0.000000
# 2 -0.007718 0.028383 -0.005789 0.000000 0.000000 0.000000
# 3 -0.003446 -0.005789 0.009504 0.000000 0.000000 0.000000
# 4 0.000000 0.000000 0.000000 0.145837 0.000000 0.000000
# 5 0.000000 0.000000 0.000000 0.000000 0.068380 0.000000
# 6 0.000000 0.000000 0.000000 0.000000 0.000000 0.259800
#
#
# Mechanical properties :
#
#
# Convention : Reuss Voigt Hill
#
# Bulk Modulus (GPa) = 42.10820 53.56247 47.83534
# Shear Modulus (GPa) = 8.71849 15.41479 12.06664
#
# Velocity S-wave (km/s) = 2.20144 2.92722 2.58988
# Velocity P-wave (km/s) = 5.46520 6.41861 5.96100
#
# Compressibility (1/GPa) = 0.02374834
#
# Stress axis : x y z
#
# Youngs Moduli (GPa) = 50.58891 35.23238 105.21678
#
# Poissons Ratio (x) = 0.27193 0.36253
# Poissons Ratio (y) = 0.39045 0.60914
# Poissons Ratio (z) = 0.17431 0.20397
#
# Static dielectric constant tensor:
#      x y z
#    x 3.280660 0.000000 0.000000 
#    y 0.000000 3.211800 0.000000 
#    z 0.000000 0.000000 3.693620 
# 
# 
# High freq. dielectric constant tensor:
#      x y z
#    x 1.674580 0.000000 0.000000 
#    y 0.000000 1.682740 0.000000 
#    z 0.000000 0.000000 1.710250 
# 
# From -- ./inp_files/30527.got.cif
#   From: 2010.03.12/outbox.cif.g09.slc.cpg/sg51_16_cif.got.tgz:30527.got - 2010.04.16 13:43:02.
