data_PCOD8211267
_publ_section_title
;
Structure prediction by ZEFSAII (Michael W. Deem and Ramdas Pophale) SiO2 
 PCOD8211267
Probable space group: P M M A
;
_chemical_formula_sum "Si O2"
_cell_formula_units_Z 40
_cell_length_a 10.074392
_cell_length_b 18.828155
_cell_length_c 13.324394
_cell_angle_alpha 90.000000
_cell_angle_beta 90.000000
_cell_angle_gamma 90.000000
_cell_volume 2527.400556
_symmetry_space_group_name_H-M "P M M A"
_symmetry_group_IT_number 51
_symmetry_cell_setting 'orthorhombic'
loop_
_space_group_symop_operation_xyz
x,y,z
1/2-x,-y,z
1/2+x,-y,-z
-x,y,-z
-x,-y,-z
1/2+x,y,-z
1/2-x,y,z
x,-y,z
loop_
_atom_site_type_symbol
_atom_site_label
_atom_site_fract_x
_atom_site_fract_y
_atom_site_fract_z
Si Si1 0.906392 0.815366 0.094634
Si Si2 0.250000 0.418075 0.124915
Si Si3 0.750000 0.916100 0.423060
Si Si4 0.750000 0.084325 0.646663
Si Si5 0.750000 0.421358 0.114830
Si Si6 0.004693 0.664643 0.880569
Si Si7 0.528576 0.915983 0.270286
O O1 0.750000 0.803599 0.063853
O O2 0.966799 0.745966 0.151132
O O3 0.916336 0.881112 0.169453
O O4 0.000000 0.833157 0.000000
O O5 0.250000 0.500000 0.165567
O O6 0.373697 0.371759 0.165224
O O7 0.250000 0.420844 0.005309
O O8 0.750000 0.882381 0.534470
O O9 0.618787 0.891381 0.363837
O O10 0.750000 0.000000 0.433205
O O11 0.620827 0.109939 0.707367
O O12 0.750000 0.000000 0.637364
O O13 0.750000 0.500000 0.157612
O O14 0.622926 0.383210 0.160448
O O15 0.000000 0.663419 0.000000
O O16 0.537373 0.000000 0.253868
#
# Coordination Sequence:
#
# PCOD8211267 Si02
#       7
#     8   4   4   4   4   8   8
#     4  11  23  35  48  63  88 128 170 204 235 268
#     4   9  16  25  40  62  83 106 142 190 233 272
#     4   9  16  31  53  73  95 118 141 187 246 297
#     4   9  18  31  51  77  95 112 143 187 246 305
#     4   9  14  23  38  56  77 102 138 186 229 260
#     4   9  17  27  40  57  81 112 150 188 226 267
#     4  10  20  34  51  71  95 120 158 203 238 280
#
# _framework density 15.826537999999999
#
# number of rings (size 3 to 8) (size 9 to 14) (size 15 to 20)
#    0.000    2.400    2.000    1.200    5.600    5.200 
#    0.000    0.000    0.000    0.000    0.000    0.000 
#    0.000    0.000    0.000    0.000    0.000   70.000 
#
# Total GULP energy -495733.688738 kJ/mol
# GULP energy per Si atom -12393.342218 kJ/mol
# Density = 1.579052 g / cm^3
# Si number density = 15.826538 Si / 1000 Ang^3
#
#
#
# Elastic Constant Matrix: (Units=GPa)
#
#
# Indices 1 2 3 4 5 6 
#
# 1 138.0000 36.0033 21.3956 0.0000 0.0000 0.0000
# 2 36.0033 66.2888 23.9738 0.0000 0.0000 0.0000
# 3 21.3956 23.9738 40.3515 0.0000 0.0000 0.0000
# 4 0.0000 0.0000 0.0000 0.8400 0.0000 0.0000
# 5 0.0000 0.0000 0.0000 0.0000 17.4952 0.0000
# 6 0.0000 0.0000 0.0000 0.0000 0.0000 24.3313
#
#
#
# Elastic Compliance Matrix: (Units=1/GPa)
#
#
# Indices 1 2 3 4 5 6 
#
# 1 0.008603 -0.003850 -0.002274 0.000000 0.000000 0.000000
# 2 -0.003850 0.020937 -0.010398 0.000000 0.000000 0.000000
# 3 -0.002274 -0.010398 0.032166 0.000000 0.000000 0.000000
# 4 0.000000 0.000000 0.000000 1.190454 0.000000 0.000000
# 5 0.000000 0.000000 0.000000 0.000000 0.057158 0.000000
# 6 0.000000 0.000000 0.000000 0.000000 0.000000 0.041099
#
#
# Mechanical properties :
#
#
# Convention : Reuss Voigt Hill
#
# Bulk Modulus (GPa) = 34.88976 45.26509 40.07742
# Shear Modulus (GPa) = 3.58933 19.41782 11.50358
#
# Velocity S-wave (km/s) = 1.50760 3.50653 2.69895
# Velocity P-wave (km/s) = 5.01233 6.71247 5.92371
#
# Compressibility (1/GPa) = 0.02866171
#
# Stress axis : x y z
#
# Youngs Moduli (GPa) = 116.23182 47.76206 31.08900
#
# Poissons Ratio (x) = 0.18390 0.07071
# Poissons Ratio (y) = 0.44753 0.32326
# Poissons Ratio (z) = 0.26434 0.49662
#
# Static dielectric constant tensor:
#      x y z
#    x 3.376580 0.000000 0.000000 
#    y 0.000000 2.985740 0.000000 
#    z 0.000000 0.000000 2.552210 
# 
# 
# High freq. dielectric constant tensor:
#      x y z
#    x 1.635450 0.000000 0.000000 
#    y 0.000000 1.593030 0.000000 
#    z 0.000000 0.000000 1.542440 
# 
# From -- ./inp_files/21366.got.cif
#   From: 2010.03.12/outbox.cif.g09.slc.cpg/sg51_11_cif.got.tgz:21366.got - 2010.04.16 13:43:02.
