data_PCOD8211130
_publ_section_title
;
Structure prediction by ZEFSAII (Michael W. Deem and Ramdas Pophale) SiO2 
 PCOD8211130
Probable space group: P M M A
;
_chemical_formula_sum "Si O2"
_cell_formula_units_Z 64
_cell_length_a 18.056619
_cell_length_b 8.803332
_cell_length_c 21.653236
_cell_angle_alpha 90.000000
_cell_angle_beta 90.000000
_cell_angle_gamma 90.000000
_cell_volume 3441.964006
_symmetry_space_group_name_H-M "P M M A"
_symmetry_group_IT_number 51
_symmetry_cell_setting 'orthorhombic'
loop_
_space_group_symop_operation_xyz
x,y,z
1/2-x,-y,z
1/2+x,-y,-z
-x,y,-z
-x,-y,-z
1/2+x,y,-z
1/2-x,y,z
x,-y,z
loop_
_atom_site_type_symbol
_atom_site_label
_atom_site_fract_x
_atom_site_fract_y
_atom_site_fract_z
Si Si1 0.097550 0.821342 0.249209
Si Si2 0.336096 0.824785 0.486934
Si Si3 0.578238 0.823080 0.388591
Si Si4 0.667686 0.321737 0.865740
Si Si5 0.040152 0.674684 0.809521
Si Si6 0.665810 0.675085 0.279804
Si Si7 0.919127 0.678180 0.623694
Si Si8 0.025614 0.321458 0.064547
O O1 0.155945 0.757183 0.200072
O O2 0.116542 0.756053 0.316301
O O3 0.013819 0.776248 0.231893
O O4 0.105050 0.000000 0.251339
O O5 0.250000 0.789723 0.497100
O O6 0.378169 0.782274 0.549473
O O7 0.367274 0.718624 0.433542
O O8 0.349681 0.000000 0.469060
O O9 0.630268 0.779351 0.331767
O O10 0.502528 0.731087 0.388365
O O11 0.558787 0.000000 0.384223
O O12 0.750000 0.283212 0.890375
O O13 0.656766 0.500000 0.855300
O O14 0.607067 0.261056 0.915164
O O15 0.014620 0.500000 0.801474
O O16 0.123445 0.699734 0.785436
O O17 0.033640 0.720494 0.881766
O O18 0.750000 0.725710 0.268719
O O19 0.660161 0.500000 0.300857
O O20 0.919827 0.500000 0.634318
O O21 0.030317 0.500000 0.054250
O O22 0.000000 0.243881 0.000000
#
# Coordination Sequence:
#
# PCOD8211130 Si02
#       8
#     8   8   8   8   8   8   8   8
#     4  11  21  34  55  80 105 138 179 224 274 327
#     4  10  23  42  59  78 108 143 180 225 274 323
#     4  11  22  38  60  83 107 141 184 227 272 325
#     4   9  18  33  53  78 110 147 186 228 275 326
#     4   9  17  32  52  75 109 146 180 221 269 321
#     4  10  20  33  52  79 110 144 181 225 276 326
#     4  12  24  38  58  83 110 142 180 224 274 331
#     4   8  14  27  50  78 107 144 187 227 267 315
#
# _framework density 18.594035999999999
#
# number of rings (size 3 to 8) (size 9 to 14) (size 15 to 20)
#    0.000    2.000    1.250    4.125    0.000    4.250 
#    0.000    0.625    0.000    9.750    0.000    0.000 
#    0.000    4.000    0.000    0.000    0.000    0.000 
#
# Total GULP energy -793624.919843 kJ/mol
# GULP energy per Si atom -12400.389373 kJ/mol
# Density = 1.855172 g / cm^3
# Si number density = 18.594036 Si / 1000 Ang^3
#
#
#
# Elastic Constant Matrix: (Units=GPa)
#
#
# Indices 1 2 3 4 5 6 
#
# 1 94.9398 30.5497 57.6365 0.0000 0.0000 0.0000
# 2 30.5497 70.2587 36.7265 0.0000 0.0000 0.0000
# 3 57.6365 36.7265 141.6749 0.0000 0.0000 0.0000
# 4 0.0000 0.0000 0.0000 1.9783 0.0000 0.0000
# 5 0.0000 0.0000 0.0000 0.0000 22.9847 0.0000
# 6 0.0000 0.0000 0.0000 0.0000 0.0000 22.9507
#
#
#
# Elastic Compliance Matrix: (Units=1/GPa)
#
#
# Indices 1 2 3 4 5 6 
#
# 1 0.014819 -0.003808 -0.005041 0.000000 0.000000 0.000000
# 2 -0.003808 0.017443 -0.002972 0.000000 0.000000 0.000000
# 3 -0.005041 -0.002972 0.009880 0.000000 0.000000 0.000000
# 4 0.000000 0.000000 0.000000 0.505475 0.000000 0.000000
# 5 0.000000 0.000000 0.000000 0.000000 0.043507 0.000000
# 6 0.000000 0.000000 0.000000 0.000000 0.000000 0.043572
#
#
# Mechanical properties :
#
#
# Convention : Reuss Voigt Hill
#
# Bulk Modulus (GPa) = 54.06153 61.85543 57.95848
# Shear Modulus (GPa) = 7.52440 21.71346 14.61893
#
# Velocity S-wave (km/s) = 2.01382 3.42096 2.80700
# Velocity P-wave (km/s) = 5.87750 6.99589 6.46094
#
# Compressibility (1/GPa) = 0.01849744
#
# Stress axis : x y z
#
# Youngs Moduli (GPa) = 67.48085 57.33035 101.21510
#
# Poissons Ratio (x) = 0.21833 0.51028
# Poissons Ratio (y) = 0.25698 0.30086
# Poissons Ratio (z) = 0.34020 0.17041
#
# Static dielectric constant tensor:
#      x y z
#    x 3.570520 0.000000 0.000000 
#    y 0.000000 3.276530 0.000000 
#    z 0.000000 0.000000 3.604330 
# 
# 
# High freq. dielectric constant tensor:
#      x y z
#    x 1.721970 0.000000 0.000000 
#    y 0.000000 1.706690 0.000000 
#    z 0.000000 0.000000 1.721230 
# 
# From -- ./inp_files/33824.got.cif
#   From: 2010.03.12/outbox.cif.g09.slc.cpg/sg51_17_cif.got.tgz:33824.got - 2010.04.16 13:43:02.
