data_PCOD8211308
_publ_section_title
;
Structure prediction by ZEFSAII (Michael W. Deem and Ramdas Pophale) SiO2 
 PCOD8211308
Probable space group: P M M A
;
_chemical_formula_sum "Si O2"
_cell_formula_units_Z 64
_cell_length_a 9.076938
_cell_length_b 13.679648
_cell_length_c 34.086990
_cell_angle_alpha 90.000000
_cell_angle_beta 90.000000
_cell_angle_gamma 90.000000
_cell_volume 4232.558259
_symmetry_space_group_name_H-M "P M M A"
_symmetry_group_IT_number 51
_symmetry_cell_setting 'orthorhombic'
loop_
_space_group_symop_operation_xyz
x,y,z
1/2-x,-y,z
1/2+x,-y,-z
-x,y,-z
-x,-y,-z
1/2+x,y,-z
1/2-x,y,z
x,-y,z
loop_
_atom_site_type_symbol
_atom_site_label
_atom_site_fract_x
_atom_site_fract_y
_atom_site_fract_z
Si Si1 0.586498 0.616201 0.612668
Si Si2 0.418195 0.707616 0.768336
Si Si3 0.578443 0.612034 0.150653
Si Si4 0.914837 0.616640 0.462036
Si Si5 0.074825 0.787300 0.112524
Si Si6 0.080869 0.889584 0.817955
Si Si7 0.921608 0.887385 0.041003
Si Si8 0.924828 0.609477 0.698926
O O1 0.750000 0.659821 0.606896
O O2 0.594408 0.500000 0.610067
O O3 0.485394 0.658862 0.577976
O O4 0.522446 0.644692 0.655620
O O5 0.250000 0.691732 0.755891
O O6 0.460260 0.636325 0.804267
O O7 0.449360 0.819559 0.780906
O O8 0.517430 0.684809 0.731010
O O9 0.750000 0.635216 0.142870
O O10 0.539358 0.500000 0.142033
O O11 0.479692 0.677793 0.122054
O O12 0.750000 0.656827 0.464480
O O13 0.918698 0.500000 0.461640
O O14 0.000000 0.657158 0.500000
O O15 0.250000 0.789216 0.108800
O O16 0.024649 0.862197 0.146213
O O17 0.002085 0.818755 0.071982
O O18 0.250000 0.876228 0.832248
O O19 0.048444 0.000000 0.804531
O O20 0.750000 0.859327 0.037857
O O21 0.940656 0.000000 0.053824
O O22 0.000000 0.867335 0.000000
O O23 0.750000 0.608595 0.699718
O O24 0.984772 0.500000 0.707818
#
# Coordination Sequence:
#
# PCOD8211308 Si02
#       8
#     8   8   8   8   8   8   8   8
#     4   8  14  24  34  44  62  90 124 159 194 234
#     4   9  17  28  43  63  82 103 136 175 212 247
#     4   9  18  33  50  66  87 117 151 183 214 249
#     4   9  15  21  30  44  61  83 114 154 198 239
#     4  11  21  31  47  72  98 120 144 176 213 253
#     4   9  18  33  49  63  84 115 147 177 210 249
#     4  10  20  34  52  73  97 123 149 177 210 250
#     4   9  17  27  38  53  76 106 135 165 205 249
#
# _framework density 15.120877999999999
#
# number of rings (size 3 to 8) (size 9 to 14) (size 15 to 20)
#    0.000    2.750    0.000    4.125    0.000    7.500 
#    0.000    1.250    0.000    0.375    0.000    0.000 
#    0.000    0.000    0.000    0.000    0.000    0.625 
#
# Total GULP energy -793456.074745 kJ/mol
# GULP energy per Si atom -12397.751168 kJ/mol
# Density = 1.508646 g / cm^3
# Si number density = 15.120878 Si / 1000 Ang^3
#
#
#
# Elastic Constant Matrix: (Units=GPa)
#
#
# Indices 1 2 3 4 5 6 
#
# 1 96.3174 35.4478 64.4569 0.0000 0.0000 0.0000
# 2 35.4478 75.7773 46.0744 0.0000 0.0000 0.0000
# 3 64.4569 46.0744 120.5808 0.0000 0.0000 0.0000
# 4 0.0000 0.0000 0.0000 11.8155 0.0000 0.0000
# 5 0.0000 0.0000 0.0000 0.0000 30.4527 0.0000
# 6 0.0000 0.0000 0.0000 0.0000 0.0000 15.6378
#
#
#
# Elastic Compliance Matrix: (Units=1/GPa)
#
#
# Indices 1 2 3 4 5 6 
#
# 1 0.016709 -0.003107 -0.007744 0.000000 0.000000 0.000000
# 2 -0.003107 0.017768 -0.005128 0.000000 0.000000 0.000000
# 3 -0.007744 -0.005128 0.014392 0.000000 0.000000 0.000000
# 4 0.000000 0.000000 0.000000 0.084635 0.000000 0.000000
# 5 0.000000 0.000000 0.000000 0.000000 0.032838 0.000000
# 6 0.000000 0.000000 0.000000 0.000000 0.000000 0.063948
#
#
# Mechanical properties :
#
#
# Convention : Reuss Voigt Hill
#
# Bulk Modulus (GPa) = 59.13861 64.95932 62.04896
# Shear Modulus (GPa) = 18.66467 21.36094 20.01280
#
# Velocity S-wave (km/s) = 3.51716 3.76264 3.64197
# Velocity P-wave (km/s) = 7.46253 7.86955 7.66874
#
# Compressibility (1/GPa) = 0.01690943
#
# Stress axis : x y z
#
# Youngs Moduli (GPa) = 59.84975 56.28009 69.48082
#
# Poissons Ratio (x) = 0.17488 0.53808
# Poissons Ratio (y) = 0.18597 0.35632
# Poissons Ratio (z) = 0.46349 0.28862
#
# Static dielectric constant tensor:
#      x y z
#    x 2.976020 0.000000 0.000000 
#    y 0.000000 2.681540 0.000000 
#    z 0.000000 0.000000 2.972260 
# 
# 
# High freq. dielectric constant tensor:
#      x y z
#    x 1.584220 0.000000 0.000000 
#    y 0.000000 1.533940 0.000000 
#    z 0.000000 0.000000 1.578140 
# 
# From -- ./inp_files/37563.got.cif
#   From: 2010.03.12/outbox.cif.g09.slc.cpg/sg51_19_cif.got.tgz:37563.got - 2010.04.16 13:43:02.
