data_PCOD8211333
_publ_section_title
;
Structure prediction by ZEFSAII (Michael W. Deem and Ramdas Pophale) SiO2 
 PCOD8211333
Probable space group: P M M A
;
_chemical_formula_sum "Si O2"
_cell_formula_units_Z 48
_cell_length_a 18.263505
_cell_length_b 8.710879
_cell_length_c 16.625838
_cell_angle_alpha 90.000000
_cell_angle_beta 90.000000
_cell_angle_gamma 90.000000
_cell_volume 2645.024222
_symmetry_space_group_name_H-M "P M M A"
_symmetry_group_IT_number 51
_symmetry_cell_setting 'orthorhombic'
loop_
_space_group_symop_operation_xyz
x,y,z
1/2-x,-y,z
1/2+x,-y,-z
-x,y,-z
-x,-y,-z
1/2+x,y,-z
1/2-x,y,z
x,-y,z
loop_
_atom_site_type_symbol
_atom_site_label
_atom_site_fract_x
_atom_site_fract_y
_atom_site_fract_z
Si Si1 0.522827 0.182618 0.087671
Si Si2 0.418263 0.180396 0.502028
Si Si3 0.333597 0.817555 0.347648
Si Si4 0.088616 0.179134 0.679371
Si Si5 0.951947 0.319242 0.759801
Si Si6 0.829790 0.181038 0.164796
O O1 0.466516 0.249806 0.152143
O O2 0.605664 0.242307 0.106495
O O3 0.519312 0.000000 0.093407
O O4 0.500000 0.242768 0.000000
O O5 0.500000 0.251388 0.500000
O O6 0.368073 0.248512 0.431000
O O7 0.383124 0.217967 0.589533
O O8 0.423523 0.000000 0.487984
O O9 0.250000 0.762898 0.344251
O O10 0.374719 0.744561 0.271599
O O11 0.339985 0.000000 0.342893
O O12 0.151296 0.225210 0.742923
O O13 0.014555 0.271267 0.696922
O O14 0.068140 0.000000 0.687756
O O15 0.948339 0.500000 0.767475
O O16 0.750000 0.253666 0.143242
O O17 0.824573 0.000000 0.155714
#
# Coordination Sequence:
#
# PCOD8211333 Si02
#       6
#     8   8   8   8   8   8
#     4   9  18  34  56  78 100 129 167 209 255 312
#     4   9  15  26  48  73  97 126 165 216 258 293
#     4  10  20  34  52  74 101 136 179 222 263 305
#     4   9  16  29  50  72  98 132 170 207 251 308
#     4  11  21  33  51  73 101 134 169 208 253 310
#     4   8  14  25  45  74 102 124 152 199 252 297
#
# _framework density 18.147282000000001
#
# number of rings (size 3 to 8) (size 9 to 14) (size 15 to 20)
#    0.000    2.667    1.667    2.500    0.000    1.333 
#    0.000    5.833    0.000   11.000    0.000    0.000 
#    0.000    0.000    0.000    0.000    0.000    0.000 
#
# Total GULP energy -594954.908421 kJ/mol
# GULP energy per Si atom -12394.893925 kJ/mol
# Density = 1.810598 g / cm^3
# Si number density = 18.147282 Si / 1000 Ang^3
#
#
#
# Elastic Constant Matrix: (Units=GPa)
#
#
# Indices 1 2 3 4 5 6 
#
# 1 151.3057 24.7178 89.4885 0.0000 0.0000 0.0000
# 2 24.7178 30.5433 24.7705 0.0000 0.0000 0.0000
# 3 89.4885 24.7705 154.4081 0.0000 0.0000 0.0000
# 4 0.0000 0.0000 0.0000 7.3727 0.0000 0.0000
# 5 0.0000 0.0000 0.0000 0.0000 23.7785 0.0000
# 6 0.0000 0.0000 0.0000 0.0000 0.0000 6.2939
#
#
#
# Elastic Compliance Matrix: (Units=1/GPa)
#
#
# Indices 1 2 3 4 5 6 
#
# 1 0.010482 -0.004088 -0.005419 0.000000 0.000000 0.000000
# 2 -0.004088 0.039231 -0.003924 0.000000 0.000000 0.000000
# 3 -0.005419 -0.003924 0.010247 0.000000 0.000000 0.000000
# 4 0.000000 0.000000 0.000000 0.135635 0.000000 0.000000
# 5 0.000000 0.000000 0.000000 0.000000 0.042055 0.000000
# 6 0.000000 0.000000 0.000000 0.000000 0.000000 0.158884
#
#
# Mechanical properties :
#
#
# Convention : Reuss Voigt Hill
#
# Bulk Modulus (GPa) = 30.21414 68.24561 49.22987
# Shear Modulus (GPa) = 11.50934 20.64103 16.07518
#
# Velocity S-wave (km/s) = 2.52110 3.37622 2.97950
# Velocity P-wave (km/s) = 5.01599 7.27232 6.24687
#
# Compressibility (1/GPa) = 0.03309709
#
# Stress axis : x y z
#
# Youngs Moduli (GPa) = 95.40086 25.48983 97.59302
#
# Poissons Ratio (x) = 0.10420 0.52887
# Poissons Ratio (y) = 0.38999 0.38299
# Poissons Ratio (z) = 0.51700 0.10003
#
# Static dielectric constant tensor:
#      x y z
#    x 3.543440 0.000000 0.000000 
#    y 0.000000 2.880470 0.000000 
#    z 0.000000 0.000000 3.503270 
# 
# 
# High freq. dielectric constant tensor:
#      x y z
#    x 1.696080 0.000000 0.000000 
#    y 0.000000 1.656280 0.000000 
#    z 0.000000 0.000000 1.704000 
# 
# From -- ./inp_files/30033.got.cif
#   From: 2010.03.12/outbox.cif.g09.slc.cpg/sg51_16_cif.got.tgz:30033.got - 2010.04.16 13:43:02.
