data_PCOD8211266
_publ_section_title
;
Structure prediction by ZEFSAII (Michael W. Deem and Ramdas Pophale) SiO2 
 PCOD8211266
Probable space group: P M M A
;
_chemical_formula_sum "Si O2"
_cell_formula_units_Z 64
_cell_length_a 8.981337
_cell_length_b 19.045061
_cell_length_c 23.337496
_cell_angle_alpha 90.000000
_cell_angle_beta 90.000000
_cell_angle_gamma 90.000000
_cell_volume 3991.881282
_symmetry_space_group_name_H-M "P M M A"
_symmetry_group_IT_number 51
_symmetry_cell_setting 'orthorhombic'
loop_
_space_group_symop_operation_xyz
x,y,z
1/2-x,-y,z
1/2+x,-y,-z
-x,y,-z
-x,-y,-z
1/2+x,y,-z
1/2-x,y,z
x,-y,z
loop_
_atom_site_type_symbol
_atom_site_label
_atom_site_fract_x
_atom_site_fract_y
_atom_site_fract_z
Si Si1 0.074303 0.346044 0.335202
Si Si2 0.074630 0.216379 0.058942
Si Si3 0.574594 0.922688 0.881966
Si Si4 0.079270 0.221694 0.720049
Si Si5 0.421476 0.420425 0.768000
Si Si6 0.422379 0.922590 0.762020
Si Si7 0.923942 0.419221 0.439999
Si Si8 0.081003 0.291477 0.840853
O O1 0.250000 0.350033 0.342319
O O2 0.026245 0.265849 0.321933
O O3 0.024274 0.397808 0.284636
O O4 0.997704 0.368993 0.393641
O O5 0.250000 0.219134 0.051247
O O6 0.017630 0.137736 0.075029
O O7 0.029400 0.270799 0.108370
O O8 0.000000 0.239842 0.000000
O O9 0.750000 0.918240 0.876234
O O10 0.512364 0.908337 0.819349
O O11 0.524159 0.000000 0.904489
O O12 0.250000 0.236896 0.702749
O O13 0.039641 0.138437 0.715719
O O14 0.050918 0.243404 0.785672
O O15 0.250000 0.411262 0.748020
O O16 0.458250 0.500000 0.785411
O O17 0.452089 0.372302 0.823524
O O18 0.250000 0.917208 0.779049
O O19 0.460074 0.000000 0.736297
O O20 0.750000 0.402551 0.444694
O O21 0.952038 0.500000 0.422398
O O22 0.000000 0.401742 0.500000
O O23 0.250000 0.282179 0.862504
#
# Coordination Sequence:
#
# PCOD8211266 Si02
#       8
#     8   8   8   8   8   8   8   8
#     4  11  21  30  45  71 101 131 165 200 231 267
#     4  11  22  33  47  64  85 114 148 186 226 272
#     4   9  18  31  45  63  88 116 146 182 224 270
#     4   9  17  30  47  67  94 125 155 191 236 280
#     4   9  18  33  52  72  94 121 149 183 232 282
#     4   9  16  27  46  69  91 119 154 189 228 278
#     4  10  20  34  51  70  97 134 171 204 238 276
#     4   9  17  31  49  68  89 113 143 181 226 279
#
# _framework density 16.032540000000001
#
# number of rings (size 3 to 8) (size 9 to 14) (size 15 to 20)
#    0.000    2.375    1.250    3.000    0.000    5.750 
#    0.000    0.000    0.000    0.375    0.000    0.000 
#    0.000    0.500    0.000    1.375    0.000    2.000 
#
# Total GULP energy -793466.435527 kJ/mol
# GULP energy per Si atom -12397.913055 kJ/mol
# Density = 1.599605 g / cm^3
# Si number density = 16.032540 Si / 1000 Ang^3
#
#
#
# Elastic Constant Matrix: (Units=GPa)
#
#
# Indices 1 2 3 4 5 6 
#
# 1 63.2389 36.8099 42.6484 0.0000 0.0000 0.0000
# 2 36.8099 116.4154 48.6140 0.0000 0.0000 0.0000
# 3 42.6484 48.6140 81.4627 0.0000 0.0000 0.0000
# 4 0.0000 0.0000 0.0000 20.6920 0.0000 0.0000
# 5 0.0000 0.0000 0.0000 0.0000 26.2894 0.0000
# 6 0.0000 0.0000 0.0000 0.0000 0.0000 20.3407
#
#
#
# Elastic Compliance Matrix: (Units=1/GPa)
#
#
# Indices 1 2 3 4 5 6 
#
# 1 0.025358 -0.003295 -0.011309 0.000000 0.000000 0.000000
# 2 -0.003295 0.011869 -0.005358 0.000000 0.000000 0.000000
# 3 -0.011309 -0.005358 0.021394 0.000000 0.000000 0.000000
# 4 0.000000 0.000000 0.000000 0.048328 0.000000 0.000000
# 5 0.000000 0.000000 0.000000 0.000000 0.038038 0.000000
# 6 0.000000 0.000000 0.000000 0.000000 0.000000 0.049163
#
#
# Mechanical properties :
#
#
# Convention : Reuss Voigt Hill
#
# Bulk Modulus (GPa) = 53.48725 57.47350 55.48037
# Shear Modulus (GPa) = 20.80670 22.33406 21.57038
#
# Velocity S-wave (km/s) = 3.60638 3.73640 3.67197
# Velocity P-wave (km/s) = 7.12569 7.38513 7.25657
#
# Compressibility (1/GPa) = 0.01869605
#
# Stress axis : x y z
#
# Youngs Moduli (GPa) = 39.43492 84.25056 46.74269
#
# Poissons Ratio (x) = 0.27765 0.52862
# Poissons Ratio (y) = 0.12996 0.25044
# Poissons Ratio (z) = 0.44598 0.45141
#
# Static dielectric constant tensor:
#      x y z
#    x 2.361740 0.000000 0.000000 
#    y 0.000000 3.355340 0.000000 
#    z 0.000000 0.000000 2.759720 
# 
# 
# High freq. dielectric constant tensor:
#      x y z
#    x 1.619920 0.000000 0.000000 
#    y 0.000000 1.620340 0.000000 
#    z 0.000000 0.000000 1.578040 
# 
# From -- ./inp_files/35180.got.cif
#   From: 2010.03.12/outbox.cif.g09.slc.cpg/sg51_18_cif.got.tgz:35180.got - 2010.04.16 13:43:02.
