data_PCOD8211762
_publ_section_title
;
Structure prediction by ZEFSAII (Michael W. Deem and Ramdas Pophale) SiO2 
 PCOD8211762
Probable space group: P M M A
;
_chemical_formula_sum "Si O2"
_cell_formula_units_Z 52
_cell_length_a 9.541764
_cell_length_b 17.293824
_cell_length_c 17.579394
_cell_angle_alpha 90.000000
_cell_angle_beta 90.000000
_cell_angle_gamma 90.000000
_cell_volume 2900.838866
_symmetry_space_group_name_H-M "P M M A"
_symmetry_group_IT_number 51
_symmetry_cell_setting 'orthorhombic'
loop_
_space_group_symop_operation_xyz
x,y,z
1/2-x,-y,z
1/2+x,-y,-z
-x,y,-z
-x,-y,-z
1/2+x,y,-z
1/2-x,y,z
x,-y,z
loop_
_atom_site_type_symbol
_atom_site_label
_atom_site_fract_x
_atom_site_fract_y
_atom_site_fract_z
Si Si1 0.083444 0.162069 0.075341
Si Si2 0.093444 0.000000 0.427661
Si Si3 0.008933 0.320155 0.850660
Si Si4 0.250000 0.592305 0.938305
Si Si5 0.405598 0.913957 0.803680
Si Si6 0.093876 0.768370 0.703270
Si Si7 0.250000 0.410056 0.116399
Si Si8 0.085988 0.169424 0.421738
O O1 0.250000 0.154816 0.063985
O O2 0.041404 0.247218 0.101304
O O3 0.029847 0.100294 0.136614
O O4 0.000000 0.141122 0.000000
O O5 0.069071 0.917659 0.384576
O O6 0.000000 0.000000 0.500000
O O7 0.250000 0.000000 0.459745
O O8 0.117517 0.368480 0.900069
O O9 0.065503 0.295278 0.768257
O O10 0.880834 0.377055 0.837832
O O11 0.250000 0.500000 0.924966
O O12 0.250000 0.612995 0.027406
O O13 0.250000 0.904815 0.841780
O O14 0.417055 0.854447 0.735404
O O15 0.424842 0.000000 0.770159
O O16 0.250000 0.752968 0.670892
O O17 0.979757 0.766631 0.635598
O O18 0.250000 0.500000 0.126286
O O19 0.250000 0.189400 0.434842
O O20 0.000000 0.174805 0.500000
#
# Coordination Sequence:
#
# PCOD8211762 Si02
#       8
#     8   4   8   4   8   8   4   8
#     4  11  22  34  53  74  97 137 181 228 282 329
#     4   8  16  30  46  74 108 142 175 220 275 325
#     4  11  22  37  55  81 114 148 185 225 272 334
#     4  11  22  38  60  86 116 152 185 224 276 332
#     4   9  20  37  53  72  99 135 183 234 282 327
#     4  10  21  36  55  77 109 149 185 227 276 327
#     4  11  22  36  58  88 118 146 183 230 274 326
#     4  10  20  34  55  81 111 143 185 229 277 334
#
# _framework density 17.925847999999998
#
# number of rings (size 3 to 8) (size 9 to 14) (size 15 to 20)
#    0.000    1.846    1.538    2.769    4.308    3.077 
#    0.000    0.000    0.000    0.000    0.000    0.000 
#    0.000    3.692    0.000    0.000    0.000    0.000 
#
# Total GULP energy -644396.734852 kJ/mol
# GULP energy per Si atom -12392.244901 kJ/mol
# Density = 1.788505 g / cm^3
# Si number density = 17.925848 Si / 1000 Ang^3
#
#
#
# Elastic Constant Matrix: (Units=GPa)
#
#
# Indices 1 2 3 4 5 6 
#
# 1 141.0104 30.6534 41.0075 0.0000 0.0000 0.0000
# 2 30.6534 69.6613 28.2765 0.0000 0.0000 0.0000
# 3 41.0075 28.2765 55.7944 0.0000 0.0000 0.0000
# 4 0.0000 0.0000 0.0000 22.4294 0.0000 0.0000
# 5 0.0000 0.0000 0.0000 0.0000 33.4905 0.0000
# 6 0.0000 0.0000 0.0000 0.0000 0.0000 27.7450
#
#
#
# Elastic Compliance Matrix: (Units=1/GPa)
#
#
# Indices 1 2 3 4 5 6 
#
# 1 0.009165 -0.001635 -0.005907 0.000000 0.000000 0.000000
# 2 -0.001635 0.018365 -0.008106 0.000000 0.000000 0.000000
# 3 -0.005907 -0.008106 0.026373 0.000000 0.000000 0.000000
# 4 0.000000 0.000000 0.000000 0.044584 0.000000 0.000000
# 5 0.000000 0.000000 0.000000 0.000000 0.029859 0.000000
# 6 0.000000 0.000000 0.000000 0.000000 0.000000 0.036042
#
#
# Mechanical properties :
#
#
# Convention : Reuss Voigt Hill
#
# Bulk Modulus (GPa) = 44.23516 51.81567 48.02541
# Shear Modulus (GPa) = 24.60388 27.83491 26.21939
#
# Velocity S-wave (km/s) = 3.70880 3.94481 3.82862
# Velocity P-wave (km/s) = 6.56281 7.05103 6.81130
#
# Compressibility (1/GPa) = 0.02260645
#
# Stress axis : x y z
#
# Youngs Moduli (GPa) = 109.10996 54.45208 37.91812
#
# Poissons Ratio (x) = 0.08903 0.22400
# Poissons Ratio (y) = 0.17840 0.30735
# Poissons Ratio (z) = 0.64456 0.44136
#
# Static dielectric constant tensor:
#      x y z
#    x 3.616280 0.000000 0.000000 
#    y 0.000000 3.295150 0.000000 
#    z 0.000000 0.000000 3.106340 
# 
# 
# High freq. dielectric constant tensor:
#      x y z
#    x 1.717260 0.000000 0.000000 
#    y 0.000000 1.673970 0.000000 
#    z 0.000000 0.000000 1.666040 
# 
# From -- ./inp_files/27996.got.cif
#   From: 2010.03.12/outbox.cif.g09.slc.cpg/sg51_14_cif.got.tgz:27996.got - 2010.04.16 13:43:02.
