data_PCOD8211750
_publ_section_title
;
Structure prediction by ZEFSAII (Michael W. Deem and Ramdas Pophale) SiO2 
 PCOD8211750
Probable space group: P M M A
;
_chemical_formula_sum "Si O2"
_cell_formula_units_Z 44
_cell_length_a 8.769517
_cell_length_b 28.713091
_cell_length_c 9.298498
_cell_angle_alpha 90.000000
_cell_angle_beta 90.000000
_cell_angle_gamma 90.000000
_cell_volume 2341.361235
_symmetry_space_group_name_H-M "P M M A"
_symmetry_group_IT_number 51
_symmetry_cell_setting 'orthorhombic'
loop_
_space_group_symop_operation_xyz
x,y,z
1/2-x,-y,z
1/2+x,-y,-z
-x,y,-z
-x,-y,-z
1/2+x,y,-z
1/2-x,y,z
x,-y,z
loop_
_atom_site_type_symbol
_atom_site_label
_atom_site_fract_x
_atom_site_fract_y
_atom_site_fract_z
Si Si1 0.927922 0.672761 0.156517
Si Si2 0.070019 0.417061 0.658404
Si Si3 0.428451 0.764499 0.156256
Si Si4 0.571031 0.948555 0.653923
Si Si5 0.431926 0.500000 0.159341
Si Si6 0.428526 0.865933 0.154736
O O1 0.750000 0.678349 0.131627
O O2 0.966446 0.632062 0.267644
O O3 0.993080 0.720044 0.232519
O O4 0.000000 0.662663 0.000000
O O5 0.250000 0.427281 0.649994
O O6 0.000000 0.417745 0.500000
O O7 0.988644 0.455129 0.755792
O O8 0.250000 0.754882 0.146134
O O9 0.461956 0.815155 0.228729
O O10 0.500000 0.766529 0.000000
O O11 0.500000 0.942148 0.500000
O O12 0.750000 0.941941 0.638089
O O13 0.500213 0.907931 0.752609
O O14 0.531667 0.000000 0.717049
O O15 0.250000 0.500000 0.149491
O O16 0.500000 0.500000 0.000000
O O17 0.250000 0.873140 0.135801
O O18 0.500000 0.868940 0.000000
#
# Coordination Sequence:
#
# PCOD8211750 Si02
#       6
#     8   8   8   8   4   8
#     4  10  20  34  55  81 107 138 178 219 259 307
#     4  11  24  41  60  84 115 149 183 222 270 318
#     4   9  16  28  48  72 101 134 168 209 256 305
#     4   9  18  33  50  68  94 128 166 207 251 303
#     4  12  25  42  65  90 116 146 184 226 265 314
#     4   9  18  31  48  73 101 129 164 208 257 306
#
# _framework density 18.792487999999999
#
# number of rings (size 3 to 8) (size 9 to 14) (size 15 to 20)
#    0.000    2.182    0.000    4.364    0.000    6.182 
#    0.000    0.909    0.000    4.364    0.000    0.000 
#    0.000    0.000    0.000    0.000    0.000    0.000 
#
# Total GULP energy -545283.073220 kJ/mol
# GULP energy per Si atom -12392.797119 kJ/mol
# Density = 1.874972 g / cm^3
# Si number density = 18.792488 Si / 1000 Ang^3
#
#
#
# Elastic Constant Matrix: (Units=GPa)
#
#
# Indices 1 2 3 4 5 6 
#
# 1 93.2057 76.0587 49.4012 0.0000 0.0000 0.0000
# 2 76.0587 197.9096 82.4323 0.0000 0.0000 0.0000
# 3 49.4012 82.4323 99.9100 0.0000 0.0000 0.0000
# 4 0.0000 0.0000 0.0000 -19.2823 0.0000 0.0000
# 5 0.0000 0.0000 0.0000 0.0000 27.1554 0.0000
# 6 0.0000 0.0000 0.0000 0.0000 0.0000 27.0224
#
#
#
# Elastic Compliance Matrix: (Units=1/GPa)
#
#
# Indices 1 2 3 4 5 6 
#
# 1 0.016896 -0.004591 -0.004566 0.000000 0.000000 0.000000
# 2 -0.004591 0.008946 -0.005111 0.000000 0.000000 0.000000
# 3 -0.004566 -0.005111 0.016483 0.000000 0.000000 0.000000
# 4 0.000000 0.000000 0.000000 -0.051861 0.000000 0.000000
# 5 0.000000 0.000000 0.000000 0.000000 0.036825 0.000000
# 6 0.000000 0.000000 0.000000 0.000000 0.000000 0.037006
#
#
# Mechanical properties :
#
#
# Convention : Reuss Voigt Hill
#
# Bulk Modulus (GPa) = 72.52264 89.64551 81.08407
# Shear Modulus (GPa) = 51.31964 19.18798 35.25381
#
# Velocity S-wave (km/s) = 5.23143 3.19885 4.33593
# Velocity P-wave (km/s) = 8.66981 7.83900 8.26485
#
# Compressibility (1/GPa) = 0.01378880
#
# Stress axis : x y z
#
# Youngs Moduli (GPa) = 59.18637 111.78076 60.66677
#
# Poissons Ratio (x) = 0.51323 0.27701
# Poissons Ratio (y) = 0.27175 0.31006
# Poissons Ratio (z) = 0.27025 0.57129
#
# Static dielectric constant tensor:
#      x y z
#    x 3.544520 0.000000 0.000000 
#    y 0.000000 4.399960 0.000000 
#    z 0.000000 0.000000 3.162080 
# 
# 
# High freq. dielectric constant tensor:
#      x y z
#    x 1.738360 0.000000 0.000000 
#    y 0.000000 1.760320 0.000000 
#    z 0.000000 0.000000 1.697760 
# 
# From -- ./inp_files/5745.got.cif
#   From: 2010.03.12/outbox.cif.g09.slc.cpg/sg51_3_cif.got.tgz:5745.got - 2010.04.16 13:43:02.
