data_PCOD8211637
_publ_section_title
;
Structure prediction by ZEFSAII (Michael W. Deem and Ramdas Pophale) SiO2 
 PCOD8211637
Probable space group: P M M A
;
_chemical_formula_sum "Si O2"
_cell_formula_units_Z 48
_cell_length_a 9.025834
_cell_length_b 9.284165
_cell_length_c 31.061368
_cell_angle_alpha 90.000000
_cell_angle_beta 90.000000
_cell_angle_gamma 90.000000
_cell_volume 2602.859770
_symmetry_space_group_name_H-M "P M M A"
_symmetry_group_IT_number 51
_symmetry_cell_setting 'orthorhombic'
loop_
_space_group_symop_operation_xyz
x,y,z
1/2-x,-y,z
1/2+x,-y,-z
-x,y,-z
-x,-y,-z
1/2+x,y,-z
1/2-x,y,z
x,-y,z
loop_
_atom_site_type_symbol
_atom_site_label
_atom_site_fract_x
_atom_site_fract_y
_atom_site_fract_z
Si Si1 0.075869 0.165651 0.543423
Si Si2 0.416998 0.828752 0.205599
Si Si3 0.926353 0.662668 0.374246
Si Si4 0.923122 0.666561 0.955821
Si Si5 0.423224 0.167336 0.708859
Si Si6 0.580227 0.829127 0.120500
O O1 0.250000 0.186198 0.538095
O O2 0.012856 0.258055 0.583215
O O3 0.000000 0.223019 0.500000
O O4 0.033786 0.000000 0.552155
O O5 0.250000 0.768593 0.202556
O O6 0.492065 0.772398 0.249356
O O7 0.510199 0.771435 0.165004
O O8 0.418219 0.000000 0.205695
O O9 0.750000 0.666926 0.374596
O O10 0.986938 0.500000 0.373666
O O11 0.984584 0.745172 0.332046
O O12 0.750000 0.698463 0.960023
O O13 0.955601 0.500000 0.945634
O O14 0.989400 0.761986 0.918226
O O15 0.000000 0.714130 0.000000
O O16 0.250000 0.193517 0.716545
O O17 0.456965 0.000000 0.700450
O O18 0.750000 0.778108 0.118503
O O19 0.567051 0.000000 0.117174
#
# Coordination Sequence:
#
# PCOD8211637 Si02
#       6
#     8   8   8   8   8   8
#     4   9  17  30  48  69  92 119 153 192 232 276
#     4   9  17  30  49  73 100 129 161 200 246 293
#     4   9  17  29  46  68  93 121 154 192 234 280
#     4  10  21  37  56  77 103 137 175 213 255 304
#     4   9  16  28  48  70  90 117 156 197 234 278
#     4  10  20  34  54  80 107 135 170 212 256 302
#
# _framework density 18.441254000000001
#
# number of rings (size 3 to 8) (size 9 to 14) (size 15 to 20)
#    0.000    2.667    0.000    2.000    0.000    6.667 
#    0.000    1.667    0.000    8.500    0.000    0.000 
#    0.000    0.000    0.000    0.000    0.000    0.000 
#
# Total GULP energy -595262.252517 kJ/mol
# GULP energy per Si atom -12401.296927 kJ/mol
# Density = 1.839928 g / cm^3
# Si number density = 18.441254 Si / 1000 Ang^3
#
#
#
# Elastic Constant Matrix: (Units=GPa)
#
#
# Indices 1 2 3 4 5 6 
#
# 1 79.8713 29.9742 62.1642 0.0000 0.0000 0.0000
# 2 29.9742 58.7984 60.2382 0.0000 0.0000 0.0000
# 3 62.1642 60.2382 185.9400 0.0000 0.0000 0.0000
# 4 0.0000 0.0000 0.0000 3.5624 0.0000 0.0000
# 5 0.0000 0.0000 0.0000 0.0000 35.0216 0.0000
# 6 0.0000 0.0000 0.0000 0.0000 0.0000 16.9218
#
#
#
# Elastic Compliance Matrix: (Units=1/GPa)
#
#
# Indices 1 2 3 4 5 6 
#
# 1 0.017660 -0.004421 -0.004472 0.000000 0.000000 0.000000
# 2 -0.004421 0.026563 -0.007127 0.000000 0.000000 0.000000
# 3 -0.004472 -0.007127 0.009182 0.000000 0.000000 0.000000
# 4 0.000000 0.000000 0.000000 0.280707 0.000000 0.000000
# 5 0.000000 0.000000 0.000000 0.000000 0.028554 0.000000
# 6 0.000000 0.000000 0.000000 0.000000 0.000000 0.059095
#
#
# Mechanical properties :
#
#
# Convention : Reuss Voigt Hill
#
# Bulk Modulus (GPa) = 46.80754 69.92919 58.36837
# Shear Modulus (GPa) = 10.84778 22.58337 16.71558
#
# Velocity S-wave (km/s) = 2.42799 3.50324 3.01395
# Velocity P-wave (km/s) = 5.77038 7.37332 6.62054
#
# Compressibility (1/GPa) = 0.02136408
#
# Stress axis : x y z
#
# Youngs Moduli (GPa) = 56.62599 37.64620 108.90751
#
# Poissons Ratio (x) = 0.16645 0.48700
# Poissons Ratio (y) = 0.25036 0.77622
# Poissons Ratio (z) = 0.25321 0.26832
#
# Static dielectric constant tensor:
#      x y z
#    x 3.440160 0.000000 0.000000 
#    y 0.000000 3.213510 0.000000 
#    z 0.000000 0.000000 3.637830 
# 
# 
# High freq. dielectric constant tensor:
#      x y z
#    x 1.702210 0.000000 0.000000 
#    y 0.000000 1.689430 0.000000 
#    z 0.000000 0.000000 1.732680 
# 
# From -- ./inp_files/36978.got.cif
#   From: 2010.03.12/outbox.cif.g09.slc.cpg/sg51_19_cif.got.tgz:36978.got - 2010.04.16 13:43:02.
