data_PCOD8211132
_publ_section_title
;
Structure prediction by ZEFSAII (Michael W. Deem and Ramdas Pophale) SiO2 
 PCOD8211132
Probable space group: P M M A
;
_chemical_formula_sum "Si O2"
_cell_formula_units_Z 64
_cell_length_a 14.451663
_cell_length_b 9.089317
_cell_length_c 24.567418
_cell_angle_alpha 90.000000
_cell_angle_beta 90.000000
_cell_angle_gamma 90.000000
_cell_volume 3227.071523
_symmetry_space_group_name_H-M "P M M A"
_symmetry_group_IT_number 51
_symmetry_cell_setting 'orthorhombic'
loop_
_space_group_symop_operation_xyz
x,y,z
1/2-x,-y,z
1/2+x,-y,-z
-x,y,-z
-x,-y,-z
1/2+x,y,-z
1/2-x,y,z
x,-y,z
loop_
_atom_site_type_symbol
_atom_site_label
_atom_site_fract_x
_atom_site_fract_y
_atom_site_fract_z
Si Si1 0.853403 0.335957 0.880958
Si Si2 0.048291 0.831619 0.735973
Si Si3 0.522725 0.327125 0.368440
Si Si4 0.355367 0.824901 0.847369
Si Si5 0.856542 0.827047 0.582092
Si Si6 0.856156 0.668130 0.471759
Si Si7 0.993432 0.826661 0.060605
Si Si8 0.149807 0.163436 0.225735
O O1 0.750000 0.333378 0.904685
O O2 0.895877 0.500000 0.886473
O O3 0.909845 0.214963 0.913243
O O4 0.853837 0.291451 0.818280
O O5 0.093433 0.770100 0.792121
O O6 0.078544 0.735334 0.684120
O O7 0.936841 0.815419 0.734930
O O8 0.079578 0.000000 0.727466
O O9 0.510537 0.500000 0.361276
O O10 0.421782 0.253041 0.374110
O O11 0.583088 0.283916 0.420585
O O12 0.250000 0.765094 0.848727
O O13 0.409862 0.764695 0.901036
O O14 0.357023 0.000000 0.848139
O O15 0.750000 0.787032 0.595338
O O16 0.883279 0.771084 0.521985
O O17 0.874172 0.000000 0.585136
O O18 0.750000 0.688796 0.454711
O O19 0.876941 0.500000 0.488986
O O20 0.983129 0.000000 0.056853
O O21 0.000000 0.757615 0.000000
O O22 0.250000 0.174295 0.256599
O O23 0.141333 0.000000 0.198558
#
# Coordination Sequence:
#
# PCOD8211132 Si02
#       8
#     8   8   8   8   8   8   8   8
#     4  10  20  33  52  79 111 144 176 217 272 331
#     4  10  20  35  54  77 107 146 187 230 282 332
#     4  11  23  36  54  82 114 148 187 232 279 332
#     4   9  18  35  57  81 111 146 186 233 283 332
#     4  10  21  37  58  84 113 146 185 231 282 336
#     4   9  19  37  58  79 109 149 188 229 281 337
#     4  10  20  35  58  86 113 145 188 235 280 330
#     4   9  17  32  55  78 100 132 177 226 274 328
#
# _framework density 19.832222000000002
#
# number of rings (size 3 to 8) (size 9 to 14) (size 15 to 20)
#    0.000    2.250    1.250    1.500    0.000    6.250 
#    0.000    2.500    0.000    1.125    0.000    0.000 
#    0.000    0.000    0.000    0.000    0.000    0.000 
#
# Total GULP energy -793286.751903 kJ/mol
# GULP energy per Si atom -12395.105498 kJ/mol
# Density = 1.978708 g / cm^3
# Si number density = 19.832222 Si / 1000 Ang^3
#
#
#
# Elastic Constant Matrix: (Units=GPa)
#
#
# Indices 1 2 3 4 5 6 
#
# 1 92.9312 28.2860 46.3070 0.0000 0.0000 0.0000
# 2 28.2860 40.3163 35.3943 0.0000 0.0000 0.0000
# 3 46.3070 35.3943 116.1065 0.0000 0.0000 0.0000
# 4 0.0000 0.0000 0.0000 13.7593 0.0000 0.0000
# 5 0.0000 0.0000 0.0000 0.0000 14.5589 0.0000
# 6 0.0000 0.0000 0.0000 0.0000 0.0000 18.7242
#
#
#
# Elastic Compliance Matrix: (Units=1/GPa)
#
#
# Indices 1 2 3 4 5 6 
#
# 1 0.014779 -0.007092 -0.003732 0.000000 0.000000 0.000000
# 2 -0.007092 0.037271 -0.008533 0.000000 0.000000 0.000000
# 3 -0.003732 -0.008533 0.012703 0.000000 0.000000 0.000000
# 4 0.000000 0.000000 0.000000 0.072678 0.000000 0.000000
# 5 0.000000 0.000000 0.000000 0.000000 0.068686 0.000000
# 6 0.000000 0.000000 0.000000 0.000000 0.000000 0.053407
#
#
# Mechanical properties :
#
#
# Convention : Reuss Voigt Hill
#
# Bulk Modulus (GPa) = 38.40658 52.14760 45.27709
# Shear Modulus (GPa) = 16.29091 18.69960 17.49525
#
# Velocity S-wave (km/s) = 2.86918 3.07398 2.97335
# Velocity P-wave (km/s) = 5.51217 6.24104 5.88790
#
# Compressibility (1/GPa) = 0.02603720
#
# Stress axis : x y z
#
# Youngs Moduli (GPa) = 67.66260 26.83028 78.72368
#
# Poissons Ratio (x) = 0.19029 0.29382
# Poissons Ratio (y) = 0.47989 0.67177
# Poissons Ratio (z) = 0.25254 0.22895
#
# Static dielectric constant tensor:
#      x y z
#    x 3.799540 0.000000 0.000000 
#    y 0.000000 3.413530 0.000000 
#    z 0.000000 0.000000 3.612840 
# 
# 
# High freq. dielectric constant tensor:
#      x y z
#    x 1.777060 0.000000 0.000000 
#    y 0.000000 1.752210 0.000000 
#    z 0.000000 0.000000 1.764900 
# 
# From -- ./inp_files/35736.got.cif
#   From: 2010.03.12/outbox.cif.g09.slc.cpg/sg51_18_cif.got.tgz:35736.got - 2010.04.16 13:43:02.
