data_PCOD8211746
_publ_section_title
;
Structure prediction by ZEFSAII (Michael W. Deem and Ramdas Pophale) SiO2 
 PCOD8211746
Probable space group: P M M A
;
_chemical_formula_sum "Si O2"
_cell_formula_units_Z 64
_cell_length_a 18.688333
_cell_length_b 14.293028
_cell_length_c 12.721194
_cell_angle_alpha 90.000000
_cell_angle_beta 90.000000
_cell_angle_gamma 90.000000
_cell_volume 3397.994599
_symmetry_space_group_name_H-M "P M M A"
_symmetry_group_IT_number 51
_symmetry_cell_setting 'orthorhombic'
loop_
_space_group_symop_operation_xyz
x,y,z
1/2-x,-y,z
1/2+x,-y,-z
-x,y,-z
-x,-y,-z
1/2+x,y,-z
1/2-x,y,z
x,-y,z
loop_
_atom_site_type_symbol
_atom_site_label
_atom_site_fract_x
_atom_site_fract_y
_atom_site_fract_z
Si Si1 0.079011 0.102916 0.018263
Si Si2 0.918286 0.898622 0.735808
Si Si3 0.165596 0.602368 0.435077
Si Si4 0.664561 0.264901 0.378636
Si Si5 0.165670 0.275909 0.007428
Si Si6 0.833737 0.723131 0.755020
Si Si7 0.834725 0.395357 0.185846
Si Si8 0.451110 0.892521 0.599516
O O1 0.089444 0.000000 0.965509
O O2 0.091252 0.094064 0.140945
O O3 0.134364 0.176411 0.968541
O O4 0.000000 0.142173 0.000000
O O5 0.867269 0.814741 0.699104
O O6 0.000185 0.878112 0.703317
O O7 0.895356 0.000000 0.686105
O O8 0.250000 0.594475 0.446317
O O9 0.130832 0.500000 0.452416
O O10 0.138332 0.673834 0.522640
O O11 0.144694 0.636013 0.317920
O O12 0.750000 0.243584 0.379211
O O13 0.640564 0.323715 0.276130
O O14 0.620460 0.168671 0.386002
O O15 0.250000 0.265880 0.003149
O O16 0.138693 0.298149 0.126341
O O17 0.139497 0.356764 0.927941
O O18 0.750000 0.741296 0.756383
O O19 0.750000 0.402672 0.188897
O O20 0.867030 0.500000 0.202451
O O21 0.500000 0.862159 0.500000
O O22 0.426041 0.000000 0.587135
#
# Coordination Sequence:
#
# PCOD8211746 Si02
#       8
#     8   8   8   8   8   8   8   8
#     4   9  18  31  49  72  97 133 176 209 250 309
#     4   9  18  32  49  71  99 134 170 202 246 307
#     4   9  17  30  50  75 100 126 162 209 255 300
#     4  10  20  34  55  81 104 133 173 213 254 299
#     4   9  18  31  49  77 106 134 171 217 266 307
#     4   9  17  30  50  77 104 131 169 216 263 304
#     4   9  18  33  53  77 105 138 176 215 258 311
#     4  10  21  36  54  77 106 139 171 204 253 313
#
# _framework density 18.834638000000002
#
# number of rings (size 3 to 8) (size 9 to 14) (size 15 to 20)
#    0.000    2.750    0.000    1.125    1.750    2.750 
#    0.000    5.000    0.000   13.875    0.000    0.000 
#    0.000    0.000    0.000    0.000    0.000    0.000 
#
# Total GULP energy -793123.277159 kJ/mol
# GULP energy per Si atom -12392.551206 kJ/mol
# Density = 1.879177 g / cm^3
# Si number density = 18.834638 Si / 1000 Ang^3
#
#
#
# Elastic Constant Matrix: (Units=GPa)
#
#
# Indices 1 2 3 4 5 6 
#
# 1 37.9192 46.5294 26.9300 0.0000 0.0000 0.0000
# 2 46.5294 136.6971 54.7080 0.0000 0.0000 0.0000
# 3 26.9300 54.7080 77.3565 0.0000 0.0000 0.0000
# 4 0.0000 0.0000 0.0000 23.2804 0.0000 0.0000
# 5 0.0000 0.0000 0.0000 0.0000 20.0458 0.0000
# 6 0.0000 0.0000 0.0000 0.0000 0.0000 20.1624
#
#
#
# Elastic Compliance Matrix: (Units=1/GPa)
#
#
# Indices 1 2 3 4 5 6 
#
# 1 0.047992 -0.013458 -0.007189 0.000000 0.000000 0.000000
# 2 -0.013458 0.013978 -0.005200 0.000000 0.000000 0.000000
# 3 -0.007189 -0.005200 0.019107 0.000000 0.000000 0.000000
# 4 0.000000 0.000000 0.000000 0.042955 0.000000 0.000000
# 5 0.000000 0.000000 0.000000 0.000000 0.049886 0.000000
# 6 0.000000 0.000000 0.000000 0.000000 0.000000 0.049597
#
#
# Mechanical properties :
#
#
# Convention : Reuss Voigt Hill
#
# Bulk Modulus (GPa) = 34.03481 56.47861 45.25671
# Shear Modulus (GPa) = 17.54360 20.95140 19.24750
#
# Velocity S-wave (km/s) = 3.05528 3.33886 3.20022
# Velocity P-wave (km/s) = 5.52774 6.70192 6.14295
#
# Compressibility (1/GPa) = 0.02938169
#
# Stress axis : x y z
#
# Youngs Moduli (GPa) = 20.83678 71.54326 52.33554
#
# Poissons Ratio (x) = 0.96286 0.37626
# Poissons Ratio (y) = 0.28043 0.27214
# Poissons Ratio (z) = 0.14980 0.37202
#
# Static dielectric constant tensor:
#      x y z
#    x 3.435900 0.000000 0.000000 
#    y 0.000000 3.927260 0.000000 
#    z 0.000000 0.000000 3.676800 
# 
# 
# High freq. dielectric constant tensor:
#      x y z
#    x 1.690290 0.000000 0.000000 
#    y 0.000000 1.736930 0.000000 
#    z 0.000000 0.000000 1.737030 
# 
# From -- ./inp_files/17586.got.cif
#   From: 2010.03.12/outbox.cif.g09.slc.cpg/sg51_9_cif.got.tgz:17586.got - 2010.04.16 13:43:02.
