data_PCOD8211747
_publ_section_title
;
Structure prediction by ZEFSAII (Michael W. Deem and Ramdas Pophale) SiO2 
 PCOD8211747
Probable space group: P M M A
;
_chemical_formula_sum "Si O2"
_cell_formula_units_Z 64
_cell_length_a 18.990300
_cell_length_b 9.136383
_cell_length_c 20.369193
_cell_angle_alpha 90.000000
_cell_angle_beta 90.000000
_cell_angle_gamma 90.000000
_cell_volume 3534.109047
_symmetry_space_group_name_H-M "P M M A"
_symmetry_group_IT_number 51
_symmetry_cell_setting 'orthorhombic'
loop_
_space_group_symop_operation_xyz
x,y,z
1/2-x,-y,z
1/2+x,-y,-z
-x,y,-z
-x,-y,-z
1/2+x,y,-z
1/2-x,y,z
x,-y,z
loop_
_atom_site_type_symbol
_atom_site_label
_atom_site_fract_x
_atom_site_fract_y
_atom_site_fract_z
Si Si1 0.666112 0.664976 0.082991
Si Si2 0.169518 0.830113 0.788541
Si Si3 0.084780 0.326940 0.301152
Si Si4 0.830920 0.670086 0.828277
Si Si5 0.166096 0.165068 0.043218
Si Si6 0.440350 0.827702 0.678071
Si Si7 0.331146 0.828103 0.415774
Si Si8 0.570940 0.172469 0.468681
O O1 0.750000 0.668606 0.081116
O O2 0.637194 0.500000 0.081391
O O3 0.639231 0.741536 0.149412
O O4 0.635396 0.750011 0.019921
O O5 0.250000 0.786773 0.773043
O O6 0.124803 0.788759 0.724698
O O7 0.163206 0.000000 0.806549
O O8 0.079801 0.500000 0.310431
O O9 0.124619 0.283463 0.234730
O O10 0.127568 0.261106 0.361380
O O11 0.007824 0.258632 0.296406
O O12 0.750000 0.711197 0.813729
O O13 0.838704 0.500000 0.845006
O O14 0.861041 0.758358 0.890460
O O15 0.250000 0.169197 0.041465
O O16 0.137407 0.000000 0.041506
O O17 0.419262 0.770264 0.605508
O O18 0.457548 0.000000 0.678362
O O19 0.250000 0.781901 0.414817
O O20 0.362046 0.784124 0.487043
O O21 0.341530 0.000000 0.402043
O O22 0.500000 0.241564 0.500000
O O23 0.562269 0.000000 0.466213
#
# Coordination Sequence:
#
# PCOD8211747 Si02
#       8
#     8   8   8   8   8   8   8   8
#     4   9  16  27  46  71 101 137 171 206 253 310
#     4   9  18  32  51  77 105 132 168 217 267 311
#     4  11  22  35  52  74 105 142 178 215 259 313
#     4   9  18  32  48  68  98 135 172 211 257 307
#     4   9  16  26  44  72 102 131 167 212 257 302
#     4  10  20  35  56  77 103 139 176 215 261 314
#     4  10  20  34  55  81 105 134 176 222 266 314
#     4   9  16  31  54  76 101 132 168 212 260 310
#
# _framework density 18.109231000000001
#
# number of rings (size 3 to 8) (size 9 to 14) (size 15 to 20)
#    0.000    2.500    1.250    1.500    0.000    5.750 
#    0.000    5.000    0.000    0.750    0.000    7.000 
#    0.000    0.000    0.000    0.000    0.000    0.000 
#
# Total GULP energy -793609.547935 kJ/mol
# GULP energy per Si atom -12400.149186 kJ/mol
# Density = 1.806801 g / cm^3
# Si number density = 18.109231 Si / 1000 Ang^3
#
#
#
# Elastic Constant Matrix: (Units=GPa)
#
#
# Indices 1 2 3 4 5 6 
#
# 1 80.1283 36.2608 58.2936 0.0000 0.0000 0.0000
# 2 36.2608 78.1943 69.5820 0.0000 0.0000 0.0000
# 3 58.2936 69.5820 179.4188 0.0000 0.0000 0.0000
# 4 0.0000 0.0000 0.0000 13.1776 0.0000 0.0000
# 5 0.0000 0.0000 0.0000 0.0000 1.9444 0.0000
# 6 0.0000 0.0000 0.0000 0.0000 0.0000 17.8519
#
#
#
# Elastic Compliance Matrix: (Units=1/GPa)
#
#
# Indices 1 2 3 4 5 6 
#
# 1 0.017377 -0.004633 -0.003849 0.000000 0.000000 0.000000
# 2 -0.004633 0.020763 -0.006547 0.000000 0.000000 0.000000
# 3 -0.003849 -0.006547 0.009363 0.000000 0.000000 0.000000
# 4 0.000000 0.000000 0.000000 0.075886 0.000000 0.000000
# 5 0.000000 0.000000 0.000000 0.000000 0.514305 0.000000
# 6 0.000000 0.000000 0.000000 0.000000 0.000000 0.056016
#
#
# Mechanical properties :
#
#
# Convention : Reuss Voigt Hill
#
# Bulk Modulus (GPa) = 57.32332 74.00159 65.66245
# Shear Modulus (GPa) = 6.85323 18.16844 12.51083
#
# Velocity S-wave (km/s) = 1.94746 3.17088 2.63126
# Velocity P-wave (km/s) = 6.06463 7.37283 6.75050
#
# Compressibility (1/GPa) = 0.01744491
#
# Stress axis : x y z
#
# Youngs Moduli (GPa) = 57.54821 48.16247 106.80165
#
# Poissons Ratio (x) = 0.22314 0.41108
# Poissons Ratio (y) = 0.26662 0.69923
# Poissons Ratio (z) = 0.22150 0.31532
#
# Static dielectric constant tensor:
#      x y z
#    x 3.135650 0.000000 0.000000 
#    y 0.000000 3.277320 0.000000 
#    z 0.000000 0.000000 3.588140 
# 
# 
# High freq. dielectric constant tensor:
#      x y z
#    x 1.671220 0.000000 0.000000 
#    y 0.000000 1.689480 0.000000 
#    z 0.000000 0.000000 1.717440 
# 
# From -- ./inp_files/33754.got.cif
#   From: 2010.03.12/outbox.cif.g09.slc.cpg/sg51_17_cif.got.tgz:33754.got - 2010.04.16 13:43:02.
