data_PCOD8211288
_publ_section_title
;
Structure prediction by ZEFSAII (Michael W. Deem and Ramdas Pophale) SiO2 
 PCOD8211288
Probable space group: P M M A
;
_chemical_formula_sum "Si O2"
_cell_formula_units_Z 48
_cell_length_a 24.746787
_cell_length_b 9.013431
_cell_length_c 12.603088
_cell_angle_alpha 90.000000
_cell_angle_beta 90.000000
_cell_angle_gamma 90.000000
_cell_volume 2811.162348
_symmetry_space_group_name_H-M "P M M A"
_symmetry_group_IT_number 51
_symmetry_cell_setting 'orthorhombic'
loop_
_space_group_symop_operation_xyz
x,y,z
1/2-x,-y,z
1/2+x,-y,-z
-x,y,-z
-x,-y,-z
1/2+x,y,-z
1/2-x,y,z
x,-y,z
loop_
_atom_site_type_symbol
_atom_site_label
_atom_site_fract_x
_atom_site_fract_y
_atom_site_fract_z
Si Si1 0.185962 0.170074 0.768605
Si Si2 0.109603 0.825331 0.376365
Si Si3 0.187800 0.826818 0.188846
Si Si4 0.314248 0.332817 0.978152
Si Si5 0.991674 0.836738 0.375043
Si Si6 0.386259 0.675279 0.601151
O O1 0.250000 0.184504 0.761006
O O2 0.163858 0.240057 0.878129
O O3 0.162026 0.259533 0.670358
O O4 0.167140 0.000000 0.763859
O O5 0.153701 0.775955 0.290523
O O6 0.121342 0.734920 0.482635
O O7 0.049998 0.786825 0.328403
O O8 0.113215 0.000000 0.403267
O O9 0.250000 0.786257 0.212002
O O10 0.180672 0.000000 0.165585
O O11 0.164819 0.740811 0.086709
O O12 0.250000 0.330089 0.977862
O O13 0.336612 0.500000 0.970493
O O14 0.943882 0.722743 0.347299
O O15 0.000000 0.844679 0.500000
O O16 0.975397 0.000000 0.331771
O O17 0.382659 0.500000 0.600382
#
# Coordination Sequence:
#
# PCOD8211288 Si02
#       6
#     8   8   8   8   8   8
#     4  10  20  34  52  71  93 125 162 195 231 281
#     4   9  18  32  49  70  97 130 166 200 233 275
#     4   9  17  30  49  72  97 126 160 194 230 277
#     4   9  17  30  48  70  96 124 156 194 234 276
#     4   8  15  30  49  66  89 124 165 202 233 274
#     4  11  21  31  47  72 100 126 155 196 245 290
#
# _framework density 17.074788000000002
#
# number of rings (size 3 to 8) (size 9 to 14) (size 15 to 20)
#    0.000    2.667    0.000    3.500    0.000    7.333 
#    0.000    1.667    0.000    1.000    0.000    7.000 
#    0.000    0.000    0.000    0.000    0.000    0.000 
#
# Total GULP energy -595094.839248 kJ/mol
# GULP energy per Si atom -12397.809151 kJ/mol
# Density = 1.703593 g / cm^3
# Si number density = 17.074788 Si / 1000 Ang^3
#
#
#
# Elastic Constant Matrix: (Units=GPa)
#
#
# Indices 1 2 3 4 5 6 
#
# 1 55.4786 41.1288 43.9399 0.0000 0.0000 0.0000
# 2 41.1288 123.0385 67.5420 0.0000 0.0000 0.0000
# 3 43.9399 67.5420 99.7678 0.0000 0.0000 0.0000
# 4 0.0000 0.0000 0.0000 19.4504 0.0000 0.0000
# 5 0.0000 0.0000 0.0000 0.0000 3.5173 0.0000
# 6 0.0000 0.0000 0.0000 0.0000 0.0000 18.5059
#
#
#
# Elastic Compliance Matrix: (Units=1/GPa)
#
#
# Indices 1 2 3 4 5 6 
#
# 1 0.029027 -0.004273 -0.009891 0.000000 0.000000 0.000000
# 2 -0.004273 0.013564 -0.007300 0.000000 0.000000 0.000000
# 3 -0.009891 -0.007300 0.019322 0.000000 0.000000 0.000000
# 4 0.000000 0.000000 0.000000 0.051413 0.000000 0.000000
# 5 0.000000 0.000000 0.000000 0.000000 0.284305 0.000000
# 6 0.000000 0.000000 0.000000 0.000000 0.000000 0.054037
#
#
# Mechanical properties :
#
#
# Convention : Reuss Voigt Hill
#
# Bulk Modulus (GPa) = 52.67941 64.83402 58.75672
# Shear Modulus (GPa) = 9.98156 16.67301 13.32728
#
# Velocity S-wave (km/s) = 2.42043 3.12824 2.79682
# Velocity P-wave (km/s) = 6.22338 7.14849 6.70192
#
# Compressibility (1/GPa) = 0.01898275
#
# Stress axis : x y z
#
# Youngs Moduli (GPa) = 34.45098 73.72715 51.75504
#
# Poissons Ratio (x) = 0.31505 0.51191
# Poissons Ratio (y) = 0.14722 0.37783
# Poissons Ratio (z) = 0.34076 0.53824
#
# Static dielectric constant tensor:
#      x y z
#    x 3.336220 0.000000 0.000000 
#    y 0.000000 3.245350 0.000000 
#    z 0.000000 0.000000 3.097740 
# 
# 
# High freq. dielectric constant tensor:
#      x y z
#    x 1.642460 0.000000 0.000000 
#    y 0.000000 1.662170 0.000000 
#    z 0.000000 0.000000 1.642340 
# 
# From -- ./inp_files/18601.got.cif
#   From: 2010.03.12/outbox.cif.g09.slc.cpg/sg51_10_cif.got.tgz:18601.got - 2010.04.16 13:43:02.
