data_PCOD8211546
_publ_section_title
;
Structure prediction by ZEFSAII (Michael W. Deem and Ramdas Pophale) SiO2 
 PCOD8211546
Probable space group: P M M A
;
_chemical_formula_sum "Si O2"
_cell_formula_units_Z 40
_cell_length_a 8.491883
_cell_length_b 18.584733
_cell_length_c 13.699807
_cell_angle_alpha 90.000000
_cell_angle_beta 90.000000
_cell_angle_gamma 90.000000
_cell_volume 2162.095023
_symmetry_space_group_name_H-M "P M M A"
_symmetry_group_IT_number 51
_symmetry_cell_setting 'orthorhombic'
loop_
_space_group_symop_operation_xyz
x,y,z
1/2-x,-y,z
1/2+x,-y,-z
-x,y,-z
-x,-y,-z
1/2+x,y,-z
1/2-x,y,z
x,-y,z
loop_
_atom_site_type_symbol
_atom_site_label
_atom_site_fract_x
_atom_site_fract_y
_atom_site_fract_z
Si Si1 0.433872 0.291012 0.280324
Si Si2 0.066886 0.081754 0.220933
Si Si3 0.934240 0.417145 0.395058
Si Si4 0.065162 0.791667 0.896260
Si Si5 0.934553 0.162905 0.396567
O O1 0.250000 0.286489 0.258610
O O2 0.481282 0.371348 0.310999
O O3 0.525946 0.270021 0.182073
O O4 0.479347 0.236767 0.367167
O O5 0.250000 0.093994 0.243628
O O6 0.015575 0.132753 0.132135
O O7 0.969704 0.100853 0.318079
O O8 0.030328 0.000000 0.190625
O O9 0.750000 0.401484 0.393555
O O10 0.973915 0.500000 0.373102
O O11 0.000000 0.393963 0.500000
O O12 0.250000 0.803743 0.900967
O O13 0.000000 0.765828 0.000000
O O14 0.750000 0.177573 0.402037
O O15 0.000000 0.136308 0.500000
#
# Coordination Sequence:
#
# PCOD8211546 Si02
#       5
#     8   8   8   8   8
#     4  11  21  35  55  79 108 139 176 219 263 311
#     4  10  21  37  55  77 105 135 171 216 265 316
#     4  10  20  34  53  80 114 149 183 217 256 304
#     4  11  22  38  59  81 105 134 173 217 265 316
#     4  11  21  34  52  74 103 139 179 218 260 311
#
# _framework density 18.500574
#
# number of rings (size 3 to 8) (size 9 to 14) (size 15 to 20)
#    0.000    1.400    0.000    9.600    0.000    3.600 
#    0.000    0.000    0.000    0.600    0.000    0.000 
#    0.000    0.000    0.000    0.000    0.000    0.000 
#
# Total GULP energy -496229.880540 kJ/mol
# GULP energy per Si atom -12405.747013 kJ/mol
# Density = 1.845847 g / cm^3
# Si number density = 18.500574 Si / 1000 Ang^3
#
#
#
# Elastic Constant Matrix: (Units=GPa)
#
#
# Indices 1 2 3 4 5 6 
#
# 1 86.6711 25.1251 18.6920 0.0000 0.0000 0.0000
# 2 25.1251 98.0256 39.7413 0.0000 0.0000 0.0000
# 3 18.6920 39.7413 104.0002 0.0000 0.0000 0.0000
# 4 0.0000 0.0000 0.0000 11.5422 0.0000 0.0000
# 5 0.0000 0.0000 0.0000 0.0000 34.0518 0.0000
# 6 0.0000 0.0000 0.0000 0.0000 0.0000 30.0954
#
#
#
# Elastic Compliance Matrix: (Units=1/GPa)
#
#
# Indices 1 2 3 4 5 6 
#
# 1 0.012593 -0.002734 -0.001219 0.000000 0.000000 0.000000
# 2 -0.002734 0.012665 -0.004348 0.000000 0.000000 0.000000
# 3 -0.001219 -0.004348 0.011496 0.000000 0.000000 0.000000
# 4 0.000000 0.000000 0.000000 0.086638 0.000000 0.000000
# 5 0.000000 0.000000 0.000000 0.000000 0.029367 0.000000
# 6 0.000000 0.000000 0.000000 0.000000 0.000000 0.033228
#
#
# Mechanical properties :
#
#
# Convention : Reuss Voigt Hill
#
# Bulk Modulus (GPa) = 49.62117 50.64596 50.13356
# Shear Modulus (GPa) = 23.88842 28.81377 26.35109
#
# Velocity S-wave (km/s) = 3.59726 3.95074 3.77814
# Velocity P-wave (km/s) = 6.64329 6.94593 6.79630
#
# Compressibility (1/GPa) = 0.02015269
#
# Stress axis : x y z
#
# Youngs Moduli (GPa) = 79.40803 78.95795 86.98662
#
# Poissons Ratio (x) = 0.21585 0.10602
# Poissons Ratio (y) = 0.21708 0.37824
# Poissons Ratio (z) = 0.09678 0.34333
#
# Static dielectric constant tensor:
#      x y z
#    x 3.594240 0.000000 0.000000 
#    y 0.000000 3.341850 0.000000 
#    z 0.000000 0.000000 3.542790 
# 
# 
# High freq. dielectric constant tensor:
#      x y z
#    x 1.741030 0.000000 0.000000 
#    y 0.000000 1.707170 0.000000 
#    z 0.000000 0.000000 1.707930 
# 
# From -- ./inp_files/14001.got.cif
#   From: 2010.03.12/outbox.cif.g09.slc.cpg/sg51_8_cif.got.tgz:14001.got - 2010.04.16 13:43:02.
