data_PCOD8211902
_publ_section_title
;
Structure prediction by ZEFSAII (Michael W. Deem and Ramdas Pophale) SiO2 
 PCOD8211902
Probable space group: P M M A
;
_chemical_formula_sum "Si O2"
_cell_formula_units_Z 64
_cell_length_a 14.711470
_cell_length_b 9.299201
_cell_length_c 23.992164
_cell_angle_alpha 90.000000
_cell_angle_beta 90.000000
_cell_angle_gamma 90.000000
_cell_volume 3282.245994
_symmetry_space_group_name_H-M "P M M A"
_symmetry_group_IT_number 51
_symmetry_cell_setting 'orthorhombic'
loop_
_space_group_symop_operation_xyz
x,y,z
1/2-x,-y,z
1/2+x,-y,-z
-x,y,-z
-x,-y,-z
1/2+x,y,-z
1/2-x,y,z
x,-y,z
loop_
_atom_site_type_symbol
_atom_site_label
_atom_site_fract_x
_atom_site_fract_y
_atom_site_fract_z
Si Si1 0.654875 0.340228 0.885943
Si Si2 0.144154 0.336427 0.542966
Si Si3 0.520278 0.166249 0.373845
Si Si4 0.353325 0.332126 0.414904
Si Si5 0.023254 0.329975 0.936617
Si Si6 0.026742 0.835550 0.749165
Si Si7 0.349302 0.341349 0.244614
Si Si8 0.644626 0.829875 0.146514
O O1 0.750000 0.265610 0.906483
O O2 0.650970 0.500000 0.912873
O O3 0.563781 0.260665 0.904812
O O4 0.657537 0.353788 0.820821
O O5 0.250000 0.314407 0.555132
O O6 0.115086 0.500000 0.556444
O O7 0.088530 0.229258 0.581171
O O8 0.121770 0.300095 0.479037
O O9 0.422425 0.245644 0.375521
O O10 0.568398 0.183932 0.312916
O O11 0.503091 0.000000 0.387505
O O12 0.250000 0.282793 0.402247
O O13 0.363916 0.500000 0.402267
O O14 0.038715 0.500000 0.927248
O O15 0.109271 0.247666 0.909965
O O16 0.000000 0.292219 0.000000
O O17 0.090823 0.770487 0.798199
O O18 0.927638 0.768940 0.741906
O O19 0.011604 0.000000 0.764625
O O20 0.250000 0.291185 0.268107
O O21 0.372373 0.500000 0.269132
O O22 0.750000 0.789207 0.154634
O O23 0.632493 0.000000 0.139415
#
# Coordination Sequence:
#
# PCOD8211902 Si02
#       8
#     8   8   8   8   8   8   8   8
#     4   8  14  27  48  74 105 136 164 202 257 316
#     4   9  19  37  59  81 107 142 186 233 279 330
#     4  11  23  35  52  82 115 146 183 231 284 334
#     4   9  19  37  59  81 109 148 188 226 275 336
#     4  10  20  34  57  88 116 141 173 220 274 325
#     4  10  22  38  54  76 109 148 187 228 274 323
#     4   9  17  31  54  79 101 132 175 220 267 322
#     4  10  22  41  61  78 105 150 195 230 268 317
#
# _framework density 19.498843000000001
#
# number of rings (size 3 to 8) (size 9 to 14) (size 15 to 20)
#    0.000    2.500    1.250    2.250    0.000    5.750 
#    0.000    6.250    0.000    0.375    0.000    0.000 
#    0.000    0.000    0.000    0.000    0.000    0.000 
#
# Total GULP energy -792942.707086 kJ/mol
# GULP energy per Si atom -12389.729798 kJ/mol
# Density = 1.945446 g / cm^3
# Si number density = 19.498843 Si / 1000 Ang^3
#
#
#
# Elastic Constant Matrix: (Units=GPa)
#
#
# Indices 1 2 3 4 5 6 
#
# 1 101.2452 35.7445 47.1451 0.0000 0.0000 0.0000
# 2 35.7445 55.0525 39.4504 0.0000 0.0000 0.0000
# 3 47.1451 39.4504 99.8616 0.0000 0.0000 0.0000
# 4 0.0000 0.0000 0.0000 12.1881 0.0000 0.0000
# 5 0.0000 0.0000 0.0000 0.0000 8.2551 0.0000
# 6 0.0000 0.0000 0.0000 0.0000 0.0000 26.5753
#
#
#
# Elastic Compliance Matrix: (Units=1/GPa)
#
#
# Indices 1 2 3 4 5 6 
#
# 1 0.013974 -0.006061 -0.004203 0.000000 0.000000 0.000000
# 2 -0.006061 0.027966 -0.008187 0.000000 0.000000 0.000000
# 3 -0.004203 -0.008187 0.015232 0.000000 0.000000 0.000000
# 4 0.000000 0.000000 0.000000 0.082047 0.000000 0.000000
# 5 0.000000 0.000000 0.000000 0.000000 0.121137 0.000000
# 6 0.000000 0.000000 0.000000 0.000000 0.000000 0.037629
#
#
# Mechanical properties :
#
#
# Convention : Reuss Voigt Hill
#
# Bulk Modulus (GPa) = 49.33082 55.64880 52.48981
# Shear Modulus (GPa) = 14.63511 18.32499 16.48005
#
# Velocity S-wave (km/s) = 2.74261 3.06894 2.91035
# Velocity P-wave (km/s) = 5.94840 6.41556 6.18639
#
# Compressibility (1/GPa) = 0.02027130
#
# Stress axis : x y z
#
# Youngs Moduli (GPa) = 71.56178 35.75707 65.65124
#
# Poissons Ratio (x) = 0.21674 0.27590
# Poissons Ratio (y) = 0.43377 0.53746
# Poissons Ratio (z) = 0.30074 0.29273
#
# Static dielectric constant tensor:
#      x y z
#    x 3.341980 0.000000 0.000000 
#    y 0.000000 3.360400 0.000000 
#    z 0.000000 0.000000 3.607990 
# 
# 
# High freq. dielectric constant tensor:
#      x y z
#    x 1.766950 0.000000 0.000000 
#    y 0.000000 1.729940 0.000000 
#    z 0.000000 0.000000 1.762800 
# 
# From -- ./inp_files/35665.got.cif
#   From: 2010.03.12/outbox.cif.g09.slc.cpg/sg51_18_cif.got.tgz:35665.got - 2010.04.16 13:43:02.
