data_PCOD8211688
_publ_section_title
;
Structure prediction by ZEFSAII (Michael W. Deem and Ramdas Pophale) SiO2 
 PCOD8211688
Probable space group: P M M A
;
_chemical_formula_sum "Si O2"
_cell_formula_units_Z 48
_cell_length_a 8.904640
_cell_length_b 9.046313
_cell_length_c 30.947950
_cell_angle_alpha 90.000000
_cell_angle_beta 90.000000
_cell_angle_gamma 90.000000
_cell_volume 2492.986134
_symmetry_space_group_name_H-M "P M M A"
_symmetry_group_IT_number 51
_symmetry_cell_setting 'orthorhombic'
loop_
_space_group_symop_operation_xyz
x,y,z
1/2-x,-y,z
1/2+x,-y,-z
-x,y,-z
-x,-y,-z
1/2+x,y,-z
1/2-x,y,z
x,-y,z
loop_
_atom_site_type_symbol
_atom_site_label
_atom_site_fract_x
_atom_site_fract_y
_atom_site_fract_z
Si Si1 0.925881 0.170390 0.044424
Si Si2 0.078075 0.324673 0.296462
Si Si3 0.579801 0.324433 0.876316
Si Si4 0.076121 0.827389 0.623604
Si Si5 0.919429 0.675855 0.209661
Si Si6 0.426479 0.669355 0.455290
O O1 0.750000 0.197577 0.040804
O O2 0.989956 0.267601 0.082753
O O3 0.965741 0.000000 0.053355
O O4 0.000000 0.224878 0.000000
O O5 0.250000 0.272022 0.299822
O O6 0.066145 0.500000 0.300256
O O7 0.981763 0.255161 0.334331
O O8 0.010573 0.267370 0.251241
O O9 0.750000 0.265218 0.877568
O O10 0.575992 0.500000 0.876771
O O11 0.501078 0.262553 0.833052
O O12 0.250000 0.789151 0.616924
O O13 0.985842 0.773814 0.582130
O O14 0.048023 0.000000 0.629810
O O15 0.750000 0.738470 0.211290
O O16 0.917734 0.500000 0.208888
O O17 0.500000 0.720958 0.500000
O O18 0.250000 0.689715 0.459489
O O19 0.469799 0.500000 0.444641
#
# Coordination Sequence:
#
# PCOD8211688 Si02
#       6
#     8   8   8   8   8   8
#     4  10  21  37  56  77 103 138 179 221 266 318
#     4  10  20  35  57  83 109 140 180 223 267 318
#     4  10  20  34  54  81 111 141 175 218 267 318
#     4  11  24  39  55  79 112 148 184 223 269 319
#     4   9  17  31  53  80 109 141 176 217 266 317
#     4  10  21  38  61  87 112 141 180 224 269 319
#
# _framework density 19.254017000000001
#
# number of rings (size 3 to 8) (size 9 to 14) (size 15 to 20)
#    0.000    2.000    0.000    3.500    0.000   10.000 
#    0.000    0.833    0.000    5.000    0.000    0.000 
#    0.000    0.000    0.000    0.000    0.000    0.000 
#
# Total GULP energy -595400.419758 kJ/mol
# GULP energy per Si atom -12404.175412 kJ/mol
# Density = 1.921019 g / cm^3
# Si number density = 19.254017 Si / 1000 Ang^3
#
#
#
# Elastic Constant Matrix: (Units=GPa)
#
#
# Indices 1 2 3 4 5 6 
#
# 1 91.7233 23.9557 43.9698 0.0000 0.0000 0.0000
# 2 23.9557 21.6501 24.2125 0.0000 0.0000 0.0000
# 3 43.9698 24.2125 144.3077 0.0000 0.0000 0.0000
# 4 0.0000 0.0000 0.0000 9.8538 0.0000 0.0000
# 5 0.0000 0.0000 0.0000 0.0000 45.8240 0.0000
# 6 0.0000 0.0000 0.0000 0.0000 0.0000 24.8375
#
#
#
# Elastic Compliance Matrix: (Units=1/GPa)
#
#
# Indices 1 2 3 4 5 6 
#
# 1 0.015949 -0.015034 -0.002337 0.000000 0.000000 0.000000
# 2 -0.015034 0.071029 -0.007337 0.000000 0.000000 0.000000
# 3 -0.002337 -0.007337 0.008873 0.000000 0.000000 0.000000
# 4 0.000000 0.000000 0.000000 0.101484 0.000000 0.000000
# 5 0.000000 0.000000 0.000000 0.000000 0.021823 0.000000
# 6 0.000000 0.000000 0.000000 0.000000 0.000000 0.040262
#
#
# Mechanical properties :
#
#
# Convention : Reuss Voigt Hill
#
# Bulk Modulus (GPa) = 21.53533 49.10633 35.32083
# Shear Modulus (GPa) = 15.41722 27.13927 21.27824
#
# Velocity S-wave (km/s) = 2.83278 3.75845 3.32796
# Velocity P-wave (km/s) = 4.68067 6.66292 5.75774
#
# Compressibility (1/GPa) = 0.04643532
#
# Stress axis : x y z
#
# Youngs Moduli (GPa) = 62.69915 14.07878 112.70443
#
# Poissons Ratio (x) = 0.21166 0.26341
# Poissons Ratio (y) = 0.94261 0.82689
# Poissons Ratio (z) = 0.14654 0.10329
#
# Static dielectric constant tensor:
#      x y z
#    x 3.756340 0.000000 0.000000 
#    y 0.000000 3.256530 0.000000 
#    z 0.000000 0.000000 4.658260 
# 
# 
# High freq. dielectric constant tensor:
#      x y z
#    x 1.770570 0.000000 0.000000 
#    y 0.000000 1.719020 0.000000 
#    z 0.000000 0.000000 1.767070 
# 
# From -- ./inp_files/36892.got.cif
#   From: 2010.03.12/outbox.cif.g09.slc.cpg/sg51_19_cif.got.tgz:36892.got - 2010.04.16 13:43:02.
