data_PCOD8211490
_publ_section_title
;
Structure prediction by ZEFSAII (Michael W. Deem and Ramdas Pophale) SiO2 
 PCOD8211490
Probable space group: P M M A
;
_chemical_formula_sum "Si O2"
_cell_formula_units_Z 48
_cell_length_a 9.532917
_cell_length_b 29.138478
_cell_length_c 8.982961
_cell_angle_alpha 90.000000
_cell_angle_beta 90.000000
_cell_angle_gamma 90.000000
_cell_volume 2495.239228
_symmetry_space_group_name_H-M "P M M A"
_symmetry_group_IT_number 51
_symmetry_cell_setting 'orthorhombic'
loop_
_space_group_symop_operation_xyz
x,y,z
1/2-x,-y,z
1/2+x,-y,-z
-x,y,-z
-x,-y,-z
1/2+x,y,-z
1/2-x,y,z
x,-y,z
loop_
_atom_site_type_symbol
_atom_site_label
_atom_site_fract_x
_atom_site_fract_y
_atom_site_fract_z
Si Si1 0.250000 0.552438 0.689393
Si Si2 0.496400 0.388676 0.322662
Si Si3 0.086799 0.054185 0.854180
Si Si4 0.915525 0.882616 0.647486
Si Si5 0.916893 0.709816 0.651805
Si Si6 0.409115 0.795078 0.145611
Si Si7 0.250000 0.449373 0.333912
O O1 0.250000 0.500000 0.754367
O O2 0.373592 0.584758 0.747314
O O3 0.250000 0.548459 0.512035
O O4 0.500000 0.385622 0.500000
O O5 0.472253 0.336639 0.266967
O O6 0.377595 0.422139 0.266362
O O7 0.250000 0.071645 0.862956
O O8 0.000674 0.074547 0.715737
O O9 0.086251 0.000000 0.833929
O O10 0.000000 0.069301 0.000000
O O11 0.750000 0.894551 0.618285
O O12 0.929286 0.839764 0.755508
O O13 0.000000 0.869021 0.500000
O O14 0.750000 0.706534 0.618117
O O15 0.956275 0.750779 0.761738
O O16 0.000000 0.718948 0.500000
O O17 0.250000 0.789484 0.093265
O O18 0.500000 0.800609 0.000000
O O19 0.250000 0.500000 0.266504
#
# Coordination Sequence:
#
# PCOD8211490 Si02
#       7
#     4   8   8   8   8   8   4
#     4   9  16  24  36  58  93 133 171 209 252 311
#     4   9  16  25  39  61  94 131 169 210 257 314
#     4  10  21  38  61  89 123 163 205 247 291 339
#     4  11  23  39  61  88 120 155 195 241 291 346
#     4  10  20  34  53  77 107 139 177 221 270 328
#     4  10  23  41  59  83 111 143 184 230 281 337
#     4   9  14  22  36  58  89 131 169 203 252 311
#
# _framework density 19.236633000000001
#
# number of rings (size 3 to 8) (size 9 to 14) (size 15 to 20)
#    0.000    2.167    0.833    2.500    3.500    6.667 
#    0.000    0.000    0.000    0.000    0.000    0.000 
#    0.000    4.000    0.000    0.000    0.000    0.000 
#
# Total GULP energy -594808.933273 kJ/mol
# GULP energy per Si atom -12391.852777 kJ/mol
# Density = 1.919285 g / cm^3
# Si number density = 19.236633 Si / 1000 Ang^3
#
#
#
# Elastic Constant Matrix: (Units=GPa)
#
#
# Indices 1 2 3 4 5 6 
#
# 1 158.8228 49.2750 47.6930 0.0000 0.0000 0.0000
# 2 49.2750 84.1132 29.5292 0.0000 0.0000 0.0000
# 3 47.6930 29.5292 67.8493 0.0000 0.0000 0.0000
# 4 0.0000 0.0000 0.0000 -4.0445 0.0000 0.0000
# 5 0.0000 0.0000 0.0000 0.0000 26.8573 0.0000
# 6 0.0000 0.0000 0.0000 0.0000 0.0000 32.8073
#
#
#
# Elastic Compliance Matrix: (Units=1/GPa)
#
#
# Indices 1 2 3 4 5 6 
#
# 1 0.008781 -0.003514 -0.004643 0.000000 0.000000 0.000000
# 2 -0.003514 0.015439 -0.004249 0.000000 0.000000 0.000000
# 3 -0.004643 -0.004249 0.019852 0.000000 0.000000 0.000000
# 4 0.000000 0.000000 0.000000 -0.247252 0.000000 0.000000
# 5 0.000000 0.000000 0.000000 0.000000 0.037234 0.000000
# 6 0.000000 0.000000 0.000000 0.000000 0.000000 0.030481
#
#
# Mechanical properties :
#
#
# Convention : Reuss Voigt Hill
#
# Bulk Modulus (GPa) = 51.92365 62.64220 57.28293
# Shear Modulus (GPa) = -47.96903 23.40989 -12.27957
#
# Velocity S-wave (km/s) = -4.99904 3.49226 -2.52929
# Velocity P-wave (km/s) = 2.50398 6.99256 4.61660
#
# Compressibility (1/GPa) = 0.01925905
#
# Stress axis : x y z
#
# Youngs Moduli (GPa) = 113.88545 64.77080 50.37399
#
# Poissons Ratio (x) = 0.22760 0.23388
# Poissons Ratio (y) = 0.40019 0.21405
# Poissons Ratio (z) = 0.52876 0.27523
#
# Static dielectric constant tensor:
#      x y z
#    x 3.860540 0.000000 0.000000 
#    y 0.000000 3.751820 0.000000 
#    z 0.000000 0.000000 3.060150 
# 
# 
# High freq. dielectric constant tensor:
#      x y z
#    x 1.766960 0.000000 0.000000 
#    y 0.000000 1.767890 0.000000 
#    z 0.000000 0.000000 1.700220 
# 
# From -- ./inp_files/6287.got.cif
#   From: 2010.03.12/outbox.cif.g09.slc.cpg/sg51_4_cif.got.tgz:6287.got - 2010.04.16 13:43:02.
