data_PCOD8211434
_publ_section_title
;
Structure prediction by ZEFSAII (Michael W. Deem and Ramdas Pophale) SiO2 
 PCOD8211434
Probable space group: P M M A
;
_chemical_formula_sum "Si O2"
_cell_formula_units_Z 64
_cell_length_a 17.142528
_cell_length_b 9.170572
_cell_length_c 22.677368
_cell_angle_alpha 90.000000
_cell_angle_beta 90.000000
_cell_angle_gamma 90.000000
_cell_volume 3565.036167
_symmetry_space_group_name_H-M "P M M A"
_symmetry_group_IT_number 51
_symmetry_cell_setting 'orthorhombic'
loop_
_space_group_symop_operation_xyz
x,y,z
1/2-x,-y,z
1/2+x,-y,-z
-x,y,-z
-x,-y,-z
1/2+x,y,-z
1/2-x,y,z
x,-y,z
loop_
_atom_site_type_symbol
_atom_site_label
_atom_site_fract_x
_atom_site_fract_y
_atom_site_fract_z
Si Si1 0.099625 0.335962 0.432295
Si Si2 0.061457 0.666564 0.630328
Si Si3 0.074937 0.336143 0.041220
Si Si4 0.481602 0.168581 0.868683
Si Si5 0.838533 0.669090 0.693117
Si Si6 0.840777 0.167866 0.458131
Si Si7 0.016132 0.829517 0.264482
Si Si8 0.337855 0.830510 0.947078
O O1 0.120321 0.500000 0.453435
O O2 0.151682 0.292372 0.375826
O O3 0.115052 0.223812 0.484178
O O4 0.009160 0.325131 0.415801
O O5 0.082303 0.500000 0.645720
O O6 0.135050 0.743841 0.600201
O O7 0.040746 0.748917 0.690375
O O8 0.101777 0.500000 0.055671
O O9 0.052896 0.256909 0.102137
O O10 0.145004 0.254868 0.007720
O O11 0.000000 0.332383 0.000000
O O12 0.480492 0.201435 0.799548
O O13 0.397548 0.216525 0.895182
O O14 0.497741 0.000000 0.882016
O O15 0.750000 0.701891 0.712578
O O16 0.861031 0.500000 0.702739
O O17 0.895967 0.766878 0.732414
O O18 0.750000 0.191687 0.468344
O O19 0.862947 0.000000 0.448601
O O20 0.018835 0.000000 0.279518
O O21 0.250000 0.793471 0.926028
O O22 0.347416 0.000000 0.961691
#
# Coordination Sequence:
#
# PCOD8211434 Si02
#       8
#     8   8   8   8   8   8   8   8
#     4   9  18  33  53  75  97 125 162 202 249 310
#     4  10  21  37  55  73  97 133 173 209 250 305
#     4   9  17  29  48  74 101 128 158 196 242 287
#     4   9  18  33  52  74 101 135 173 207 245 298
#     4   9  18  33  52  74 101 132 166 206 253 306
#     4  11  23  35  49  74 104 130 161 207 260 308
#     4  10  20  34  53  76 102 133 171 214 254 293
#     4   9  17  31  52  76 102 133 168 206 249 297
#
# _framework density 17.952131999999999
#
# number of rings (size 3 to 8) (size 9 to 14) (size 15 to 20)
#    0.000    2.500    0.000    3.000    0.000    8.500 
#    0.000    1.250    0.000    3.000    0.000    0.000 
#    0.000    0.000    0.000    0.000    0.000    0.000 
#
# Total GULP energy -793695.993364 kJ/mol
# GULP energy per Si atom -12401.499896 kJ/mol
# Density = 1.791127 g / cm^3
# Si number density = 17.952132 Si / 1000 Ang^3
#
#
#
# Elastic Constant Matrix: (Units=GPa)
#
#
# Indices 1 2 3 4 5 6 
#
# 1 61.4764 39.5748 43.4123 0.0000 0.0000 0.0000
# 2 39.5748 106.5470 62.4880 0.0000 0.0000 0.0000
# 3 43.4123 62.4880 99.9324 0.0000 0.0000 0.0000
# 4 0.0000 0.0000 0.0000 23.4024 0.0000 0.0000
# 5 0.0000 0.0000 0.0000 0.0000 18.0104 0.0000
# 6 0.0000 0.0000 0.0000 0.0000 0.0000 25.7202
#
#
#
# Elastic Compliance Matrix: (Units=1/GPa)
#
#
# Indices 1 2 3 4 5 6 
#
# 1 0.024797 -0.004568 -0.007916 0.000000 0.000000 0.000000
# 2 -0.004568 0.015662 -0.007809 0.000000 0.000000 0.000000
# 3 -0.007916 -0.007809 0.018329 0.000000 0.000000 0.000000
# 4 0.000000 0.000000 0.000000 0.042731 0.000000 0.000000
# 5 0.000000 0.000000 0.000000 0.000000 0.055523 0.000000
# 6 0.000000 0.000000 0.000000 0.000000 0.000000 0.038880
#
#
# Mechanical properties :
#
#
# Convention : Reuss Voigt Hill
#
# Bulk Modulus (GPa) = 54.93967 62.10067 58.52017
# Shear Modulus (GPa) = 20.61221 21.59198 21.10210
#
# Velocity S-wave (km/s) = 3.39215 3.47184 3.43222
# Velocity P-wave (km/s) = 6.78322 7.12313 6.95525
#
# Compressibility (1/GPa) = 0.01820178
#
# Stress axis : x y z
#
# Youngs Moduli (GPa) = 40.32791 63.84825 54.55914
#
# Poissons Ratio (x) = 0.29164 0.43188
# Poissons Ratio (y) = 0.18421 0.42607
# Poissons Ratio (z) = 0.31923 0.49861
#
# Static dielectric constant tensor:
#      x y z
#    x 3.303500 0.000000 0.000000 
#    y 0.000000 3.436340 0.000000 
#    z 0.000000 0.000000 3.174060 
# 
# 
# High freq. dielectric constant tensor:
#      x y z
#    x 1.683800 0.000000 0.000000 
#    y 0.000000 1.701740 0.000000 
#    z 0.000000 0.000000 1.680930 
# 
# From -- ./inp_files/33943.got.cif
#   From: 2010.03.12/outbox.cif.g09.slc.cpg/sg51_17_cif.got.tgz:33943.got - 2010.04.16 13:43:02.
