data_PCOD8211522
_publ_section_title
;
Structure prediction by ZEFSAII (Michael W. Deem and Ramdas Pophale) SiO2 
 PCOD8211522
Probable space group: P M M A
;
_chemical_formula_sum "Si O2"
_cell_formula_units_Z 64
_cell_length_a 8.815689
_cell_length_b 19.508703
_cell_length_c 20.757023
_cell_angle_alpha 90.000000
_cell_angle_beta 90.000000
_cell_angle_gamma 90.000000
_cell_volume 3569.847997
_symmetry_space_group_name_H-M "P M M A"
_symmetry_group_IT_number 51
_symmetry_cell_setting 'orthorhombic'
loop_
_space_group_symop_operation_xyz
x,y,z
1/2-x,-y,z
1/2+x,-y,-z
-x,y,-z
-x,-y,-z
1/2+x,y,-z
1/2-x,y,z
x,-y,z
loop_
_atom_site_type_symbol
_atom_site_label
_atom_site_fract_x
_atom_site_fract_y
_atom_site_fract_z
Si Si1 0.928160 0.707097 0.565232
Si Si2 0.074207 0.783326 0.307176
Si Si3 0.573778 0.077824 0.119454
Si Si4 0.577302 0.075803 0.746622
Si Si5 0.570455 0.574226 0.235355
Si Si6 0.428827 0.715905 0.815604
Si Si7 0.573491 0.422081 0.380311
Si Si8 0.928509 0.793274 0.934369
O O1 0.750000 0.709763 0.557985
O O2 0.983832 0.754144 0.624788
O O3 0.000000 0.737317 0.500000
O O4 0.980115 0.628646 0.574199
O O5 0.250000 0.764001 0.295248
O O6 0.050920 0.866023 0.307435
O O7 0.973469 0.752029 0.250659
O O8 0.750000 0.094837 0.110600
O O9 0.532306 0.091017 0.193663
O O10 0.478275 0.127802 0.073972
O O11 0.535230 0.000000 0.099405
O O12 0.750000 0.079600 0.772594
O O13 0.543755 0.000000 0.717319
O O14 0.750000 0.571196 0.240614
O O15 0.509798 0.500000 0.209785
O O16 0.521037 0.635808 0.188341
O O17 0.510054 0.587457 0.307640
O O18 0.250000 0.724460 0.826410
O O19 0.516554 0.747843 0.875061
O O20 0.750000 0.402643 0.384727
O O21 0.545884 0.500000 0.403475
O O22 0.750000 0.788757 0.939320
O O23 0.000000 0.763747 0.000000
#
# Coordination Sequence:
#
# PCOD8211522 Si02
#       8
#     8   8   8   8   8   8   8   8
#     4  11  23  36  51  73 106 143 183 224 272 321
#     4  10  20  34  53  79 107 138 177 225 269 316
#     4  10  20  34  53  80 112 144 181 220 262 317
#     4   9  17  31  53  79 106 138 174 216 269 320
#     4   8  15  29  52  82 111 138 172 214 262 319
#     4  11  20  33  58  85 109 141 178 219 271 320
#     4   9  17  32  53  76 104 139 178 217 261 316
#     4  12  25  40  56  77 110 147 186 226 268 320
#
# _framework density 17.927935000000002
#
# number of rings (size 3 to 8) (size 9 to 14) (size 15 to 20)
#    0.000    2.000    2.500    3.000    0.000    2.000 
#    0.000    0.000    0.000    2.250    0.000    0.000 
#    0.000    0.000    0.000    0.000    0.000    0.125 
#
# Total GULP energy -793493.935793 kJ/mol
# GULP energy per Si atom -12398.342747 kJ/mol
# Density = 1.788713 g / cm^3
# Si number density = 17.927935 Si / 1000 Ang^3
#
#
#
# Elastic Constant Matrix: (Units=GPa)
#
#
# Indices 1 2 3 4 5 6 
#
# 1 80.2567 36.8995 46.3713 0.0000 0.0000 0.0000
# 2 36.8995 108.2618 57.2504 0.0000 0.0000 0.0000
# 3 46.3713 57.2504 113.3480 0.0000 0.0000 0.0000
# 4 0.0000 0.0000 0.0000 14.4998 0.0000 0.0000
# 5 0.0000 0.0000 0.0000 0.0000 25.8371 0.0000
# 6 0.0000 0.0000 0.0000 0.0000 0.0000 17.5529
#
#
#
# Elastic Compliance Matrix: (Units=1/GPa)
#
#
# Indices 1 2 3 4 5 6 
#
# 1 0.016950 -0.002879 -0.005480 0.000000 0.000000 0.000000
# 2 -0.002879 0.013092 -0.005435 0.000000 0.000000 0.000000
# 3 -0.005480 -0.005435 0.013809 0.000000 0.000000 0.000000
# 4 0.000000 0.000000 0.000000 0.068966 0.000000 0.000000
# 5 0.000000 0.000000 0.000000 0.000000 0.038704 0.000000
# 6 0.000000 0.000000 0.000000 0.000000 0.000000 0.056971
#
#
# Mechanical properties :
#
#
# Convention : Reuss Voigt Hill
#
# Bulk Modulus (GPa) = 61.48763 64.76763 63.12763
# Shear Modulus (GPa) = 20.70372 22.33430 21.51901
#
# Velocity S-wave (km/s) = 3.40197 3.53339 3.46830
# Velocity P-wave (km/s) = 7.05710 7.26991 7.16430
#
# Compressibility (1/GPa) = 0.01626343
#
# Stress axis : x y z
#
# Youngs Moduli (GPa) = 58.99651 76.38135 72.41466
#
# Poissons Ratio (x) = 0.21992 0.39684
# Poissons Ratio (y) = 0.16987 0.39356
# Poissons Ratio (z) = 0.32331 0.41511
#
# Static dielectric constant tensor:
#      x y z
#    x 3.230240 0.000000 0.000000 
#    y 0.000000 3.777650 0.000000 
#    z 0.000000 0.000000 3.197030 
# 
# 
# High freq. dielectric constant tensor:
#      x y z
#    x 1.689140 0.000000 0.000000 
#    y 0.000000 1.700180 0.000000 
#    z 0.000000 0.000000 1.667130 
# 
# From -- ./inp_files/28459.got.cif
#   From: 2010.03.12/outbox.cif.g09.slc.cpg/sg51_15_cif.got.tgz:28459.got - 2010.04.16 13:43:02.
