data_PCOD8211116
_publ_section_title
;
Structure prediction by ZEFSAII (Michael W. Deem and Ramdas Pophale) SiO2 
 PCOD8211116
Probable space group: P M M A
;
_chemical_formula_sum "Si O2"
_cell_formula_units_Z 48
_cell_length_a 9.223792
_cell_length_b 9.242953
_cell_length_c 30.775586
_cell_angle_alpha 90.000000
_cell_angle_beta 90.000000
_cell_angle_gamma 90.000000
_cell_volume 2623.774921
_symmetry_space_group_name_H-M "P M M A"
_symmetry_group_IT_number 51
_symmetry_cell_setting 'orthorhombic'
loop_
_space_group_symop_operation_xyz
x,y,z
1/2-x,-y,z
1/2+x,-y,-z
-x,y,-z
-x,-y,-z
1/2+x,y,-z
1/2-x,y,z
x,-y,z
loop_
_atom_site_type_symbol
_atom_site_label
_atom_site_fract_x
_atom_site_fract_y
_atom_site_fract_z
Si Si1 0.921893 0.660033 0.713592
Si Si2 0.085284 0.670851 0.383174
Si Si3 0.581690 0.831484 0.457093
Si Si4 0.419053 0.165910 0.957174
Si Si5 0.081028 0.668938 0.871460
Si Si6 0.077847 0.164944 0.204312
O O1 0.750000 0.649664 0.714748
O O2 0.986287 0.500000 0.723487
O O3 0.967911 0.712254 0.665481
O O4 0.978638 0.772342 0.749635
O O5 0.250000 0.724858 0.391203
O O6 0.076599 0.500000 0.389924
O O7 0.976714 0.747710 0.415636
O O8 0.500000 0.775471 0.500000
O O9 0.750000 0.796602 0.463137
O O10 0.551834 0.000000 0.449599
O O11 0.250000 0.184010 0.966017
O O12 0.470466 0.262906 0.916917
O O13 0.460602 0.000000 0.946894
O O14 0.500000 0.222319 0.000000
O O15 0.250000 0.700342 0.863450
O O16 0.045935 0.500000 0.872453
O O17 0.990516 0.741649 0.833610
O O18 0.250000 0.176557 0.200685
O O19 0.024727 0.000000 0.200702
#
# Coordination Sequence:
#
# PCOD8211116 Si02
#       6
#     8   8   8   8   8   8
#     4   8  15  30  51  74 102 134 167 205 249 297
#     4   9  18  33  54  79 104 132 167 206 251 303
#     4  10  21  36  53  74 101 134 172 212 254 300
#     4   9  18  33  52  73  99 131 166 206 252 301
#     4  10  21  36  53  74 102 137 174 210 252 302
#     4  10  20  33  52  79 106 133 170 213 254 299
#
# _framework density 18.294252
#
# number of rings (size 3 to 8) (size 9 to 14) (size 15 to 20)
#    0.000    2.667    0.000    2.500    0.000    5.333 
#    0.000    4.167    0.000    1.000    0.000    0.000 
#    0.000    0.000    0.000    0.000    0.000    0.000 
#
# Total GULP energy -595221.684966 kJ/mol
# GULP energy per Si atom -12400.451770 kJ/mol
# Density = 1.825261 g / cm^3
# Si number density = 18.294252 Si / 1000 Ang^3
#
#
#
# Elastic Constant Matrix: (Units=GPa)
#
#
# Indices 1 2 3 4 5 6 
#
# 1 51.8214 36.7146 54.6779 0.0000 0.0000 0.0000
# 2 36.7146 91.0190 77.6627 0.0000 0.0000 0.0000
# 3 54.6779 77.6627 169.4693 0.0000 0.0000 0.0000
# 4 0.0000 0.0000 0.0000 39.7612 0.0000 0.0000
# 5 0.0000 0.0000 0.0000 0.0000 32.7928 0.0000
# 6 0.0000 0.0000 0.0000 0.0000 0.0000 26.0381
#
#
#
# Elastic Compliance Matrix: (Units=1/GPa)
#
#
# Indices 1 2 3 4 5 6 
#
# 1 0.031518 -0.006629 -0.007131 0.000000 0.000000 0.000000
# 2 -0.006629 0.019435 -0.006768 0.000000 0.000000 0.000000
# 3 -0.007131 -0.006768 0.011303 0.000000 0.000000 0.000000
# 4 0.000000 0.000000 0.000000 0.025150 0.000000 0.000000
# 5 0.000000 0.000000 0.000000 0.000000 0.030494 0.000000
# 6 0.000000 0.000000 0.000000 0.000000 0.000000 0.038405
#
#
# Mechanical properties :
#
#
# Convention : Reuss Voigt Hill
#
# Bulk Modulus (GPa) = 47.16858 72.26888 59.71873
# Shear Modulus (GPa) = 24.45844 29.26871 26.86357
#
# Velocity S-wave (km/s) = 3.66039 4.00420 3.83615
# Velocity P-wave (km/s) = 6.61089 7.80817 7.23434
#
# Compressibility (1/GPa) = 0.02120055
#
# Stress axis : x y z
#
# Youngs Moduli (GPa) = 31.72833 51.45267 88.47084
#
# Poissons Ratio (x) = 0.34106 0.63090
# Poissons Ratio (y) = 0.21031 0.59877
# Poissons Ratio (z) = 0.22626 0.34823
#
# Static dielectric constant tensor:
#      x y z
#    x 3.152440 0.000000 0.000000 
#    y 0.000000 3.452230 0.000000 
#    z 0.000000 0.000000 3.611660 
# 
# 
# High freq. dielectric constant tensor:
#      x y z
#    x 1.686140 0.000000 0.000000 
#    y 0.000000 1.708690 0.000000 
#    z 0.000000 0.000000 1.723390 
# 
# From -- ./inp_files/36913.got.cif
#   From: 2010.03.12/outbox.cif.g09.slc.cpg/sg51_19_cif.got.tgz:36913.got - 2010.04.16 13:43:02.
