data_PCOD8211996
_publ_section_title
;
Structure prediction by ZEFSAII (Michael W. Deem and Ramdas Pophale) SiO2 
 PCOD8211996
Probable space group: P M M A
;
_chemical_formula_sum "Si O2"
_cell_formula_units_Z 48
_cell_length_a 8.884297
_cell_length_b 17.680602
_cell_length_c 15.287354
_cell_angle_alpha 90.000000
_cell_angle_beta 90.000000
_cell_angle_gamma 90.000000
_cell_volume 2401.333275
_symmetry_space_group_name_H-M "P M M A"
_symmetry_group_IT_number 51
_symmetry_cell_setting 'orthorhombic'
loop_
_space_group_symop_operation_xyz
x,y,z
1/2-x,-y,z
1/2+x,-y,-z
-x,y,-z
-x,-y,-z
1/2+x,y,-z
1/2-x,y,z
x,-y,z
loop_
_atom_site_type_symbol
_atom_site_label
_atom_site_fract_x
_atom_site_fract_y
_atom_site_fract_z
Si Si1 0.927613 0.113449 0.416022
Si Si2 0.077557 0.829863 0.912287
Si Si3 0.926267 0.283401 0.783946
Si Si4 0.571895 0.724696 0.584785
Si Si5 0.581794 0.000000 0.133351
Si Si6 0.927115 0.584816 0.909882
Si Si7 0.578240 0.000000 0.699778
O O1 0.750000 0.106705 0.418617
O O2 0.000000 0.071176 0.500000
O O3 0.982167 0.198057 0.416232
O O4 0.992250 0.074785 0.330313
O O5 0.250000 0.804757 0.913492
O O6 0.062802 0.921332 0.918699
O O7 0.006363 0.791512 0.824429
O O8 0.000000 0.796813 0.000000
O O9 0.750000 0.267359 0.793785
O O10 0.963257 0.305457 0.682487
O O11 0.981129 0.357671 0.835278
O O12 0.500000 0.678677 0.500000
O O13 0.750000 0.734522 0.569829
O O14 0.750000 0.000000 0.176756
O O15 0.439438 0.000000 0.197192
O O16 0.750000 0.587581 0.921795
O O17 0.980606 0.500000 0.884480
O O18 0.000000 0.611541 0.000000
O O19 0.750000 0.000000 0.669797
#
# Coordination Sequence:
#
# PCOD8211996 Si02
#       7
#     8   8   8   8   4   8   4
#     4  11  21  34  50  69  95 127 167 217 272 327
#     4  11  23  38  57  79 107 142 182 228 275 325
#     4  10  21  36  56  83 112 143 183 226 270 325
#     4  10  20  35  54  77 105 138 177 221 268 319
#     4  10  23  40  54  72  99 138 183 223 268 319
#     4   9  18  34  56  83 115 148 180 218 267 322
#     4  12  23  34  49  70  95 126 167 217 272 327
#
# _framework density 19.988896
#
# number of rings (size 3 to 8) (size 9 to 14) (size 15 to 20)
#    0.000    1.667    0.000    6.250    0.000    7.333 
#    0.000    0.000    0.000    0.500    0.000    0.000 
#    0.000    0.000    0.000    0.000    0.000    0.667 
#
# Total GULP energy -594656.854512 kJ/mol
# GULP energy per Si atom -12388.684469 kJ/mol
# Density = 1.994340 g / cm^3
# Si number density = 19.988896 Si / 1000 Ang^3
#
#
#
# Elastic Constant Matrix: (Units=GPa)
#
#
# Indices 1 2 3 4 5 6 
#
# 1 120.4454 31.9639 59.4844 0.0000 0.0000 0.0000
# 2 31.9639 73.2829 43.0223 0.0000 0.0000 0.0000
# 3 59.4844 43.0223 147.0563 0.0000 0.0000 0.0000
# 4 0.0000 0.0000 0.0000 39.1832 0.0000 0.0000
# 5 0.0000 0.0000 0.0000 0.0000 35.6199 0.0000
# 6 0.0000 0.0000 0.0000 0.0000 0.0000 17.7445
#
#
#
# Elastic Compliance Matrix: (Units=1/GPa)
#
#
# Indices 1 2 3 4 5 6 
#
# 1 0.010765 -0.002583 -0.003599 0.000000 0.000000 0.000000
# 2 -0.002583 0.017095 -0.003957 0.000000 0.000000 0.000000
# 3 -0.003599 -0.003957 0.009413 0.000000 0.000000 0.000000
# 4 0.000000 0.000000 0.000000 0.025521 0.000000 0.000000
# 5 0.000000 0.000000 0.000000 0.000000 0.028074 0.000000
# 6 0.000000 0.000000 0.000000 0.000000 0.000000 0.056355
#
#
# Mechanical properties :
#
#
# Convention : Reuss Voigt Hill
#
# Bulk Modulus (GPa) = 58.83283 67.74731 63.29007
# Shear Modulus (GPa) = 28.87389 32.26379 30.56884
#
# Velocity S-wave (km/s) = 3.80478 4.02193 3.91486
# Velocity P-wave (km/s) = 6.98559 7.45211 7.22261
#
# Compressibility (1/GPa) = 0.01699731
#
# Stress axis : x y z
#
# Youngs Moduli (GPa) = 92.89060 58.49658 106.23095
#
# Poissons Ratio (x) = 0.15108 0.38233
# Poissons Ratio (y) = 0.23990 0.42031
# Poissons Ratio (z) = 0.33432 0.23145
#
# Static dielectric constant tensor:
#      x y z
#    x 3.645050 0.000000 0.000000 
#    y 0.000000 3.514910 0.000000 
#    z 0.000000 0.000000 4.159880 
# 
# 
# High freq. dielectric constant tensor:
#      x y z
#    x 1.785350 0.000000 0.000000 
#    y 0.000000 1.748470 0.000000 
#    z 0.000000 0.000000 1.790440 
# 
# From -- ./inp_files/21223.got.cif
#   From: 2010.03.12/outbox.cif.g09.slc.cpg/sg51_11_cif.got.tgz:21223.got - 2010.04.16 13:43:02.
