data_PCOD8211408
_publ_section_title
;
Structure prediction by ZEFSAII (Michael W. Deem and Ramdas Pophale) SiO2 
 PCOD8211408
Probable space group: P M M A
;
_chemical_formula_sum "Si O2"
_cell_formula_units_Z 44
_cell_length_a 8.947544
_cell_length_b 14.916876
_cell_length_c 17.556088
_cell_angle_alpha 90.000000
_cell_angle_beta 90.000000
_cell_angle_gamma 90.000000
_cell_volume 2343.200608
_symmetry_space_group_name_H-M "P M M A"
_symmetry_group_IT_number 51
_symmetry_cell_setting 'orthorhombic'
loop_
_space_group_symop_operation_xyz
x,y,z
1/2-x,-y,z
1/2+x,-y,-z
-x,y,-z
-x,-y,-z
1/2+x,y,-z
1/2-x,y,z
x,-y,z
loop_
_atom_site_type_symbol
_atom_site_label
_atom_site_fract_x
_atom_site_fract_y
_atom_site_fract_z
Si Si1 0.921064 0.000000 0.420364
Si Si2 0.421637 0.601206 0.733047
Si Si3 0.076096 0.351723 0.422257
Si Si4 0.919953 0.238890 0.805226
Si Si5 0.414127 0.838116 0.361829
Si Si6 0.574239 0.898051 0.080971
O O1 0.000000 0.000000 0.500000
O O2 0.960886 0.087574 0.372565
O O3 0.750000 0.000000 0.437984
O O4 0.250000 0.632016 0.723567
O O5 0.432361 0.500000 0.764502
O O6 0.499203 0.603332 0.650513
O O7 0.500926 0.664465 0.795885
O O8 0.250000 0.378894 0.422103
O O9 0.055121 0.244688 0.417941
O O10 0.000000 0.386793 0.500000
O O11 0.750000 0.252982 0.833927
O O12 0.922546 0.192653 0.724138
O O13 0.007843 0.174546 0.861891
O O14 0.250000 0.878525 0.379371
O O15 0.750000 0.882389 0.073636
O O16 0.539542 0.000000 0.108922
O O17 0.500000 0.880853 0.000000
#
# Coordination Sequence:
#
# PCOD8211408 Si02
#       6
#     4   8   8   8   8   8
#     4  12  24  34  48  68  95 134 179 226 274 322
#     4  10  21  37  57  81 109 143 185 233 283 336
#     4  10  20  34  53  75 101 137 179 229 286 339
#     4  10  21  37  59  84 112 148 184 226 276 328
#     4   9  20  36  51  71  99 135 178 223 271 323
#     4  10  21  37  59  89 123 156 189 225 267 320
#
# _framework density 18.777735
#
# number of rings (size 3 to 8) (size 9 to 14) (size 15 to 20)
#    0.000    2.000    0.000    4.636    1.273    8.727 
#    0.000    0.000    0.000    0.545    0.000    0.000 
#    0.000    0.000    0.000    0.000    0.000    0.000 
#
# Total GULP energy -545602.788520 kJ/mol
# GULP energy per Si atom -12400.063375 kJ/mol
# Density = 1.873500 g / cm^3
# Si number density = 18.777735 Si / 1000 Ang^3
#
#
#
# Elastic Constant Matrix: (Units=GPa)
#
#
# Indices 1 2 3 4 5 6 
#
# 1 149.5528 61.6356 41.8762 0.0000 0.0000 0.0000
# 2 61.6356 108.7486 41.7842 0.0000 0.0000 0.0000
# 3 41.8762 41.7842 70.7748 0.0000 0.0000 0.0000
# 4 0.0000 0.0000 0.0000 15.7179 0.0000 0.0000
# 5 0.0000 0.0000 0.0000 0.0000 34.5388 0.0000
# 6 0.0000 0.0000 0.0000 0.0000 0.0000 27.3368
#
#
#
# Elastic Compliance Matrix: (Units=1/GPa)
#
#
# Indices 1 2 3 4 5 6 
#
# 1 0.009211 -0.004044 -0.003062 0.000000 0.000000 0.000000
# 2 -0.004044 0.013669 -0.005677 0.000000 0.000000 0.000000
# 3 -0.003062 -0.005677 0.019293 0.000000 0.000000 0.000000
# 4 0.000000 0.000000 0.000000 0.063622 0.000000 0.000000
# 5 0.000000 0.000000 0.000000 0.000000 0.028953 0.000000
# 6 0.000000 0.000000 0.000000 0.000000 0.000000 0.036581
#
#
# Mechanical properties :
#
#
# Convention : Reuss Voigt Hill
#
# Bulk Modulus (GPa) = 60.22012 68.85201 64.53606
# Shear Modulus (GPa) = 24.69992 27.77070 26.23531
#
# Velocity S-wave (km/s) = 3.63076 3.84984 3.74190
# Velocity P-wave (km/s) = 7.05096 7.51719 7.28781
#
# Compressibility (1/GPa) = 0.01660575
#
# Stress axis : x y z
#
# Youngs Moduli (GPa) = 108.57000 73.15997 51.83211
#
# Poissons Ratio (x) = 0.29583 0.15874
# Poissons Ratio (y) = 0.43902 0.29426
# Poissons Ratio (z) = 0.33249 0.41534
#
# Static dielectric constant tensor:
#      x y z
#    x 3.965830 0.000000 0.000000 
#    y 0.000000 3.467610 0.000000 
#    z 0.000000 0.000000 3.328620 
# 
# 
# High freq. dielectric constant tensor:
#      x y z
#    x 1.747950 0.000000 0.000000 
#    y 0.000000 1.731020 0.000000 
#    z 0.000000 0.000000 1.706750 
# 
# From -- ./inp_files/27403.got.cif
#   From: 2010.03.12/outbox.cif.g09.slc.cpg/sg51_14_cif.got.tgz:27403.got - 2010.04.16 13:43:02.
