data_PCOD8211170
_publ_section_title
;
Structure prediction by ZEFSAII (Michael W. Deem and Ramdas Pophale) SiO2 
 PCOD8211170
Probable space group: P M M A
;
_chemical_formula_sum "Si O2"
_cell_formula_units_Z 64
_cell_length_a 13.590850
_cell_length_b 8.794056
_cell_length_c 25.963554
_cell_angle_alpha 90.000000
_cell_angle_beta 90.000000
_cell_angle_gamma 90.000000
_cell_volume 3103.130117
_symmetry_space_group_name_H-M "P M M A"
_symmetry_group_IT_number 51
_symmetry_cell_setting 'orthorhombic'
loop_
_space_group_symop_operation_xyz
x,y,z
1/2-x,-y,z
1/2+x,-y,-z
-x,y,-z
-x,-y,-z
1/2+x,y,-z
1/2-x,y,z
x,-y,z
loop_
_atom_site_type_symbol
_atom_site_label
_atom_site_fract_x
_atom_site_fract_y
_atom_site_fract_z
Si Si1 0.633462 0.829469 0.466520
Si Si2 0.133285 0.828650 0.924272
Si Si3 0.135896 0.824078 0.727223
Si Si4 0.957359 0.678805 0.174434
Si Si5 0.632844 0.671820 0.973230
Si Si6 0.044944 0.325620 0.630137
Si Si7 0.860426 0.674739 0.569352
Si Si8 0.361036 0.179517 0.132031
O O1 0.750000 0.826459 0.469077
O O2 0.602304 0.716028 0.421618
O O3 0.594417 0.772412 0.522146
O O4 0.594050 0.000000 0.456091
O O5 0.250000 0.832085 0.928721
O O6 0.105365 0.739374 0.873176
O O7 0.091146 0.000000 0.921443
O O8 0.088157 0.744620 0.974581
O O9 0.250000 0.788298 0.717258
O O10 0.097935 0.722038 0.773654
O O11 0.076037 0.784150 0.676094
O O12 0.119150 0.000000 0.741006
O O13 0.966711 0.500000 0.170520
O O14 0.067259 0.749862 0.174981
O O15 0.750000 0.676184 0.976222
O O16 0.593915 0.500000 0.967682
O O17 0.597793 0.768084 0.923711
O O18 0.068719 0.500000 0.644719
O O19 0.928588 0.301512 0.619544
O O20 0.750000 0.726650 0.584236
O O21 0.861794 0.500000 0.551438
O O22 0.250000 0.239752 0.141457
O O23 0.364304 0.000000 0.135069
#
# Coordination Sequence:
#
# PCOD8211170 Si02
#       8
#     8   8   8   8   8   8   8   8
#     4  10  20  33  52  82 119 157 195 236 285 340
#     4  10  20  35  56  83 117 155 193 234 284 344
#     4  11  25  45  66  87 114 148 187 234 287 342
#     4  12  25  40  61  87 114 147 189 237 289 343
#     4   9  17  31  53  83 118 152 188 233 284 338
#     4  11  22  36  58  86 114 150 195 240 289 342
#     4   9  19  36  56  81 117 157 194 234 281 334
#     4  10  21  39  62  86 115 151 190 233 282 338
#
# _framework density 20.624336
#
# number of rings (size 3 to 8) (size 9 to 14) (size 15 to 20)
#    0.000    1.750    0.000    4.500    0.000   10.750 
#    0.000    3.125    0.000    2.250    0.000    0.000 
#    0.000    0.000    0.000    0.000    0.000    0.000 
#
# Total GULP energy -793874.028372 kJ/mol
# GULP energy per Si atom -12404.281693 kJ/mol
# Density = 2.057739 g / cm^3
# Si number density = 20.624336 Si / 1000 Ang^3
#
#
#
# Elastic Constant Matrix: (Units=GPa)
#
#
# Indices 1 2 3 4 5 6 
#
# 1 50.7754 34.2899 38.3013 0.0000 0.0000 0.0000
# 2 34.2899 110.4062 32.9007 0.0000 0.0000 0.0000
# 3 38.3013 32.9007 93.0379 0.0000 0.0000 0.0000
# 4 0.0000 0.0000 0.0000 38.7015 0.0000 0.0000
# 5 0.0000 0.0000 0.0000 0.0000 32.2380 0.0000
# 6 0.0000 0.0000 0.0000 0.0000 0.0000 28.6615
#
#
#
# Elastic Compliance Matrix: (Units=1/GPa)
#
#
# Indices 1 2 3 4 5 6 
#
# 1 0.032626 -0.006853 -0.011008 0.000000 0.000000 0.000000
# 2 -0.006853 0.011564 -0.001268 0.000000 0.000000 0.000000
# 3 -0.011008 -0.001268 0.015728 0.000000 0.000000 0.000000
# 4 0.000000 0.000000 0.000000 0.025839 0.000000 0.000000
# 5 0.000000 0.000000 0.000000 0.000000 0.031019 0.000000
# 6 0.000000 0.000000 0.000000 0.000000 0.000000 0.034890
#
#
# Mechanical properties :
#
#
# Convention : Reuss Voigt Hill
#
# Bulk Modulus (GPa) = 46.16695 51.68926 48.92811
# Shear Modulus (GPa) = 25.36218 29.83536 27.59877
#
# Velocity S-wave (km/s) = 3.51054 3.80756 3.66206
# Velocity P-wave (km/s) = 6.23419 6.66683 6.45414
#
# Compressibility (1/GPa) = 0.02166052
#
# Stress axis : x y z
#
# Youngs Moduli (GPa) = 30.65044 86.47785 63.57894
#
# Poissons Ratio (x) = 0.59260 0.69988
# Poissons Ratio (y) = 0.21004 0.08063
# Poissons Ratio (z) = 0.33740 0.10967
#
# Static dielectric constant tensor:
#      x y z
#    x 3.949860 0.000000 0.000000 
#    y 0.000000 3.871730 0.000000 
#    z 0.000000 0.000000 3.576580 
# 
# 
# High freq. dielectric constant tensor:
#      x y z
#    x 1.822390 0.000000 0.000000 
#    y 0.000000 1.817350 0.000000 
#    z 0.000000 0.000000 1.786670 
# 
# From -- ./inp_files/35610.got.cif
#   From: 2010.03.12/outbox.cif.g09.slc.cpg/sg51_18_cif.got.tgz:35610.got - 2010.04.16 13:43:02.
