data_PCOD8211733
_publ_section_title
;
Structure prediction by ZEFSAII (Michael W. Deem and Ramdas Pophale) SiO2 
 PCOD8211733
Probable space group: P M M A
;
_chemical_formula_sum "Si O2"
_cell_formula_units_Z 56
_cell_length_a 9.383930
_cell_length_b 13.993785
_cell_length_c 21.125323
_cell_angle_alpha 90.000000
_cell_angle_beta 90.000000
_cell_angle_gamma 90.000000
_cell_volume 2774.107679
_symmetry_space_group_name_H-M "P M M A"
_symmetry_group_IT_number 51
_symmetry_cell_setting 'orthorhombic'
loop_
_space_group_symop_operation_xyz
x,y,z
1/2-x,-y,z
1/2+x,-y,-z
-x,y,-z
-x,-y,-z
1/2+x,y,-z
1/2-x,y,z
x,-y,z
loop_
_atom_site_type_symbol
_atom_site_label
_atom_site_fract_x
_atom_site_fract_y
_atom_site_fract_z
Si Si1 0.905994 0.607325 0.737760
Si Si2 0.080990 0.109239 0.809489
Si Si3 0.974764 0.706189 0.861762
Si Si4 0.750000 0.384155 0.950370
Si Si5 0.084990 0.611534 0.618764
Si Si6 0.588589 0.890162 0.683953
Si Si7 0.750000 0.611363 0.096676
Si Si8 0.918610 0.771539 0.559628
O O1 0.750000 0.613870 0.704380
O O2 0.934043 0.500000 0.762696
O O3 0.899191 0.678524 0.796661
O O4 0.026763 0.638488 0.688513
O O5 0.250000 0.125946 0.808560
O O6 0.005626 0.179320 0.861017
O O7 0.019657 0.134655 0.740352
O O8 0.043370 0.000000 0.828254
O O9 0.885952 0.669478 0.921663
O O10 0.120360 0.650383 0.863841
O O11 0.750000 0.500000 0.938316
O O12 0.750000 0.357252 0.023705
O O13 0.250000 0.641909 0.614682
O O14 0.063651 0.500000 0.605296
O O15 0.990518 0.667251 0.567436
O O16 0.750000 0.864826 0.705509
O O17 0.545232 0.831598 0.622047
O O18 0.576481 0.000000 0.664605
O O19 0.750000 0.500000 0.100719
O O20 0.750000 0.763807 0.546717
O O21 0.000000 0.820132 0.500000
#
# Coordination Sequence:
#
# PCOD8211733 Si02
#       8
#     8   8   8   4   8   8   4   8
#     4  10  20  34  54  83 119 152 186 236 300 363
#     4  10  22  40  61  90 123 155 196 250 307 359
#     4  12  22  37  62  89 118 163 204 249 301 357
#     4  11  24  42  61  87 127 165 201 246 296 360
#     4  10  22  38  56  80 112 150 195 246 295 346
#     4   9  20  39  63  90 119 150 189 240 298 356
#     4  11  24  40  61  89 123 163 207 248 294 354
#     4  11  23  38  58  82 114 154 196 240 288 350
#
# _framework density 20.186669999999999
#
# number of rings (size 3 to 8) (size 9 to 14) (size 15 to 20)
#    0.000    1.571    1.429    3.429    2.000    6.000 
#    0.000    0.000    0.000    2.571    0.000    0.000 
#    0.000    0.000    0.000    0.000    0.000    0.000 
#
# Total GULP energy -694293.625184 kJ/mol
# GULP energy per Si atom -12398.100450 kJ/mol
# Density = 2.014072 g / cm^3
# Si number density = 20.186670 Si / 1000 Ang^3
#
#
#
# Elastic Constant Matrix: (Units=GPa)
#
#
# Indices 1 2 3 4 5 6 
#
# 1 108.4204 31.4126 25.8249 0.0000 0.0000 0.0000
# 2 31.4126 84.5017 40.9470 0.0000 0.0000 0.0000
# 3 25.8249 40.9470 53.6612 0.0000 0.0000 0.0000
# 4 0.0000 0.0000 0.0000 26.6438 0.0000 0.0000
# 5 0.0000 0.0000 0.0000 0.0000 21.5306 0.0000
# 6 0.0000 0.0000 0.0000 0.0000 0.0000 29.9696
#
#
#
# Elastic Compliance Matrix: (Units=1/GPa)
#
#
# Indices 1 2 3 4 5 6 
#
# 1 0.010704 -0.002353 -0.003356 0.000000 0.000000 0.000000
# 2 -0.002353 0.019294 -0.013590 0.000000 0.000000 0.000000
# 3 -0.003356 -0.013590 0.030621 0.000000 0.000000 0.000000
# 4 0.000000 0.000000 0.000000 0.037532 0.000000 0.000000
# 5 0.000000 0.000000 0.000000 0.000000 0.046446 0.000000
# 6 0.000000 0.000000 0.000000 0.000000 0.000000 0.033367
#
#
# Mechanical properties :
#
#
# Convention : Reuss Voigt Hill
#
# Bulk Modulus (GPa) = 45.41186 49.21693 47.31439
# Shear Modulus (GPa) = 22.33099 25.52204 23.92651
#
# Velocity S-wave (km/s) = 3.32960 3.55956 3.44650
# Velocity P-wave (km/s) = 6.10954 6.42867 6.27113
#
# Compressibility (1/GPa) = 0.02202068
#
# Stress axis : x y z
#
# Youngs Moduli (GPa) = 93.41875 51.82882 32.65736
#
# Poissons Ratio (x) = 0.12195 0.10960
# Poissons Ratio (y) = 0.21981 0.44383
# Poissons Ratio (z) = 0.31353 0.70437
#
# Static dielectric constant tensor:
#      x y z
#    x 3.859320 0.000000 0.000000 
#    y 0.000000 3.838180 0.000000 
#    z 0.000000 0.000000 3.612290 
# 
# 
# High freq. dielectric constant tensor:
#      x y z
#    x 1.802210 0.000000 0.000000 
#    y 0.000000 1.790960 0.000000 
#    z 0.000000 0.000000 1.770960 
# 
# From -- ./inp_files/32147.got.cif
#   From: 2010.03.12/outbox.cif.g09.slc.cpg/sg51_17_cif.got.tgz:32147.got - 2010.04.16 13:43:02.
