data_PCOD8211776
_publ_section_title
;
Structure prediction by ZEFSAII (Michael W. Deem and Ramdas Pophale) SiO2 
 PCOD8211776
Probable space group: P M M A
;
_chemical_formula_sum "Si O2"
_cell_formula_units_Z 56
_cell_length_a 14.170999
_cell_length_b 8.898785
_cell_length_c 21.962288
_cell_angle_alpha 90.000000
_cell_angle_beta 90.000000
_cell_angle_gamma 90.000000
_cell_volume 2769.547154
_symmetry_space_group_name_H-M "P M M A"
_symmetry_group_IT_number 51
_symmetry_cell_setting 'orthorhombic'
loop_
_space_group_symop_operation_xyz
x,y,z
1/2-x,-y,z
1/2+x,-y,-z
-x,y,-z
-x,-y,-z
1/2+x,y,-z
1/2-x,y,z
x,-y,z
loop_
_atom_site_type_symbol
_atom_site_label
_atom_site_fract_x
_atom_site_fract_y
_atom_site_fract_z
Si Si1 0.006516 0.829143 0.928051
Si Si2 0.854689 0.173249 0.735260
Si Si3 0.355464 0.821713 0.469652
Si Si4 0.041336 0.675330 0.712250
Si Si5 0.044980 0.177536 0.591569
Si Si6 0.146840 0.333037 0.141246
Si Si7 0.859431 0.323093 0.162621
O O1 0.101615 0.764739 0.896653
O O2 0.922456 0.719625 0.910444
O O3 0.993180 0.000000 0.905544
O O4 0.000000 0.822150 0.000000
O O5 0.750000 0.204157 0.707691
O O6 0.854447 0.209818 0.806334
O O7 0.931595 0.280067 0.704960
O O8 0.883167 0.000000 0.725370
O O9 0.250000 0.756827 0.454758
O O10 0.388573 0.767303 0.536463
O O11 0.435469 0.770917 0.420887
O O12 0.351081 0.000000 0.469309
O O13 0.056287 0.500000 0.707226
O O14 0.088719 0.750375 0.652996
O O15 0.085628 0.732495 0.776255
O O16 0.048809 0.000000 0.598544
O O17 0.250000 0.341401 0.111449
O O18 0.117185 0.500000 0.165710
O O19 0.750000 0.282442 0.170511
O O20 0.874561 0.500000 0.152658
#
# Coordination Sequence:
#
# PCOD8211776 Si02
#       7
#     8   8   8   8   8   8   8
#     4  11  24  40  60  87 117 149 189 240 293 344
#     4  10  20  34  55  82 111 144 182 228 282 339
#     4   8  15  31  54  78 107 144 188 238 287 334
#     4  11  22  36  56  83 118 155 190 236 289 344
#     4   9  18  32  53  81 109 143 190 238 282 337
#     4  10  20  35  57  84 112 144 182 224 277 341
#     4  10  23  43  63  83 112 154 200 242 288 344
#
# _framework density 20.219912999999998
#
# number of rings (size 3 to 8) (size 9 to 14) (size 15 to 20)
#    0.000    2.143    1.429    2.571    0.000    5.429 
#    0.000    5.714    0.000    0.857    0.000    0.000 
#    0.000    0.000    0.000    0.000    0.000    0.000 
#
# Total GULP energy -693952.828955 kJ/mol
# GULP energy per Si atom -12392.014803 kJ/mol
# Density = 2.017389 g / cm^3
# Si number density = 20.219913 Si / 1000 Ang^3
#
#
#
# Elastic Constant Matrix: (Units=GPa)
#
#
# Indices 1 2 3 4 5 6 
#
# 1 100.3517 24.2868 27.4928 0.0000 0.0000 0.0000
# 2 24.2868 51.4074 27.2363 0.0000 0.0000 0.0000
# 3 27.4928 27.2363 94.5550 0.0000 0.0000 0.0000
# 4 0.0000 0.0000 0.0000 27.7142 0.0000 0.0000
# 5 0.0000 0.0000 0.0000 0.0000 15.6416 0.0000
# 6 0.0000 0.0000 0.0000 0.0000 0.0000 22.4825
#
#
#
# Elastic Compliance Matrix: (Units=1/GPa)
#
#
# Indices 1 2 3 4 5 6 
#
# 1 0.011600 -0.004358 -0.002117 0.000000 0.000000 0.000000
# 2 -0.004358 0.024593 -0.005817 0.000000 0.000000 0.000000
# 3 -0.002117 -0.005817 0.012867 0.000000 0.000000 0.000000
# 4 0.000000 0.000000 0.000000 0.036083 0.000000 0.000000
# 5 0.000000 0.000000 0.000000 0.000000 0.063932 0.000000
# 6 0.000000 0.000000 0.000000 0.000000 0.000000 0.044479
#
#
# Mechanical properties :
#
#
# Convention : Reuss Voigt Hill
#
# Bulk Modulus (GPa) = 40.85782 44.92730 42.89256
# Shear Modulus (GPa) = 22.09482 24.32087 23.20784
#
# Velocity S-wave (km/s) = 3.30923 3.47193 3.39155
# Velocity P-wave (km/s) = 5.90355 6.19193 6.04946
#
# Compressibility (1/GPa) = 0.02447512
#
# Stress axis : x y z
#
# Youngs Moduli (GPa) = 86.20815 40.66143 77.71824
#
# Poissons Ratio (x) = 0.17722 0.16456
# Poissons Ratio (y) = 0.37573 0.45207
# Poissons Ratio (z) = 0.18253 0.23652
#
# Static dielectric constant tensor:
#      x y z
#    x 4.013390 0.000000 0.000000 
#    y 0.000000 3.517920 0.000000 
#    z 0.000000 0.000000 3.676260 
# 
# 
# High freq. dielectric constant tensor:
#      x y z
#    x 1.792030 0.000000 0.000000 
#    y 0.000000 1.770720 0.000000 
#    z 0.000000 0.000000 1.785070 
# 
# From -- ./inp_files/33335.got.cif
#   From: 2010.03.12/outbox.cif.g09.slc.cpg/sg51_17_cif.got.tgz:33335.got - 2010.04.16 13:43:02.
