data_PCOD8211397
_publ_section_title
;
Structure prediction by ZEFSAII (Michael W. Deem and Ramdas Pophale) SiO2 
 PCOD8211397
Probable space group: P M M A
;
_chemical_formula_sum "Si O2"
_cell_formula_units_Z 36
_cell_length_a 8.660479
_cell_length_b 18.313326
_cell_length_c 14.219676
_cell_angle_alpha 90.000000
_cell_angle_beta 90.000000
_cell_angle_gamma 90.000000
_cell_volume 2255.271545
_symmetry_space_group_name_H-M "P M M A"
_symmetry_group_IT_number 51
_symmetry_cell_setting 'orthorhombic'
loop_
_space_group_symop_operation_xyz
x,y,z
1/2-x,-y,z
1/2+x,-y,-z
-x,y,-z
-x,-y,-z
1/2+x,y,-z
1/2-x,y,z
x,-y,z
loop_
_atom_site_type_symbol
_atom_site_label
_atom_site_fract_x
_atom_site_fract_y
_atom_site_fract_z
Si Si1 0.932841 0.641272 0.215540
Si Si2 0.067993 0.774957 0.104280
Si Si3 0.432444 0.500000 0.897059
Si Si4 0.069365 0.920986 0.897203
Si Si5 0.068097 0.584294 0.400820
O O1 0.750000 0.648584 0.211840
O O2 0.992462 0.571287 0.157376
O O3 0.008949 0.712327 0.172081
O O4 0.988242 0.634017 0.322403
O O5 0.250000 0.771571 0.097005
O O6 0.014739 0.852144 0.151792
O O7 0.000000 0.764949 0.000000
O O8 0.250000 0.500000 0.903488
O O9 0.500000 0.500000 0.000000
O O10 0.250000 0.903753 0.903859
O O11 0.040879 0.000000 0.846001
O O12 0.000000 0.926964 0.000000
O O13 0.250000 0.596758 0.399841
O O14 0.024123 0.500000 0.382326
O O15 0.000000 0.610355 0.500000
#
# Coordination Sequence:
#
# PCOD8211397 Si02
#       5
#     8   8   4   8   8
#     4  11  21  35  50  68  93 124 161 200 241 284
#     4  11  21  32  46  67  95 129 164 198 239 282
#     4  10  22  34  47  64  87 122 161 198 234 274
#     4   9  16  27  44  65  89 120 157 195 235 278
#     4  10  20  34  53  74  94 119 152 195 243 291
#
# _framework density 15.962602
#
# number of rings (size 3 to 8) (size 9 to 14) (size 15 to 20)
#    0.000    1.778    1.111    6.000    0.000    5.778 
#    0.000    0.000    0.000    0.000    0.000    0.000 
#    0.000    0.889    0.000    3.333    0.000    5.556 
#
# Total GULP energy -446312.108172 kJ/mol
# GULP energy per Si atom -12397.558560 kJ/mol
# Density = 1.592627 g / cm^3
# Si number density = 15.962602 Si / 1000 Ang^3
#
#
#
# Elastic Constant Matrix: (Units=GPa)
#
#
# Indices 1 2 3 4 5 6 
#
# 1 103.4641 56.4164 40.7710 0.0000 0.0000 0.0000
# 2 56.4164 145.9830 58.8427 0.0000 0.0000 0.0000
# 3 40.7710 58.8427 89.0968 0.0000 0.0000 0.0000
# 4 0.0000 0.0000 0.0000 4.2789 0.0000 0.0000
# 5 0.0000 0.0000 0.0000 0.0000 26.4357 0.0000
# 6 0.0000 0.0000 0.0000 0.0000 0.0000 22.7635
#
#
#
# Elastic Compliance Matrix: (Units=1/GPa)
#
#
# Indices 1 2 3 4 5 6 
#
# 1 0.013040 -0.003590 -0.003596 0.000000 0.000000 0.000000
# 2 -0.003590 0.010323 -0.005175 0.000000 0.000000 0.000000
# 3 -0.003596 -0.005175 0.016287 0.000000 0.000000 0.000000
# 4 0.000000 0.000000 0.000000 0.233707 0.000000 0.000000
# 5 0.000000 0.000000 0.000000 0.000000 0.037828 0.000000
# 6 0.000000 0.000000 0.000000 0.000000 0.000000 0.043930
#
#
# Mechanical properties :
#
#
# Convention : Reuss Voigt Hill
#
# Bulk Modulus (GPa) = 66.98830 72.28934 69.63882
# Shear Modulus (GPa) = 12.99329 22.86319 17.92824
#
# Velocity S-wave (km/s) = 2.85613 3.78868 3.35496
# Velocity P-wave (km/s) = 7.27554 8.03267 7.66346
#
# Compressibility (1/GPa) = 0.01492798
#
# Stress axis : x y z
#
# Youngs Moduli (GPa) = 76.68880 96.86680 61.39746
#
# Poissons Ratio (x) = 0.34773 0.22080
# Poissons Ratio (y) = 0.27529 0.31775
# Poissons Ratio (z) = 0.27579 0.50131
#
# Static dielectric constant tensor:
#      x y z
#    x 3.102750 0.000000 0.000000 
#    y 0.000000 3.611830 0.000000 
#    z 0.000000 0.000000 2.749810 
# 
# 
# High freq. dielectric constant tensor:
#      x y z
#    x 1.633720 0.000000 0.000000 
#    y 0.000000 1.616180 0.000000 
#    z 0.000000 0.000000 1.573190 
# 
# From -- ./inp_files/14016.got.cif
#   From: 2010.03.12/outbox.cif.g09.slc.cpg/sg51_8_cif.got.tgz:14016.got - 2010.04.16 13:43:02.
