data_PCOD8211419
_publ_section_title
;
Structure prediction by ZEFSAII (Michael W. Deem and Ramdas Pophale) SiO2 
 PCOD8211419
Probable space group: P M M A
;
_chemical_formula_sum "Si O2"
_cell_formula_units_Z 48
_cell_length_a 9.000699
_cell_length_b 8.735272
_cell_length_c 31.121959
_cell_angle_alpha 90.000000
_cell_angle_beta 90.000000
_cell_angle_gamma 90.000000
_cell_volume 2446.919023
_symmetry_space_group_name_H-M "P M M A"
_symmetry_group_IT_number 51
_symmetry_cell_setting 'orthorhombic'
loop_
_space_group_symop_operation_xyz
x,y,z
1/2-x,-y,z
1/2+x,-y,-z
-x,y,-z
-x,-y,-z
1/2+x,y,-z
1/2-x,y,z
x,-y,z
loop_
_atom_site_type_symbol
_atom_site_label
_atom_site_fract_x
_atom_site_fract_y
_atom_site_fract_z
Si Si1 0.082292 0.182557 0.373198
Si Si2 0.917665 0.817434 0.457737
Si Si3 0.920777 0.321714 0.124077
Si Si4 0.082251 0.817458 0.711378
Si Si5 0.582816 0.818519 0.795734
Si Si6 0.923704 0.176796 0.955609
O O1 0.250000 0.245322 0.372540
O O2 0.001195 0.245876 0.415666
O O3 0.997012 0.245738 0.331401
O O4 0.081542 0.000000 0.373218
O O5 0.750000 0.754717 0.457550
O O6 0.000000 0.754097 0.500000
O O7 0.918657 0.000000 0.457737
O O8 0.750000 0.272680 0.118321
O O9 0.937185 0.500000 0.133714
O O10 0.988405 0.229952 0.163492
O O11 0.008977 0.282092 0.081135
O O12 0.250000 0.754215 0.712805
O O13 0.994217 0.753760 0.752694
O O14 0.082105 0.000000 0.711267
O O15 0.750000 0.752268 0.798845
O O16 0.587583 0.000000 0.794148
O O17 0.750000 0.209921 0.959595
O O18 0.955752 0.000000 0.944398
O O19 0.000000 0.224269 0.000000
#
# Coordination Sequence:
#
# PCOD8211419 Si02
#       6
#     8   8   8   8   8   8
#     4   9  15  22  32  47  69  97 132 178 229 279
#     4   9  15  21  28  39  58  88 128 173 222 277
#     4  11  24  39  55  78 108 141 175 210 251 299
#     4   9  16  26  41  61  84 111 145 188 238 288
#     4  10  20  34  53  76 100 128 165 208 253 301
#     4  10  21  38  61  87 112 140 175 213 253 297
#
# _framework density 19.616506000000001
#
# number of rings (size 3 to 8) (size 9 to 14) (size 15 to 20)
#    0.000    2.333    0.000    3.500    0.000   11.667 
#    0.000    0.000    0.000    0.000    0.000    0.000 
#    0.000    0.000    0.000    0.000    0.000    0.833 
#
# Total GULP energy -595291.929327 kJ/mol
# GULP energy per Si atom -12401.915194 kJ/mol
# Density = 1.957186 g / cm^3
# Si number density = 19.616506 Si / 1000 Ang^3
#
#
#
# Elastic Constant Matrix: (Units=GPa)
#
#
# Indices 1 2 3 4 5 6 
#
# 1 163.6360 15.9126 80.4885 0.0000 0.0000 0.0000
# 2 15.9126 7.6048 8.6908 0.0000 0.0000 0.0000
# 3 80.4885 8.6908 167.4406 0.0000 0.0000 0.0000
# 4 0.0000 0.0000 0.0000 -5.2316 0.0000 0.0000
# 5 0.0000 0.0000 0.0000 0.0000 48.5854 0.0000
# 6 0.0000 0.0000 0.0000 0.0000 0.0000 13.5080
#
#
#
# Elastic Compliance Matrix: (Units=1/GPa)
#
#
# Indices 1 2 3 4 5 6 
#
# 1 0.009461 -0.015520 -0.003742 0.000000 0.000000 0.000000
# 2 -0.015520 0.165246 -0.001116 0.000000 0.000000 0.000000
# 3 -0.003742 -0.001116 0.007829 0.000000 0.000000 0.000000
# 4 0.000000 0.000000 0.000000 -0.191145 0.000000 0.000000
# 5 0.000000 0.000000 0.000000 0.000000 0.020582 0.000000
# 6 0.000000 0.000000 0.000000 0.000000 0.000000 0.074030
#
#
# Mechanical properties :
#
#
# Convention : Reuss Voigt Hill
#
# Bulk Modulus (GPa) = 7.05326 60.98504 34.01915
# Shear Modulus (GPa) = 28.73213 26.94500 27.83857
#
# Velocity S-wave (km/s) = 3.83128 3.71022 3.77123
# Velocity P-wave (km/s) = 4.81404 7.03636 6.02849
#
# Compressibility (1/GPa) = 0.14177839
#
# Stress axis : x y z
#
# Youngs Moduli (GPa) = 105.69537 6.05159 127.72714
#
# Poissons Ratio (x) = 0.09392 0.47801
# Poissons Ratio (y) = 1.64039 0.14260
# Poissons Ratio (z) = 0.39556 0.00676
#
# Static dielectric constant tensor:
#      x y z
#    x 3.893730 0.000000 0.000000 
#    y 0.000000 2.900080 0.000000 
#    z 0.000000 0.000000 3.854430 
# 
# 
# High freq. dielectric constant tensor:
#      x y z
#    x 1.786810 0.000000 0.000000 
#    y 0.000000 1.694450 0.000000 
#    z 0.000000 0.000000 1.783860 
# 
# From -- ./inp_files/36989.got.cif
#   From: 2010.03.12/outbox.cif.g09.slc.cpg/sg51_19_cif.got.tgz:36989.got - 2010.04.16 13:43:02.
