data_PCOD8211158
_publ_section_title
;
Structure prediction by ZEFSAII (Michael W. Deem and Ramdas Pophale) SiO2 
 PCOD8211158
Probable space group: P M M A
;
_chemical_formula_sum "Si O2"
_cell_formula_units_Z 56
_cell_length_a 19.561937
_cell_length_b 9.007247
_cell_length_c 16.027003
_cell_angle_alpha 90.000000
_cell_angle_beta 90.000000
_cell_angle_gamma 90.000000
_cell_volume 2823.945081
_symmetry_space_group_name_H-M "P M M A"
_symmetry_group_IT_number 51
_symmetry_cell_setting 'orthorhombic'
loop_
_space_group_symop_operation_xyz
x,y,z
1/2-x,-y,z
1/2+x,-y,-z
-x,y,-z
-x,-y,-z
1/2+x,y,-z
1/2-x,y,z
x,-y,z
loop_
_atom_site_type_symbol
_atom_site_label
_atom_site_fract_x
_atom_site_fract_y
_atom_site_fract_z
Si Si1 0.826501 0.668760 0.982585
Si Si2 0.173255 0.173595 0.650399
Si Si3 0.541534 0.174353 0.252110
Si Si4 0.672525 0.325266 0.520679
Si Si5 0.456591 0.329001 0.919994
Si Si6 0.583816 0.675754 0.676290
Si Si7 0.329511 0.170234 0.185259
O O1 0.750000 0.699550 0.015382
O O2 0.834218 0.500000 0.949160
O O3 0.845878 0.780216 0.908686
O O4 0.876693 0.696109 0.060111
O O5 0.250000 0.224201 0.677430
O O6 0.119345 0.216400 0.722721
O O7 0.149794 0.252529 0.565780
O O8 0.171542 0.000000 0.632354
O O9 0.524009 0.232263 0.159884
O O10 0.490605 0.249381 0.318755
O O11 0.529107 0.000000 0.253748
O O12 0.750000 0.277793 0.544319
O O13 0.667261 0.500000 0.509609
O O14 0.621379 0.268817 0.592412
O O15 0.473280 0.500000 0.899164
O O16 0.500000 0.276106 0.000000
O O17 0.575428 0.500000 0.677277
O O18 0.628827 0.724157 0.754434
O O19 0.250000 0.191527 0.205366
O O20 0.352575 0.000000 0.196397
#
# Coordination Sequence:
#
# PCOD8211158 Si02
#       7
#     8   8   8   8   8   8   8
#     4   9  18  33  53  77 106 141 181 226 277 332
#     4   9  20  40  62  83 111 147 184 225 277 333
#     4  11  24  39  57  83 112 144 185 231 280 334
#     4   9  19  36  59  86 112 143 185 227 267 317
#     4  10  21  37  56  78 106 142 184 227 274 329
#     4  11  22  36  55  80 114 151 187 228 274 328
#     4  10  20  33  52  81 115 149 186 228 275 328
#
# _framework density 19.830414000000001
#
# number of rings (size 3 to 8) (size 9 to 14) (size 15 to 20)
#    0.000    2.143    0.000    2.571    0.000    6.857 
#    0.000    4.286    0.000    0.000    0.000    0.000 
#    0.000    0.000    0.000    0.000    0.000    0.000 
#
# Total GULP energy -694511.467561 kJ/mol
# GULP energy per Si atom -12401.990492 kJ/mol
# Density = 1.978528 g / cm^3
# Si number density = 19.830414 Si / 1000 Ang^3
#
#
#
# Elastic Constant Matrix: (Units=GPa)
#
#
# Indices 1 2 3 4 5 6 
#
# 1 101.4240 39.2458 56.1447 0.0000 0.0000 0.0000
# 2 39.2458 62.5751 37.0436 0.0000 0.0000 0.0000
# 3 56.1447 37.0436 92.1455 0.0000 0.0000 0.0000
# 4 0.0000 0.0000 0.0000 19.9157 0.0000 0.0000
# 5 0.0000 0.0000 0.0000 0.0000 34.1539 0.0000
# 6 0.0000 0.0000 0.0000 0.0000 0.0000 28.1324
#
#
#
# Elastic Compliance Matrix: (Units=1/GPa)
#
#
# Indices 1 2 3 4 5 6 
#
# 1 0.016291 -0.005697 -0.007636 0.000000 0.000000 0.000000
# 2 -0.005697 0.022964 -0.005761 0.000000 0.000000 0.000000
# 3 -0.007636 -0.005761 0.017821 0.000000 0.000000 0.000000
# 4 0.000000 0.000000 0.000000 0.050212 0.000000 0.000000
# 5 0.000000 0.000000 0.000000 0.000000 0.029279 0.000000
# 6 0.000000 0.000000 0.000000 0.000000 0.000000 0.035546
#
#
# Mechanical properties :
#
#
# Convention : Reuss Voigt Hill
#
# Bulk Modulus (GPa) = 52.94138 57.89030 55.41584
# Shear Modulus (GPa) = 23.08442 24.68778 23.88610
#
# Velocity S-wave (km/s) = 3.41558 3.53221 3.47438
# Velocity P-wave (km/s) = 6.50461 6.77432 6.64083
#
# Compressibility (1/GPa) = 0.01888882
#
# Stress axis : x y z
#
# Youngs Moduli (GPa) = 61.38349 43.54630 56.11405
#
# Poissons Ratio (x) = 0.24808 0.42848
# Poissons Ratio (y) = 0.34970 0.32325
# Poissons Ratio (z) = 0.46872 0.25085
#
# Static dielectric constant tensor:
#      x y z
#    x 3.977940 0.000000 0.000000 
#    y 0.000000 3.593880 0.000000 
#    z 0.000000 0.000000 3.456970 
# 
# 
# High freq. dielectric constant tensor:
#      x y z
#    x 1.787700 0.000000 0.000000 
#    y 0.000000 1.769690 0.000000 
#    z 0.000000 0.000000 1.759270 
# 
# From -- ./inp_files/25724.got.cif
#   From: 2010.03.12/outbox.cif.g09.slc.cpg/sg51_13_cif.got.tgz:25724.got - 2010.04.16 13:43:02.
