data_PCOD8211972
_publ_section_title
;
Structure prediction by ZEFSAII (Michael W. Deem and Ramdas Pophale) SiO2 
 PCOD8211972
Probable space group: P M M A
;
_chemical_formula_sum "Si O2"
_cell_formula_units_Z 48
_cell_length_a 15.151130
_cell_length_b 8.985294
_cell_length_c 18.120207
_cell_angle_alpha 90.000000
_cell_angle_beta 90.000000
_cell_angle_gamma 90.000000
_cell_volume 2466.837098
_symmetry_space_group_name_H-M "P M M A"
_symmetry_group_IT_number 51
_symmetry_cell_setting 'orthorhombic'
loop_
_space_group_symop_operation_xyz
x,y,z
1/2-x,-y,z
1/2+x,-y,-z
-x,y,-z
-x,-y,-z
1/2+x,y,-z
1/2-x,y,z
x,-y,z
loop_
_atom_site_type_symbol
_atom_site_label
_atom_site_fract_x
_atom_site_fract_y
_atom_site_fract_z
Si Si1 0.985954 0.675376 0.672660
Si Si2 0.149610 0.171731 0.604631
Si Si3 0.851241 0.170739 0.567410
Si Si4 0.406449 0.666560 0.039349
Si Si5 0.478928 0.175777 0.174310
Si Si6 0.846236 0.169279 0.095106
O O1 0.986135 0.500000 0.681870
O O2 0.915668 0.720517 0.610769
O O3 0.955313 0.749106 0.748674
O O4 0.084195 0.727485 0.651925
O O5 0.250000 0.214537 0.625303
O O6 0.132693 0.200095 0.518605
O O7 0.131409 0.000000 0.624316
O O8 0.750000 0.205861 0.588439
O O9 0.874154 0.000000 0.586834
O O10 0.375218 0.500000 0.059342
O O11 0.409885 0.763924 0.113760
O O12 0.500000 0.665803 0.000000
O O13 0.339974 0.738557 0.980766
O O14 0.578662 0.224838 0.151603
O O15 0.468312 0.000000 0.181836
O O16 0.750000 0.182932 0.133852
O O17 0.868367 0.000000 0.073036
#
# Coordination Sequence:
#
# PCOD8211972 Si02
#       6
#     8   8   8   8   8   8
#     4  12  24  35  52  82 118 151 181 222 281 340
#     4   9  19  37  60  83 108 143 188 232 271 321
#     4   9  19  38  62  83 104 138 187 236 277 324
#     4   9  17  31  51  74 100 129 162 203 252 304
#     4  10  20  35  54  74 102 142 182 219 259 309
#     4   9  18  33  54  79 103 131 172 217 259 309
#
# _framework density 19.458113999999998
#
# number of rings (size 3 to 8) (size 9 to 14) (size 15 to 20)
#    0.000    2.333    0.000    4.000    0.000    7.000 
#    0.000    4.167    0.000    5.000    0.000    0.000 
#    0.000    0.000    0.000    0.000    0.000    0.000 
#
# Total GULP energy -595204.183385 kJ/mol
# GULP energy per Si atom -12400.087154 kJ/mol
# Density = 1.941383 g / cm^3
# Si number density = 19.458114 Si / 1000 Ang^3
#
#
#
# Elastic Constant Matrix: (Units=GPa)
#
#
# Indices 1 2 3 4 5 6 
#
# 1 41.0289 13.8022 2.8166 0.0000 0.0000 0.0000
# 2 13.8022 107.1716 34.7354 0.0000 0.0000 0.0000
# 3 2.8166 34.7354 62.5520 0.0000 0.0000 0.0000
# 4 0.0000 0.0000 0.0000 24.5329 0.0000 0.0000
# 5 0.0000 0.0000 0.0000 0.0000 16.8649 0.0000
# 6 0.0000 0.0000 0.0000 0.0000 0.0000 17.4463
#
#
#
# Elastic Compliance Matrix: (Units=1/GPa)
#
#
# Indices 1 2 3 4 5 6 
#
# 1 0.025512 -0.003553 0.000824 0.000000 0.000000 0.000000
# 2 -0.003553 0.011873 -0.006433 0.000000 0.000000 0.000000
# 3 0.000824 -0.006433 0.019522 0.000000 0.000000 0.000000
# 4 0.000000 0.000000 0.000000 0.040762 0.000000 0.000000
# 5 0.000000 0.000000 0.000000 0.000000 0.059295 0.000000
# 6 0.000000 0.000000 0.000000 0.000000 0.000000 0.057319
#
#
# Mechanical properties :
#
#
# Convention : Reuss Voigt Hill
#
# Bulk Modulus (GPa) = 25.91802 34.82899 30.37350
# Shear Modulus (GPa) = 20.36932 22.39538 21.38235
#
# Velocity S-wave (km/s) = 3.23898 3.39625 3.31855
# Velocity P-wave (km/s) = 5.22846 5.77215 5.50702
#
# Compressibility (1/GPa) = 0.03858320
#
# Stress axis : x y z
#
# Youngs Moduli (GPa) = 39.19788 84.22120 51.22395
#
# Poissons Ratio (x) = 0.29921 -0.04221
# Poissons Ratio (y) = 0.13926 0.32955
# Poissons Ratio (z) = -0.03230 0.54183
#
# Static dielectric constant tensor:
#      x y z
#    x 3.469930 0.000000 0.000000 
#    y 0.000000 3.531250 0.000000 
#    z 0.000000 0.000000 3.461550 
# 
# 
# High freq. dielectric constant tensor:
#      x y z
#    x 1.750690 0.000000 0.000000 
#    y 0.000000 1.753700 0.000000 
#    z 0.000000 0.000000 1.749930 
# 
# From -- ./inp_files/29396.got.cif
#   From: 2010.03.12/outbox.cif.g09.slc.cpg/sg51_15_cif.got.tgz:29396.got - 2010.04.16 13:43:02.
