data_PCOD8211093
_publ_section_title
;
Structure prediction by ZEFSAII (Michael W. Deem and Ramdas Pophale) SiO2 
 PCOD8211093
Probable space group: P M M A
;
_chemical_formula_sum "Si O2"
_cell_formula_units_Z 64
_cell_length_a 9.279217
_cell_length_b 23.301510
_cell_length_c 17.499404
_cell_angle_alpha 90.000000
_cell_angle_beta 90.000000
_cell_angle_gamma 90.000000
_cell_volume 3783.717068
_symmetry_space_group_name_H-M "P M M A"
_symmetry_group_IT_number 51
_symmetry_cell_setting 'orthorhombic'
loop_
_space_group_symop_operation_xyz
x,y,z
1/2-x,-y,z
1/2+x,-y,-z
-x,y,-z
-x,-y,-z
1/2+x,y,-z
1/2-x,y,z
x,-y,z
loop_
_atom_site_type_symbol
_atom_site_label
_atom_site_fract_x
_atom_site_fract_y
_atom_site_fract_z
Si Si1 0.082885 0.564786 0.720830
Si Si2 0.080785 0.935042 0.718425
Si Si3 0.586627 0.144346 0.423410
Si Si4 0.416525 0.151177 0.192372
Si Si5 0.912959 0.325218 0.195196
Si Si6 0.088907 0.432068 0.429053
Si Si7 0.588448 0.772244 0.301620
Si Si8 0.581006 0.247537 0.920829
O O1 0.250000 0.569008 0.696930
O O2 0.043839 0.500000 0.747074
O O3 0.048274 0.607929 0.791017
O O4 0.989075 0.584670 0.649143
O O5 0.250000 0.932712 0.732172
O O6 0.035580 0.900240 0.642227
O O7 0.006607 0.907223 0.794070
O O8 0.025550 0.000000 0.709419
O O9 0.500000 0.134710 0.500000
O O10 0.750000 0.131583 0.445711
O O11 0.566586 0.209902 0.390731
O O12 0.250000 0.136085 0.202191
O O13 0.463406 0.196590 0.255668
O O14 0.446499 0.183035 0.111513
O O15 0.750000 0.318983 0.163322
O O16 0.923399 0.294775 0.279637
O O17 0.020985 0.296924 0.135184
O O18 0.250000 0.405945 0.428850
O O19 0.096296 0.500000 0.437980
O O20 0.000000 0.405569 0.500000
O O21 0.750000 0.795021 0.278135
O O22 0.750000 0.259143 0.931693
O O23 0.500000 0.252931 0.000000
#
# Coordination Sequence:
#
# PCOD8211093 Si02
#       8
#     8   8   8   8   8   8   8   8
#     4   9  17  29  46  69  96 126 160 197 238 287
#     4   9  18  32  48  66  91 126 164 196 230 277
#     4   9  17  28  42  61  87 119 156 198 239 277
#     4   9  17  29  47  72  96 117 147 189 230 267
#     4   9  17  31  51  71  94 124 155 189 232 283
#     4   9  16  26  41  60  83 114 153 196 237 274
#     4   8  15  29  46  62  84 118 155 189 231 282
#     4  10  20  33  52  78 103 123 148 186 231 278
#
# _framework density 16.914583
#
# number of rings (size 3 to 8) (size 9 to 14) (size 15 to 20)
#    0.000    3.000    0.000    1.875    0.000    6.000 
#    0.000    0.625    0.000    2.250    0.000    0.000 
#    0.000    0.000    0.000    0.000    0.000    0.000 
#
# Total GULP energy -792903.754736 kJ/mol
# GULP energy per Si atom -12389.121168 kJ/mol
# Density = 1.687608 g / cm^3
# Si number density = 16.914583 Si / 1000 Ang^3
#
#
#
# Elastic Constant Matrix: (Units=GPa)
#
#
# Indices 1 2 3 4 5 6 
#
# 1 85.6961 39.9613 58.4667 0.0000 0.0000 0.0000
# 2 39.9613 89.0437 52.7452 0.0000 0.0000 0.0000
# 3 58.4667 52.7452 93.5261 0.0000 0.0000 0.0000
# 4 0.0000 0.0000 0.0000 16.7031 0.0000 0.0000
# 5 0.0000 0.0000 0.0000 0.0000 27.6136 0.0000
# 6 0.0000 0.0000 0.0000 0.0000 0.0000 19.1828
#
#
#
# Elastic Compliance Matrix: (Units=1/GPa)
#
#
# Indices 1 2 3 4 5 6 
#
# 1 0.020694 -0.002439 -0.011561 0.000000 0.000000 0.000000
# 2 -0.002439 0.017152 -0.008148 0.000000 0.000000 0.000000
# 3 -0.011561 -0.008148 0.022515 0.000000 0.000000 0.000000
# 4 0.000000 0.000000 0.000000 0.059869 0.000000 0.000000
# 5 0.000000 0.000000 0.000000 0.000000 0.036214 0.000000
# 6 0.000000 0.000000 0.000000 0.000000 0.000000 0.052130
#
#
# Mechanical properties :
#
#
# Convention : Reuss Voigt Hill
#
# Bulk Modulus (GPa) = 62.25131 63.40136 62.82633
# Shear Modulus (GPa) = 19.36294 20.50608 19.93451
#
# Velocity S-wave (km/s) = 3.38708 3.48563 3.43671
# Velocity P-wave (km/s) = 7.22355 7.33240 7.27818
#
# Compressibility (1/GPa) = 0.01606392
#
# Stress axis : x y z
#
# Youngs Moduli (GPa) = 48.32286 58.30365 44.41502
#
# Poissons Ratio (x) = 0.14219 0.51349
# Poissons Ratio (y) = 0.11785 0.36191
# Poissons Ratio (z) = 0.55867 0.47507
#
# Static dielectric constant tensor:
#      x y z
#    x 3.272610 0.000000 0.000000 
#    y 0.000000 3.231840 0.000000 
#    z 0.000000 0.000000 2.958490 
# 
# 
# High freq. dielectric constant tensor:
#      x y z
#    x 1.658630 0.000000 0.000000 
#    y 0.000000 1.636260 0.000000 
#    z 0.000000 0.000000 1.622470 
# 
# From -- ./inp_files/28589.got.cif
#   From: 2010.03.12/outbox.cif.g09.slc.cpg/sg51_15_cif.got.tgz:28589.got - 2010.04.16 13:43:02.
