data_PCOD8211342
_publ_section_title
;
Structure prediction by ZEFSAII (Michael W. Deem and Ramdas Pophale) SiO2 
 PCOD8211342
Probable space group: P M M A
;
_chemical_formula_sum "Si O2"
_cell_formula_units_Z 48
_cell_length_a 9.347539
_cell_length_b 18.678739
_cell_length_c 13.174664
_cell_angle_alpha 90.000000
_cell_angle_beta 90.000000
_cell_angle_gamma 90.000000
_cell_volume 2300.299513
_symmetry_space_group_name_H-M "P M M A"
_symmetry_group_IT_number 51
_symmetry_cell_setting 'orthorhombic'
loop_
_space_group_symop_operation_xyz
x,y,z
1/2-x,-y,z
1/2+x,-y,-z
-x,y,-z
-x,-y,-z
1/2+x,y,-z
1/2-x,y,z
x,-y,z
loop_
_atom_site_type_symbol
_atom_site_label
_atom_site_fract_x
_atom_site_fract_y
_atom_site_fract_z
Si Si1 0.584048 0.856728 0.095972
Si Si2 0.414083 0.081820 0.688511
Si Si3 0.589063 0.577646 0.782239
Si Si4 0.582887 0.209006 0.598481
Si Si5 0.095198 0.581838 0.585849
Si Si6 0.912272 0.731635 0.816213
O O1 0.750000 0.849029 0.068539
O O2 0.557607 0.908061 0.191467
O O3 0.522113 0.777691 0.118594
O O4 0.500000 0.889932 0.000000
O O5 0.250000 0.102751 0.663689
O O6 0.520211 0.130386 0.623295
O O7 0.446163 0.000000 0.660251
O O8 0.750000 0.579720 0.736795
O O9 0.565393 0.500000 0.838492
O O10 0.476507 0.585554 0.694008
O O11 0.568082 0.648372 0.851521
O O12 0.500000 0.239888 0.500000
O O13 0.750000 0.201298 0.573653
O O14 0.555434 0.261021 0.695010
O O15 0.250000 0.620356 0.591057
O O16 0.117556 0.500000 0.552502
O O17 0.000000 0.621223 0.500000
O O18 0.750000 0.757938 0.837572
#
# Coordination Sequence:
#
# PCOD8211342 Si02
#       6
#     8   8   8   8   8   8
#     4  10  20  35  57  82 107 137 170 207 254 307
#     4   9  19  36  56  80 110 140 172 211 253 300
#     4   9  17  30  48  69  94 125 161 206 263 318
#     4  10  20  34  52  74 103 142 184 221 257 299
#     4   9  16  25  37  55  82 116 154 196 241 292
#     4   9  19  35  53  75 103 135 174 218 261 310
#
# _framework density 20.866848000000001
#
# number of rings (size 3 to 8) (size 9 to 14) (size 15 to 20)
#    0.000    2.667    0.000    1.500    0.000    5.667 
#    0.000    1.667    0.000    0.500    0.000    0.000 
#    0.000    0.000    0.000    0.000    0.000    0.000 
#
# Total GULP energy -594882.973426 kJ/mol
# GULP energy per Si atom -12393.395280 kJ/mol
# Density = 2.081935 g / cm^3
# Si number density = 20.866848 Si / 1000 Ang^3
#
#
#
# Elastic Constant Matrix: (Units=GPa)
#
#
# Indices 1 2 3 4 5 6 
#
# 1 112.6207 13.8383 15.1782 0.0000 0.0000 0.0000
# 2 13.8383 84.8558 -11.7712 0.0000 0.0000 0.0000
# 3 15.1782 -11.7712 38.7891 0.0000 0.0000 0.0000
# 4 0.0000 0.0000 0.0000 10.2511 0.0000 0.0000
# 5 0.0000 0.0000 0.0000 0.0000 34.2151 0.0000
# 6 0.0000 0.0000 0.0000 0.0000 0.0000 22.0590
#
#
#
# Elastic Compliance Matrix: (Units=1/GPa)
#
#
# Indices 1 2 3 4 5 6 
#
# 1 0.009756 -0.002214 -0.004490 0.000000 0.000000 0.000000
# 2 -0.002214 0.012805 0.004752 0.000000 0.000000 0.000000
# 3 -0.004490 0.004752 0.028979 0.000000 0.000000 0.000000
# 4 0.000000 0.000000 0.000000 0.097551 0.000000 0.000000
# 5 0.000000 0.000000 0.000000 0.000000 0.029227 0.000000
# 6 0.000000 0.000000 0.000000 0.000000 0.000000 0.045333
#
#
# Mechanical properties :
#
#
# Convention : Reuss Voigt Hill
#
# Bulk Modulus (GPa) = 20.99155 30.08403 25.53779
# Shear Modulus (GPa) = 20.53950 27.90640 24.22295
#
# Velocity S-wave (km/s) = 3.14078 3.66095 3.41080
# Velocity P-wave (km/s) = 4.82019 5.68494 5.27033
#
# Compressibility (1/GPa) = 0.04763822
#
# Stress axis : x y z
#
# Youngs Moduli (GPa) = 102.49617 78.09478 34.50737
#
# Poissons Ratio (x) = 0.17289 0.15492
# Poissons Ratio (y) = 0.22691 -0.16398
# Poissons Ratio (z) = 0.46016 -0.37112
#
# Static dielectric constant tensor:
#      x y z
#    x 3.936930 0.000000 0.000000 
#    y 0.000000 3.778680 0.000000 
#    z 0.000000 0.000000 3.410640 
# 
# 
# High freq. dielectric constant tensor:
#      x y z
#    x 1.826150 0.000000 0.000000 
#    y 0.000000 1.812290 0.000000 
#    z 0.000000 0.000000 1.779370 
# 
# From -- ./inp_files/21397.got.cif
#   From: 2010.03.12/outbox.cif.g09.slc.cpg/sg51_11_cif.got.tgz:21397.got - 2010.04.16 13:43:02.
