data_PCOD8211101
_publ_section_title
;
Structure prediction by ZEFSAII (Michael W. Deem and Ramdas Pophale) SiO2 
 PCOD8211101
Probable space group: P M M A
;
_chemical_formula_sum "Si O2"
_cell_formula_units_Z 64
_cell_length_a 18.218641
_cell_length_b 9.203879
_cell_length_c 20.515854
_cell_angle_alpha 90.000000
_cell_angle_beta 90.000000
_cell_angle_gamma 90.000000
_cell_volume 3440.142863
_symmetry_space_group_name_H-M "P M M A"
_symmetry_group_IT_number 51
_symmetry_cell_setting 'orthorhombic'
loop_
_space_group_symop_operation_xyz
x,y,z
1/2-x,-y,z
1/2+x,-y,-z
-x,y,-z
-x,-y,-z
1/2+x,y,-z
1/2-x,y,z
x,-y,z
loop_
_atom_site_type_symbol
_atom_site_label
_atom_site_fract_x
_atom_site_fract_y
_atom_site_fract_z
Si Si1 0.835171 0.670079 0.697502
Si Si2 0.412892 0.167528 0.811266
Si Si3 0.834669 0.167366 0.942763
Si Si4 0.914173 0.166277 0.811551
Si Si5 0.162607 0.837439 0.429993
Si Si6 0.837119 0.660795 0.448594
Si Si7 0.664845 0.669881 0.302492
Si Si8 0.164264 0.331103 0.927912
O O1 0.750000 0.706653 0.709353
O O2 0.848847 0.500000 0.690224
O O3 0.880968 0.729365 0.757571
O O4 0.864605 0.744905 0.631647
O O5 0.499476 0.186213 0.813212
O O6 0.384267 0.232505 0.743881
O O7 0.379509 0.253743 0.871158
O O8 0.389201 0.000000 0.816207
O O9 0.750000 0.196321 0.925353
O O10 0.882619 0.215238 0.881165
O O11 0.848379 0.000000 0.961434
O O12 0.860579 0.264445 0.003293
O O13 0.891381 0.000000 0.796393
O O14 0.250000 0.837734 0.432754
O O15 0.130498 0.768579 0.496706
O O16 0.131383 0.000000 0.423529
O O17 0.750000 0.653507 0.453704
O O18 0.869226 0.500000 0.461589
O O19 0.858497 0.713228 0.376064
O O20 0.750000 0.705110 0.289658
O O21 0.649873 0.500000 0.289552
O O22 0.250000 0.303809 0.915707
O O23 0.144490 0.500000 0.927828
#
# Coordination Sequence:
#
# PCOD8211101 Si02
#       8
#     8   8   8   8   8   8   8   8
#     4  10  20  33  52  78 105 135 173 215 257 304
#     4  11  23  36  52  76 106 139 175 215 256 302
#     4   9  18  35  59  81 101 130 168 209 253 303
#     4  10  22  38  54  75 105 140 175 212 257 306
#     4   9  16  26  44  72 104 135 167 207 256 307
#     4   8  14  26  45  70 100 131 165 209 258 306
#     4   9  18  33  53  76 103 137 175 215 261 311
#     4  10  21  37  57  80 106 135 168 209 256 306
#
# _framework density 18.603878999999999
#
# number of rings (size 3 to 8) (size 9 to 14) (size 15 to 20)
#    0.000    2.500    0.000    3.000    0.000    7.750 
#    0.000    5.000    0.000    0.750    0.000    5.250 
#    0.000    0.000    0.000    0.000    0.000    0.000 
#
# Total GULP energy -793680.337708 kJ/mol
# GULP energy per Si atom -12401.255277 kJ/mol
# Density = 1.856154 g / cm^3
# Si number density = 18.603879 Si / 1000 Ang^3
#
#
#
# Elastic Constant Matrix: (Units=GPa)
#
#
# Indices 1 2 3 4 5 6 
#
# 1 45.3027 45.1705 53.5107 0.0000 0.0000 0.0000
# 2 45.1705 124.3674 96.1746 0.0000 0.0000 0.0000
# 3 53.5107 96.1746 170.2807 0.0000 0.0000 0.0000
# 4 0.0000 0.0000 0.0000 42.0068 0.0000 0.0000
# 5 0.0000 0.0000 0.0000 0.0000 -8.3946 0.0000
# 6 0.0000 0.0000 0.0000 0.0000 0.0000 21.5197
#
#
#
# Elastic Compliance Matrix: (Units=1/GPa)
#
#
# Indices 1 2 3 4 5 6 
#
# 1 0.039530 -0.008435 -0.007658 0.000000 0.000000 0.000000
# 2 -0.008435 0.016076 -0.006429 0.000000 0.000000 0.000000
# 3 -0.007658 -0.006429 0.011910 0.000000 0.000000 0.000000
# 4 0.000000 0.000000 0.000000 0.023806 0.000000 0.000000
# 5 0.000000 0.000000 0.000000 0.000000 -0.119124 0.000000
# 6 0.000000 0.000000 0.000000 0.000000 0.000000 0.046469
#
#
# Mechanical properties :
#
#
# Convention : Reuss Voigt Hill
#
# Bulk Modulus (GPa) = 44.50050 81.07359 62.78705
# Shear Modulus (GPa) = 70.22313 20.69938 45.46126
#
# Velocity S-wave (km/s) = 6.15048 3.33924 4.94869
# Velocity P-wave (km/s) = 8.62612 7.65120 8.15324
#
# Compressibility (1/GPa) = 0.02247166
#
# Stress axis : x y z
#
# Youngs Moduli (GPa) = 25.29726 62.20466 83.96142
#
# Poissons Ratio (x) = 0.52472 0.64298
# Poissons Ratio (y) = 0.21339 0.53978
# Poissons Ratio (z) = 0.19373 0.39991
#
# Static dielectric constant tensor:
#      x y z
#    x 3.064800 0.000000 0.000000 
#    y 0.000000 3.558250 0.000000 
#    z 0.000000 0.000000 3.616860 
# 
# 
# High freq. dielectric constant tensor:
#      x y z
#    x 1.685900 0.000000 0.000000 
#    y 0.000000 1.727990 0.000000 
#    z 0.000000 0.000000 1.738620 
# 
# From -- ./inp_files/33801.got.cif
#   From: 2010.03.12/outbox.cif.g09.slc.cpg/sg51_17_cif.got.tgz:33801.got - 2010.04.16 13:43:02.
