data_PCOD8211133
_publ_section_title
;
Structure prediction by ZEFSAII (Michael W. Deem and Ramdas Pophale) SiO2 
 PCOD8211133
Probable space group: P M M A
;
_chemical_formula_sum "Si O2"
_cell_formula_units_Z 64
_cell_length_a 14.390259
_cell_length_b 9.249513
_cell_length_c 24.419350
_cell_angle_alpha 90.000000
_cell_angle_beta 90.000000
_cell_angle_gamma 90.000000
_cell_volume 3250.286001
_symmetry_space_group_name_H-M "P M M A"
_symmetry_group_IT_number 51
_symmetry_cell_setting 'orthorhombic'
loop_
_space_group_symop_operation_xyz
x,y,z
1/2-x,-y,z
1/2+x,-y,-z
-x,y,-z
-x,-y,-z
1/2+x,y,-z
1/2-x,y,z
x,-y,z
loop_
_atom_site_type_symbol
_atom_site_label
_atom_site_fract_x
_atom_site_fract_y
_atom_site_fract_z
Si Si1 0.003150 0.171247 0.061671
Si Si2 0.458055 0.333197 0.371416
Si Si3 0.357975 0.834243 0.466938
Si Si4 0.350948 0.160501 0.771087
Si Si5 0.145762 0.664380 0.575890
Si Si6 0.450267 0.834976 0.266083
Si Si7 0.854483 0.660908 0.122956
Si Si8 0.855442 0.171788 0.846767
O O1 0.089375 0.228681 0.099176
O O2 0.907761 0.225440 0.086341
O O3 0.004180 0.000000 0.061477
O O4 0.000000 0.232862 0.000000
O O5 0.429022 0.500000 0.370193
O O6 0.413481 0.258830 0.423557
O O7 0.570213 0.313968 0.375819
O O8 0.415637 0.261096 0.316602
O O9 0.250000 0.821005 0.452825
O O10 0.379495 0.772323 0.526874
O O11 0.391585 0.000000 0.465158
O O12 0.250000 0.174005 0.740820
O O13 0.437836 0.178452 0.730995
O O14 0.358038 0.286518 0.815030
O O15 0.358338 0.000000 0.798670
O O16 0.250000 0.696617 0.598642
O O17 0.140154 0.500000 0.553481
O O18 0.408095 0.775885 0.208588
O O19 0.417695 0.000000 0.275179
O O20 0.750000 0.658371 0.100662
O O21 0.898188 0.500000 0.120061
O O22 0.750000 0.233009 0.847992
O O23 0.854360 0.000000 0.847499
#
# Coordination Sequence:
#
# PCOD8211133 Si02
#       8
#     8   8   8   8   8   8   8   8
#     4  10  20  35  58  86 112 142 184 233 282 334
#     4  11  23  36  54  82 114 148 187 232 278 330
#     4  10  21  37  58  83 110 143 186 235 285 334
#     4   9  17  32  55  79 103 135 179 228 274 324
#     4   9  19  37  58  80 111 150 185 221 275 338
#     4  10  20  35  54  77 107 146 187 230 281 331
#     4  10  20  33  52  79 111 145 178 217 271 331
#     4   9  18  35  57  80 108 143 184 229 279 332
#
# _framework density 19.690574999999999
#
# number of rings (size 3 to 8) (size 9 to 14) (size 15 to 20)
#    0.000    2.250    1.250    1.500    0.000    6.250 
#    0.000    2.500    0.000    1.125    0.000    0.000 
#    0.000    0.000    0.000    0.000    0.000    0.000 
#
# Total GULP energy -793234.883803 kJ/mol
# GULP energy per Si atom -12394.295059 kJ/mol
# Density = 1.964576 g / cm^3
# Si number density = 19.690575 Si / 1000 Ang^3
#
#
#
# Elastic Constant Matrix: (Units=GPa)
#
#
# Indices 1 2 3 4 5 6 
#
# 1 77.2194 30.8393 34.4681 0.0000 0.0000 0.0000
# 2 30.8393 49.7764 35.2511 0.0000 0.0000 0.0000
# 3 34.4681 35.2511 85.6115 0.0000 0.0000 0.0000
# 4 0.0000 0.0000 0.0000 -20.6834 0.0000 0.0000
# 5 0.0000 0.0000 0.0000 0.0000 15.0961 0.0000
# 6 0.0000 0.0000 0.0000 0.0000 0.0000 19.1137
#
#
#
# Elastic Compliance Matrix: (Units=1/GPa)
#
#
# Indices 1 2 3 4 5 6 
#
# 1 0.018023 -0.008509 -0.003753 0.000000 0.000000 0.000000
# 2 -0.008509 0.032376 -0.009905 0.000000 0.000000 0.000000
# 3 -0.003753 -0.009905 0.017270 0.000000 0.000000 0.000000
# 4 0.000000 0.000000 0.000000 -0.048348 0.000000 0.000000
# 5 0.000000 0.000000 0.000000 0.000000 0.066242 0.000000
# 6 0.000000 0.000000 0.000000 0.000000 0.000000 0.052319
#
#
# Mechanical properties :
#
#
# Convention : Reuss Voigt Hill
#
# Bulk Modulus (GPa) = 42.85250 45.96935 44.41093
# Shear Modulus (GPa) = 26.31640 10.17522 18.24581
#
# Velocity S-wave (km/s) = 3.65978 2.27569 3.04736
# Velocity P-wave (km/s) = 6.29832 5.50469 5.91483
#
# Compressibility (1/GPa) = 0.02333586
#
# Stress axis : x y z
#
# Youngs Moduli (GPa) = 55.48332 30.88668 57.90297
#
# Poissons Ratio (x) = 0.26281 0.21730
# Poissons Ratio (y) = 0.47210 0.57356
# Poissons Ratio (z) = 0.20822 0.30595
#
# Static dielectric constant tensor:
#      x y z
#    x 3.858340 0.000000 0.000000 
#    y 0.000000 3.504160 0.000000 
#    z 0.000000 0.000000 3.456500 
# 
# 
# High freq. dielectric constant tensor:
#      x y z
#    x 1.773940 0.000000 0.000000 
#    y 0.000000 1.754360 0.000000 
#    z 0.000000 0.000000 1.747950 
# 
# From -- ./inp_files/35847.got.cif
#   From: 2010.03.12/outbox.cif.g09.slc.cpg/sg51_18_cif.got.tgz:35847.got - 2010.04.16 13:43:02.
