data_PCOD8211396
_publ_section_title
;
Structure prediction by ZEFSAII (Michael W. Deem and Ramdas Pophale) SiO2 
 PCOD8211396
Probable space group: P M M A
;
_chemical_formula_sum "Si O2"
_cell_formula_units_Z 40
_cell_length_a 8.662673
_cell_length_b 21.157361
_cell_length_c 14.210019
_cell_angle_alpha 90.000000
_cell_angle_beta 90.000000
_cell_angle_gamma 90.000000
_cell_volume 2604.402334
_symmetry_space_group_name_H-M "P M M A"
_symmetry_group_IT_number 51
_symmetry_cell_setting 'orthorhombic'
loop_
_space_group_symop_operation_xyz
x,y,z
1/2-x,-y,z
1/2+x,-y,-z
-x,y,-z
-x,-y,-z
1/2+x,y,-z
1/2-x,y,z
x,-y,z
loop_
_atom_site_type_symbol
_atom_site_label
_atom_site_fract_x
_atom_site_fract_y
_atom_site_fract_z
Si Si1 0.567693 0.500000 0.602959
Si Si2 0.431981 0.738108 0.604168
Si Si3 0.932363 0.134952 0.603853
Si Si4 0.932743 0.377524 0.715373
Si Si5 0.930120 0.000000 0.602128
Si Si6 0.931762 0.426937 0.099334
O O1 0.750000 0.500000 0.596353
O O2 0.500000 0.500000 0.500000
O O3 0.508065 0.561702 0.657512
O O4 0.500000 0.728710 0.500000
O O5 0.250000 0.736619 0.596060
O O6 0.487082 0.804483 0.652112
O O7 0.488345 0.683538 0.672283
O O8 0.750000 0.146930 0.601105
O O9 0.000000 0.131412 0.500000
O O10 0.973572 0.066779 0.654374
O O11 0.750000 0.370288 0.710584
O O12 0.986636 0.384126 0.822560
O O13 0.000000 0.000000 0.500000
O O14 0.750000 0.000000 0.584718
O O15 0.750000 0.415468 0.100712
O O16 0.974201 0.500000 0.117952
O O17 0.000000 0.404693 0.000000
#
# Coordination Sequence:
#
# PCOD8211396 Si02
#       6
#     4   8   8   8   4   8
#     4  10  22  34  47  64  85 112 147 186 224 262
#     4  11  21  32  44  62  87 120 156 189 225 269
#     4   9  15  25  39  57  80 110 145 184 222 260
#     4  11  21  35  50  67  88 116 149 187 228 271
#     4   8  14  22  36  56  78 104 141 182 221 258
#     4  10  20  34  53  74  93 114 140 178 224 273
#
# _framework density 15.358610000000001
#
# number of rings (size 3 to 8) (size 9 to 14) (size 15 to 20)
#    0.000    2.000    1.000    5.400    0.000    4.800 
#    0.000    0.000    0.000    0.000    0.000    0.000 
#    0.000    0.000    0.000    0.900    0.000   11.500 
#
# Total GULP energy -495693.380829 kJ/mol
# GULP energy per Si atom -12392.334521 kJ/mol
# Density = 1.532365 g / cm^3
# Si number density = 15.358610 Si / 1000 Ang^3
#
#
#
# Elastic Constant Matrix: (Units=GPa)
#
#
# Indices 1 2 3 4 5 6 
#
# 1 85.5156 51.1328 29.8895 0.0000 0.0000 0.0000
# 2 51.1328 154.9696 50.4414 0.0000 0.0000 0.0000
# 3 29.8895 50.4414 73.1248 0.0000 0.0000 0.0000
# 4 0.0000 0.0000 0.0000 2.5723 0.0000 0.0000
# 5 0.0000 0.0000 0.0000 0.0000 22.8815 0.0000
# 6 0.0000 0.0000 0.0000 0.0000 0.0000 19.0715
#
#
#
# Elastic Compliance Matrix: (Units=1/GPa)
#
#
# Indices 1 2 3 4 5 6 
#
# 1 0.015256 -0.003874 -0.003564 0.000000 0.000000 0.000000
# 2 -0.003874 0.009305 -0.004835 0.000000 0.000000 0.000000
# 3 -0.003564 -0.004835 0.018467 0.000000 0.000000 0.000000
# 4 0.000000 0.000000 0.000000 0.388751 0.000000 0.000000
# 5 0.000000 0.000000 0.000000 0.000000 0.043703 0.000000
# 6 0.000000 0.000000 0.000000 0.000000 0.000000 0.052434
#
#
# Mechanical properties :
#
#
# Convention : Reuss Voigt Hill
#
# Bulk Modulus (GPa) = 54.10462 64.05973 59.08218
# Shear Modulus (GPa) = 8.95060 21.04816 14.99938
#
# Velocity S-wave (km/s) = 2.41669 3.70597 3.12847
# Velocity P-wave (km/s) = 6.56439 7.75320 7.18343
#
# Compressibility (1/GPa) = 0.01848271
#
# Stress axis : x y z
#
# Youngs Moduli (GPa) = 65.54997 107.47131 54.15042
#
# Poissons Ratio (x) = 0.41631 0.19297
# Poissons Ratio (y) = 0.25392 0.26182
# Poissons Ratio (z) = 0.23359 0.51963
#
# Static dielectric constant tensor:
#      x y z
#    x 3.007600 0.000000 0.000000 
#    y 0.000000 3.711980 0.000000 
#    z 0.000000 0.000000 2.577890 
# 
# 
# High freq. dielectric constant tensor:
#      x y z
#    x 1.607300 0.000000 0.000000 
#    y 0.000000 1.599250 0.000000 
#    z 0.000000 0.000000 1.534690 
# 
# From -- ./inp_files/14277.got.cif
#   From: 2010.03.12/outbox.cif.g09.slc.cpg/sg51_8_cif.got.tgz:14277.got - 2010.04.16 13:43:02.
