data_PCOD8211936
_publ_section_title
;
Structure prediction by ZEFSAII (Michael W. Deem and Ramdas Pophale) SiO2 
 PCOD8211936
Probable space group: P M M A
;
_chemical_formula_sum "Si O2"
_cell_formula_units_Z 64
_cell_length_a 24.519024
_cell_length_b 9.075513
_cell_length_c 15.237769
_cell_angle_alpha 90.000000
_cell_angle_beta 90.000000
_cell_angle_gamma 90.000000
_cell_volume 3390.749821
_symmetry_space_group_name_H-M "P M M A"
_symmetry_group_IT_number 51
_symmetry_cell_setting 'orthorhombic'
loop_
_space_group_symop_operation_xyz
x,y,z
1/2-x,-y,z
1/2+x,-y,-z
-x,y,-z
-x,-y,-z
1/2+x,y,-z
1/2-x,y,z
x,-y,z
loop_
_atom_site_type_symbol
_atom_site_label
_atom_site_fract_x
_atom_site_fract_y
_atom_site_fract_z
Si Si1 0.311740 0.326158 0.870956
Si Si2 0.134590 0.834567 0.534286
Si Si3 0.310836 0.831655 0.359574
Si Si4 0.689423 0.674979 0.932996
Si Si5 0.614067 0.675360 0.778038
Si Si6 0.885044 0.170593 0.270285
Si Si7 0.048155 0.657823 0.437909
Si Si8 0.511103 0.172825 0.723804
O O1 0.250000 0.274798 0.849841
O O2 0.316205 0.500000 0.862910
O O3 0.353610 0.256856 0.803992
O O4 0.327936 0.274151 0.969334
O O5 0.185318 0.823531 0.466453
O O6 0.145857 0.798870 0.636843
O O7 0.094346 0.710754 0.502531
O O8 0.109228 0.000000 0.530534
O O9 0.250000 0.777280 0.333929
O O10 0.356810 0.731352 0.312225
O O11 0.320017 0.000000 0.328860
O O12 0.750000 0.735226 0.911058
O O13 0.690367 0.500000 0.929415
O O14 0.647692 0.738537 0.861003
O O15 0.612934 0.500000 0.778885
O O16 0.552405 0.738531 0.788161
O O17 0.948252 0.224317 0.268421
O O18 0.882924 0.000000 0.246414
O O19 0.064331 0.500000 0.390673
O O20 0.032391 0.788340 0.372662
O O21 0.000000 0.616694 0.500000
O O22 0.517333 0.000000 0.740693
#
# Coordination Sequence:
#
# PCOD8211936 Si02
#       8
#     8   8   8   8   8   8   8   8
#     4   9  19  38  63  86 108 138 177 226 282 333
#     4  10  20  35  53  73 104 148 187 221 266 323
#     4  10  21  35  51  75 109 148 186 225 274 333
#     4   8  16  34  59  84 109 139 178 224 279 339
#     4  11  21  34  56  84 110 142 184 232 280 325
#     4  10  22  37  56  82 110 147 190 227 269 323
#     4  11  21  32  51  79 106 136 182 235 274 309
#     4  11  22  36  53  77 113 153 187 220 270 333
#
# _framework density 18.874880000000001
#
# number of rings (size 3 to 8) (size 9 to 14) (size 15 to 20)
#    0.000    2.000    2.500    2.250    0.000    3.500 
#    0.000    3.125    0.000    5.250    0.000    0.000 
#    0.000    0.000    0.000    0.000    0.000    0.000 
#
# Total GULP energy -792970.290390 kJ/mol
# GULP energy per Si atom -12390.160787 kJ/mol
# Density = 1.883192 g / cm^3
# Si number density = 18.874880 Si / 1000 Ang^3
#
#
#
# Elastic Constant Matrix: (Units=GPa)
#
#
# Indices 1 2 3 4 5 6 
#
# 1 85.6721 36.2003 49.3245 0.0000 0.0000 0.0000
# 2 36.2003 56.6656 28.8674 0.0000 0.0000 0.0000
# 3 49.3245 28.8674 120.4422 0.0000 0.0000 0.0000
# 4 0.0000 0.0000 0.0000 16.2103 0.0000 0.0000
# 5 0.0000 0.0000 0.0000 0.0000 34.3512 0.0000
# 6 0.0000 0.0000 0.0000 0.0000 0.0000 29.5516
#
#
#
# Elastic Compliance Matrix: (Units=1/GPa)
#
#
# Indices 1 2 3 4 5 6 
#
# 1 0.018683 -0.009155 -0.005457 0.000000 0.000000 0.000000
# 2 -0.009155 0.024588 -0.002144 0.000000 0.000000 0.000000
# 3 -0.005457 -0.002144 0.011051 0.000000 0.000000 0.000000
# 4 0.000000 0.000000 0.000000 0.061689 0.000000 0.000000
# 5 0.000000 0.000000 0.000000 0.000000 0.029111 0.000000
# 6 0.000000 0.000000 0.000000 0.000000 0.000000 0.033839
#
#
# Mechanical properties :
#
#
# Convention : Reuss Voigt Hill
#
# Bulk Modulus (GPa) = 48.05321 54.61825 51.33573
# Shear Modulus (GPa) = 22.78835 25.91513 24.35174
#
# Velocity S-wave (km/s) = 3.47845 3.70942 3.59579
# Velocity P-wave (km/s) = 6.45344 6.88086 6.67057
#
# Compressibility (1/GPa) = 0.02081026
#
# Stress axis : x y z
#
# Youngs Moduli (GPa) = 53.52577 40.66954 90.48739
#
# Poissons Ratio (x) = 0.37235 0.49376
# Poissons Ratio (y) = 0.49005 0.19400
# Poissons Ratio (z) = 0.29207 0.08719
#
# Static dielectric constant tensor:
#      x y z
#    x 3.719520 0.000000 0.000000 
#    y 0.000000 3.296780 0.000000 
#    z 0.000000 0.000000 3.540190 
# 
# 
# High freq. dielectric constant tensor:
#      x y z
#    x 1.730550 0.000000 0.000000 
#    y 0.000000 1.725040 0.000000 
#    z 0.000000 0.000000 1.725480 
# 
# From -- ./inp_files/26180.got.cif
#   From: 2010.03.12/outbox.cif.g09.slc.cpg/sg51_14_cif.got.tgz:26180.got - 2010.04.16 13:43:02.
