data_PCOD8211537
_publ_section_title
;
Structure prediction by ZEFSAII (Michael W. Deem and Ramdas Pophale) SiO2 
 PCOD8211537
Probable space group: P M M A
;
_chemical_formula_sum "Si O2"
_cell_formula_units_Z 64
_cell_length_a 28.228819
_cell_length_b 9.606265
_cell_length_c 12.499767
_cell_angle_alpha 90.000000
_cell_angle_beta 90.000000
_cell_angle_gamma 90.000000
_cell_volume 3389.605766
_symmetry_space_group_name_H-M "P M M A"
_symmetry_group_IT_number 51
_symmetry_cell_setting 'orthorhombic'
loop_
_space_group_symop_operation_xyz
x,y,z
1/2-x,-y,z
1/2+x,-y,-z
-x,y,-z
-x,-y,-z
1/2+x,y,-z
1/2-x,y,z
x,-y,z
loop_
_atom_site_type_symbol
_atom_site_label
_atom_site_fract_x
_atom_site_fract_y
_atom_site_fract_z
Si Si1 0.550464 0.840872 0.963868
Si Si2 0.638876 0.159080 0.106355
Si Si3 0.339172 0.658810 0.289850
Si Si4 0.441670 0.657972 0.235654
Si Si5 0.305677 0.340622 0.058206
Si Si6 0.196322 0.840336 0.479695
Si Si7 0.880726 0.836050 0.346243
Si Si8 0.525478 0.337120 0.389763
O O1 0.569099 0.753394 0.865038
O O2 0.545867 0.000000 0.926230
O O3 0.500000 0.780894 0.000000
O O4 0.585886 0.823230 0.062323
O O5 0.675441 0.251910 0.040924
O O6 0.637489 0.208041 0.229164
O O7 0.656113 0.000000 0.096869
O O8 0.321584 0.500000 0.302746
O O9 0.395577 0.670824 0.312077
O O10 0.311077 0.751269 0.373574
O O11 0.327751 0.712139 0.170018
O O12 0.447054 0.500000 0.195332
O O13 0.488692 0.705865 0.297075
O O14 0.250000 0.320929 0.064329
O O15 0.320394 0.500000 0.037874
O O16 0.250000 0.818957 0.520960
O O17 0.160920 0.792306 0.572973
O O18 0.186731 0.000000 0.449000
O O19 0.927613 0.752930 0.377546
O O20 0.892325 0.000000 0.350456
O O21 0.500000 0.299803 0.500000
O O22 0.538675 0.500000 0.384477
#
# Coordination Sequence:
#
# PCOD8211537 Si02
#       8
#     8   8   8   8   8   8   8   8
#     4  10  20  34  53  79 111 146 185 229 275 327
#     4  10  21  37  57  82 113 151 192 233 282 340
#     4  10  20  37  60  85 115 149 188 235 289 346
#     4  10  20  34  55  82 111 147 187 229 279 334
#     4  10  21  37  58  84 114 149 190 238 289 340
#     4  10  22  39  59  84 112 144 187 240 292 343
#     4  10  22  40  60  83 114 152 194 236 285 342
#     4  10  21  37  57  84 116 151 193 237 283 337
#
# _framework density 18.881250999999999
#
# number of rings (size 3 to 8) (size 9 to 14) (size 15 to 20)
#    0.000    2.000    1.250    1.875    0.000    6.500 
#    0.000    1.250    0.000    0.000    0.000    0.000 
#    0.000    0.000    0.000    0.000    0.000    0.000 
#
# Total GULP energy -793798.370998 kJ/mol
# GULP energy per Si atom -12403.099547 kJ/mol
# Density = 1.883828 g / cm^3
# Si number density = 18.881251 Si / 1000 Ang^3
#
#
#
# Elastic Constant Matrix: (Units=GPa)
#
#
# Indices 1 2 3 4 5 6 
#
# 1 115.8900 47.2532 54.8067 0.0000 0.0000 0.0000
# 2 47.2532 64.7124 59.1944 0.0000 0.0000 0.0000
# 3 54.8067 59.1944 131.0098 0.0000 0.0000 0.0000
# 4 0.0000 0.0000 0.0000 31.4325 0.0000 0.0000
# 5 0.0000 0.0000 0.0000 0.0000 31.0779 0.0000
# 6 0.0000 0.0000 0.0000 0.0000 0.0000 41.4172
#
#
#
# Elastic Compliance Matrix: (Units=1/GPa)
#
#
# Indices 1 2 3 4 5 6 
#
# 1 0.012556 -0.007438 -0.001892 0.000000 0.000000 0.000000
# 2 -0.007438 0.030745 -0.010780 0.000000 0.000000 0.000000
# 3 -0.001892 -0.010780 0.013295 0.000000 0.000000 0.000000
# 4 0.000000 0.000000 0.000000 0.031814 0.000000 0.000000
# 5 0.000000 0.000000 0.000000 0.000000 0.032177 0.000000
# 6 0.000000 0.000000 0.000000 0.000000 0.000000 0.024145
#
#
# Mechanical properties :
#
#
# Convention : Reuss Voigt Hill
#
# Bulk Modulus (GPa) = 61.06278 70.45787 65.76032
# Shear Modulus (GPa) = 26.25890 30.80939 28.53414
#
# Velocity S-wave (km/s) = 3.73331 4.04387 3.89169
# Velocity P-wave (km/s) = 7.14101 7.69423 7.42278
#
# Compressibility (1/GPa) = 0.01637659
#
# Stress axis : x y z
#
# Youngs Moduli (GPa) = 79.64013 32.52570 75.21449
#
# Poissons Ratio (x) = 0.24192 0.14232
# Poissons Ratio (y) = 0.59236 0.81081
# Poissons Ratio (z) = 0.15069 0.35062
#
# Static dielectric constant tensor:
#      x y z
#    x 3.537510 0.000000 0.000000 
#    y 0.000000 3.409910 0.000000 
#    z 0.000000 0.000000 3.427930 
# 
# 
# High freq. dielectric constant tensor:
#      x y z
#    x 1.745360 0.000000 0.000000 
#    y 0.000000 1.726810 0.000000 
#    z 0.000000 0.000000 1.733100 
# 
# From -- ./inp_files/19513.got.cif
#   From: 2010.03.12/outbox.cif.g09.slc.cpg/sg51_10_cif.got.tgz:19513.got - 2010.04.16 13:43:02.
