data_PCOD8211968
_publ_section_title
;
Structure prediction by ZEFSAII (Michael W. Deem and Ramdas Pophale) SiO2 
 PCOD8211968
Probable space group: P M M A
;
_chemical_formula_sum "Si O2"
_cell_formula_units_Z 56
_cell_length_a 22.020556
_cell_length_b 14.649203
_cell_length_c 9.849634
_cell_angle_alpha 90.000000
_cell_angle_beta 90.000000
_cell_angle_gamma 90.000000
_cell_volume 3177.330345
_symmetry_space_group_name_H-M "P M M A"
_symmetry_group_IT_number 51
_symmetry_cell_setting 'orthorhombic'
loop_
_space_group_symop_operation_xyz
x,y,z
1/2-x,-y,z
1/2+x,-y,-z
-x,y,-z
-x,-y,-z
1/2+x,y,-z
1/2-x,y,z
x,-y,z
loop_
_atom_site_type_symbol
_atom_site_label
_atom_site_fract_x
_atom_site_fract_y
_atom_site_fract_z
Si Si1 0.595087 0.399147 0.924437
Si Si2 0.181082 0.893170 0.972851
Si Si3 0.117121 0.894282 0.700679
Si Si4 0.378348 0.217018 0.199172
Si Si5 0.462275 0.399736 0.800262
Si Si6 0.680031 0.103706 0.574530
Si Si7 0.507424 0.774668 0.340860
O O1 0.625085 0.500000 0.904877
O O2 0.634506 0.322584 0.844552
O O3 0.527787 0.400828 0.867334
O O4 0.588557 0.375812 0.085230
O O5 0.250000 0.859256 0.002300
O O6 0.165353 0.870127 0.817393
O O7 0.176242 0.000000 0.003177
O O8 0.131108 0.843516 0.065394
O O9 0.144151 0.862733 0.557246
O O10 0.053440 0.845597 0.725779
O O11 0.102342 0.000000 0.699963
O O12 0.331227 0.178614 0.309297
O O13 0.445724 0.208331 0.258764
O O14 0.447900 0.500000 0.738176
O O15 0.463257 0.325745 0.679960
O O16 0.750000 0.103918 0.536149
O O17 0.660664 0.000000 0.618623
O O18 0.500000 0.792588 0.500000
#
# Coordination Sequence:
#
# PCOD8211968 Si02
#       7
#     8   8   8   8   8   8   8
#     4   8  15  29  49  74 102 135 171 208 255 310
#     4  10  21  37  56  78 101 130 180 233 262 292
#     4  10  21  36  53  73 104 144 175 209 261 315
#     4  11  20  32  53  80 107 137 167 213 268 311
#     4   8  15  29  49  71 101 139 175 209 247 299
#     4  10  20  35  54  73  97 137 184 219 252 301
#     4  11  21  33  48  78 115 142 171 207 261 326
#
# _framework density 17.624859000000001
#
# number of rings (size 3 to 8) (size 9 to 14) (size 15 to 20)
#    0.000    2.286    1.429    3.000    0.000    6.286 
#    0.000    1.429    0.000    1.714    0.000    0.000 
#    0.000    3.429    0.000    0.000    0.000    0.000 
#
# Total GULP energy -694051.998111 kJ/mol
# GULP energy per Si atom -12393.785681 kJ/mol
# Density = 1.758474 g / cm^3
# Si number density = 17.624859 Si / 1000 Ang^3
#
#
#
# Elastic Constant Matrix: (Units=GPa)
#
#
# Indices 1 2 3 4 5 6 
#
# 1 58.8614 41.0706 25.3210 0.0000 0.0000 0.0000
# 2 41.0706 81.1869 53.7196 0.0000 0.0000 0.0000
# 3 25.3210 53.7196 69.6176 0.0000 0.0000 0.0000
# 4 0.0000 0.0000 0.0000 26.8140 0.0000 0.0000
# 5 0.0000 0.0000 0.0000 0.0000 26.2006 0.0000
# 6 0.0000 0.0000 0.0000 0.0000 0.0000 12.4736
#
#
#
# Elastic Compliance Matrix: (Units=1/GPa)
#
#
# Indices 1 2 3 4 5 6 
#
# 1 0.026327 -0.014266 0.001433 0.000000 0.000000 0.000000
# 2 -0.014266 0.032898 -0.020196 0.000000 0.000000 0.000000
# 3 0.001433 -0.020196 0.029427 0.000000 0.000000 0.000000
# 4 0.000000 0.000000 0.000000 0.037294 0.000000 0.000000
# 5 0.000000 0.000000 0.000000 0.000000 0.038167 0.000000
# 6 0.000000 0.000000 0.000000 0.000000 0.000000 0.080169
#
#
# Mechanical properties :
#
#
# Convention : Reuss Voigt Hill
#
# Bulk Modulus (GPa) = 44.26235 49.98759 47.12497
# Shear Modulus (GPa) = 15.72960 19.06796 17.39878
#
# Velocity S-wave (km/s) = 2.99066 3.29276 3.14534
# Velocity P-wave (km/s) = 6.09044 6.54828 6.32350
#
# Compressibility (1/GPa) = 0.02259256
#
# Stress axis : x y z
#
# Youngs Moduli (GPa) = 37.98385 30.39739 33.98229
#
# Poissons Ratio (x) = 0.43366 -0.04869
# Poissons Ratio (y) = 0.54189 0.68631
# Poissons Ratio (z) = -0.05443 0.61391
#
# Static dielectric constant tensor:
#      x y z
#    x 3.068710 0.000000 0.000000 
#    y 0.000000 3.594010 0.000000 
#    z 0.000000 0.000000 3.371870 
# 
# 
# High freq. dielectric constant tensor:
#      x y z
#    x 1.653450 0.000000 0.000000 
#    y 0.000000 1.680630 0.000000 
#    z 0.000000 0.000000 1.683530 
# 
# From -- ./inp_files/11005.got.cif
#   From: 2010.03.12/outbox.cif.g09.slc.cpg/sg51_6_cif.got.tgz:11005.got - 2010.04.16 13:43:02.
