data_PCOD8211480
_publ_section_title
;
Structure prediction by ZEFSAII (Michael W. Deem and Ramdas Pophale) SiO2 
 PCOD8211480
Probable space group: P M M A
;
_chemical_formula_sum "Si O2"
_cell_formula_units_Z 28
_cell_length_a 8.764754
_cell_length_b 12.690591
_cell_length_c 14.381519
_cell_angle_alpha 90.000000
_cell_angle_beta 90.000000
_cell_angle_gamma 90.000000
_cell_volume 1599.655039
_symmetry_space_group_name_H-M "P M M A"
_symmetry_group_IT_number 51
_symmetry_cell_setting 'orthorhombic'
loop_
_space_group_symop_operation_xyz
x,y,z
1/2-x,-y,z
1/2+x,-y,-z
-x,y,-z
-x,-y,-z
1/2+x,y,-z
1/2-x,y,z
x,-y,z
loop_
_atom_site_type_symbol
_atom_site_label
_atom_site_fract_x
_atom_site_fract_y
_atom_site_fract_z
Si Si1 0.430752 0.500000 0.898053
Si Si2 0.571493 0.117508 0.904286
Si Si3 0.427394 0.623350 0.597062
Si Si4 0.070539 0.311841 0.217344
O O1 0.250000 0.500000 0.905376
O O2 0.482797 0.602786 0.843307
O O3 0.500000 0.500000 0.000000
O O4 0.750000 0.115535 0.920462
O O5 0.528090 0.196517 0.821457
O O6 0.510524 0.000000 0.879477
O O7 0.500000 0.159368 0.000000
O O8 0.500000 0.659136 0.500000
O O9 0.250000 0.652323 0.597339
O O10 0.454160 0.500000 0.614657
O O11 0.513801 0.687088 0.676988
O O12 0.250000 0.335636 0.212710
#
# Coordination Sequence:
#
# PCOD8211480 Si02
#       4
#     4   8   8   8
#     4  12  24  36  49  72 107 142 174 212 258 312
#     4   9  19  35  54  77 104 137 177 218 259 304
#     4  10  20  34  53  77 106 139 173 215 259 310
#     4  11  21  34  54  78 106 139 173 214 261 313
#
# _framework density 17.503774
#
# number of rings (size 3 to 8) (size 9 to 14) (size 15 to 20)
#    0.000    1.714    1.429    3.857    0.000    5.714 
#    0.000    0.000    0.000    0.857    0.000    0.000 
#    0.000    0.000    0.000    0.000    0.000    0.000 
#
# Total GULP energy -347287.682867 kJ/mol
# GULP energy per Si atom -12403.131531 kJ/mol
# Density = 1.746393 g / cm^3
# Si number density = 17.503774 Si / 1000 Ang^3
#
#
#
# Elastic Constant Matrix: (Units=GPa)
#
#
# Indices 1 2 3 4 5 6 
#
# 1 98.2048 48.3692 61.5216 0.0000 0.0000 0.0000
# 2 48.3692 90.9103 68.2005 0.0000 0.0000 0.0000
# 3 61.5216 68.2005 159.5280 0.0000 0.0000 0.0000
# 4 0.0000 0.0000 0.0000 6.1476 0.0000 0.0000
# 5 0.0000 0.0000 0.0000 0.0000 36.9227 0.0000
# 6 0.0000 0.0000 0.0000 0.0000 0.0000 12.4549
#
#
#
# Elastic Compliance Matrix: (Units=1/GPa)
#
#
# Indices 1 2 3 4 5 6 
#
# 1 0.015017 -0.005366 -0.003497 0.000000 0.000000 0.000000
# 2 -0.005366 0.018111 -0.005673 0.000000 0.000000 0.000000
# 3 -0.003497 -0.005673 0.010042 0.000000 0.000000 0.000000
# 4 0.000000 0.000000 0.000000 0.162665 0.000000 0.000000
# 5 0.000000 0.000000 0.000000 0.000000 0.027084 0.000000
# 6 0.000000 0.000000 0.000000 0.000000 0.000000 0.080289
#
#
# Mechanical properties :
#
#
# Convention : Reuss Voigt Hill
#
# Bulk Modulus (GPa) = 70.93611 78.31398 74.62505
# Shear Modulus (GPa) = 14.41007 22.47517 18.44262
#
# Velocity S-wave (km/s) = 2.87235 3.58721 3.24950
# Velocity P-wave (km/s) = 7.18434 7.87374 7.53692
#
# Compressibility (1/GPa) = 0.01409719
#
# Stress axis : x y z
#
# Youngs Moduli (GPa) = 66.59314 55.21505 99.57700
#
# Poissons Ratio (x) = 0.29630 0.34822
# Poissons Ratio (y) = 0.35735 0.56492
# Poissons Ratio (z) = 0.23287 0.31325
#
# Static dielectric constant tensor:
#      x y z
#    x 3.367180 0.000000 0.000000 
#    y 0.000000 3.459440 0.000000 
#    z 0.000000 0.000000 3.339600 
# 
# 
# High freq. dielectric constant tensor:
#      x y z
#    x 1.690260 0.000000 0.000000 
#    y 0.000000 1.658430 0.000000 
#    z 0.000000 0.000000 1.681280 
# 
# From -- ./inp_files/19949.got.cif
#   From: 2010.03.12/outbox.cif.g09.slc.cpg/sg51_10_cif.got.tgz:19949.got - 2010.04.16 13:43:02.
