data_PCOD8211214
_publ_section_title
;
Structure prediction by ZEFSAII (Michael W. Deem and Ramdas Pophale) SiO2 
 PCOD8211214
Probable space group: P M M A
;
_chemical_formula_sum "Si O2"
_cell_formula_units_Z 52
_cell_length_a 9.368879
_cell_length_b 15.289024
_cell_length_c 19.257209
_cell_angle_alpha 90.000000
_cell_angle_beta 90.000000
_cell_angle_gamma 90.000000
_cell_volume 2758.422180
_symmetry_space_group_name_H-M "P M M A"
_symmetry_group_IT_number 51
_symmetry_cell_setting 'orthorhombic'
loop_
_space_group_symop_operation_xyz
x,y,z
1/2-x,-y,z
1/2+x,-y,-z
-x,y,-z
-x,-y,-z
1/2+x,y,-z
1/2-x,y,z
x,-y,z
loop_
_atom_site_type_symbol
_atom_site_label
_atom_site_fract_x
_atom_site_fract_y
_atom_site_fract_z
Si Si1 0.417727 0.177903 0.802372
Si Si2 0.912144 0.638791 0.659368
Si Si3 0.083588 0.500000 0.073192
Si Si4 0.583703 0.000000 0.570559
Si Si5 0.085351 0.159116 0.331712
Si Si6 0.413783 0.650089 0.181723
Si Si7 0.577882 0.500000 0.426407
Si Si8 0.903897 0.898878 0.058241
O O1 0.250000 0.184864 0.788289
O O2 0.491157 0.137848 0.735027
O O3 0.477529 0.270963 0.825982
O O4 0.461150 0.112183 0.864016
O O5 0.750000 0.615889 0.636010
O O6 0.943519 0.741246 0.644509
O O7 0.931489 0.612118 0.740199
O O8 0.027146 0.585925 0.614822
O O9 0.250000 0.500000 0.054642
O O10 0.043863 0.417507 0.121422
O O11 0.000000 0.500000 0.000000
O O12 0.500000 0.000000 0.500000
O O13 0.540256 0.088713 0.610639
O O14 0.750000 0.000000 0.553791
O O15 0.250000 0.147474 0.310797
O O16 0.250000 0.681649 0.172901
O O17 0.750000 0.500000 0.433903
O O18 0.500000 0.500000 0.500000
O O19 0.750000 0.852512 0.053127
O O20 0.890547 0.000000 0.040236
O O21 0.000000 0.851881 0.000000
#
# Coordination Sequence:
#
# PCOD8211214 Si02
#       8
#     8   8   4   4   8   8   4   8
#     4  10  20  33  54  82 109 137 178 228 274 318
#     4   9  18  37  61  82 109 145 185 231 276 325
#     4  10  21  36  54  78 108 148 189 230 280 336
#     4  10  22  40  60  86 117 150 189 228 273 332
#     4   9  20  38  59  84 114 148 186 226 273 332
#     4   9  19  37  58  77 104 142 182 220 271 330
#     4  12  25  38  56  84 114 144 179 220 270 328
#     4   9  19  34  49  70 102 139 177 218 265 316
#
# _framework density 18.851355999999999
#
# number of rings (size 3 to 8) (size 9 to 14) (size 15 to 20)
#    0.000    2.462    0.000    2.538    1.077    7.385 
#    0.000    5.385    0.000    0.000    0.000    0.000 
#    0.000    0.000    0.000    0.000    0.000    0.000 
#
# Total GULP energy -644542.142932 kJ/mol
# GULP energy per Si atom -12395.041210 kJ/mol
# Density = 1.880845 g / cm^3
# Si number density = 18.851356 Si / 1000 Ang^3
#
#
#
# Elastic Constant Matrix: (Units=GPa)
#
#
# Indices 1 2 3 4 5 6 
#
# 1 103.9791 46.1852 83.8385 0.0000 0.0000 0.0000
# 2 46.1852 85.3247 69.6394 0.0000 0.0000 0.0000
# 3 83.8385 69.6394 156.5985 0.0000 0.0000 0.0000
# 4 0.0000 0.0000 0.0000 19.4609 0.0000 0.0000
# 5 0.0000 0.0000 0.0000 0.0000 39.2782 0.0000
# 6 0.0000 0.0000 0.0000 0.0000 0.0000 20.0324
#
#
#
# Elastic Compliance Matrix: (Units=1/GPa)
#
#
# Indices 1 2 3 4 5 6 
#
# 1 0.017350 -0.002842 -0.008025 0.000000 0.000000 0.000000
# 2 -0.002842 0.018863 -0.006867 0.000000 0.000000 0.000000
# 3 -0.008025 -0.006867 0.013736 0.000000 0.000000 0.000000
# 4 0.000000 0.000000 0.000000 0.051385 0.000000 0.000000
# 5 0.000000 0.000000 0.000000 0.000000 0.025459 0.000000
# 6 0.000000 0.000000 0.000000 0.000000 0.000000 0.049919
#
#
# Mechanical properties :
#
#
# Convention : Reuss Voigt Hill
#
# Bulk Modulus (GPa) = 69.05388 82.80316 75.92852
# Shear Modulus (GPa) = 23.04075 25.50358 24.27217
#
# Velocity S-wave (km/s) = 3.49984 3.68214 3.59215
# Velocity P-wave (km/s) = 7.28300 7.88017 7.58746
#
# Compressibility (1/GPa) = 0.01448144
#
# Stress axis : x y z
#
# Youngs Moduli (GPa) = 57.63631 53.01500 72.80178
#
# Poissons Ratio (x) = 0.15064 0.58425
# Poissons Ratio (y) = 0.16378 0.49992
# Poissons Ratio (z) = 0.46254 0.36405
#
# Static dielectric constant tensor:
#      x y z
#    x 3.580970 0.000000 0.000000 
#    y 0.000000 3.457750 0.000000 
#    z 0.000000 0.000000 3.503160 
# 
# 
# High freq. dielectric constant tensor:
#      x y z
#    x 1.731770 0.000000 0.000000 
#    y 0.000000 1.727190 0.000000 
#    z 0.000000 0.000000 1.734570 
# 
# From -- ./inp_files/31831.got.cif
#   From: 2010.03.12/outbox.cif.g09.slc.cpg/sg51_16_cif.got.tgz:31831.got - 2010.04.16 13:43:02.
