data_PCOD8211757
_publ_section_title
;
Structure prediction by ZEFSAII (Michael W. Deem and Ramdas Pophale) SiO2 
 PCOD8211757
Probable space group: P M M A
;
_chemical_formula_sum "Si O2"
_cell_formula_units_Z 56
_cell_length_a 15.248229
_cell_length_b 9.082745
_cell_length_c 21.503254
_cell_angle_alpha 90.000000
_cell_angle_beta 90.000000
_cell_angle_gamma 90.000000
_cell_volume 2978.109843
_symmetry_space_group_name_H-M "P M M A"
_symmetry_group_IT_number 51
_symmetry_cell_setting 'orthorhombic'
loop_
_space_group_symop_operation_xyz
x,y,z
1/2-x,-y,z
1/2+x,-y,-z
-x,y,-z
-x,-y,-z
1/2+x,y,-z
1/2-x,y,z
x,-y,z
loop_
_atom_site_type_symbol
_atom_site_label
_atom_site_fract_x
_atom_site_fract_y
_atom_site_fract_z
Si Si1 0.001888 0.174354 0.288721
Si Si2 0.648830 0.672306 0.068057
Si Si3 0.651974 0.168481 0.376305
Si Si4 0.005523 0.826205 0.850782
Si Si5 0.152141 0.168645 0.378290
Si Si6 0.849758 0.170309 0.941021
Si Si7 0.899074 0.673304 0.499214
O O1 0.003442 0.237652 0.219001
O O2 0.085744 0.234212 0.326940
O O3 0.914003 0.228368 0.323652
O O4 0.006069 0.000000 0.284575
O O5 0.750000 0.707664 0.083847
O O6 0.629723 0.500000 0.067805
O O7 0.589341 0.749009 0.119402
O O8 0.623869 0.734422 0.000563
O O9 0.750000 0.181668 0.349015
O O10 0.646052 0.264660 0.437925
O O11 0.628858 0.000000 0.393537
O O12 0.915306 0.785473 0.885750
O O13 0.022622 0.000000 0.851751
O O14 0.250000 0.180293 0.350554
O O15 0.148369 0.261064 0.441076
O O16 0.127570 0.000000 0.394099
O O17 0.750000 0.203601 0.919307
O O18 0.860839 0.000000 0.959522
O O19 0.886383 0.500000 0.500013
O O20 0.000000 0.721013 0.500000
#
# Coordination Sequence:
#
# PCOD8211757 Si02
#       7
#     8   8   8   8   8   8   8
#     4   9  19  35  53  77 108 138 171 215 256 303
#     4  10  21  36  54  78 108 141 178 221 267 312
#     4  10  20  35  56  78 101 135 176 215 261 314
#     4  10  20  34  55  81 108 142 179 215 262 314
#     4  10  20  35  57  81 104 136 175 213 260 315
#     4   9  18  33  54  81 111 140 173 216 264 314
#     4  11  22  35  54  79 106 136 171 216 268 314
#
# _framework density 18.803871999999998
#
# number of rings (size 3 to 8) (size 9 to 14) (size 15 to 20)
#    0.000    2.143    1.429    1.714    0.000    7.143 
#    0.000    5.714    0.000    0.000    0.000    2.000 
#    0.000    0.000    0.000    0.000    0.000    0.000 
#
# Total GULP energy -694531.620017 kJ/mol
# GULP energy per Si atom -12402.350357 kJ/mol
# Density = 1.876107 g / cm^3
# Si number density = 18.803872 Si / 1000 Ang^3
#
#
#
# Elastic Constant Matrix: (Units=GPa)
#
#
# Indices 1 2 3 4 5 6 
#
# 1 135.1029 38.6574 81.6391 0.0000 0.0000 0.0000
# 2 38.6574 49.8775 40.3489 0.0000 0.0000 0.0000
# 3 81.6391 40.3489 162.5709 0.0000 0.0000 0.0000
# 4 0.0000 0.0000 0.0000 -5.9411 0.0000 0.0000
# 5 0.0000 0.0000 0.0000 0.0000 11.6502 0.0000
# 6 0.0000 0.0000 0.0000 0.0000 0.0000 22.8089
#
#
#
# Elastic Compliance Matrix: (Units=1/GPa)
#
#
# Indices 1 2 3 4 5 6 
#
# 1 0.011680 -0.005390 -0.004528 0.000000 0.000000 0.000000
# 2 -0.005390 0.027573 -0.004137 0.000000 0.000000 0.000000
# 3 -0.004528 -0.004137 0.009452 0.000000 0.000000 0.000000
# 4 0.000000 0.000000 0.000000 -0.168320 0.000000 0.000000
# 5 0.000000 0.000000 0.000000 0.000000 0.085836 0.000000
# 6 0.000000 0.000000 0.000000 0.000000 0.000000 0.043843
#
#
# Mechanical properties :
#
#
# Convention : Reuss Voigt Hill
#
# Bulk Modulus (GPa) = 48.55324 74.31579 61.43451
# Shear Modulus (GPa) = 111.02183 18.16400 64.59292
#
# Velocity S-wave (km/s) = 7.69222 3.11138 5.86732
# Velocity P-wave (km/s) = 10.23575 7.24672 8.86807
#
# Compressibility (1/GPa) = 0.02059595
#
# Stress axis : x y z
#
# Youngs Moduli (GPa) = 85.61721 36.26750 105.80270
#
# Poissons Ratio (x) = 0.19547 0.47904
# Poissons Ratio (y) = 0.46146 0.43768
# Poissons Ratio (z) = 0.38765 0.15003
#
# Static dielectric constant tensor:
#      x y z
#    x 3.682710 0.000000 0.000000 
#    y 0.000000 3.241380 0.000000 
#    z 0.000000 0.000000 3.486600 
# 
# 
# High freq. dielectric constant tensor:
#      x y z
#    x 1.748060 0.000000 0.000000 
#    y 0.000000 1.707920 0.000000 
#    z 0.000000 0.000000 1.722840 
# 
# From -- ./inp_files/33301.got.cif
#   From: 2010.03.12/outbox.cif.g09.slc.cpg/sg51_17_cif.got.tgz:33301.got - 2010.04.16 13:43:02.
