data_PCOD8211302
_publ_section_title
;
Structure prediction by ZEFSAII (Michael W. Deem and Ramdas Pophale) SiO2 
 PCOD8211302
Probable space group: P M M A
;
_chemical_formula_sum "Si O2"
_cell_formula_units_Z 64
_cell_length_a 27.491611
_cell_length_b 9.529889
_cell_length_c 14.112777
_cell_angle_alpha 90.000000
_cell_angle_beta 90.000000
_cell_angle_gamma 90.000000
_cell_volume 3697.434690
_symmetry_space_group_name_H-M "P M M A"
_symmetry_group_IT_number 51
_symmetry_cell_setting 'orthorhombic'
loop_
_space_group_symop_operation_xyz
x,y,z
1/2-x,-y,z
1/2+x,-y,-z
-x,y,-z
-x,-y,-z
1/2+x,y,-z
1/2-x,y,z
x,-y,z
loop_
_atom_site_type_symbol
_atom_site_label
_atom_site_fract_x
_atom_site_fract_y
_atom_site_fract_z
Si Si1 0.067466 0.842266 0.284932
Si Si2 0.460987 0.837191 0.786510
Si Si3 0.447579 0.660199 0.464427
Si Si4 0.103048 0.659384 0.654814
Si Si5 0.804724 0.160233 0.046498
Si Si6 0.446152 0.654605 0.965943
Si Si7 0.305380 0.337284 0.775006
Si Si8 0.885696 0.159089 0.902390
O O1 0.072236 0.740378 0.373242
O O2 0.112464 0.818216 0.211643
O O3 0.018413 0.815225 0.225129
O O4 0.067762 0.000000 0.325390
O O5 0.434463 0.770408 0.696887
O O6 0.440775 0.756997 0.877384
O O7 0.446934 0.000000 0.795957
O O8 0.500000 0.720362 0.500000
O O9 0.455776 0.500000 0.433723
O O10 0.404675 0.674189 0.542144
O O11 0.089675 0.500000 0.686428
O O12 0.158637 0.694204 0.686276
O O13 0.750000 0.206443 0.024570
O O14 0.825439 0.254098 0.132888
O O15 0.808418 0.000000 0.080895
O O16 0.832512 0.182941 0.947233
O O17 0.424288 0.500000 0.941554
O O18 0.500000 0.633940 0.000000
O O19 0.419606 0.724230 0.053495
O O20 0.250000 0.289822 0.748587
O O21 0.306118 0.500000 0.801787
O O22 0.904120 0.000000 0.924750
#
# Coordination Sequence:
#
# PCOD8211302 Si02
#       8
#     8   8   8   8   8   8   8   8
#     4  10  21  34  49  70  97 132 169 207 245 292
#     4  11  21  32  48  70  99 133 168 203 244 293
#     4  10  20  34  52  72  97 130 166 207 251 296
#     4  10  20  34  52  74 100 129 165 207 253 303
#     4   9  18  33  54  78 102 130 166 206 248 296
#     4  11  22  32  45  68  99 134 168 201 240 291
#     4   9  18  33  53  76 102 130 161 201 249 300
#     4  10  20  35  52  71 100 135 170 207 249 295
#
# _framework density 17.309297000000001
#
# number of rings (size 3 to 8) (size 9 to 14) (size 15 to 20)
#    0.000    2.000    2.500    1.500    0.000    5.250 
#    0.000    0.000    0.000    0.750    0.000    0.000 
#    0.000    0.000    0.000    0.000    0.000    0.000 
#
# Total GULP energy -793382.999384 kJ/mol
# GULP energy per Si atom -12396.609365 kJ/mol
# Density = 1.726990 g / cm^3
# Si number density = 17.309297 Si / 1000 Ang^3
#
#
#
# Elastic Constant Matrix: (Units=GPa)
#
#
# Indices 1 2 3 4 5 6 
#
# 1 72.8299 32.9109 45.7040 0.0000 0.0000 0.0000
# 2 32.9109 95.5066 58.2098 0.0000 0.0000 0.0000
# 3 45.7040 58.2098 113.0528 0.0000 0.0000 0.0000
# 4 0.0000 0.0000 0.0000 33.7845 0.0000 0.0000
# 5 0.0000 0.0000 0.0000 0.0000 27.3336 0.0000
# 6 0.0000 0.0000 0.0000 0.0000 0.0000 18.3646
#
#
#
# Elastic Compliance Matrix: (Units=1/GPa)
#
#
# Indices 1 2 3 4 5 6 
#
# 1 0.018864 -0.002700 -0.006236 0.000000 0.000000 0.000000
# 2 -0.002700 0.015645 -0.006964 0.000000 0.000000 0.000000
# 3 -0.006236 -0.006964 0.014952 0.000000 0.000000 0.000000
# 4 0.000000 0.000000 0.000000 0.029599 0.000000 0.000000
# 5 0.000000 0.000000 0.000000 0.000000 0.036585 0.000000
# 6 0.000000 0.000000 0.000000 0.000000 0.000000 0.054453
#
#
# Mechanical properties :
#
#
# Convention : Reuss Voigt Hill
#
# Bulk Modulus (GPa) = 56.61979 61.67098 59.14538
# Shear Modulus (GPa) = 24.06321 25.53418 24.79870
#
# Velocity S-wave (km/s) = 3.73257 3.84496 3.78918
# Velocity P-wave (km/s) = 7.16643 7.44431 7.30669
#
# Compressibility (1/GPa) = 0.01766167
#
# Stress axis : x y z
#
# Youngs Moduli (GPa) = 53.01102 63.91670 66.87889
#
# Poissons Ratio (x) = 0.17255 0.41707
# Poissons Ratio (y) = 0.14310 0.46576
# Poissons Ratio (z) = 0.33059 0.44514
#
# Static dielectric constant tensor:
#      x y z
#    x 3.032430 0.000000 0.000000 
#    y 0.000000 3.363520 0.000000 
#    z 0.000000 0.000000 3.181060 
# 
# 
# High freq. dielectric constant tensor:
#      x y z
#    x 1.649930 0.000000 0.000000 
#    y 0.000000 1.676960 0.000000 
#    z 0.000000 0.000000 1.654950 
# 
# From -- ./inp_files/26595.got.cif
#   From: 2010.03.12/outbox.cif.g09.slc.cpg/sg51_14_cif.got.tgz:26595.got - 2010.04.16 13:43:02.
