data_PCOD8211146
_publ_section_title
;
Structure prediction by ZEFSAII (Michael W. Deem and Ramdas Pophale) SiO2 
 PCOD8211146
Probable space group: P M M A
;
_chemical_formula_sum "Si O2"
_cell_formula_units_Z 52
_cell_length_a 9.047614
_cell_length_b 10.163498
_cell_length_c 30.107727
_cell_angle_alpha 90.000000
_cell_angle_beta 90.000000
_cell_angle_gamma 90.000000
_cell_volume 2768.568284
_symmetry_space_group_name_H-M "P M M A"
_symmetry_group_IT_number 51
_symmetry_cell_setting 'orthorhombic'
loop_
_space_group_symop_operation_xyz
x,y,z
1/2-x,-y,z
1/2+x,-y,-z
-x,y,-z
-x,-y,-z
1/2+x,y,-z
1/2-x,y,z
x,-y,z
loop_
_atom_site_type_symbol
_atom_site_label
_atom_site_fract_x
_atom_site_fract_y
_atom_site_fract_z
Si Si1 0.077299 0.284156 0.547595
Si Si2 0.076573 0.649935 0.046773
Si Si3 0.577193 0.845990 0.114351
Si Si4 0.586648 0.155235 0.798255
Si Si5 0.582195 0.643823 0.631078
Si Si6 0.083219 0.000000 0.544839
Si Si7 0.573648 0.852611 0.700777
O O1 0.250000 0.315856 0.541537
O O2 0.047481 0.137538 0.568975
O O3 0.000000 0.305949 0.500000
O O4 0.006954 0.374477 0.585148
O O5 0.250000 0.675589 0.041490
O O6 0.045625 0.500000 0.063044
O O7 0.011420 0.755742 0.080466
O O8 0.000000 0.675400 0.000000
O O9 0.750000 0.818283 0.109371
O O10 0.527072 0.801525 0.163583
O O11 0.540509 0.000000 0.105548
O O12 0.750000 0.217117 0.807329
O O13 0.523594 0.197108 0.749825
O O14 0.604178 0.000000 0.797441
O O15 0.750000 0.685100 0.619656
O O16 0.577765 0.500000 0.654158
O O17 0.509974 0.750468 0.664504
O O18 0.000000 0.000000 0.500000
O O19 0.250000 0.000000 0.529337
O O20 0.750000 0.853414 0.700014
O O21 0.513267 0.000000 0.690322
#
# Coordination Sequence:
#
# PCOD8211146 Si02
#       7
#     8   8   8   8   8   4   8
#     4  10  20  35  54  75 100 130 164 202 247 297
#     4  10  21  37  56  77 104 142 186 229 274 323
#     4  10  20  33  52  80 112 144 179 220 268 320
#     4   8  14  28  51  76 102 133 172 217 262 307
#     4  10  21  35  51  75 105 134 166 206 250 297
#     4   8  16  30  48  72  98 120 150 194 238 280
#     4   8  15  30  53  77  99 131 173 211 251 302
#
# _framework density 18.782271999999999
#
# number of rings (size 3 to 8) (size 9 to 14) (size 15 to 20)
#    0.000    2.769    0.000    2.308    1.077    3.385 
#    0.000    1.538    0.000    3.692    0.000    0.000 
#    0.000    0.000    0.000    0.000    0.000    0.000 
#
# Total GULP energy -644273.454177 kJ/mol
# GULP energy per Si atom -12389.874119 kJ/mol
# Density = 1.873952 g / cm^3
# Si number density = 18.782272 Si / 1000 Ang^3
#
#
#
# Elastic Constant Matrix: (Units=GPa)
#
#
# Indices 1 2 3 4 5 6 
#
# 1 82.9751 38.7988 55.5944 0.0000 0.0000 0.0000
# 2 38.7988 90.9493 64.3500 0.0000 0.0000 0.0000
# 3 55.5944 64.3500 138.7308 0.0000 0.0000 0.0000
# 4 0.0000 0.0000 0.0000 12.8524 0.0000 0.0000
# 5 0.0000 0.0000 0.0000 0.0000 27.1235 0.0000
# 6 0.0000 0.0000 0.0000 0.0000 0.0000 18.9534
#
#
#
# Elastic Compliance Matrix: (Units=1/GPa)
#
#
# Indices 1 2 3 4 5 6 
#
# 1 0.017264 -0.003676 -0.005213 0.000000 0.000000 0.000000
# 2 -0.003676 0.017149 -0.006481 0.000000 0.000000 0.000000
# 3 -0.005213 -0.006481 0.012304 0.000000 0.000000 0.000000
# 4 0.000000 0.000000 0.000000 0.077806 0.000000 0.000000
# 5 0.000000 0.000000 0.000000 0.000000 0.036868 0.000000
# 6 0.000000 0.000000 0.000000 0.000000 0.000000 0.052761
#
#
# Mechanical properties :
#
#
# Convention : Reuss Voigt Hill
#
# Bulk Modulus (GPa) = 62.59703 70.01574 66.30639
# Shear Modulus (GPa) = 19.98256 22.04667 21.01461
#
# Velocity S-wave (km/s) = 3.26529 3.42980 3.34856
# Velocity P-wave (km/s) = 6.90045 7.28307 7.09434
#
# Compressibility (1/GPa) = 0.01597520
#
# Stress axis : x y z
#
# Youngs Moduli (GPa) = 57.92562 58.31147 81.27711
#
# Poissons Ratio (x) = 0.21437 0.42369
# Poissons Ratio (y) = 0.21295 0.52679
# Poissons Ratio (z) = 0.30196 0.37794
#
# Static dielectric constant tensor:
#      x y z
#    x 3.420220 0.000000 0.000000 
#    y 0.000000 3.580710 0.000000 
#    z 0.000000 0.000000 3.574770 
# 
# 
# High freq. dielectric constant tensor:
#      x y z
#    x 1.715750 0.000000 0.000000 
#    y 0.000000 1.721430 0.000000 
#    z 0.000000 0.000000 1.723500 
# 
# From -- ./inp_files/37350.got.cif
#   From: 2010.03.12/outbox.cif.g09.slc.cpg/sg51_19_cif.got.tgz:37350.got - 2010.04.16 13:43:02.
