data_PCOD8211329
_publ_section_title
;
Structure prediction by ZEFSAII (Michael W. Deem and Ramdas Pophale) SiO2 
 PCOD8211329
Probable space group: P M M A
;
_chemical_formula_sum "Si O2"
_cell_formula_units_Z 44
_cell_length_a 9.387042
_cell_length_b 13.978229
_cell_length_c 19.093422
_cell_angle_alpha 90.000000
_cell_angle_beta 90.000000
_cell_angle_gamma 90.000000
_cell_volume 2505.328527
_symmetry_space_group_name_H-M "P M M A"
_symmetry_group_IT_number 51
_symmetry_cell_setting 'orthorhombic'
loop_
_space_group_symop_operation_xyz
x,y,z
1/2-x,-y,z
1/2+x,-y,-z
-x,y,-z
-x,-y,-z
1/2+x,y,-z
1/2-x,y,z
x,-y,z
loop_
_atom_site_type_symbol
_atom_site_label
_atom_site_fract_x
_atom_site_fract_y
_atom_site_fract_z
Si Si1 0.914170 0.890539 0.180910
Si Si2 0.918333 0.775813 0.927553
Si Si3 0.915796 0.721523 0.283020
Si Si4 0.410135 0.000000 0.567784
Si Si5 0.415199 0.792241 0.571584
Si Si6 0.585933 0.608004 0.823479
O O1 0.750000 0.876732 0.157285
O O2 0.950866 0.823356 0.246837
O O3 0.017399 0.863832 0.116565
O O4 0.943396 0.000000 0.203231
O O5 0.750000 0.791713 0.938856
O O6 0.952424 0.676337 0.888262
O O7 0.000000 0.770543 0.000000
O O8 0.750000 0.698530 0.276808
O O9 0.962880 0.723272 0.364888
O O10 0.999071 0.636074 0.245743
O O11 0.500000 0.000000 0.500000
O O12 0.441505 0.101111 0.605686
O O13 0.250000 0.000000 0.541325
O O14 0.500000 0.771534 0.500000
O O15 0.250000 0.777225 0.553183
O O16 0.750000 0.618361 0.803087
O O17 0.546654 0.500000 0.845553
#
# Coordination Sequence:
#
# PCOD8211329 Si02
#       6
#     8   8   8   4   8   8
#     4   9  18  32  50  71  97 132 170 202 236 280
#     4  10  20  34  52  74 101 128 158 197 238 285
#     4   9  18  31  49  74  99 126 163 205 244 285
#     4   8  14  24  38  58  88 124 157 188 225 270
#     4   9  17  28  44  67  97 130 164 200 240 283
#     4   9  19  36  55  74  97 125 156 194 245 298
#
# _framework density 17.562567000000001
#
# number of rings (size 3 to 8) (size 9 to 14) (size 15 to 20)
#    0.000    2.909    0.000    0.545    1.273    2.909 
#    0.000    0.000    0.000    0.545    0.000    0.000 
#    0.000    0.000    0.000    0.000    0.000    0.000 
#
# Total GULP energy -545234.764526 kJ/mol
# GULP energy per Si atom -12391.699194 kJ/mol
# Density = 1.752259 g / cm^3
# Si number density = 17.562567 Si / 1000 Ang^3
#
#
#
# Elastic Constant Matrix: (Units=GPa)
#
#
# Indices 1 2 3 4 5 6 
#
# 1 59.2559 20.1015 43.5399 0.0000 0.0000 0.0000
# 2 20.1015 61.3542 17.2788 0.0000 0.0000 0.0000
# 3 43.5399 17.2788 104.1328 0.0000 0.0000 0.0000
# 4 0.0000 0.0000 0.0000 16.1669 0.0000 0.0000
# 5 0.0000 0.0000 0.0000 0.0000 29.6802 0.0000
# 6 0.0000 0.0000 0.0000 0.0000 0.0000 24.5038
#
#
#
# Elastic Compliance Matrix: (Units=1/GPa)
#
#
# Indices 1 2 3 4 5 6 
#
# 1 0.026167 -0.005761 -0.009985 0.000000 0.000000 0.000000
# 2 -0.005761 0.018366 -0.000639 0.000000 0.000000 0.000000
# 3 -0.009985 -0.000639 0.013884 0.000000 0.000000 0.000000
# 4 0.000000 0.000000 0.000000 0.061855 0.000000 0.000000
# 5 0.000000 0.000000 0.000000 0.000000 0.033692 0.000000
# 6 0.000000 0.000000 0.000000 0.000000 0.000000 0.040810
#
#
# Mechanical properties :
#
#
# Convention : Reuss Voigt Hill
#
# Bulk Modulus (GPa) = 38.98987 42.95370 40.97179
# Shear Modulus (GPa) = 21.17806 23.65837 22.41821
#
# Velocity S-wave (km/s) = 3.47632 3.67425 3.57666
# Velocity P-wave (km/s) = 6.19369 6.52003 6.35896
#
# Compressibility (1/GPa) = 0.02564769
#
# Stress axis : x y z
#
# Youngs Moduli (GPa) = 38.21598 54.44789 72.02527
#
# Poissons Ratio (x) = 0.31368 0.71917
# Poissons Ratio (y) = 0.22017 0.04600
# Poissons Ratio (z) = 0.38159 0.03477
#
# Static dielectric constant tensor:
#      x y z
#    x 3.284970 0.000000 0.000000 
#    y 0.000000 3.184920 0.000000 
#    z 0.000000 0.000000 3.133150 
# 
# 
# High freq. dielectric constant tensor:
#      x y z
#    x 1.678560 0.000000 0.000000 
#    y 0.000000 1.664360 0.000000 
#    z 0.000000 0.000000 1.670590 
# 
# From -- ./inp_files/27322.got.cif
#   From: 2010.03.12/outbox.cif.g09.slc.cpg/sg51_14_cif.got.tgz:27322.got - 2010.04.16 13:43:02.
