data_PCOD8211578
_publ_section_title
;
Structure prediction by ZEFSAII (Michael W. Deem and Ramdas Pophale) SiO2 
 PCOD8211578
Probable space group: P M M A
;
_chemical_formula_sum "Si O2"
_cell_formula_units_Z 40
_cell_length_a 9.105686
_cell_length_b 9.069231
_cell_length_c 25.905774
_cell_angle_alpha 90.000000
_cell_angle_beta 90.000000
_cell_angle_gamma 90.000000
_cell_volume 2139.339482
_symmetry_space_group_name_H-M "P M M A"
_symmetry_group_IT_number 51
_symmetry_cell_setting 'orthorhombic'
loop_
_space_group_symop_operation_xyz
x,y,z
1/2-x,-y,z
1/2+x,-y,-z
-x,y,-z
-x,-y,-z
1/2+x,y,-z
1/2-x,y,z
x,-y,z
loop_
_atom_site_type_symbol
_atom_site_label
_atom_site_fract_x
_atom_site_fract_y
_atom_site_fract_z
Si Si1 0.578685 0.670521 0.447007
Si Si2 0.424521 0.163963 0.839761
Si Si3 0.419470 0.826388 0.354344
Si Si4 0.587623 0.824322 0.048262
Si Si5 0.420766 0.672405 0.738581
O O1 0.500000 0.713504 0.500000
O O2 0.750000 0.705774 0.452727
O O3 0.551612 0.500000 0.432851
O O4 0.511695 0.770042 0.402603
O O5 0.250000 0.157536 0.844297
O O6 0.484389 0.217933 0.895942
O O7 0.474090 0.276119 0.795168
O O8 0.484474 0.000000 0.826445
O O9 0.250000 0.781298 0.361537
O O10 0.480494 0.754801 0.302640
O O11 0.439564 0.000000 0.349998
O O12 0.750000 0.757102 0.044269
O O13 0.592809 0.000000 0.044519
O O14 0.500000 0.755912 0.000000
O O15 0.250000 0.712516 0.729346
O O16 0.448205 0.500000 0.733363
#
# Coordination Sequence:
#
# PCOD8211578 Si02
#       5
#     8   8   8   8   8
#     4  10  21  38  61  87 113 143 178 213 252 300
#     4   8  14  26  45  68  95 127 162 203 252 303
#     4  11  24  39  55  78 108 141 176 214 258 306
#     4   8  13  22  38  61  88 119 156 198 245 295
#     4  10  20  34  54  78 101 130 171 215 260 311
#
# _framework density 18.697361000000001
#
# number of rings (size 3 to 8) (size 9 to 14) (size 15 to 20)
#    0.000    2.600    0.000    3.600    0.000    6.800 
#    0.000    1.000    0.000    4.200    0.000    0.000 
#    0.000    0.000    0.000    0.000    0.000    0.000 
#
# Total GULP energy -495879.511517 kJ/mol
# GULP energy per Si atom -12396.987788 kJ/mol
# Density = 1.865481 g / cm^3
# Si number density = 18.697361 Si / 1000 Ang^3
#
#
#
# Elastic Constant Matrix: (Units=GPa)
#
#
# Indices 1 2 3 4 5 6 
#
# 1 84.4340 39.5367 64.2756 0.0000 0.0000 0.0000
# 2 39.5367 59.6492 52.8374 0.0000 0.0000 0.0000
# 3 64.2756 52.8374 162.8461 0.0000 0.0000 0.0000
# 4 0.0000 0.0000 0.0000 84.9309 0.0000 0.0000
# 5 0.0000 0.0000 0.0000 0.0000 34.0336 0.0000
# 6 0.0000 0.0000 0.0000 0.0000 0.0000 21.4523
#
#
#
# Elastic Compliance Matrix: (Units=1/GPa)
#
#
# Indices 1 2 3 4 5 6 
#
# 1 0.019664 -0.008643 -0.004957 0.000000 0.000000 0.000000
# 2 -0.008643 0.027325 -0.005455 0.000000 0.000000 0.000000
# 3 -0.004957 -0.005455 0.009867 0.000000 0.000000 0.000000
# 4 0.000000 0.000000 0.000000 0.011774 0.000000 0.000000
# 5 0.000000 0.000000 0.000000 0.000000 0.029383 0.000000
# 6 0.000000 0.000000 0.000000 0.000000 0.000000 0.046615
#
#
# Mechanical properties :
#
#
# Convention : Reuss Voigt Hill
#
# Bulk Modulus (GPa) = 53.34115 68.91428 61.12771
# Shear Modulus (GPa) = 26.45687 38.10202 32.27944
#
# Velocity S-wave (km/s) = 3.76574 4.51913 4.15953
# Velocity P-wave (km/s) = 6.89190 8.01048 7.47215
#
# Compressibility (1/GPa) = 0.01874725
#
# Stress axis : x y z
#
# Youngs Moduli (GPa) = 50.85353 36.59655 101.34550
#
# Poissons Ratio (x) = 0.31629 0.50240
# Poissons Ratio (y) = 0.43951 0.55280
# Poissons Ratio (z) = 0.25210 0.19962
#
# Static dielectric constant tensor:
#      x y z
#    x 3.371790 0.000000 0.000000 
#    y 0.000000 3.229610 0.000000 
#    z 0.000000 0.000000 3.885820 
# 
# 
# High freq. dielectric constant tensor:
#      x y z
#    x 1.704630 0.000000 0.000000 
#    y 0.000000 1.701410 0.000000 
#    z 0.000000 0.000000 1.748260 
# 
# From -- ./inp_files/34296.got.cif
#   From: 2010.03.12/outbox.cif.g09.slc.cpg/sg51_18_cif.got.tgz:34296.got - 2010.04.16 13:43:02.
