data_PCOD8211071
_publ_section_title
;
Structure prediction by ZEFSAII (Michael W. Deem and Ramdas Pophale) SiO2 
 PCOD8211071
Probable space group: P M M A
;
_chemical_formula_sum "Si O2"
_cell_formula_units_Z 40
_cell_length_a 28.296879
_cell_length_b 7.727612
_cell_length_c 9.807774
_cell_angle_alpha 90.000000
_cell_angle_beta 90.000000
_cell_angle_gamma 90.000000
_cell_volume 2144.639476
_symmetry_space_group_name_H-M "P M M A"
_symmetry_group_IT_number 51
_symmetry_cell_setting 'orthorhombic'
loop_
_space_group_symop_operation_xyz
x,y,z
1/2-x,-y,z
1/2+x,-y,-z
-x,y,-z
-x,-y,-z
1/2+x,y,-z
1/2-x,y,z
x,-y,z
loop_
_atom_site_type_symbol
_atom_site_label
_atom_site_fract_x
_atom_site_fract_y
_atom_site_fract_z
Si Si1 0.546397 0.500000 0.590105
Si Si2 0.697133 0.797493 0.116330
Si Si3 0.883002 0.199671 0.908560
Si Si4 0.803323 0.303539 0.413296
Si Si5 0.614941 0.191486 0.597408
Si Si6 0.954133 0.500000 0.908583
O O1 0.500000 0.500000 0.500000
O O2 0.576416 0.330635 0.549476
O O3 0.532339 0.500000 0.748931
O O4 0.750000 0.739405 0.073893
O O5 0.681225 0.704571 0.255349
O O6 0.694911 0.000000 0.144235
O O7 0.662236 0.742350 0.995736
O O8 0.868821 0.229000 0.751734
O O9 0.925957 0.325659 0.947089
O O10 0.897597 0.000000 0.937949
O O11 0.750000 0.229598 0.429281
O O12 0.805969 0.500000 0.464065
O O13 0.838541 0.192627 0.504769
O O14 0.592089 0.000000 0.586026
O O15 0.000000 0.500000 0.000000
#
# Coordination Sequence:
#
# PCOD8211071 Si02
#       6
#     4   8   8   8   8   4
#     4  10  22  40  57  80 111 137 176 229 271 324
#     4   9  18  33  52  78 111 145 181 219 262 314
#     4   9  20  37  57  81 109 140 178 222 265 319
#     4  10  20  33  51  80 115 148 184 223 263 313
#     4  10  20  37  59  81 109 145 181 221 271 320
#     4  10  22  38  57  80 105 139 176 219 275 324
#
# _framework density 18.651153000000001
#
# number of rings (size 3 to 8) (size 9 to 14) (size 15 to 20)
#    0.000    2.400    1.000    0.600    1.400    4.400 
#    0.000    2.000    0.000    0.000    0.000    0.000 
#    0.000    0.000    0.000    0.000    0.000    0.000 
#
# Total GULP energy -496025.685691 kJ/mol
# GULP energy per Si atom -12400.642142 kJ/mol
# Density = 1.860870 g / cm^3
# Si number density = 18.651153 Si / 1000 Ang^3
#
#
#
# Elastic Constant Matrix: (Units=GPa)
#
#
# Indices 1 2 3 4 5 6 
#
# 1 136.1901 59.8240 85.2105 0.0000 0.0000 0.0000
# 2 59.8240 99.3605 45.1426 0.0000 0.0000 0.0000
# 3 85.2105 45.1426 89.5340 0.0000 0.0000 0.0000
# 4 0.0000 0.0000 0.0000 24.9907 0.0000 0.0000
# 5 0.0000 0.0000 0.0000 0.0000 42.1124 0.0000
# 6 0.0000 0.0000 0.0000 0.0000 0.0000 22.4334
#
#
#
# Elastic Compliance Matrix: (Units=1/GPa)
#
#
# Indices 1 2 3 4 5 6 
#
# 1 0.019462 -0.004284 -0.016362 0.000000 0.000000 0.000000
# 2 -0.004284 0.013998 -0.002981 0.000000 0.000000 0.000000
# 3 -0.016362 -0.002981 0.028244 0.000000 0.000000 0.000000
# 4 0.000000 0.000000 0.000000 0.040015 0.000000 0.000000
# 5 0.000000 0.000000 0.000000 0.000000 0.023746 0.000000
# 6 0.000000 0.000000 0.000000 0.000000 0.000000 0.044576
#
#
# Mechanical properties :
#
#
# Convention : Reuss Voigt Hill
#
# Bulk Modulus (GPa) = 69.20332 78.38211 73.79271
# Shear Modulus (GPa) = 22.51133 26.90113 24.70623
#
# Velocity S-wave (km/s) = 3.47791 3.80192 3.64352
# Velocity P-wave (km/s) = 7.30154 7.83514 7.57304
#
# Compressibility (1/GPa) = 0.01445017
#
# Stress axis : x y z
#
# Youngs Moduli (GPa) = 51.38276 71.43957 35.40614
#
# Poissons Ratio (x) = 0.30604 0.57932
# Poissons Ratio (y) = 0.22012 0.10553
# Poissons Ratio (z) = 0.84073 0.21293
#
# Static dielectric constant tensor:
#      x y z
#    x 3.268480 0.000000 0.000000 
#    y 0.000000 3.582920 0.000000 
#    z 0.000000 0.000000 3.379390 
# 
# 
# High freq. dielectric constant tensor:
#      x y z
#    x 1.706240 0.000000 0.000000 
#    y 0.000000 1.738040 0.000000 
#    z 0.000000 0.000000 1.721500 
# 
# From -- ./inp_files/12149.got.cif
#   From: 2010.03.12/outbox.cif.g09.slc.cpg/sg51_7_cif.got.tgz:12149.got - 2010.04.16 13:43:02.
