data_PCOD8211611
_publ_section_title
;
Structure prediction by ZEFSAII (Michael W. Deem and Ramdas Pophale) SiO2 
 PCOD8211611
Probable space group: P M M A
;
_chemical_formula_sum "Si O2"
_cell_formula_units_Z 48
_cell_length_a 8.957705
_cell_length_b 9.374290
_cell_length_c 30.969108
_cell_angle_alpha 90.000000
_cell_angle_beta 90.000000
_cell_angle_gamma 90.000000
_cell_volume 2600.541790
_symmetry_space_group_name_H-M "P M M A"
_symmetry_group_IT_number 51
_symmetry_cell_setting 'orthorhombic'
loop_
_space_group_symop_operation_xyz
x,y,z
1/2-x,-y,z
1/2+x,-y,-z
-x,y,-z
-x,-y,-z
1/2+x,y,-z
1/2-x,y,z
x,-y,z
loop_
_atom_site_type_symbol
_atom_site_label
_atom_site_fract_x
_atom_site_fract_y
_atom_site_fract_z
Si Si1 0.427063 0.157319 0.877306
Si Si2 0.074151 0.663585 0.956931
Si Si3 0.075731 0.666655 0.294179
Si Si4 0.417768 0.169642 0.457838
Si Si5 0.073991 0.835916 0.629364
Si Si6 0.576896 0.167592 0.219320
O O1 0.250000 0.151122 0.880259
O O2 0.491876 0.259426 0.914476
O O3 0.470076 0.210933 0.829429
O O4 0.493839 0.000000 0.885122
O O5 0.250000 0.684687 0.960808
O O6 0.027644 0.500000 0.952037
O O7 0.000000 0.729302 0.000000
O O8 0.250000 0.693406 0.301904
O O9 0.036952 0.500000 0.292185
O O10 0.984420 0.737517 0.332621
O O11 0.027731 0.739075 0.249611
O O12 0.500000 0.232803 0.500000
O O13 0.250000 0.230322 0.456521
O O14 0.503582 0.220655 0.415150
O O15 0.417000 0.000000 0.460260
O O16 0.250000 0.820501 0.625611
O O17 0.028084 0.000000 0.638552
O O18 0.750000 0.204002 0.228367
O O19 0.549126 0.000000 0.227360
#
# Coordination Sequence:
#
# PCOD8211611 Si02
#       6
#     8   8   8   8   8   8
#     4   8  15  29  49  72  96 121 153 196 242 288
#     4   9  17  29  45  66  93 126 162 197 235 281
#     4  11  24  38  51  72 103 136 169 206 250 301
#     4   9  16  27  46  74 107 139 171 210 254 298
#     4  10  20  34  54  79 104 133 172 214 255 301
#     4   9  18  34  56  79 100 125 162 207 253 302
#
# _framework density 18.457692000000002
#
# number of rings (size 3 to 8) (size 9 to 14) (size 15 to 20)
#    0.000    2.667    0.000    3.000    0.000    7.667 
#    0.000    2.500    0.000    3.500    0.000    0.000 
#    0.000    0.000    0.000    0.000    0.000    0.000 
#
# Total GULP energy -595145.714531 kJ/mol
# GULP energy per Si atom -12398.869053 kJ/mol
# Density = 1.841568 g / cm^3
# Si number density = 18.457692 Si / 1000 Ang^3
#
#
#
# Elastic Constant Matrix: (Units=GPa)
#
#
# Indices 1 2 3 4 5 6 
#
# 1 68.2619 32.4516 47.8188 0.0000 0.0000 0.0000
# 2 32.4516 62.7401 59.6216 0.0000 0.0000 0.0000
# 3 47.8188 59.6216 167.2006 0.0000 0.0000 0.0000
# 4 0.0000 0.0000 0.0000 -1.1086 0.0000 0.0000
# 5 0.0000 0.0000 0.0000 0.0000 34.9463 0.0000
# 6 0.0000 0.0000 0.0000 0.0000 0.0000 21.2622
#
#
#
# Elastic Compliance Matrix: (Units=1/GPa)
#
#
# Indices 1 2 3 4 5 6 
#
# 1 0.020463 -0.007597 -0.003143 0.000000 0.000000 0.000000
# 2 -0.007597 0.026929 -0.007430 0.000000 0.000000 0.000000
# 3 -0.003143 -0.007430 0.009529 0.000000 0.000000 0.000000
# 4 0.000000 0.000000 0.000000 -0.902072 0.000000 0.000000
# 5 0.000000 0.000000 0.000000 0.000000 0.028615 0.000000
# 6 0.000000 0.000000 0.000000 0.000000 0.000000 0.047032
#
#
# Mechanical properties :
#
#
# Convention : Reuss Voigt Hill
#
# Bulk Modulus (GPa) = 48.58951 64.22071 56.40511
# Shear Modulus (GPa) = -6.88418 21.57403 7.34492
#
# Velocity S-wave (km/s) = -1.93334 3.42253 1.99699
# Velocity P-wave (km/s) = 4.62582 7.10544 5.99523
#
# Compressibility (1/GPa) = 0.02058058
#
# Stress axis : x y z
#
# Youngs Moduli (GPa) = 48.86843 37.13509 104.94136
#
# Poissons Ratio (x) = 0.28212 0.32986
# Poissons Ratio (y) = 0.37127 0.77968
# Poissons Ratio (z) = 0.15361 0.27590
#
# Static dielectric constant tensor:
#      x y z
#    x 3.287770 0.000000 0.000000 
#    y 0.000000 3.273560 0.000000 
#    z 0.000000 0.000000 3.720150 
# 
# 
# High freq. dielectric constant tensor:
#      x y z
#    x 1.702180 0.000000 0.000000 
#    y 0.000000 1.688260 0.000000 
#    z 0.000000 0.000000 1.734960 
# 
# From -- ./inp_files/37024.got.cif
#   From: 2010.03.12/outbox.cif.g09.slc.cpg/sg51_19_cif.got.tgz:37024.got - 2010.04.16 13:43:02.
