data_PCOD8211005
_publ_section_title
;
Structure prediction by ZEFSAII (Michael W. Deem and Ramdas Pophale) SiO2 
 PCOD8211005
Probable space group: P M M A
;
_chemical_formula_sum "Si O2"
_cell_formula_units_Z 64
_cell_length_a 33.484172
_cell_length_b 9.173910
_cell_length_c 11.174745
_cell_angle_alpha 90.000000
_cell_angle_beta 90.000000
_cell_angle_gamma 90.000000
_cell_volume 3432.666889
_symmetry_space_group_name_H-M "P M M A"
_symmetry_group_IT_number 51
_symmetry_cell_setting 'orthorhombic'
loop_
_space_group_symop_operation_xyz
x,y,z
1/2-x,-y,z
1/2+x,-y,-z
-x,y,-z
-x,-y,-z
1/2+x,y,-z
1/2-x,y,z
x,-y,z
loop_
_atom_site_type_symbol
_atom_site_label
_atom_site_fract_x
_atom_site_fract_y
_atom_site_fract_z
Si Si1 0.296182 0.671742 0.759437
Si Si2 0.133847 0.168457 0.156516
Si Si3 0.938105 0.332086 0.224289
Si Si4 0.094646 0.171773 0.396734
Si Si5 0.794917 0.833308 0.999386
Si Si6 0.475664 0.329842 0.284266
Si Si7 0.066697 0.333392 0.045525
Si Si8 0.868806 0.826852 0.351867
O O1 0.250000 0.708944 0.727010
O O2 0.304092 0.500000 0.754354
O O3 0.306687 0.727886 0.892019
O O4 0.325581 0.752847 0.667033
O O5 0.123901 0.226338 0.289757
O O6 0.107272 0.243467 0.055548
O O7 0.123497 0.000000 0.152141
O O8 0.179383 0.201216 0.119285
O O9 0.925562 0.500000 0.246242
O O10 0.901051 0.228967 0.255686
O O11 0.977470 0.291399 0.301948
O O12 0.951059 0.308184 0.086239
O O13 0.051007 0.244115 0.381120
O O14 0.115332 0.223109 0.518638
O O15 0.088185 0.000000 0.396683
O O16 0.750000 0.805189 0.957840
O O17 0.801572 0.000000 0.042756
O O18 0.468425 0.500000 0.305491
O O19 0.463997 0.283075 0.148775
O O20 0.078192 0.500000 0.065887
O O21 0.864171 0.000000 0.340616
#
# Coordination Sequence:
#
# PCOD8211005 Si02
#       8
#     8   8   8   8   8   8   8   8
#     4  10  21  37  57  80 106 134 163 200 248 299
#     4   9  17  31  50  71  97 129 166 206 249 297
#     4  10  20  33  51  76 105 134 167 210 256 303
#     4   9  20  37  52  69  98 136 175 214 253 293
#     4   9  17  30  51  79 107 131 157 195 245 302
#     4   9  18  33  53  75  99 132 171 210 256 306
#     4   9  17  30  49  73 100 129 163 205 255 308
#     4  11  23  37  53  74 102 137 176 213 250 295
#
# _framework density 18.644394999999999
#
# number of rings (size 3 to 8) (size 9 to 14) (size 15 to 20)
#    0.000    2.500    0.000    1.875    0.000    7.250 
#    0.000    3.125    0.000    6.000    0.000    1.750 
#    0.000    0.000    0.000    0.000    0.000    0.000 
#
# Total GULP energy -793449.611867 kJ/mol
# GULP energy per Si atom -12397.650185 kJ/mol
# Density = 1.860196 g / cm^3
# Si number density = 18.644395 Si / 1000 Ang^3
#
#
#
# Elastic Constant Matrix: (Units=GPa)
#
#
# Indices 1 2 3 4 5 6 
#
# 1 105.9003 39.9633 35.2664 0.0000 0.0000 0.0000
# 2 39.9633 55.3784 26.8561 0.0000 0.0000 0.0000
# 3 35.2664 26.8561 60.7524 0.0000 0.0000 0.0000
# 4 0.0000 0.0000 0.0000 22.5785 0.0000 0.0000
# 5 0.0000 0.0000 0.0000 0.0000 26.0405 0.0000
# 6 0.0000 0.0000 0.0000 0.0000 0.0000 29.7582
#
#
#
# Elastic Compliance Matrix: (Units=1/GPa)
#
#
# Indices 1 2 3 4 5 6 
#
# 1 0.013933 -0.007805 -0.004637 0.000000 0.000000 0.000000
# 2 -0.007805 0.027358 -0.007563 0.000000 0.000000 0.000000
# 3 -0.004637 -0.007563 0.022495 0.000000 0.000000 0.000000
# 4 0.000000 0.000000 0.000000 0.044290 0.000000 0.000000
# 5 0.000000 0.000000 0.000000 0.000000 0.038402 0.000000
# 6 0.000000 0.000000 0.000000 0.000000 0.000000 0.033604
#
#
# Mechanical properties :
#
#
# Convention : Reuss Voigt Hill
#
# Bulk Modulus (GPa) = 42.06137 47.35589 44.70863
# Shear Modulus (GPa) = 21.92809 23.67180 22.79994
#
# Velocity S-wave (km/s) = 3.43318 3.56708 3.50077
# Velocity P-wave (km/s) = 6.19067 6.51307 6.35392
#
# Compressibility (1/GPa) = 0.02377479
#
# Stress axis : x y z
#
# Youngs Moduli (GPa) = 71.77368 36.55247 44.45353
#
# Poissons Ratio (x) = 0.28531 0.20615
# Poissons Ratio (y) = 0.56023 0.33619
# Poissons Ratio (z) = 0.33284 0.27644
#
# Static dielectric constant tensor:
#      x y z
#    x 3.622830 0.000000 0.000000 
#    y 0.000000 3.370140 0.000000 
#    z 0.000000 0.000000 3.400000 
# 
# 
# High freq. dielectric constant tensor:
#      x y z
#    x 1.726580 0.000000 0.000000 
#    y 0.000000 1.718340 0.000000 
#    z 0.000000 0.000000 1.711160 
# 
# From -- ./inp_files/19577.got.cif
#   From: 2010.03.12/outbox.cif.g09.slc.cpg/sg51_10_cif.got.tgz:19577.got - 2010.04.16 13:43:02.
