data_PCOD8211605
_publ_section_title
;
Structure prediction by ZEFSAII (Michael W. Deem and Ramdas Pophale) SiO2 
 PCOD8211605
Probable space group: P M M A
;
_chemical_formula_sum "Si O2"
_cell_formula_units_Z 48
_cell_length_a 8.875070
_cell_length_b 30.562471
_cell_length_c 9.576388
_cell_angle_alpha 90.000000
_cell_angle_beta 90.000000
_cell_angle_gamma 90.000000
_cell_volume 2597.538452
_symmetry_space_group_name_H-M "P M M A"
_symmetry_group_IT_number 51
_symmetry_cell_setting 'orthorhombic'
loop_
_space_group_symop_operation_xyz
x,y,z
1/2-x,-y,z
1/2+x,-y,-z
-x,y,-z
-x,-y,-z
1/2+x,y,-z
1/2-x,y,z
x,-y,z
loop_
_atom_site_type_symbol
_atom_site_label
_atom_site_fract_x
_atom_site_fract_y
_atom_site_fract_z
Si Si1 0.074205 0.122554 0.648996
Si Si2 0.927123 0.951000 0.146782
Si Si3 0.427285 0.303682 0.348199
Si Si4 0.427718 0.384167 0.150814
Si Si5 0.575941 0.448493 0.356404
Si Si6 0.926230 0.218308 0.349571
O O1 0.250000 0.115339 0.626212
O O2 0.006159 0.084471 0.745860
O O3 0.044384 0.170527 0.719837
O O4 0.000000 0.118243 0.500000
O O5 0.750000 0.945441 0.129733
O O6 0.969067 0.000000 0.198233
O O7 0.000000 0.940499 0.000000
O O8 0.500000 0.311945 0.500000
O O9 0.250000 0.299097 0.367592
O O10 0.471063 0.342907 0.246065
O O11 0.492695 0.259352 0.274088
O O12 0.250000 0.389981 0.134177
O O13 0.495097 0.427108 0.223755
O O14 0.500000 0.377576 0.000000
O O15 0.500000 0.432039 0.500000
O O16 0.750000 0.434576 0.360851
O O17 0.555393 0.500000 0.338622
O O18 0.750000 0.228420 0.361341
O O19 0.000000 0.215910 0.500000
#
# Coordination Sequence:
#
# PCOD8211605 Si02
#       6
#     8   8   8   8   8   8
#     4   9  18  31  48  73 101 127 160 203 250 299
#     4   9  18  33  50  68  94 128 165 204 245 293
#     4  10  20  34  54  79 103 132 172 213 254 302
#     4  11  24  39  56  79 109 144 179 218 264 312
#     4  10  21  38  61  87 113 142 178 219 260 306
#     4   9  16  28  48  72  99 130 163 203 250 298
#
# _framework density 18.479033999999999
#
# number of rings (size 3 to 8) (size 9 to 14) (size 15 to 20)
#    0.000    2.333    0.000    3.500    0.000    7.000 
#    0.000    0.833    0.000    4.000    0.000    0.000 
#    0.000    0.000    0.000    0.000    0.000    0.000 
#
# Total GULP energy -595008.802218 kJ/mol
# GULP energy per Si atom -12396.016713 kJ/mol
# Density = 1.843698 g / cm^3
# Si number density = 18.479034 Si / 1000 Ang^3
#
#
#
# Elastic Constant Matrix: (Units=GPa)
#
#
# Indices 1 2 3 4 5 6 
#
# 1 87.1073 56.6251 50.3920 0.0000 0.0000 0.0000
# 2 56.6251 116.4052 67.8462 0.0000 0.0000 0.0000
# 3 50.3920 67.8462 102.0865 0.0000 0.0000 0.0000
# 4 0.0000 0.0000 0.0000 11.3267 0.0000 0.0000
# 5 0.0000 0.0000 0.0000 0.0000 29.5620 0.0000
# 6 0.0000 0.0000 0.0000 0.0000 0.0000 41.1773
#
#
#
# Elastic Compliance Matrix: (Units=1/GPa)
#
#
# Indices 1 2 3 4 5 6 
#
# 1 0.018272 -0.005928 -0.005080 0.000000 0.000000 0.000000
# 2 -0.005928 0.015945 -0.007671 0.000000 0.000000 0.000000
# 3 -0.005080 -0.007671 0.017401 0.000000 0.000000 0.000000
# 4 0.000000 0.000000 0.000000 0.088287 0.000000 0.000000
# 5 0.000000 0.000000 0.000000 0.000000 0.033827 0.000000
# 6 0.000000 0.000000 0.000000 0.000000 0.000000 0.024285
#
#
# Mechanical properties :
#
#
# Convention : Reuss Voigt Hill
#
# Bulk Modulus (GPa) = 70.12001 72.81396 71.46698
# Shear Modulus (GPa) = 20.82210 25.12894 22.97552
#
# Velocity S-wave (km/s) = 3.36042 3.69163 3.52991
# Velocity P-wave (km/s) = 7.28592 7.59341 7.44126
#
# Compressibility (1/GPa) = 0.01426127
#
# Stress axis : x y z
#
# Youngs Moduli (GPa) = 54.72775 62.71469 57.46639
#
# Poissons Ratio (x) = 0.37175 0.29194
# Poissons Ratio (y) = 0.32440 0.44083
# Poissons Ratio (z) = 0.27802 0.48109
#
# Static dielectric constant tensor:
#      x y z
#    x 3.466790 0.000000 0.000000 
#    y 0.000000 4.084920 0.000000 
#    z 0.000000 0.000000 3.117550 
# 
# 
# High freq. dielectric constant tensor:
#      x y z
#    x 1.726340 0.000000 0.000000 
#    y 0.000000 1.738500 0.000000 
#    z 0.000000 0.000000 1.685410 
# 
# From -- ./inp_files/6026.got.cif
#   From: 2010.03.12/outbox.cif.g09.slc.cpg/sg51_4_cif.got.tgz:6026.got - 2010.04.16 13:43:02.
