data_PCOD8211897
_publ_section_title
;
Structure prediction by ZEFSAII (Michael W. Deem and Ramdas Pophale) SiO2 
 PCOD8211897
Probable space group: P M M A
;
_chemical_formula_sum "Si O2"
_cell_formula_units_Z 64
_cell_length_a 14.708193
_cell_length_b 9.206729
_cell_length_c 24.138946
_cell_angle_alpha 90.000000
_cell_angle_beta 90.000000
_cell_angle_gamma 90.000000
_cell_volume 3268.759611
_symmetry_space_group_name_H-M "P M M A"
_symmetry_group_IT_number 51
_symmetry_cell_setting 'orthorhombic'
loop_
_space_group_symop_operation_xyz
x,y,z
1/2-x,-y,z
1/2+x,-y,-z
-x,y,-z
-x,-y,-z
1/2+x,y,-z
1/2-x,y,z
x,-y,z
loop_
_atom_site_type_symbol
_atom_site_label
_atom_site_fract_x
_atom_site_fract_y
_atom_site_fract_z
Si Si1 0.654771 0.338824 0.885287
Si Si2 0.145951 0.168300 0.531381
Si Si3 0.515209 0.168142 0.370557
Si Si4 0.354554 0.329121 0.419334
Si Si5 0.022523 0.328170 0.937061
Si Si6 0.028346 0.833545 0.750404
Si Si7 0.349374 0.339660 0.244577
Si Si8 0.644907 0.827884 0.146114
O O1 0.750000 0.262668 0.904998
O O2 0.651616 0.500000 0.912236
O O3 0.564131 0.258381 0.904941
O O4 0.656067 0.353769 0.820530
O O5 0.250000 0.197141 0.548100
O O6 0.084639 0.221189 0.582432
O O7 0.117622 0.260636 0.478123
O O8 0.128868 0.000000 0.517299
O O9 0.421761 0.261771 0.373132
O O10 0.568224 0.189717 0.311624
O O11 0.488478 0.000000 0.378268
O O12 0.250000 0.290631 0.404206
O O13 0.369378 0.500000 0.422699
O O14 0.037272 0.500000 0.928350
O O15 0.109166 0.246964 0.910532
O O16 0.000000 0.288106 0.000000
O O17 0.090745 0.765177 0.799370
O O18 0.927394 0.773020 0.742621
O O19 0.018188 0.000000 0.766168
O O20 0.250000 0.288099 0.267356
O O21 0.371560 0.500000 0.269536
O O22 0.750000 0.784946 0.153960
O O23 0.633782 0.000000 0.140266
#
# Coordination Sequence:
#
# PCOD8211897 Si02
#       8
#     8   8   8   8   8   8   8   8
#     4   8  14  27  48  73 102 133 164 204 257 313
#     4   9  18  34  56  79 104 137 178 224 272 321
#     4  10  21  35  53  79 108 139 179 226 272 318
#     4  10  21  36  54  78 109 144 179 217 267 327
#     4  10  20  34  57  87 113 139 177 226 272 317
#     4  10  21  36  54  78 108 142 182 227 269 313
#     4   9  17  31  53  76  99 133 173 213 263 322
#     4  10  22  40  59  79 110 152 189 222 268 323
#
# _framework density 19.579291999999999
#
# number of rings (size 3 to 8) (size 9 to 14) (size 15 to 20)
#    0.000    2.500    1.250    1.500    0.000    5.500 
#    0.000    6.250    0.000    0.375    0.000    3.500 
#    0.000    0.000    0.000    0.000    0.000    0.000 
#
# Total GULP energy -792961.740451 kJ/mol
# GULP energy per Si atom -12390.027195 kJ/mol
# Density = 1.953473 g / cm^3
# Si number density = 19.579292 Si / 1000 Ang^3
#
#
#
# Elastic Constant Matrix: (Units=GPa)
#
#
# Indices 1 2 3 4 5 6 
#
# 1 103.5139 29.9962 45.1360 0.0000 0.0000 0.0000
# 2 29.9962 43.3019 32.8391 0.0000 0.0000 0.0000
# 3 45.1360 32.8391 98.1794 0.0000 0.0000 0.0000
# 4 0.0000 0.0000 0.0000 9.1168 0.0000 0.0000
# 5 0.0000 0.0000 0.0000 0.0000 16.5434 0.0000
# 6 0.0000 0.0000 0.0000 0.0000 0.0000 27.7778
#
#
#
# Elastic Compliance Matrix: (Units=1/GPa)
#
#
# Indices 1 2 3 4 5 6 
#
# 1 0.013176 -0.006074 -0.004026 0.000000 0.000000 0.000000
# 2 -0.006074 0.033743 -0.008494 0.000000 0.000000 0.000000
# 3 -0.004026 -0.008494 0.014877 0.000000 0.000000 0.000000
# 4 0.000000 0.000000 0.000000 0.109687 0.000000 0.000000
# 5 0.000000 0.000000 0.000000 0.000000 0.060447 0.000000
# 6 0.000000 0.000000 0.000000 0.000000 0.000000 0.036000
#
#
# Mechanical properties :
#
#
# Convention : Reuss Voigt Hill
#
# Bulk Modulus (GPa) = 40.63630 51.21530 45.92580
# Shear Modulus (GPa) = 15.95807 19.82253 17.89030
#
# Velocity S-wave (km/s) = 2.85800 3.18531 3.02609
# Velocity P-wave (km/s) = 5.62945 6.30420 5.97636
#
# Compressibility (1/GPa) = 0.02460854
#
# Stress axis : x y z
#
# Youngs Moduli (GPa) = 75.89482 29.63575 67.21702
#
# Poissons Ratio (x) = 0.18002 0.27059
# Poissons Ratio (y) = 0.46102 0.57093
# Poissons Ratio (z) = 0.30553 0.25172
#
# Static dielectric constant tensor:
#      x y z
#    x 2.986400 0.000000 0.000000 
#    y 0.000000 3.366240 0.000000 
#    z 0.000000 0.000000 3.677290 
# 
# 
# High freq. dielectric constant tensor:
#      x y z
#    x 1.768200 0.000000 0.000000 
#    y 0.000000 1.732230 0.000000 
#    z 0.000000 0.000000 1.765400 
# 
# From -- ./inp_files/35664.got.cif
#   From: 2010.03.12/outbox.cif.g09.slc.cpg/sg51_18_cif.got.tgz:35664.got - 2010.04.16 13:43:02.
