data_PCOD8211579
_publ_section_title
;
Structure prediction by ZEFSAII (Michael W. Deem and Ramdas Pophale) SiO2 
 PCOD8211579
Probable space group: P M M A
;
_chemical_formula_sum "Si O2"
_cell_formula_units_Z 48
_cell_length_a 13.703287
_cell_length_b 8.759787
_cell_length_c 20.986640
_cell_angle_alpha 90.000000
_cell_angle_beta 90.000000
_cell_angle_gamma 90.000000
_cell_volume 2519.191676
_symmetry_space_group_name_H-M "P M M A"
_symmetry_group_IT_number 51
_symmetry_cell_setting 'orthorhombic'
loop_
_space_group_symop_operation_xyz
x,y,z
1/2-x,-y,z
1/2+x,-y,-z
-x,y,-z
-x,-y,-z
1/2+x,y,-z
1/2-x,y,z
x,-y,z
loop_
_atom_site_type_symbol
_atom_site_label
_atom_site_fract_x
_atom_site_fract_y
_atom_site_fract_z
Si Si1 0.361702 0.180053 0.469513
Si Si2 0.863293 0.822880 0.031452
Si Si3 0.457046 0.319603 0.590775
Si Si4 0.139601 0.679798 0.098861
Si Si5 0.863912 0.820918 0.287276
Si Si6 0.033171 0.180310 0.841944
O O1 0.250000 0.219829 0.452360
O O2 0.385653 0.241376 0.539794
O O3 0.432090 0.260194 0.418052
O O4 0.380294 0.000000 0.468486
O O5 0.750000 0.789929 0.039116
O O6 0.911325 0.757672 0.095594
O O7 0.887205 0.000000 0.022395
O O8 0.903732 0.738458 0.968658
O O9 0.454568 0.500000 0.580804
O O10 0.420049 0.276373 0.660241
O O11 0.250000 0.739713 0.108384
O O12 0.135340 0.500000 0.100255
O O13 0.075025 0.747033 0.156677
O O14 0.750000 0.780591 0.288248
O O15 0.907930 0.766593 0.220068
O O16 0.881132 0.000000 0.299400
O O17 0.024408 0.000000 0.842667
#
# Coordination Sequence:
#
# PCOD8211579 Si02
#       6
#     8   8   8   8   8   8
#     4  10  20  36  60  86 112 145 185 226 265 307
#     4   9  17  31  52  77 103 130 165 212 263 313
#     4  11  22  35  55  84 117 149 180 218 265 316
#     4  10  21  35  50  71 101 136 172 212 263 319
#     4  10  21  38  58  79 107 142 178 217 262 315
#     4  10  20  34  54  78 101 131 174 219 262 309
#
# _framework density 19.053730999999999
#
# number of rings (size 3 to 8) (size 9 to 14) (size 15 to 20)
#    0.000    2.000    0.000    5.000    0.000   10.000 
#    0.000    0.833    0.000    4.000    0.000    0.000 
#    0.000    0.000    0.000    0.000    0.000    0.000 
#
# Total GULP energy -595290.876012 kJ/mol
# GULP energy per Si atom -12401.893250 kJ/mol
# Density = 1.901036 g / cm^3
# Si number density = 19.053731 Si / 1000 Ang^3
#
#
#
# Elastic Constant Matrix: (Units=GPa)
#
#
# Indices 1 2 3 4 5 6 
#
# 1 116.7923 32.0218 66.4033 0.0000 0.0000 0.0000
# 2 32.0218 43.9297 28.7275 0.0000 0.0000 0.0000
# 3 66.4033 28.7275 100.3695 0.0000 0.0000 0.0000
# 4 0.0000 0.0000 0.0000 4.6948 0.0000 0.0000
# 5 0.0000 0.0000 0.0000 0.0000 29.9568 0.0000
# 6 0.0000 0.0000 0.0000 0.0000 0.0000 21.8290
#
#
#
# Elastic Compliance Matrix: (Units=1/GPa)
#
#
# Indices 1 2 3 4 5 6 
#
# 1 0.014681 -0.005351 -0.008181 0.000000 0.000000 0.000000
# 2 -0.005351 0.029956 -0.005034 0.000000 0.000000 0.000000
# 3 -0.008181 -0.005034 0.016816 0.000000 0.000000 0.000000
# 4 0.000000 0.000000 0.000000 0.213000 0.000000 0.000000
# 5 0.000000 0.000000 0.000000 0.000000 0.033381 0.000000
# 6 0.000000 0.000000 0.000000 0.000000 0.000000 0.045811
#
#
# Mechanical properties :
#
#
# Convention : Reuss Voigt Hill
#
# Bulk Modulus (GPa) = 41.11608 57.26630 49.19119
# Shear Modulus (GPa) = 12.53497 20.22539 16.38018
#
# Velocity S-wave (km/s) = 2.56769 3.26159 2.93522
# Velocity P-wave (km/s) = 5.51512 6.65615 6.11232
#
# Compressibility (1/GPa) = 0.02432139
#
# Stress axis : x y z
#
# Youngs Moduli (GPa) = 68.11599 33.38211 59.46607
#
# Poissons Ratio (x) = 0.17864 0.48649
# Poissons Ratio (y) = 0.36452 0.29932
# Poissons Ratio (z) = 0.55726 0.16803
#
# Static dielectric constant tensor:
#      x y z
#    x 3.719240 0.000000 0.000000 
#    y 0.000000 3.366330 0.000000 
#    z 0.000000 0.000000 3.169890 
# 
# 
# High freq. dielectric constant tensor:
#      x y z
#    x 1.755460 0.000000 0.000000 
#    y 0.000000 1.735220 0.000000 
#    z 0.000000 0.000000 1.726310 
# 
# From -- ./inp_files/29444.got.cif
#   From: 2010.03.12/outbox.cif.g09.slc.cpg/sg51_15_cif.got.tgz:29444.got - 2010.04.16 13:43:02.
