data_PCOD8211236
_publ_section_title
;
Structure prediction by ZEFSAII (Michael W. Deem and Ramdas Pophale) SiO2 
 PCOD8211236
Probable space group: P M M A
;
_chemical_formula_sum "Si O2"
_cell_formula_units_Z 52
_cell_length_a 8.826834
_cell_length_b 15.395816
_cell_length_c 23.232399
_cell_angle_alpha 90.000000
_cell_angle_beta 90.000000
_cell_angle_gamma 90.000000
_cell_volume 3157.197346
_symmetry_space_group_name_H-M "P M M A"
_symmetry_group_IT_number 51
_symmetry_cell_setting 'orthorhombic'
loop_
_space_group_symop_operation_xyz
x,y,z
1/2-x,-y,z
1/2+x,-y,-z
-x,y,-z
-x,-y,-z
1/2+x,y,-z
1/2-x,y,z
x,-y,z
loop_
_atom_site_type_symbol
_atom_site_label
_atom_site_fract_x
_atom_site_fract_y
_atom_site_fract_z
Si Si1 0.428362 0.500000 0.062033
Si Si2 0.078502 0.669287 0.898146
Si Si3 0.427435 0.096792 0.826988
Si Si4 0.918914 0.265151 0.229662
Si Si5 0.067867 0.402272 0.681080
Si Si6 0.569521 0.839811 0.941011
Si Si7 0.584371 0.397365 0.445228
O O1 0.250000 0.500000 0.056879
O O2 0.483929 0.417489 0.096839
O O3 0.500000 0.500000 0.000000
O O4 0.250000 0.659503 0.922052
O O5 0.081032 0.688066 0.831078
O O6 0.993294 0.742642 0.934366
O O7 0.250000 0.117422 0.839262
O O8 0.490878 0.168307 0.780691
O O9 0.515555 0.102216 0.887272
O O10 0.449831 0.000000 0.801502
O O11 0.750000 0.251713 0.253441
O O12 0.001787 0.329052 0.275561
O O13 0.250000 0.402861 0.681992
O O14 0.012008 0.500000 0.698099
O O15 0.007609 0.377878 0.616903
O O16 0.750000 0.840212 0.944182
O O17 0.500000 0.879117 0.000000
O O18 0.500000 0.355172 0.500000
O O19 0.750000 0.355035 0.445675
O O20 0.595675 0.500000 0.453351
#
# Coordination Sequence:
#
# PCOD8211236 Si02
#       7
#     4   8   8   8   8   8   8
#     4  12  24  36  48  64  86 114 151 190 225 264
#     4  10  20  34  50  68  88 114 147 183 226 269
#     4   9  18  33  50  68  90 114 141 177 222 272
#     4   8  15  27  45  67  88 111 142 179 219 261
#     4   8  13  21  37  63  90 114 146 183 214 250
#     4  11  21  34  51  69  90 113 139 175 221 273
#     4   8  13  21  34  54  81 114 147 179 211 245
#
# _framework density 16.470303999999999
#
# number of rings (size 3 to 8) (size 9 to 14) (size 15 to 20)
#    0.000    2.769    0.000    4.846    1.077    0.615 
#    0.000    0.000    0.000    4.615    0.000    0.000 
#    0.000    0.615    0.000    0.462    0.000    0.923 
#
# Total GULP energy -644255.636522 kJ/mol
# GULP energy per Si atom -12389.531472 kJ/mol
# Density = 1.643282 g / cm^3
# Si number density = 16.470304 Si / 1000 Ang^3
#
#
#
# Elastic Constant Matrix: (Units=GPa)
#
#
# Indices 1 2 3 4 5 6 
#
# 1 74.5605 24.3144 22.0862 0.0000 0.0000 0.0000
# 2 24.3144 110.8021 50.5229 0.0000 0.0000 0.0000
# 3 22.0862 50.5229 99.9052 0.0000 0.0000 0.0000
# 4 0.0000 0.0000 0.0000 11.9950 0.0000 0.0000
# 5 0.0000 0.0000 0.0000 0.0000 17.8471 0.0000
# 6 0.0000 0.0000 0.0000 0.0000 0.0000 15.1897
#
#
#
# Elastic Compliance Matrix: (Units=1/GPa)
#
#
# Indices 1 2 3 4 5 6 
#
# 1 0.014782 -0.002279 -0.002115 0.000000 0.000000 0.000000
# 2 -0.002279 0.012081 -0.005606 0.000000 0.000000 0.000000
# 3 -0.002115 -0.005606 0.013312 0.000000 0.000000 0.000000
# 4 0.000000 0.000000 0.000000 0.083368 0.000000 0.000000
# 5 0.000000 0.000000 0.000000 0.000000 0.056031 0.000000
# 6 0.000000 0.000000 0.000000 0.000000 0.000000 0.065834
#
#
# Mechanical properties :
#
#
# Convention : Reuss Voigt Hill
#
# Bulk Modulus (GPa) = 49.56704 53.23497 51.40100
# Shear Modulus (GPa) = 18.37331 21.56266 19.96798
#
# Velocity S-wave (km/s) = 3.34360 3.62219 3.48568
# Velocity P-wave (km/s) = 6.71314 7.06298 6.89028
#
# Compressibility (1/GPa) = 0.02017470
#
# Stress axis : x y z
#
# Youngs Moduli (GPa) = 67.65097 82.77224 75.12029
#
# Poissons Ratio (x) = 0.18866 0.15889
# Poissons Ratio (y) = 0.15419 0.42111
# Poissons Ratio (z) = 0.14310 0.46400
#
# Static dielectric constant tensor:
#      x y z
#    x 3.032420 0.000000 0.000000 
#    y 0.000000 1.340750 0.000000 
#    z 0.000000 0.000000 3.193110 
# 
# 
# High freq. dielectric constant tensor:
#      x y z
#    x 1.609280 0.000000 0.000000 
#    y 0.000000 1.615650 0.000000 
#    z 0.000000 0.000000 1.619110 
# 
# From -- ./inp_files/34713.got.cif
#   From: 2010.03.12/outbox.cif.g09.slc.cpg/sg51_18_cif.got.tgz:34713.got - 2010.04.16 13:43:02.
