data_PCOD8211909
_publ_section_title
;
Structure prediction by ZEFSAII (Michael W. Deem and Ramdas Pophale) SiO2 
 PCOD8211909
Probable space group: P M M A
;
_chemical_formula_sum "Si O2"
_cell_formula_units_Z 48
_cell_length_a 16.196665
_cell_length_b 9.128534
_cell_length_c 17.088629
_cell_angle_alpha 90.000000
_cell_angle_beta 90.000000
_cell_angle_gamma 90.000000
_cell_volume 2526.584679
_symmetry_space_group_name_H-M "P M M A"
_symmetry_group_IT_number 51
_symmetry_cell_setting 'orthorhombic'
loop_
_space_group_symop_operation_xyz
x,y,z
1/2-x,-y,z
1/2+x,-y,-z
-x,y,-z
-x,-y,-z
1/2+x,y,-z
1/2-x,y,z
x,-y,z
loop_
_atom_site_type_symbol
_atom_site_label
_atom_site_fract_x
_atom_site_fract_y
_atom_site_fract_z
Si Si1 0.438132 0.673560 0.839560
Si Si2 0.155954 0.334160 0.993688
Si Si3 0.157929 0.674155 0.689035
Si Si4 0.750000 0.167726 0.731169
Si Si5 0.107661 0.829411 0.147458
Si Si6 0.750000 0.674139 0.568621
Si Si7 0.089578 0.674126 0.526057
O O1 0.447249 0.500000 0.835197
O O2 0.382017 0.733331 0.768896
O O3 0.526021 0.745638 0.828965
O O4 0.399656 0.722454 0.922139
O O5 0.250000 0.329676 0.964759
O O6 0.130708 0.500000 0.017485
O O7 0.144197 0.228388 0.066421
O O8 0.250000 0.739126 0.682027
O O9 0.162101 0.500000 0.690018
O O10 0.104328 0.727402 0.614941
O O11 0.670490 0.203041 0.782981
O O12 0.750000 0.272829 0.657264
O O13 0.750000 0.000000 0.702836
O O14 0.089840 0.000000 0.136970
O O15 0.750000 0.500000 0.567021
O O16 0.833715 0.732935 0.526529
O O17 0.087794 0.500000 0.520377
O O18 0.000000 0.738037 0.500000
#
# Coordination Sequence:
#
# PCOD8211909 Si02
#       7
#     8   8   8   4   8   4   8
#     4  10  21  34  55  86 113 140 180 226 273 323
#     4  10  20  36  57  82 113 146 182 224 271 325
#     4   9  16  30  51  77 114 151 177 213 269 326
#     4  10  24  42  56  73 106 146 182 227 278 328
#     4  11  23  40  57  76 106 146 188 228 275 327
#     4  10  20  34  58  87 110 138 184 229 270 326
#     4   9  17  29  48  81 118 143 172 221 274 323
#
# _framework density 18.997978
#
# number of rings (size 3 to 8) (size 9 to 14) (size 15 to 20)
#    0.000    2.167    1.667    1.500    2.333    6.000 
#    0.000    0.000    0.000    3.000    0.000    0.000 
#    0.000    0.000    0.000    0.000    0.000    0.000 
#
# Total GULP energy -595204.469873 kJ/mol
# GULP energy per Si atom -12400.093122 kJ/mol
# Density = 1.895474 g / cm^3
# Si number density = 18.997978 Si / 1000 Ang^3
#
#
#
# Elastic Constant Matrix: (Units=GPa)
#
#
# Indices 1 2 3 4 5 6 
#
# 1 137.4090 15.0777 46.3855 0.0000 0.0000 0.0000
# 2 15.0777 15.9236 21.7528 0.0000 0.0000 0.0000
# 3 46.3855 21.7528 121.1368 0.0000 0.0000 0.0000
# 4 0.0000 0.0000 0.0000 8.3847 0.0000 0.0000
# 5 0.0000 0.0000 0.0000 0.0000 30.1201 0.0000
# 6 0.0000 0.0000 0.0000 0.0000 0.0000 13.0532
#
#
#
# Elastic Compliance Matrix: (Units=1/GPa)
#
#
# Indices 1 2 3 4 5 6 
#
# 1 0.008631 -0.004847 -0.002435 0.000000 0.000000 0.000000
# 2 -0.004847 0.085935 -0.013576 0.000000 0.000000 0.000000
# 3 -0.002435 -0.013576 0.011625 0.000000 0.000000 0.000000
# 4 0.000000 0.000000 0.000000 0.119265 0.000000 0.000000
# 5 0.000000 0.000000 0.000000 0.000000 0.033200 0.000000
# 6 0.000000 0.000000 0.000000 0.000000 0.000000 0.076610
#
#
# Mechanical properties :
#
#
# Convention : Reuss Voigt Hill
#
# Bulk Modulus (GPa) = 15.50941 48.98904 32.24923
# Shear Modulus (GPa) = 12.54793 23.06183 17.80488
#
# Velocity S-wave (km/s) = 2.57278 3.48790 3.06469
# Velocity P-wave (km/s) = 4.12396 6.48560 5.43462
#
# Compressibility (1/GPa) = 0.06447699
#
# Stress axis : x y z
#
# Youngs Moduli (GPa) = 115.85787 11.63676 86.01984
#
# Poissons Ratio (x) = 0.05640 0.20943
# Poissons Ratio (y) = 0.56153 1.16777
# Poissons Ratio (z) = 0.28208 0.15798
#
# Static dielectric constant tensor:
#      x y z
#    x 3.742950 0.000000 0.000000 
#    y 0.000000 3.049110 0.000000 
#    z 0.000000 0.000000 3.580030 
# 
# 
# High freq. dielectric constant tensor:
#      x y z
#    x 1.757580 0.000000 0.000000 
#    y 0.000000 1.689500 0.000000 
#    z 0.000000 0.000000 1.750240 
# 
# From -- ./inp_files/29553.got.cif
#   From: 2010.03.12/outbox.cif.g09.slc.cpg/sg51_15_cif.got.tgz:29553.got - 2010.04.16 13:43:02.
