data_PCOD8211066
_publ_section_title
;
Structure prediction by ZEFSAII (Michael W. Deem and Ramdas Pophale) SiO2 
 PCOD8211066
Probable space group: P M M A
;
_chemical_formula_sum "Si O2"
_cell_formula_units_Z 64
_cell_length_a 19.080572
_cell_length_b 9.323700
_cell_length_c 18.707342
_cell_angle_alpha 90.000000
_cell_angle_beta 90.000000
_cell_angle_gamma 90.000000
_cell_volume 3328.064748
_symmetry_space_group_name_H-M "P M M A"
_symmetry_group_IT_number 51
_symmetry_cell_setting 'orthorhombic'
loop_
_space_group_symop_operation_xyz
x,y,z
1/2-x,-y,z
1/2+x,-y,-z
-x,y,-z
-x,-y,-z
1/2+x,y,-z
1/2-x,y,z
x,-y,z
loop_
_atom_site_type_symbol
_atom_site_label
_atom_site_fract_x
_atom_site_fract_y
_atom_site_fract_z
Si Si1 0.828884 0.837688 0.460993
Si Si2 0.674113 0.160522 0.207056
Si Si3 0.868086 0.340472 0.330645
Si Si4 0.949217 0.162765 0.562374
Si Si5 0.331894 0.832234 0.049604
Si Si6 0.428621 0.831272 0.914753
Si Si7 0.438674 0.328451 0.137520
Si Si8 0.526611 0.659884 0.702730
O O1 0.750000 0.781030 0.472075
O O2 0.870907 0.739253 0.405961
O O3 0.869059 0.828953 0.536112
O O4 0.829037 0.000000 0.431696
O O5 0.750000 0.161625 0.168004
O O6 0.682589 0.258029 0.276827
O O7 0.615141 0.218021 0.154160
O O8 0.654657 0.000000 0.231756
O O9 0.839057 0.500000 0.342889
O O10 0.943361 0.341419 0.294280
O O11 0.000000 0.227862 0.500000
O O12 0.948580 0.243969 0.637142
O O13 0.973846 0.000000 0.577095
O O14 0.250000 0.791939 0.037440
O O15 0.363613 0.735878 0.113667
O O16 0.338773 0.000000 0.068551
O O17 0.378822 0.792597 0.980952
O O18 0.500866 0.742147 0.912811
O O19 0.447088 0.000000 0.914679
O O20 0.441219 0.500000 0.128269
O O21 0.447377 0.282119 0.220468
O O22 0.556059 0.500000 0.689754
#
# Coordination Sequence:
#
# PCOD8211066 Si02
#       8
#     8   8   8   8   8   8   8   8
#     4  10  21  37  55  79 112 144 177 225 283 337
#     4  10  20  33  51  78 113 153 191 228 276 334
#     4  11  21  34  52  77 112 150 188 227 273 333
#     4  10  20  35  58  84 107 139 185 230 272 326
#     4  10  22  41  63  88 117 150 193 244 295 345
#     4  10  20  36  60  87 116 151 191 236 286 340
#     4  11  23  40  60  86 120 155 194 238 286 341
#     4  10  22  38  56  81 113 149 187 232 281 330
#
# _framework density 19.230395999999999
#
# number of rings (size 3 to 8) (size 9 to 14) (size 15 to 20)
#    0.000    1.750    2.500    1.875    0.000    8.000 
#    0.000    0.625    0.000    4.500    0.000    0.000 
#    0.000    0.000    0.000    0.000    0.000    0.000 
#
# Total GULP energy -793449.357094 kJ/mol
# GULP energy per Si atom -12397.646205 kJ/mol
# Density = 1.918663 g / cm^3
# Si number density = 19.230396 Si / 1000 Ang^3
#
#
#
# Elastic Constant Matrix: (Units=GPa)
#
#
# Indices 1 2 3 4 5 6 
#
# 1 93.1508 40.0061 51.6988 0.0000 0.0000 0.0000
# 2 40.0061 85.0268 56.5653 0.0000 0.0000 0.0000
# 3 51.6988 56.5653 113.4025 0.0000 0.0000 0.0000
# 4 0.0000 0.0000 0.0000 25.3277 0.0000 0.0000
# 5 0.0000 0.0000 0.0000 0.0000 23.7344 0.0000
# 6 0.0000 0.0000 0.0000 0.0000 0.0000 15.6024
#
#
#
# Elastic Compliance Matrix: (Units=1/GPa)
#
#
# Indices 1 2 3 4 5 6 
#
# 1 0.015146 -0.003791 -0.005014 0.000000 0.000000 0.000000
# 2 -0.003791 0.018551 -0.007525 0.000000 0.000000 0.000000
# 3 -0.005014 -0.007525 0.014857 0.000000 0.000000 0.000000
# 4 0.000000 0.000000 0.000000 0.039482 0.000000 0.000000
# 5 0.000000 0.000000 0.000000 0.000000 0.042133 0.000000
# 6 0.000000 0.000000 0.000000 0.000000 0.000000 0.064093
#
#
# Mechanical properties :
#
#
# Convention : Reuss Voigt Hill
#
# Bulk Modulus (GPa) = 62.91408 65.34673 64.13041
# Shear Modulus (GPa) = 21.53130 22.48690 22.00910
#
# Velocity S-wave (km/s) = 3.34975 3.42327 3.38671
# Velocity P-wave (km/s) = 6.91000 7.04839 6.97954
#
# Compressibility (1/GPa) = 0.01589469
#
# Stress axis : x y z
#
# Youngs Moduli (GPa) = 66.02336 53.90648 67.30620
#
# Poissons Ratio (x) = 0.20434 0.33748
# Poissons Ratio (y) = 0.25028 0.50647
# Poissons Ratio (z) = 0.33105 0.40564
#
# Static dielectric constant tensor:
#      x y z
#    x 3.532900 0.000000 0.000000 
#    y 0.000000 3.493090 0.000000 
#    z 0.000000 0.000000 3.401260 
# 
# 
# High freq. dielectric constant tensor:
#      x y z
#    x 1.747200 0.000000 0.000000 
#    y 0.000000 1.740900 0.000000 
#    z 0.000000 0.000000 1.741910 
# 
# From -- ./inp_files/30542.got.cif
#   From: 2010.03.12/outbox.cif.g09.slc.cpg/sg51_16_cif.got.tgz:30542.got - 2010.04.16 13:43:02.
