data_PCOD8211896
_publ_section_title
;
Structure prediction by ZEFSAII (Michael W. Deem and Ramdas Pophale) SiO2 
 PCOD8211896
Probable space group: P M M A
;
_chemical_formula_sum "Si O2"
_cell_formula_units_Z 64
_cell_length_a 15.100359
_cell_length_b 23.205758
_cell_length_c 9.161520
_cell_angle_alpha 90.000000
_cell_angle_beta 90.000000
_cell_angle_gamma 90.000000
_cell_volume 3210.336565
_symmetry_space_group_name_H-M "P M M A"
_symmetry_group_IT_number 51
_symmetry_cell_setting 'orthorhombic'
loop_
_space_group_symop_operation_xyz
x,y,z
1/2-x,-y,z
1/2+x,-y,-z
-x,y,-z
-x,-y,-z
1/2+x,y,-z
1/2-x,y,z
x,-y,z
loop_
_atom_site_type_symbol
_atom_site_label
_atom_site_fract_x
_atom_site_fract_y
_atom_site_fract_z
Si Si1 0.916998 0.340970 0.595534
Si Si2 0.034065 0.374241 0.851694
Si Si3 0.653059 0.146669 0.159865
Si Si4 0.478505 0.126093 0.338870
Si Si5 0.906540 0.063370 0.922426
Si Si6 0.351249 0.564811 0.619086
Si Si7 0.649190 0.769624 0.712882
Si Si8 0.350038 0.269779 0.967310
O O1 0.868816 0.394617 0.519397
O O2 0.852107 0.286258 0.607148
O O3 0.000000 0.321117 0.500000
O O4 0.947872 0.359012 0.756746
O O5 0.095026 0.417721 0.762517
O O6 0.086388 0.316679 0.896362
O O7 0.000000 0.404881 0.000000
O O8 0.750000 0.133713 0.230175
O O9 0.575003 0.130314 0.267334
O O10 0.644695 0.214247 0.134054
O O11 0.650546 0.111396 0.006737
O O12 0.500000 0.102689 0.500000
O O13 0.419226 0.081264 0.246771
O O14 0.422599 0.185108 0.346751
O O15 0.860993 0.000000 0.927017
O O16 0.000000 0.060035 0.000000
O O17 0.250000 0.568899 0.664817
O O18 0.378079 0.500000 0.573403
O O19 0.750000 0.794301 0.713589
O O20 0.617770 0.749704 0.872900
O O21 0.250000 0.294398 0.975037
#
# Coordination Sequence:
#
# PCOD8211896 Si02
#       8
#     8   8   8   8   8   8   8   8
#     4  10  21  36  59  86 115 156 196 240 293 358
#     4  11  21  35  60  89 116 146 189 245 302 355
#     4  10  21  38  61  87 117 162 209 253 301 357
#     4  11  23  37  57  88 127 164 197 252 311 369
#     4   9  19  37  61  85 113 156 208 251 291 350
#     4  10  23  44  63  81 114 158 200 242 293 359
#     4  11  21  35  57  87 124 161 203 249 302 367
#     4  10  20  34  57  86 119 154 193 241 301 359
#
# _framework density 19.935604000000001
#
# number of rings (size 3 to 8) (size 9 to 14) (size 15 to 20)
#    0.000    1.750    2.500    1.875    0.000    4.500 
#    0.000    2.500    0.000    1.500    0.000    1.750 
#    0.000    0.000    0.000    0.000    0.000    0.000 
#
# Total GULP energy -793412.947533 kJ/mol
# GULP energy per Si atom -12397.077305 kJ/mol
# Density = 1.989023 g / cm^3
# Si number density = 19.935604 Si / 1000 Ang^3
#
#
#
# Elastic Constant Matrix: (Units=GPa)
#
#
# Indices 1 2 3 4 5 6 
#
# 1 85.0113 28.0440 23.0178 0.0000 0.0000 0.0000
# 2 28.0440 90.8992 24.6243 0.0000 0.0000 0.0000
# 3 23.0178 24.6243 109.8569 0.0000 0.0000 0.0000
# 4 0.0000 0.0000 0.0000 26.7228 0.0000 0.0000
# 5 0.0000 0.0000 0.0000 0.0000 23.2517 0.0000
# 6 0.0000 0.0000 0.0000 0.0000 0.0000 6.6222
#
#
#
# Elastic Compliance Matrix: (Units=1/GPa)
#
#
# Indices 1 2 3 4 5 6 
#
# 1 0.013504 -0.003619 -0.002018 0.000000 0.000000 0.000000
# 2 -0.003619 0.012683 -0.002084 0.000000 0.000000 0.000000
# 3 -0.002018 -0.002084 0.009993 0.000000 0.000000 0.000000
# 4 0.000000 0.000000 0.000000 0.037421 0.000000 0.000000
# 5 0.000000 0.000000 0.000000 0.000000 0.043008 0.000000
# 6 0.000000 0.000000 0.000000 0.000000 0.000000 0.151008
#
#
# Mechanical properties :
#
#
# Convention : Reuss Voigt Hill
#
# Bulk Modulus (GPa) = 48.22733 48.57106 48.39919
# Shear Modulus (GPa) = 17.24310 25.32477 21.28393
#
# Velocity S-wave (km/s) = 2.94418 3.56803 3.27101
# Velocity P-wave (km/s) = 5.98345 6.43361 6.21261
#
# Compressibility (1/GPa) = 0.02073513
#
# Stress axis : x y z
#
# Youngs Moduli (GPa) = 74.05472 78.84874 100.07206
#
# Poissons Ratio (x) = 0.28538 0.20195
# Poissons Ratio (y) = 0.26803 0.20859
# Poissons Ratio (z) = 0.14945 0.16435
#
# Static dielectric constant tensor:
#      x y z
#    x 3.723130 0.000000 0.000000 
#    y 0.000000 3.692600 0.000000 
#    z 0.000000 0.000000 3.665850 
# 
# 
# High freq. dielectric constant tensor:
#      x y z
#    x 1.783350 0.000000 0.000000 
#    y 0.000000 1.765610 0.000000 
#    z 0.000000 0.000000 1.771860 
# 
# From -- ./inp_files/8717.got.cif
#   From: 2010.03.12/outbox.cif.g09.slc.cpg/sg51_5_cif.got.tgz:8717.got - 2010.04.16 13:43:02.
