data_PCOD8211424
_publ_section_title
;
Structure prediction by ZEFSAII (Michael W. Deem and Ramdas Pophale) SiO2 
 PCOD8211424
Probable space group: P M M A
;
_chemical_formula_sum "Si O2"
_cell_formula_units_Z 64
_cell_length_a 18.456645
_cell_length_b 20.412250
_cell_length_c 9.366359
_cell_angle_alpha 90.000000
_cell_angle_beta 90.000000
_cell_angle_gamma 90.000000
_cell_volume 3528.697562
_symmetry_space_group_name_H-M "P M M A"
_symmetry_group_IT_number 51
_symmetry_cell_setting 'orthorhombic'
loop_
_space_group_symop_operation_xyz
x,y,z
1/2-x,-y,z
1/2+x,-y,-z
-x,y,-z
-x,-y,-z
1/2+x,y,-z
1/2-x,y,z
x,-y,z
loop_
_atom_site_type_symbol
_atom_site_label
_atom_site_fract_x
_atom_site_fract_y
_atom_site_fract_z
Si Si1 0.834536 0.806666 0.616791
Si Si2 0.835736 0.317743 0.452105
Si Si3 0.082859 0.575817 0.034910
Si Si4 0.663819 0.683435 0.131113
Si Si5 0.666375 0.575311 0.677259
Si Si6 0.573160 0.926950 0.922306
Si Si7 0.429327 0.926470 0.409973
Si Si8 0.165683 0.805380 0.054970
O O1 0.750000 0.814896 0.593186
O O2 0.867606 0.746313 0.529128
O O3 0.867631 0.873763 0.555113
O O4 0.852423 0.789756 0.780813
O O5 0.750000 0.313324 0.446648
O O6 0.866901 0.317016 0.292132
O O7 0.858609 0.382292 0.540573
O O8 0.094834 0.500000 0.997088
O O9 0.108771 0.589941 0.197031
O O10 0.135494 0.616719 0.935416
O O11 0.000000 0.596310 0.000000
O O12 0.750000 0.682311 0.125567
O O13 0.634274 0.747064 0.044605
O O14 0.750000 0.592796 0.723538
O O15 0.662051 0.500000 0.629918
O O16 0.553915 0.920756 0.756602
O O17 0.631493 0.875628 0.981983
O O18 0.602010 0.000000 0.958213
O O19 0.500000 0.910000 0.000000
O O20 0.500000 0.908355 0.500000
O O21 0.402288 0.000000 0.449042
O O22 0.250000 0.812978 0.026578
#
# Coordination Sequence:
#
# PCOD8211424 Si02
#       8
#     8   8   8   8   8   8   8   8
#     4   9  17  31  50  70  96 129 162 199 244 293
#     4   9  18  32  51  76 103 129 162 206 248 289
#     4  10  21  36  53  75 103 133 166 205 248 294
#     4  10  20  34  53  76 101 130 166 207 249 295
#     4   9  17  32  55  78 100 131 168 202 241 293
#     4   9  18  32  50  72  98 130 166 203 246 296
#     4   9  18  32  49  70  96 125 160 203 246 289
#     4   9  18  32  51  74  99 129 165 206 249 292
#
# _framework density 18.137004999999998
#
# number of rings (size 3 to 8) (size 9 to 14) (size 15 to 20)
#    0.000    2.750    0.000    1.125    0.000    5.250 
#    0.000    6.875    0.000    2.250    0.000    7.000 
#    0.000    0.000    0.000    0.000    0.000    0.000 
#
# Total GULP energy -793331.630817 kJ/mol
# GULP energy per Si atom -12395.806732 kJ/mol
# Density = 1.809572 g / cm^3
# Si number density = 18.137005 Si / 1000 Ang^3
#
#
#
# Elastic Constant Matrix: (Units=GPa)
#
#
# Indices 1 2 3 4 5 6 
#
# 1 38.9926 44.7966 39.1824 0.0000 0.0000 0.0000
# 2 44.7966 127.1997 77.4064 0.0000 0.0000 0.0000
# 3 39.1824 77.4064 104.5417 0.0000 0.0000 0.0000
# 4 0.0000 0.0000 0.0000 25.8163 0.0000 0.0000
# 5 0.0000 0.0000 0.0000 0.0000 21.1096 0.0000
# 6 0.0000 0.0000 0.0000 0.0000 0.0000 22.8857
#
#
#
# Elastic Compliance Matrix: (Units=1/GPa)
#
#
# Indices 1 2 3 4 5 6 
#
# 1 0.048212 -0.010889 -0.010007 0.000000 0.000000 0.000000
# 2 -0.010889 0.016769 -0.008335 0.000000 0.000000 0.000000
# 3 -0.010007 -0.008335 0.019488 0.000000 0.000000 0.000000
# 4 0.000000 0.000000 0.000000 0.038735 0.000000 0.000000
# 5 0.000000 0.000000 0.000000 0.000000 0.047372 0.000000
# 6 0.000000 0.000000 0.000000 0.000000 0.000000 0.043696
#
#
# Mechanical properties :
#
#
# Convention : Reuss Voigt Hill
#
# Bulk Modulus (GPa) = 38.45292 65.94498 52.19895
# Shear Modulus (GPa) = 17.76822 21.25223 19.51022
#
# Velocity S-wave (km/s) = 3.13336 3.42681 3.28337
# Velocity P-wave (km/s) = 5.85986 7.21773 6.57395
#
# Compressibility (1/GPa) = 0.02600583
#
# Stress axis : x y z
#
# Youngs Moduli (GPa) = 20.74181 59.63500 51.31476
#
# Poissons Ratio (x) = 0.64938 0.51351
# Poissons Ratio (y) = 0.22586 0.42770
# Poissons Ratio (z) = 0.20756 0.49705
#
# Static dielectric constant tensor:
#      x y z
#    x 3.275520 0.000000 0.000000 
#    y 0.000000 3.594790 0.000000 
#    z 0.000000 0.000000 3.521390 
# 
# 
# High freq. dielectric constant tensor:
#      x y z
#    x 1.675100 0.000000 0.000000 
#    y 0.000000 1.717800 0.000000 
#    z 0.000000 0.000000 1.700380 
# 
# From -- ./inp_files/11192.got.cif
#   From: 2010.03.12/outbox.cif.g09.slc.cpg/sg51_6_cif.got.tgz:11192.got - 2010.04.16 13:43:02.
