data_PCOD8211377
_publ_section_title
;
Structure prediction by ZEFSAII (Michael W. Deem and Ramdas Pophale) SiO2 
 PCOD8211377
Probable space group: P M M A
;
_chemical_formula_sum "Si O2"
_cell_formula_units_Z 56
_cell_length_a 14.961573
_cell_length_b 23.500203
_cell_length_c 8.146056
_cell_angle_alpha 90.000000
_cell_angle_beta 90.000000
_cell_angle_gamma 90.000000
_cell_volume 2864.153312
_symmetry_space_group_name_H-M "P M M A"
_symmetry_group_IT_number 51
_symmetry_cell_setting 'orthorhombic'
loop_
_space_group_symop_operation_xyz
x,y,z
1/2-x,-y,z
1/2+x,-y,-z
-x,y,-z
-x,-y,-z
1/2+x,y,-z
1/2-x,y,z
x,-y,z
loop_
_atom_site_type_symbol
_atom_site_label
_atom_site_fract_x
_atom_site_fract_y
_atom_site_fract_z
Si Si1 0.847449 0.337267 0.613898
Si Si2 0.143808 0.935396 0.383605
Si Si3 0.905868 0.437584 0.415934
Si Si4 0.356256 0.869239 0.700670
Si Si5 0.143874 0.064608 0.019335
Si Si6 0.852548 0.739200 0.301726
Si Si7 0.977622 0.650102 0.177972
O O1 0.750000 0.327114 0.698062
O O2 0.842184 0.399731 0.530875
O O3 0.865660 0.288454 0.480319
O O4 0.929116 0.333821 0.737119
O O5 0.250000 0.931801 0.388295
O O6 0.103844 0.898812 0.535554
O O7 0.111991 0.000000 0.409886
O O8 0.111545 0.913873 0.201407
O O9 0.862721 0.500000 0.381096
O O10 0.922651 0.402688 0.250364
O O11 0.000000 0.446586 0.500000
O O12 0.250000 0.875419 0.699564
O O13 0.395053 0.897438 0.869062
O O14 0.385870 0.803870 0.694355
O O15 0.250000 0.066790 0.014880
O O16 0.110882 0.000000 0.991530
O O17 0.750000 0.734931 0.242985
O O18 0.914849 0.705732 0.173544
O O19 0.000000 0.628684 0.000000
#
# Coordination Sequence:
#
# PCOD8211377 Si02
#       7
#     8   8   8   8   8   8   8
#     4   9  18  34  55  75 100 138 180 218 261 309
#     4   8  13  21  34  55  86 124 164 206 258 320
#     4   8  15  30  53  78 104 136 172 207 246 298
#     4   9  15  24  39  60  90 128 171 215 262 313
#     4   8  13  21  34  55  88 127 163 205 259 319
#     4   9  18  33  50  71 100 138 182 226 265 312
#     4  10  20  34  52  76 109 143 174 219 270 318
#
# _framework density 19.552025
#
# number of rings (size 3 to 8) (size 9 to 14) (size 15 to 20)
#    0.000    3.286    0.000    2.571    0.000    2.857 
#    2.571    0.000    0.000    0.000    0.000    4.000 
#    0.000   11.429    0.000    2.286    0.000    1.714 
#
# Total GULP energy -693834.880394 kJ/mol
# GULP energy per Si atom -12389.908578 kJ/mol
# Density = 1.950752 g / cm^3
# Si number density = 19.552025 Si / 1000 Ang^3
#
#
#
# Elastic Constant Matrix: (Units=GPa)
#
#
# Indices 1 2 3 4 5 6 
#
# 1 36.3830 6.7389 15.0080 0.0000 0.0000 0.0000
# 2 6.7389 142.1790 68.3405 0.0000 0.0000 0.0000
# 3 15.0080 68.3405 126.1967 0.0000 0.0000 0.0000
# 4 0.0000 0.0000 0.0000 13.4971 0.0000 0.0000
# 5 0.0000 0.0000 0.0000 0.0000 8.8633 0.0000
# 6 0.0000 0.0000 0.0000 0.0000 0.0000 11.2847
#
#
#
# Elastic Compliance Matrix: (Units=1/GPa)
#
#
# Indices 1 2 3 4 5 6 
#
# 1 0.028919 0.000382 -0.003646 0.000000 0.000000 0.000000
# 2 0.000382 0.009513 -0.005197 0.000000 0.000000 0.000000
# 3 -0.003646 -0.005197 0.011172 0.000000 0.000000 0.000000
# 4 0.000000 0.000000 0.000000 0.074090 0.000000 0.000000
# 5 0.000000 0.000000 0.000000 0.000000 0.112824 0.000000
# 6 0.000000 0.000000 0.000000 0.000000 0.000000 0.088615
#
#
# Mechanical properties :
#
#
# Convention : Reuss Voigt Hill
#
# Bulk Modulus (GPa) = 30.59841 53.88150 42.23995
# Shear Modulus (GPa) = 14.16628 21.04045 17.60337
#
# Velocity S-wave (km/s) = 2.69465 3.28400 3.00381
# Velocity P-wave (km/s) = 5.03639 6.48054 5.80356
#
# Compressibility (1/GPa) = 0.03268144
#
# Stress axis : x y z
#
# Youngs Moduli (GPa) = 34.57985 105.11422 89.50719
#
# Poissons Ratio (x) = -0.04013 0.32634
# Poissons Ratio (y) = -0.01320 0.46520
# Poissons Ratio (z) = 0.12608 0.54631
#
# Static dielectric constant tensor:
#      x y z
#    x 3.193390 0.000000 0.000000 
#    y 0.000000 3.786140 0.000000 
#    z 0.000000 0.000000 3.452770 
# 
# 
# High freq. dielectric constant tensor:
#      x y z
#    x 1.739220 0.000000 0.000000 
#    y 0.000000 1.755610 0.000000 
#    z 0.000000 0.000000 1.748320 
# 
# From -- ./inp_files/8483.got.cif
#   From: 2010.03.12/outbox.cif.g09.slc.cpg/sg51_5_cif.got.tgz:8483.got - 2010.04.16 13:43:02.
