data_PCOD8211390
_publ_section_title
;
Structure prediction by ZEFSAII (Michael W. Deem and Ramdas Pophale) SiO2 
 PCOD8211390
Probable space group: P M M A
;
_chemical_formula_sum "Si O2"
_cell_formula_units_Z 64
_cell_length_a 28.119324
_cell_length_b 8.866749
_cell_length_c 15.587147
_cell_angle_alpha 90.000000
_cell_angle_beta 90.000000
_cell_angle_gamma 90.000000
_cell_volume 3886.296412
_symmetry_space_group_name_H-M "P M M A"
_symmetry_group_IT_number 51
_symmetry_cell_setting 'orthorhombic'
loop_
_space_group_symop_operation_xyz
x,y,z
1/2-x,-y,z
1/2+x,-y,-z
-x,y,-z
-x,-y,-z
1/2+x,y,-z
1/2-x,y,z
x,-y,z
loop_
_atom_site_type_symbol
_atom_site_label
_atom_site_fract_x
_atom_site_fract_y
_atom_site_fract_z
Si Si1 0.604091 0.677710 0.846441
Si Si2 0.444902 0.824995 0.490486
Si Si3 0.802816 0.328922 0.067341
Si Si4 0.564375 0.177296 0.324964
Si Si5 0.952984 0.822801 0.694270
Si Si6 0.444882 0.176354 0.991988
Si Si7 0.395702 0.325318 0.836105
Si Si8 0.196507 0.176514 0.109960
O O1 0.605084 0.500000 0.847629
O O2 0.570278 0.731811 0.770797
O O3 0.584926 0.734624 0.937391
O O4 0.657722 0.738734 0.831358
O O5 0.500000 0.793618 0.500000
O O6 0.421209 0.762629 0.578563
O O7 0.429772 0.761988 0.396411
O O8 0.434240 0.000000 0.487666
O O9 0.750000 0.302759 0.105434
O O10 0.808469 0.500000 0.032467
O O11 0.840390 0.296381 0.142296
O O12 0.812687 0.216717 0.989146
O O13 0.509160 0.209025 0.304912
O O14 0.597082 0.270776 0.260705
O O15 0.574938 0.000000 0.316057
O O16 0.943151 0.000000 0.706985
O O17 0.435263 0.000000 0.004567
O O18 0.500000 0.216110 0.000000
O O19 0.429108 0.227813 0.897942
O O20 0.409621 0.500000 0.845306
O O21 0.250000 0.225924 0.137217
O O22 0.189322 0.000000 0.122122
#
# Coordination Sequence:
#
# PCOD8211390 Si02
#       8
#     8   8   8   8   8   8   8   8
#     4  12  23  33  47  70  99 130 159 193 240 291
#     4   7  12  26  48  70  90 118 159 201 239 277
#     4   9  18  33  50  67  90 121 156 195 241 285
#     4   9  17  30  49  71  96 127 160 197 239 283
#     4   9  17  31  50  70  94 126 164 201 235 279
#     4  11  23  36  48  63  90 130 169 200 230 271
#     4  11  21  31  46  70  96 125 156 193 239 285
#     4  10  20  34  53  73  91 117 158 204 243 281
#
# _framework density 16.468121
#
# number of rings (size 3 to 8) (size 9 to 14) (size 15 to 20)
#    0.000    2.250    1.250    4.500    0.000    5.750 
#    0.000    0.625    0.000    2.250    0.000    0.875 
#    0.000    5.000    0.000    0.000    0.000    0.000 
#
# Total GULP energy -793176.448706 kJ/mol
# GULP energy per Si atom -12393.382011 kJ/mol
# Density = 1.643064 g / cm^3
# Si number density = 16.468121 Si / 1000 Ang^3
#
#
#
# Elastic Constant Matrix: (Units=GPa)
#
#
# Indices 1 2 3 4 5 6 
#
# 1 63.0707 27.7645 9.6798 0.0000 0.0000 0.0000
# 2 27.7645 60.2588 10.3736 0.0000 0.0000 0.0000
# 3 9.6798 10.3736 62.4382 0.0000 0.0000 0.0000
# 4 0.0000 0.0000 0.0000 1.8848 0.0000 0.0000
# 5 0.0000 0.0000 0.0000 0.0000 12.5629 0.0000
# 6 0.0000 0.0000 0.0000 0.0000 0.0000 18.7922
#
#
#
# Elastic Compliance Matrix: (Units=1/GPa)
#
#
# Indices 1 2 3 4 5 6 
#
# 1 0.020047 -0.008958 -0.001620 0.000000 0.000000 0.000000
# 2 -0.008958 0.021087 -0.002115 0.000000 0.000000 0.000000
# 3 -0.001620 -0.002115 0.016618 0.000000 0.000000 0.000000
# 4 0.000000 0.000000 0.000000 0.530571 0.000000 0.000000
# 5 0.000000 0.000000 0.000000 0.000000 0.079599 0.000000
# 6 0.000000 0.000000 0.000000 0.000000 0.000000 0.053213
#
#
# Mechanical properties :
#
#
# Convention : Reuss Voigt Hill
#
# Bulk Modulus (GPa) = 30.89512 31.26704 31.08108
# Shear Modulus (GPa) = 6.60232 15.84463 11.22347
#
# Velocity S-wave (km/s) = 2.00446 3.10520 2.61344
# Velocity P-wave (km/s) = 4.91512 5.64659 5.29351
#
# Compressibility (1/GPa) = 0.03236757
#
# Stress axis : x y z
#
# Youngs Moduli (GPa) = 49.88213 47.42348 60.17481
#
# Poissons Ratio (x) = 0.42482 0.09746
# Poissons Ratio (y) = 0.44685 0.12724
# Poissons Ratio (z) = 0.08079 0.10028
#
# Static dielectric constant tensor:
#      x y z
#    x 3.143430 0.000000 0.000000 
#    y 0.000000 3.028420 0.000000 
#    z 0.000000 0.000000 3.283640 
# 
# 
# High freq. dielectric constant tensor:
#      x y z
#    x 1.615840 0.000000 0.000000 
#    y 0.000000 1.628850 0.000000 
#    z 0.000000 0.000000 1.626060 
# 
# From -- ./inp_files/26626.got.cif
#   From: 2010.03.12/outbox.cif.g09.slc.cpg/sg51_14_cif.got.tgz:26626.got - 2010.04.16 13:43:02.
