data_PCOD8211143
_publ_section_title
;
Structure prediction by ZEFSAII (Michael W. Deem and Ramdas Pophale) SiO2 
 PCOD8211143
Probable space group: P M M A
;
_chemical_formula_sum "Si O2"
_cell_formula_units_Z 48
_cell_length_a 8.913967
_cell_length_b 14.308467
_cell_length_c 20.702760
_cell_angle_alpha 90.000000
_cell_angle_beta 90.000000
_cell_angle_gamma 90.000000
_cell_volume 2640.537720
_symmetry_space_group_name_H-M "P M M A"
_symmetry_group_IT_number 51
_symmetry_cell_setting 'orthorhombic'
loop_
_space_group_symop_operation_xyz
x,y,z
1/2-x,-y,z
1/2+x,-y,-z
-x,y,-z
-x,-y,-z
1/2+x,y,-z
1/2-x,y,z
x,-y,z
loop_
_atom_site_type_symbol
_atom_site_label
_atom_site_fract_x
_atom_site_fract_y
_atom_site_fract_z
Si Si1 0.921370 0.395868 0.633699
Si Si2 0.924573 0.606155 0.232143
Si Si3 0.075465 0.211533 0.434063
Si Si4 0.074272 0.107775 0.932715
Si Si5 0.427691 0.782339 0.183190
Si Si6 0.928441 0.894881 0.691611
O O1 0.750000 0.380652 0.657864
O O2 0.943739 0.500000 0.604921
O O3 0.959944 0.321130 0.578239
O O4 0.029301 0.378707 0.693796
O O5 0.750000 0.629366 0.225324
O O6 0.960166 0.500000 0.210547
O O7 0.018887 0.674951 0.186393
O O8 0.250000 0.192405 0.441756
O O9 0.010200 0.151699 0.374220
O O10 0.000000 0.178140 0.500000
O O11 0.250000 0.127550 0.937020
O O12 0.001845 0.170728 0.878167
O O13 0.039549 0.000000 0.916471
O O14 0.000000 0.136941 0.000000
O O15 0.250000 0.787079 0.176114
O O16 0.485842 0.835874 0.247190
O O17 0.750000 0.894532 0.691010
O O18 0.991796 0.000000 0.696798
#
# Coordination Sequence:
#
# PCOD8211143 Si02
#       6
#     8   8   8   8   8   8
#     4   9  17  32  52  72  97 130 171 218 270 331
#     4  10  20  33  52  80 111 140 174 221 274 326
#     4  10  20  34  49  70  98 134 175 218 271 327
#     4  10  21  37  57  85 121 156 189 226 268 317
#     4  11  20  34  58  84 110 145 185 225 271 322
#     4   9  18  33  52  74 101 134 175 220 267 320
#
# _framework density 18.178114999999998
#
# number of rings (size 3 to 8) (size 9 to 14) (size 15 to 20)
#    0.000    2.167    1.667    2.000    0.000    4.000 
#    0.000    0.000    0.000    2.500    0.000    0.000 
#    0.000    0.000    0.000    0.000    0.000    0.000 
#
# Total GULP energy -595246.644033 kJ/mol
# GULP energy per Si atom -12400.971751 kJ/mol
# Density = 1.813674 g / cm^3
# Si number density = 18.178115 Si / 1000 Ang^3
#
#
#
# Elastic Constant Matrix: (Units=GPa)
#
#
# Indices 1 2 3 4 5 6 
#
# 1 59.8025 38.3864 45.2154 0.0000 0.0000 0.0000
# 2 38.3864 113.2099 64.3024 0.0000 0.0000 0.0000
# 3 45.2154 64.3024 130.9277 0.0000 0.0000 0.0000
# 4 0.0000 0.0000 0.0000 27.1061 0.0000 0.0000
# 5 0.0000 0.0000 0.0000 0.0000 32.7296 0.0000
# 6 0.0000 0.0000 0.0000 0.0000 0.0000 23.9897
#
#
#
# Elastic Compliance Matrix: (Units=1/GPa)
#
#
# Indices 1 2 3 4 5 6 
#
# 1 0.024402 -0.004837 -0.006052 0.000000 0.000000 0.000000
# 2 -0.004837 0.013209 -0.004817 0.000000 0.000000 0.000000
# 3 -0.006052 -0.004817 0.012094 0.000000 0.000000 0.000000
# 4 0.000000 0.000000 0.000000 0.036892 0.000000 0.000000
# 5 0.000000 0.000000 0.000000 0.000000 0.030553 0.000000
# 6 0.000000 0.000000 0.000000 0.000000 0.000000 0.041685
#
#
# Mechanical properties :
#
#
# Convention : Reuss Voigt Hill
#
# Bulk Modulus (GPa) = 54.66360 66.63871 60.65115
# Shear Modulus (GPa) = 25.46558 27.16746 26.31652
#
# Velocity S-wave (km/s) = 3.74691 3.87009 3.80900
# Velocity P-wave (km/s) = 6.98967 7.53050 7.26512
#
# Compressibility (1/GPa) = 0.01829371
#
# Stress axis : x y z
#
# Youngs Moduli (GPa) = 40.98049 75.70470 82.68895
#
# Poissons Ratio (x) = 0.36616 0.50040
# Poissons Ratio (y) = 0.19821 0.39832
# Poissons Ratio (z) = 0.24800 0.36468
#
# Static dielectric constant tensor:
#      x y z
#    x 3.242810 0.000000 0.000000 
#    y 0.000000 3.613820 0.000000 
#    z 0.000000 0.000000 3.211910 
# 
# 
# High freq. dielectric constant tensor:
#      x y z
#    x 1.693460 0.000000 0.000000 
#    y 0.000000 1.712640 0.000000 
#    z 0.000000 0.000000 1.687120 
# 
# From -- ./inp_files/27567.got.cif
#   From: 2010.03.12/outbox.cif.g09.slc.cpg/sg51_14_cif.got.tgz:27567.got - 2010.04.16 13:43:02.
