data_PCOD8211592
_publ_section_title
;
Structure prediction by ZEFSAII (Michael W. Deem and Ramdas Pophale) SiO2 
 PCOD8211592
Probable space group: P M M A
;
_chemical_formula_sum "Si O2"
_cell_formula_units_Z 52
_cell_length_a 9.987758
_cell_length_b 8.152409
_cell_length_c 34.698404
_cell_angle_alpha 90.000000
_cell_angle_beta 90.000000
_cell_angle_gamma 90.000000
_cell_volume 2825.292848
_symmetry_space_group_name_H-M "P M M A"
_symmetry_group_IT_number 51
_symmetry_cell_setting 'orthorhombic'
loop_
_space_group_symop_operation_xyz
x,y,z
1/2-x,-y,z
1/2+x,-y,-z
-x,y,-z
-x,-y,-z
1/2+x,y,-z
1/2-x,y,z
x,-y,z
loop_
_atom_site_type_symbol
_atom_site_label
_atom_site_fract_x
_atom_site_fract_y
_atom_site_fract_z
Si Si1 0.401176 0.805377 0.531762
Si Si2 0.591531 0.817469 0.086721
Si Si3 0.904776 0.310197 0.679709
Si Si4 0.603813 0.191029 0.383500
Si Si5 0.589863 0.500000 0.037644
Si Si6 0.603971 0.691496 0.764562
Si Si7 0.600119 0.809672 0.173009
O O1 0.500000 0.725640 0.500000
O O2 0.250000 0.752443 0.521520
O O3 0.439312 0.737532 0.574593
O O4 0.415638 0.000000 0.530801
O O5 0.750000 0.826604 0.087783
O O6 0.545658 0.666341 0.059918
O O7 0.541402 0.780206 0.130059
O O8 0.538433 0.000000 0.073057
O O9 0.750000 0.277223 0.670091
O O10 0.940802 0.500000 0.677296
O O11 0.938378 0.238773 0.722566
O O12 0.993874 0.219558 0.648728
O O13 0.750000 0.264167 0.371389
O O14 0.621277 0.000000 0.389177
O O15 0.750000 0.500000 0.029065
O O16 0.500000 0.500000 0.000000
O O17 0.750000 0.764715 0.776741
O O18 0.621211 0.500000 0.758932
O O19 0.494785 0.723090 0.796805
O O20 0.750000 0.735257 0.176490
O O21 0.604125 0.000000 0.182677
#
# Coordination Sequence:
#
# PCOD8211592 Si02
#       7
#     8   8   8   8   4   8   8
#     4   8  14  25  41  63  91 118 144 181 230 281
#     4   8  16  32  52  75 104 136 171 212 257 306
#     4   9  19  35  50  65  91 127 165 199 234 283
#     4   9  18  31  47  70  97 121 150 193 241 284
#     4  10  20  34  54  78 104 138 176 214 260 308
#     4   9  19  34  49  68  96 129 162 199 244 291
#     4   9  18  32  51  76 101 126 163 207 247 292
#
# _framework density 18.405172
#
# number of rings (size 3 to 8) (size 9 to 14) (size 15 to 20)
#    0.000    3.231    0.000    2.769    1.077    3.385 
#    0.000    6.923    0.000    1.385    0.000    0.000 
#    0.000    0.000    0.000    0.000    0.000    0.000 
#
# Total GULP energy -644212.803703 kJ/mol
# GULP energy per Si atom -12388.707764 kJ/mol
# Density = 1.836328 g / cm^3
# Si number density = 18.405172 Si / 1000 Ang^3
#
#
#
# Elastic Constant Matrix: (Units=GPa)
#
#
# Indices 1 2 3 4 5 6 
#
# 1 72.8081 23.1640 66.3469 0.0000 0.0000 0.0000
# 2 23.1640 52.5948 42.4923 0.0000 0.0000 0.0000
# 3 66.3469 42.4923 135.8588 0.0000 0.0000 0.0000
# 4 0.0000 0.0000 0.0000 35.4225 0.0000 0.0000
# 5 0.0000 0.0000 0.0000 0.0000 36.6649 0.0000
# 6 0.0000 0.0000 0.0000 0.0000 0.0000 18.5555
#
#
#
# Elastic Compliance Matrix: (Units=1/GPa)
#
#
# Indices 1 2 3 4 5 6 
#
# 1 0.024839 -0.001525 -0.011653 0.000000 0.000000 0.000000
# 2 -0.001525 0.025536 -0.007242 0.000000 0.000000 0.000000
# 3 -0.011653 -0.007242 0.015317 0.000000 0.000000 0.000000
# 4 0.000000 0.000000 0.000000 0.028231 0.000000 0.000000
# 5 0.000000 0.000000 0.000000 0.000000 0.027274 0.000000
# 6 0.000000 0.000000 0.000000 0.000000 0.000000 0.053892
#
#
# Mechanical properties :
#
#
# Convention : Reuss Voigt Hill
#
# Bulk Modulus (GPa) = 40.23975 58.36312 49.30143
# Shear Modulus (GPa) = 22.30025 26.74582 24.52304
#
# Velocity S-wave (km/s) = 3.48462 3.81618 3.65416
# Velocity P-wave (km/s) = 6.17259 7.15518 6.68197
#
# Compressibility (1/GPa) = 0.02485105
#
# Stress axis : x y z
#
# Youngs Moduli (GPa) = 40.25930 39.16050 65.28856
#
# Poissons Ratio (x) = 0.05971 0.76083
# Poissons Ratio (y) = 0.06139 0.47283
# Poissons Ratio (z) = 0.46915 0.28361
#
# Static dielectric constant tensor:
#      x y z
#    x 3.395970 0.000000 0.000000 
#    y 0.000000 3.344680 0.000000 
#    z 0.000000 0.000000 3.608060 
# 
# 
# High freq. dielectric constant tensor:
#      x y z
#    x 1.696060 0.000000 0.000000 
#    y 0.000000 1.695170 0.000000 
#    z 0.000000 0.000000 1.716880 
# 
# From -- ./inp_files/37690.got.cif
#   From: 2010.03.12/outbox.cif.g09.slc.cpg/sg51_19_cif.got.tgz:37690.got - 2010.04.16 13:43:02.
