data_PCOD8211728
_publ_section_title
;
Structure prediction by ZEFSAII (Michael W. Deem and Ramdas Pophale) SiO2 
 PCOD8211728
Probable space group: P M M A
;
_chemical_formula_sum "Si O2"
_cell_formula_units_Z 52
_cell_length_a 8.855076
_cell_length_b 19.568432
_cell_length_c 14.666185
_cell_angle_alpha 90.000000
_cell_angle_beta 90.000000
_cell_angle_gamma 90.000000
_cell_volume 2541.355841
_symmetry_space_group_name_H-M "P M M A"
_symmetry_group_IT_number 51
_symmetry_cell_setting 'orthorhombic'
loop_
_space_group_symop_operation_xyz
x,y,z
1/2-x,-y,z
1/2+x,-y,-z
-x,y,-z
-x,-y,-z
1/2+x,y,-z
1/2-x,y,z
x,-y,z
loop_
_atom_site_type_symbol
_atom_site_label
_atom_site_fract_x
_atom_site_fract_y
_atom_site_fract_z
Si Si1 0.426749 0.179980 0.407130
Si Si2 0.423556 0.110167 0.092980
Si Si3 0.428748 0.627203 0.777192
Si Si4 0.076722 0.076208 0.726443
Si Si5 0.572266 0.500000 0.099642
Si Si6 0.076710 0.271320 0.093238
Si Si7 0.071427 0.336969 0.404840
O O1 0.500000 0.153180 0.500000
O O2 0.250000 0.173475 0.417912
O O3 0.478883 0.131322 0.326672
O O4 0.474094 0.258007 0.387211
O O5 0.250000 0.086757 0.094504
O O6 0.515208 0.072632 0.171455
O O7 0.437932 0.191012 0.105191
O O8 0.500000 0.085842 0.000000
O O9 0.250000 0.630382 0.765796
O O10 0.480604 0.565549 0.842533
O O11 0.490144 0.696782 0.821218
O O12 0.502149 0.618245 0.677213
O O13 0.250000 0.100028 0.725992
O O14 0.060464 0.000000 0.684033
O O15 0.750000 0.500000 0.085623
O O16 0.500000 0.500000 0.000000
O O17 0.250000 0.295548 0.092613
O O18 0.000000 0.296943 0.000000
O O19 0.250000 0.347489 0.408682
O O20 0.000000 0.362442 0.500000
#
# Coordination Sequence:
#
# PCOD8211728 Si02
#       7
#     8   8   8   8   4   8   8
#     4  10  21  38  61  87 115 146 182 228 281 336
#     4  10  21  37  57  80 108 142 182 231 284 338
#     4  11  22  37  58  84 116 154 192 233 280 330
#     4  11  24  39  55  78 109 146 188 231 277 334
#     4  10  24  42  59  84 119 158 199 236 274 326
#     4  10  20  34  54  83 113 142 182 231 283 338
#     4  10  21  38  61  90 118 146 185 232 282 335
#
# _framework density 20.461517000000001
#
# number of rings (size 3 to 8) (size 9 to 14) (size 15 to 20)
#    0.000    1.692    0.000    4.154    0.000   11.692 
#    0.000    0.385    0.000    0.000    0.000    0.000 
#    0.000    0.000    0.000    0.000    0.000    0.000 
#
# Total GULP energy -645051.574032 kJ/mol
# GULP energy per Si atom -12404.837962 kJ/mol
# Density = 2.041495 g / cm^3
# Si number density = 20.461517 Si / 1000 Ang^3
#
#
#
# Elastic Constant Matrix: (Units=GPa)
#
#
# Indices 1 2 3 4 5 6 
#
# 1 91.5097 28.6897 45.0967 0.0000 0.0000 0.0000
# 2 28.6897 53.3051 40.8310 0.0000 0.0000 0.0000
# 3 45.0967 40.8310 148.4284 0.0000 0.0000 0.0000
# 4 0.0000 0.0000 0.0000 19.4041 0.0000 0.0000
# 5 0.0000 0.0000 0.0000 0.0000 46.4371 0.0000
# 6 0.0000 0.0000 0.0000 0.0000 0.0000 17.6388
#
#
#
# Elastic Compliance Matrix: (Units=1/GPa)
#
#
# Indices 1 2 3 4 5 6 
#
# 1 0.013985 -0.005413 -0.002760 0.000000 0.000000 0.000000
# 2 -0.005413 0.025863 -0.005470 0.000000 0.000000 0.000000
# 3 -0.002760 -0.005470 0.009081 0.000000 0.000000 0.000000
# 4 0.000000 0.000000 0.000000 0.051536 0.000000 0.000000
# 5 0.000000 0.000000 0.000000 0.000000 0.021535 0.000000
# 6 0.000000 0.000000 0.000000 0.000000 0.000000 0.056693
#
#
# Mechanical properties :
#
#
# Convention : Reuss Voigt Hill
#
# Bulk Modulus (GPa) = 46.20456 58.05311 52.12883
# Shear Modulus (GPa) = 23.45301 28.60438 26.02870
#
# Velocity S-wave (km/s) = 3.38923 3.74299 3.57049
# Velocity P-wave (km/s) = 6.16004 6.86392 6.52148
#
# Compressibility (1/GPa) = 0.02164289
#
# Stress axis : x y z
#
# Youngs Moduli (GPa) = 71.50546 38.66497 110.12495
#
# Poissons Ratio (x) = 0.20929 0.30395
# Poissons Ratio (y) = 0.38704 0.60240
# Poissons Ratio (z) = 0.19736 0.21150
#
# Static dielectric constant tensor:
#      x y z
#    x 3.709400 0.000000 0.000000 
#    y 0.000000 3.594960 0.000000 
#    z 0.000000 0.000000 3.785050 
# 
# 
# High freq. dielectric constant tensor:
#      x y z
#    x 1.812140 0.000000 0.000000 
#    y 0.000000 1.786520 0.000000 
#    z 0.000000 0.000000 1.809940 
# 
# From -- ./inp_files/21528.got.cif
#   From: 2010.03.12/outbox.cif.g09.slc.cpg/sg51_11_cif.got.tgz:21528.got - 2010.04.16 13:43:02.
