data_PCOD8211551
_publ_section_title
;
Structure prediction by ZEFSAII (Michael W. Deem and Ramdas Pophale) SiO2 
 PCOD8211551
Probable space group: P M M A
;
_chemical_formula_sum "Si O2"
_cell_formula_units_Z 56
_cell_length_a 8.860487
_cell_length_b 14.567178
_cell_length_c 23.139727
_cell_angle_alpha 90.000000
_cell_angle_beta 90.000000
_cell_angle_gamma 90.000000
_cell_volume 2986.697584
_symmetry_space_group_name_H-M "P M M A"
_symmetry_group_IT_number 51
_symmetry_cell_setting 'orthorhombic'
loop_
_space_group_symop_operation_xyz
x,y,z
1/2-x,-y,z
1/2+x,-y,-z
-x,y,-z
-x,-y,-z
1/2+x,y,-z
1/2-x,y,z
x,-y,z
loop_
_atom_site_type_symbol
_atom_site_label
_atom_site_fract_x
_atom_site_fract_y
_atom_site_fract_z
Si Si1 0.576327 0.895099 0.225741
Si Si2 0.917914 0.398507 0.238094
Si Si3 0.579830 0.347950 0.366894
Si Si4 0.428574 0.395785 0.060630
Si Si5 0.573554 0.000000 0.563243
Si Si6 0.428821 0.844952 0.346582
Si Si7 0.073041 0.500000 0.438824
Si Si8 0.425741 0.737379 0.162130
O O1 0.750000 0.868121 0.237169
O O2 0.485514 0.881733 0.284908
O O3 0.512421 0.833062 0.172894
O O4 0.560484 0.000000 0.205154
O O5 0.750000 0.370678 0.215781
O O6 0.960447 0.500000 0.215535
O O7 0.918844 0.400243 0.306560
O O8 0.043253 0.326890 0.217300
O O9 0.750000 0.339801 0.391295
O O10 0.508473 0.248785 0.361738
O O11 0.477715 0.406902 0.408731
O O12 0.250000 0.391187 0.055344
O O13 0.478662 0.500000 0.077946
O O14 0.486488 0.320346 0.106900
O O15 0.500000 0.367088 0.000000
O O16 0.500000 0.000000 0.500000
O O17 0.524820 0.912455 0.601325
O O18 0.750000 0.000000 0.552271
O O19 0.250000 0.833155 0.341915
O O20 0.250000 0.500000 0.443704
O O21 0.000000 0.500000 0.500000
O O22 0.250000 0.759037 0.156699
#
# Coordination Sequence:
#
# PCOD8211551 Si02
#       8
#     8   8   8   8   4   8   4   8
#     4  11  23  38  58  85 116 153 195 241 296 357
#     4  10  20  34  53  80 116 152 187 227 279 338
#     4  11  22  39  60  85 116 150 188 236 287 348
#     4   9  19  36  57  85 121 162 202 241 286 340
#     4  10  24  42  62  86 114 144 185 236 291 354
#     4  11  22  39  61  88 116 148 189 238 294 355
#     4  12  26  44  64  84 110 152 199 244 293 350
#     4  11  22  35  56  87 121 153 194 244 292 347
#
# _framework density 18.749806
#
# number of rings (size 3 to 8) (size 9 to 14) (size 15 to 20)
#    0.000    1.429    2.857    2.786    0.000    5.143 
#    0.000    2.857    0.000    0.429    0.000    0.000 
#    0.000    0.000    0.000    0.000    0.000    0.000 
#
# Total GULP energy -694363.897872 kJ/mol
# GULP energy per Si atom -12399.355319 kJ/mol
# Density = 1.870713 g / cm^3
# Si number density = 18.749806 Si / 1000 Ang^3
#
#
#
# Elastic Constant Matrix: (Units=GPa)
#
#
# Indices 1 2 3 4 5 6 
#
# 1 96.0976 44.0490 38.3339 0.0000 0.0000 0.0000
# 2 44.0490 124.7675 46.7276 0.0000 0.0000 0.0000
# 3 38.3339 46.7276 101.0228 0.0000 0.0000 0.0000
# 4 0.0000 0.0000 0.0000 22.6658 0.0000 0.0000
# 5 0.0000 0.0000 0.0000 0.0000 31.8188 0.0000
# 6 0.0000 0.0000 0.0000 0.0000 0.0000 28.0405
#
#
#
# Elastic Compliance Matrix: (Units=1/GPa)
#
#
# Indices 1 2 3 4 5 6 
#
# 1 0.013362 -0.003409 -0.003494 0.000000 0.000000 0.000000
# 2 -0.003409 0.010564 -0.003593 0.000000 0.000000 0.000000
# 3 -0.003494 -0.003593 0.012886 0.000000 0.000000 0.000000
# 4 0.000000 0.000000 0.000000 0.044119 0.000000 0.000000
# 5 0.000000 0.000000 0.000000 0.000000 0.031428 0.000000
# 6 0.000000 0.000000 0.000000 0.000000 0.000000 0.035663
#
#
# Mechanical properties :
#
#
# Convention : Reuss Voigt Hill
#
# Bulk Modulus (GPa) = 63.20417 64.45653 63.83035
# Shear Modulus (GPa) = 28.68825 29.35685 29.02255
#
# Velocity S-wave (km/s) = 3.91584 3.96120 3.93859
# Velocity P-wave (km/s) = 7.36393 7.44133 7.40273
#
# Compressibility (1/GPa) = 0.01582174
#
# Stress axis : x y z
#
# Youngs Moduli (GPa) = 74.83698 94.66073 77.60234
#
# Poissons Ratio (x) = 0.32271 0.27111
# Poissons Ratio (y) = 0.25513 0.27880
# Poissons Ratio (z) = 0.26145 0.34009
#
# Static dielectric constant tensor:
#      x y z
#    x 3.510990 0.000000 0.000000 
#    y 0.000000 3.684050 0.000000 
#    z 0.000000 0.000000 3.384000 
# 
# 
# High freq. dielectric constant tensor:
#      x y z
#    x 1.736430 0.000000 0.000000 
#    y 0.000000 1.737350 0.000000 
#    z 0.000000 0.000000 1.712030 
# 
# From -- ./inp_files/32089.got.cif
#   From: 2010.03.12/outbox.cif.g09.slc.cpg/sg51_17_cif.got.tgz:32089.got - 2010.04.16 13:43:02.
