data_PCOD8211555
_publ_section_title
;
Structure prediction by ZEFSAII (Michael W. Deem and Ramdas Pophale) SiO2 
 PCOD8211555
Probable space group: P M M A
;
_chemical_formula_sum "Si O2"
_cell_formula_units_Z 48
_cell_length_a 14.212440
_cell_length_b 15.234604
_cell_length_c 11.946968
_cell_angle_alpha 90.000000
_cell_angle_beta 90.000000
_cell_angle_gamma 90.000000
_cell_volume 2586.768207
_symmetry_space_group_name_H-M "P M M A"
_symmetry_group_IT_number 51
_symmetry_cell_setting 'orthorhombic'
loop_
_space_group_symop_operation_xyz
x,y,z
1/2-x,-y,z
1/2+x,-y,-z
-x,y,-z
-x,-y,-z
1/2+x,y,-z
1/2-x,y,z
x,-y,z
loop_
_atom_site_type_symbol
_atom_site_label
_atom_site_fract_x
_atom_site_fract_y
_atom_site_fract_z
Si Si1 0.914000 0.899906 0.308471
Si Si2 0.053050 0.403360 0.615750
Si Si3 0.000000 0.772210 0.000000
Si Si4 0.044948 0.743873 0.244157
Si Si5 0.354552 0.905255 0.936403
Si Si6 0.750000 0.396682 0.479307
Si Si7 0.750000 0.897090 0.479493
Si Si8 0.250000 0.250712 0.335613
O O1 0.853148 0.890892 0.196545
O O2 0.844748 0.874310 0.410081
O O3 0.002232 0.833637 0.297009
O O4 0.951901 0.000000 0.324351
O O5 0.053326 0.500000 0.671717
O O6 0.159942 0.371704 0.595756
O O7 0.000000 0.407718 0.500000
O O8 0.997320 0.338277 0.693273
O O9 0.908425 0.832042 0.996494
O O10 0.012053 0.720977 0.116533
O O11 0.157565 0.748693 0.256934
O O12 0.250000 0.900874 0.982652
O O13 0.399558 0.000000 0.964549
O O14 0.750000 0.500000 0.513395
O O15 0.750000 0.339174 0.591345
O O16 0.750000 0.836798 0.588914
O O17 0.750000 0.000000 0.512412
#
# Coordination Sequence:
#
# PCOD8211555 Si02
#       8
#     8   8   4   8   8   4   4   4
#     4   9  18  34  56  79 111 152 195 232 282 347
#     4  10  20  38  63  91 119 148 186 234 285 346
#     4  10  23  38  53  76 112 150 196 240 290 334
#     4  11  24  39  57  83 116 156 198 238 290 341
#     4   9  16  31  55  78  99 138 197 251 287 326
#     4  10  20  36  63  95 119 143 184 235 289 340
#     4  10  20  34  53  83 119 155 190 233 290 356
#     4  12  24  36  54  82 120 150 188 234 289 356
#
# _framework density 18.555973000000002
#
# number of rings (size 3 to 8) (size 9 to 14) (size 15 to 20)
#    0.000    2.000    2.500    1.250    1.167    1.333 
#    1.500    2.083    0.000    0.000    0.000    0.000 
#    0.000    0.000    0.000    0.000    0.000    0.000 
#
# Total GULP energy -594898.174731 kJ/mol
# GULP energy per Si atom -12393.711974 kJ/mol
# Density = 1.851374 g / cm^3
# Si number density = 18.555973 Si / 1000 Ang^3
#
#
#
# Elastic Constant Matrix: (Units=GPa)
#
#
# Indices 1 2 3 4 5 6 
#
# 1 128.4618 37.6858 27.7745 0.0000 0.0000 0.0000
# 2 37.6858 80.9653 32.4742 0.0000 0.0000 0.0000
# 3 27.7745 32.4742 64.8550 0.0000 0.0000 0.0000
# 4 0.0000 0.0000 0.0000 105.8204 0.0000 0.0000
# 5 0.0000 0.0000 0.0000 0.0000 22.5424 0.0000
# 6 0.0000 0.0000 0.0000 0.0000 0.0000 23.3353
#
#
#
# Elastic Compliance Matrix: (Units=1/GPa)
#
#
# Indices 1 2 3 4 5 6 
#
# 1 0.009274 -0.003408 -0.002265 0.000000 0.000000 0.000000
# 2 -0.003408 0.016707 -0.006906 0.000000 0.000000 0.000000
# 3 -0.002265 -0.006906 0.019847 0.000000 0.000000 0.000000
# 4 0.000000 0.000000 0.000000 0.009450 0.000000 0.000000
# 5 0.000000 0.000000 0.000000 0.000000 0.044361 0.000000
# 6 0.000000 0.000000 0.000000 0.000000 0.000000 0.042854
#
#
# Mechanical properties :
#
#
# Convention : Reuss Voigt Hill
#
# Bulk Modulus (GPa) = 48.38017 52.23901 50.30959
# Shear Modulus (GPa) = 28.64653 42.09613 35.37133
#
# Velocity S-wave (km/s) = 3.93337 4.76815 4.37074
# Velocity P-wave (km/s) = 6.83796 7.65029 7.25550
#
# Compressibility (1/GPa) = 0.02066963
#
# Stress axis : x y z
#
# Youngs Moduli (GPa) = 107.82881 59.85425 50.38521
#
# Poissons Ratio (x) = 0.20399 0.11413
# Poissons Ratio (y) = 0.36749 0.34797
# Poissons Ratio (z) = 0.24424 0.41336
#
# Static dielectric constant tensor:
#      x y z
#    x 3.626270 0.000000 0.000000 
#    y 0.000000 3.499560 0.000000 
#    z 0.000000 0.000000 3.064120 
# 
# 
# High freq. dielectric constant tensor:
#      x y z
#    x 1.733200 0.000000 0.000000 
#    y 0.000000 1.714230 0.000000 
#    z 0.000000 0.000000 1.698090 
# 
# From -- ./inp_files/16560.got.cif
#   From: 2010.03.12/outbox.cif.g09.slc.cpg/sg51_9_cif.got.tgz:16560.got - 2010.04.16 13:43:02.
