data_PCOD8211888
_publ_section_title
;
Structure prediction by ZEFSAII (Michael W. Deem and Ramdas Pophale) SiO2 
 PCOD8211888
Probable space group: P M M A
;
_chemical_formula_sum "Si O2"
_cell_formula_units_Z 56
_cell_length_a 21.632308
_cell_length_b 8.762212
_cell_length_c 14.666282
_cell_angle_alpha 90.000000
_cell_angle_beta 90.000000
_cell_angle_gamma 90.000000
_cell_volume 2779.947829
_symmetry_space_group_name_H-M "P M M A"
_symmetry_group_IT_number 51
_symmetry_cell_setting 'orthorhombic'
loop_
_space_group_symop_operation_xyz
x,y,z
1/2-x,-y,z
1/2+x,-y,-z
-x,y,-z
-x,-y,-z
1/2+x,y,-z
1/2-x,y,z
x,-y,z
loop_
_atom_site_type_symbol
_atom_site_label
_atom_site_fract_x
_atom_site_fract_y
_atom_site_fract_z
Si Si1 0.679723 0.324181 0.223677
Si Si2 0.426531 0.321330 0.638182
Si Si3 0.127563 0.319159 0.136482
Si Si4 0.750000 0.319269 0.561036
Si Si5 0.377281 0.820764 0.465050
Si Si6 0.179123 0.178796 0.964944
Si Si7 0.250000 0.680807 0.234388
Si Si8 0.951765 0.819908 0.713087
O O1 0.750000 0.289644 0.254298
O O2 0.671614 0.500000 0.194830
O O3 0.636091 0.281457 0.307765
O O4 0.660452 0.221553 0.137663
O O5 0.433861 0.500000 0.620570
O O6 0.425443 0.236240 0.541113
O O7 0.483482 0.261200 0.696517
O O8 0.119469 0.500000 0.142537
O O9 0.131737 0.266571 0.031667
O O10 0.189885 0.257180 0.183558
O O11 0.071228 0.238982 0.188752
O O12 0.750000 0.500000 0.554409
O O13 0.811709 0.257943 0.513383
O O14 0.750000 0.254795 0.663690
O O15 0.403285 0.772069 0.366034
O O16 0.369221 0.000000 0.472255
O O17 0.250000 0.231267 0.983459
O O18 0.171143 0.000000 0.979744
O O19 0.250000 0.500000 0.235292
O O20 0.961698 0.000000 0.715250
#
# Coordination Sequence:
#
# PCOD8211888 Si02
#       8
#     8   8   8   4   8   8   4   8
#     4   9  20  40  63  87 115 148 191 246 299 347
#     4  11  24  41  64  88 113 154 205 250 294 350
#     4  11  20  35  59  88 120 157 199 241 289 349
#     4  11  21  37  59  88 121 154 197 247 292 346
#     4  11  24  40  59  87 122 160 198 242 299 354
#     4  10  20  34  56  89 123 155 191 235 294 358
#     4   9  18  31  53  84 117 152 191 239 290 338
#     4  11  24  41  59  84 122 162 198 243 295 353
#
# _framework density 20.144262999999999
#
# number of rings (size 3 to 8) (size 9 to 14) (size 15 to 20)
#    0.000    1.571    2.143    2.786    1.000    5.143 
#    0.000    0.714    0.000    4.286    0.000    0.000 
#    0.000    0.000    0.000    0.000    0.000    0.000 
#
# Total GULP energy -694689.173534 kJ/mol
# GULP energy per Si atom -12405.163813 kJ/mol
# Density = 2.009841 g / cm^3
# Si number density = 20.144263 Si / 1000 Ang^3
#
#
#
# Elastic Constant Matrix: (Units=GPa)
#
#
# Indices 1 2 3 4 5 6 
#
# 1 83.7497 35.1578 17.0658 0.0000 0.0000 0.0000
# 2 35.1578 76.2626 37.8670 0.0000 0.0000 0.0000
# 3 17.0658 37.8670 73.2310 0.0000 0.0000 0.0000
# 4 0.0000 0.0000 0.0000 33.6258 0.0000 0.0000
# 5 0.0000 0.0000 0.0000 0.0000 21.9340 0.0000
# 6 0.0000 0.0000 0.0000 0.0000 0.0000 32.2476
#
#
#
# Elastic Compliance Matrix: (Units=1/GPa)
#
#
# Indices 1 2 3 4 5 6 
#
# 1 0.014806 -0.006879 0.000106 0.000000 0.000000 0.000000
# 2 -0.006879 0.020838 -0.009172 0.000000 0.000000 0.000000
# 3 0.000106 -0.009172 0.018373 0.000000 0.000000 0.000000
# 4 0.000000 0.000000 0.000000 0.029739 0.000000 0.000000
# 5 0.000000 0.000000 0.000000 0.000000 0.045591 0.000000
# 6 0.000000 0.000000 0.000000 0.000000 0.000000 0.031010
#
#
# Mechanical properties :
#
#
# Convention : Reuss Voigt Hill
#
# Bulk Modulus (GPa) = 45.18960 45.93607 45.56283
# Shear Modulus (GPa) = 25.04719 27.10500 26.07610
#
# Velocity S-wave (km/s) = 3.53000 3.67215 3.60177
# Velocity P-wave (km/s) = 6.25270 6.39004 6.32174
#
# Compressibility (1/GPa) = 0.02212899
#
# Stress axis : x y z
#
# Youngs Moduli (GPa) = 67.53875 47.98925 54.42647
#
# Poissons Ratio (x) = 0.33010 -0.00579
# Poissons Ratio (y) = 0.46458 0.49921
# Poissons Ratio (z) = -0.00719 0.44016
#
# Static dielectric constant tensor:
#      x y z
#    x 3.613850 0.000000 0.000000 
#    y 0.000000 3.524140 0.000000 
#    z 0.000000 0.000000 3.630480 
# 
# 
# High freq. dielectric constant tensor:
#      x y z
#    x 1.777580 0.000000 0.000000 
#    y 0.000000 1.787510 0.000000 
#    z 0.000000 0.000000 1.787400 
# 
# From -- ./inp_files/25925.got.cif
#   From: 2010.03.12/outbox.cif.g09.slc.cpg/sg51_13_cif.got.tgz:25925.got - 2010.04.16 13:43:02.
