data_PCOD8211290
_publ_section_title
;
Structure prediction by ZEFSAII (Michael W. Deem and Ramdas Pophale) SiO2 
 PCOD8211290
Probable space group: P M M A
;
_chemical_formula_sum "Si O2"
_cell_formula_units_Z 32
_cell_length_a 7.732276
_cell_length_b 9.536166
_cell_length_c 24.095792
_cell_angle_alpha 90.000000
_cell_angle_beta 90.000000
_cell_angle_gamma 90.000000
_cell_volume 1776.733764
_symmetry_space_group_name_H-M "P M M A"
_symmetry_group_IT_number 51
_symmetry_cell_setting 'orthorhombic'
loop_
_space_group_symop_operation_xyz
x,y,z
1/2-x,-y,z
1/2+x,-y,-z
-x,y,-z
-x,-y,-z
1/2+x,y,-z
1/2-x,y,z
x,-y,z
loop_
_atom_site_type_symbol
_atom_site_label
_atom_site_fract_x
_atom_site_fract_y
_atom_site_fract_z
Si Si1 0.250000 0.332571 0.862851
Si Si2 0.750000 0.333521 0.261366
Si Si3 0.942668 0.660616 0.661837
Si Si4 0.048247 0.839404 0.560973
Si Si5 0.443438 0.666919 0.060120
O O1 0.250000 0.500000 0.862333
O O2 0.250000 0.270264 0.800607
O O3 0.421826 0.276601 0.893981
O O4 0.750000 0.500000 0.257348
O O5 0.579027 0.279559 0.293407
O O6 0.750000 0.672738 0.687421
O O7 0.988739 0.500000 0.647376
O O8 0.946577 0.747519 0.605290
O O9 0.250000 0.822686 0.572059
O O10 0.000000 0.783418 0.500000
O O11 0.987141 0.000000 0.567105
O O12 0.250000 0.720671 0.074581
O O13 0.447034 0.500000 0.058888
O O14 0.500000 0.724963 0.000000
#
# Coordination Sequence:
#
# PCOD8211290 Si02
#       5
#     4   4   8   8   8
#     4   9  16  24  36  53  75 109 148 193 240 274
#     4   9  18  32  45  61  89 121 162 207 238 280
#     4  10  20  34  52  71  95 130 166 200 241 289
#     4  10  20  34  53  77 102 126 156 198 247 295
#     4   9  14  20  31  48  72 102 140 188 238 281
#
# _framework density 18.010577000000001
#
# number of rings (size 3 to 8) (size 9 to 14) (size 15 to 20)
#    0.000    2.500    2.500    0.750    0.000    3.000 
#    0.000    5.000    0.000    0.000    0.000    0.000 
#    0.000    0.000    0.000    0.000    0.000    5.000 
#
# Total GULP energy -396749.047590 kJ/mol
# GULP energy per Si atom -12398.407737 kJ/mol
# Density = 1.796958 g / cm^3
# Si number density = 18.010577 Si / 1000 Ang^3
#
#
#
# Elastic Constant Matrix: (Units=GPa)
#
#
# Indices 1 2 3 4 5 6 
#
# 1 152.3245 18.8276 76.9471 0.0000 0.0000 0.0000
# 2 18.8276 22.0494 26.0294 0.0000 0.0000 0.0000
# 3 76.9471 26.0294 157.4802 0.0000 0.0000 0.0000
# 4 0.0000 0.0000 0.0000 -0.8147 0.0000 0.0000
# 5 0.0000 0.0000 0.0000 0.0000 31.3549 0.0000
# 6 0.0000 0.0000 0.0000 0.0000 0.0000 10.5322
#
#
#
# Elastic Compliance Matrix: (Units=1/GPa)
#
#
# Indices 1 2 3 4 5 6 
#
# 1 0.008879 -0.003057 -0.003833 0.000000 0.000000 0.000000
# 2 -0.003057 0.057400 -0.007994 0.000000 0.000000 0.000000
# 3 -0.003833 -0.007994 0.009544 0.000000 0.000000 0.000000
# 4 0.000000 0.000000 0.000000 -1.227480 0.000000 0.000000
# 5 0.000000 0.000000 0.000000 0.000000 0.031893 0.000000
# 6 0.000000 0.000000 0.000000 0.000000 0.000000 0.094947
#
#
# Mechanical properties :
#
#
# Convention : Reuss Voigt Hill
#
# Bulk Modulus (GPa) = 21.71292 63.94024 42.82658
# Shear Modulus (GPa) = -5.10362 22.21780 8.55709
#
# Velocity S-wave (km/s) = -1.68518 3.51607 2.18208
# Velocity P-wave (km/s) = 2.88017 7.21542 5.49352
#
# Compressibility (1/GPa) = 0.04605553
#
# Stress axis : x y z
#
# Youngs Moduli (GPa) = 112.62396 17.42174 104.77484
#
# Poissons Ratio (x) = 0.05325 0.40163
# Poissons Ratio (y) = 0.34424 0.83756
# Poissons Ratio (z) = 0.43172 0.13927
#
# Static dielectric constant tensor:
#      x y z
#    x 3.596780 0.000000 0.000000 
#    y 0.000000 2.729090 0.000000 
#    z 0.000000 0.000000 3.422950 
# 
# 
# High freq. dielectric constant tensor:
#      x y z
#    x 1.719500 0.000000 0.000000 
#    y 0.000000 1.625470 0.000000 
#    z 0.000000 0.000000 1.694570 
# 
# From -- ./inp_files/34267.got.cif
#   From: 2010.03.12/outbox.cif.g09.slc.cpg/sg51_18_cif.got.tgz:34267.got - 2010.04.16 13:43:02.
