data_PCOD8211922
_publ_section_title
;
Structure prediction by ZEFSAII (Michael W. Deem and Ramdas Pophale) SiO2 
 PCOD8211922
Probable space group: P M M A
;
_chemical_formula_sum "Si O2"
_cell_formula_units_Z 64
_cell_length_a 27.113478
_cell_length_b 13.961205
_cell_length_c 9.266901
_cell_angle_alpha 90.000000
_cell_angle_beta 90.000000
_cell_angle_gamma 90.000000
_cell_volume 3507.863279
_symmetry_space_group_name_H-M "P M M A"
_symmetry_group_IT_number 51
_symmetry_cell_setting 'orthorhombic'
loop_
_space_group_symop_operation_xyz
x,y,z
1/2-x,-y,z
1/2+x,-y,-z
-x,y,-z
-x,-y,-z
1/2+x,y,-z
1/2-x,y,z
x,-y,z
loop_
_atom_site_type_symbol
_atom_site_label
_atom_site_fract_x
_atom_site_fract_y
_atom_site_fract_z
Si Si1 0.635999 0.888776 0.217377
Si Si2 0.112174 0.253331 0.202647
Si Si3 0.457520 0.607213 0.600436
Si Si4 0.307972 0.258659 0.963123
Si Si5 0.974489 0.607163 0.863096
Si Si6 0.307571 0.393912 0.704815
Si Si7 0.944569 0.109994 0.986999
Si Si8 0.631248 0.742149 0.464121
O O1 0.677855 0.840426 0.116930
O O2 0.634068 0.841640 0.376120
O O3 0.649656 0.000000 0.236070
O O4 0.583072 0.874936 0.139579
O O5 0.073999 0.341021 0.197093
O O6 0.084206 0.160737 0.142942
O O7 0.128500 0.234749 0.366970
O O8 0.161306 0.274207 0.109897
O O9 0.500000 0.649461 0.500000
O O10 0.441317 0.500000 0.548672
O O11 0.479408 0.603548 0.758000
O O12 0.413700 0.681362 0.597693
O O13 0.250000 0.257177 0.000684
O O14 0.322757 0.345638 0.856746
O O15 0.956616 0.500000 0.901603
O O16 0.000000 0.658947 0.000000
O O17 0.250000 0.405869 0.695918
O O18 0.332399 0.500000 0.695964
O O19 0.322208 0.325897 0.570702
O O20 0.945903 0.000000 0.941010
O O21 0.000000 0.150830 0.000000
#
# Coordination Sequence:
#
# PCOD8211922 Si02
#       8
#     8   8   8   8   8   8   8   8
#     4   9  20  37  57  81 105 137 178 220 267 324
#     4  11  22  34  54  80 112 143 176 227 274 324
#     4  10  20  35  51  73 110 150 187 224 264 317
#     4   9  20  38  59  81 103 137 179 223 273 323
#     4  10  22  35  51  77 108 146 190 230 264 310
#     4   9  19  37  58  79 105 139 181 223 267 325
#     4   9  19  36  56  77 104 140 181 223 266 315
#     4  11  22  33  54  82 111 147 178 221 273 330
#
# _framework density 18.244724000000001
#
# number of rings (size 3 to 8) (size 9 to 14) (size 15 to 20)
#    0.000    2.250    1.250    0.750    7.000    2.250 
#    0.000    0.000    0.000    4.125    0.000    3.500 
#    0.000    0.000    0.000    0.000    0.000    0.000 
#
# Total GULP energy -793381.495492 kJ/mol
# GULP energy per Si atom -12396.585867 kJ/mol
# Density = 1.820320 g / cm^3
# Si number density = 18.244724 Si / 1000 Ang^3
#
#
#
# Elastic Constant Matrix: (Units=GPa)
#
#
# Indices 1 2 3 4 5 6 
#
# 1 66.4748 22.8779 34.9884 0.0000 0.0000 0.0000
# 2 22.8779 106.7723 44.2975 0.0000 0.0000 0.0000
# 3 34.9884 44.2975 132.1275 0.0000 0.0000 0.0000
# 4 0.0000 0.0000 0.0000 20.3452 0.0000 0.0000
# 5 0.0000 0.0000 0.0000 0.0000 26.0015 0.0000
# 6 0.0000 0.0000 0.0000 0.0000 0.0000 21.2601
#
#
#
# Elastic Compliance Matrix: (Units=1/GPa)
#
#
# Indices 1 2 3 4 5 6 
#
# 1 0.017903 -0.002171 -0.004013 0.000000 0.000000 0.000000
# 2 -0.002171 0.011142 -0.003161 0.000000 0.000000 0.000000
# 3 -0.004013 -0.003161 0.009691 0.000000 0.000000 0.000000
# 4 0.000000 0.000000 0.000000 0.049152 0.000000 0.000000
# 5 0.000000 0.000000 0.000000 0.000000 0.038459 0.000000
# 6 0.000000 0.000000 0.000000 0.000000 0.000000 0.047036
#
#
# Mechanical properties :
#
#
# Convention : Reuss Voigt Hill
#
# Bulk Modulus (GPa) = 49.88444 56.63358 53.25901
# Shear Modulus (GPa) = 25.15670 27.06876 26.11273
#
# Velocity S-wave (km/s) = 3.71731 3.85599 3.78729
# Velocity P-wave (km/s) = 6.76947 7.13676 6.95554
#
# Compressibility (1/GPa) = 0.02004633
#
# Stress axis : x y z
#
# Youngs Moduli (GPa) = 55.85769 89.74882 103.19134
#
# Poissons Ratio (x) = 0.19485 0.41409
# Poissons Ratio (y) = 0.12127 0.32615
# Poissons Ratio (z) = 0.22415 0.28366
#
# Static dielectric constant tensor:
#      x y z
#    x 3.181920 0.000000 0.000000 
#    y 0.000000 3.517480 0.000000 
#    z 0.000000 0.000000 3.319190 
# 
# 
# High freq. dielectric constant tensor:
#      x y z
#    x 1.705790 0.000000 0.000000 
#    y 0.000000 1.709880 0.000000 
#    z 0.000000 0.000000 1.700370 
# 
# From -- ./inp_files/11889.got.cif
#   From: 2010.03.12/outbox.cif.g09.slc.cpg/sg51_6_cif.got.tgz:11889.got - 2010.04.16 13:43:02.
