data_PCOD8211488
_publ_section_title
;
Structure prediction by ZEFSAII (Michael W. Deem and Ramdas Pophale) SiO2 
 PCOD8211488
Probable space group: P M M A
;
_chemical_formula_sum "Si O2"
_cell_formula_units_Z 48
_cell_length_a 8.626369
_cell_length_b 18.689144
_cell_length_c 14.761556
_cell_angle_alpha 90.000000
_cell_angle_beta 90.000000
_cell_angle_gamma 90.000000
_cell_volume 2379.849975
_symmetry_space_group_name_H-M "P M M A"
_symmetry_group_IT_number 51
_symmetry_cell_setting 'orthorhombic'
loop_
_space_group_symop_operation_xyz
x,y,z
1/2-x,-y,z
1/2+x,-y,-z
-x,y,-z
-x,-y,-z
1/2+x,y,-z
1/2-x,y,z
x,-y,z
loop_
_atom_site_type_symbol
_atom_site_label
_atom_site_fract_x
_atom_site_fract_y
_atom_site_fract_z
Si Si1 0.067296 0.581632 0.903193
Si Si2 0.072703 0.213392 0.911630
Si Si3 0.067712 0.230676 0.596163
Si Si4 0.071795 0.920957 0.674207
Si Si5 0.568454 0.695177 0.766642
Si Si6 0.425243 0.079236 0.134497
O O1 0.250000 0.591052 0.908490
O O2 0.017408 0.500000 0.884853
O O3 0.006113 0.627313 0.818043
O O4 0.000000 0.607720 0.000000
O O5 0.250000 0.236567 0.900974
O O6 0.973242 0.234981 0.824686
O O7 0.049429 0.128118 0.918845
O O8 0.000000 0.251449 0.000000
O O9 0.250000 0.241134 0.596880
O O10 0.023397 0.146803 0.612305
O O11 0.000000 0.253558 0.500000
O O12 0.998645 0.287905 0.667555
O O13 0.250000 0.910842 0.706341
O O14 0.958947 0.919777 0.759126
O O15 0.053479 0.000000 0.625968
O O16 0.750000 0.682437 0.759100
O O17 0.250000 0.107337 0.118602
O O18 0.445843 0.000000 0.095214
#
# Coordination Sequence:
#
# PCOD8211488 Si02
#       6
#     8   8   8   8   8   8
#     4  10  21  39  65  98 134 168 202 239 283 342
#     4  12  24  38  56  80 111 150 195 242 292 353
#     4  11  23  39  60  87 119 157 203 254 305 365
#     4   9  18  34  56  80 109 149 195 247 307 365
#     4  12  24  40  62  88 122 159 197 244 296 352
#     4  10  20  34  53  77 106 143 189 240 295 354
#
# _framework density 20.169339999999998
#
# number of rings (size 3 to 8) (size 9 to 14) (size 15 to 20)
#    0.000    1.333    1.667    5.000    0.000    3.333 
#    0.000    0.000    0.000    0.500    0.000    0.000 
#    0.000    0.000    0.000    0.000    0.000    0.000 
#
# Total GULP energy -594958.109221 kJ/mol
# GULP energy per Si atom -12394.960609 kJ/mol
# Density = 2.012343 g / cm^3
# Si number density = 20.169340 Si / 1000 Ang^3
#
#
#
# Elastic Constant Matrix: (Units=GPa)
#
#
# Indices 1 2 3 4 5 6 
#
# 1 96.6005 36.1403 40.3868 0.0000 0.0000 0.0000
# 2 36.1403 116.9837 48.0424 0.0000 0.0000 0.0000
# 3 40.3868 48.0424 129.0000 0.0000 0.0000 0.0000
# 4 0.0000 0.0000 0.0000 -208.4302 0.0000 0.0000
# 5 0.0000 0.0000 0.0000 0.0000 33.8160 0.0000
# 6 0.0000 0.0000 0.0000 0.0000 0.0000 27.3196
#
#
#
# Elastic Compliance Matrix: (Units=1/GPa)
#
#
# Indices 1 2 3 4 5 6 
#
# 1 0.012584 -0.002680 -0.002942 0.000000 0.000000 0.000000
# 2 -0.002680 0.010662 -0.003132 0.000000 0.000000 0.000000
# 3 -0.002942 -0.003132 0.009839 0.000000 0.000000 0.000000
# 4 0.000000 0.000000 0.000000 -0.004798 0.000000 0.000000
# 5 0.000000 0.000000 0.000000 0.000000 0.029572 0.000000
# 6 0.000000 0.000000 0.000000 0.000000 0.000000 0.036604
#
#
# Mechanical properties :
#
#
# Convention : Reuss Voigt Hill
#
# Bulk Modulus (GPa) = 64.18857 65.74705 64.96781
# Shear Modulus (GPa) = 42.67536 -14.92459 13.87539
#
# Velocity S-wave (km/s) = 4.60483 -2.72318 2.62572
# Velocity P-wave (km/s) = 7.75671 4.77291 6.44000
#
# Compressibility (1/GPa) = 0.01557910
#
# Stress axis : x y z
#
# Youngs Moduli (GPa) = 79.46373 93.78914 101.63237
#
# Poissons Ratio (x) = 0.25131 0.29900
# Poissons Ratio (y) = 0.21293 0.31831
# Poissons Ratio (z) = 0.23378 0.29374
#
# Static dielectric constant tensor:
#      x y z
#    x 3.660470 0.000000 0.000000 
#    y 0.000000 3.808440 0.000000 
#    z 0.000000 0.000000 3.324280 
# 
# 
# High freq. dielectric constant tensor:
#      x y z
#    x 1.796860 0.000000 0.000000 
#    y 0.000000 1.783660 0.000000 
#    z 0.000000 0.000000 1.769060 
# 
# From -- ./inp_files/21101.got.cif
#   From: 2010.03.12/outbox.cif.g09.slc.cpg/sg51_11_cif.got.tgz:21101.got - 2010.04.16 13:43:02.
