data_PCOD8211379
_publ_section_title
;
Structure prediction by ZEFSAII (Michael W. Deem and Ramdas Pophale) SiO2 
 PCOD8211379
Probable space group: P M M A
;
_chemical_formula_sum "Si O2"
_cell_formula_units_Z 40
_cell_length_a 15.896514
_cell_length_b 9.380941
_cell_length_c 14.525809
_cell_angle_alpha 90.000000
_cell_angle_beta 90.000000
_cell_angle_gamma 90.000000
_cell_volume 2166.150517
_symmetry_space_group_name_H-M "P M M A"
_symmetry_group_IT_number 51
_symmetry_cell_setting 'orthorhombic'
loop_
_space_group_symop_operation_xyz
x,y,z
1/2-x,-y,z
1/2+x,-y,-z
-x,y,-z
-x,-y,-z
1/2+x,y,-z
1/2-x,y,z
x,-y,z
loop_
_atom_site_type_symbol
_atom_site_label
_atom_site_fract_x
_atom_site_fract_y
_atom_site_fract_z
Si Si1 0.911907 0.331435 0.389513
Si Si2 0.089807 0.169515 0.966586
Si Si3 0.750000 0.329398 0.723153
Si Si4 0.250000 0.830017 0.084424
Si Si5 0.153793 0.840490 0.775017
Si Si6 0.899468 0.331534 0.594270
O O1 0.901999 0.500000 0.379843
O O2 0.854842 0.258515 0.313324
O O3 0.881186 0.277996 0.490140
O O4 0.008263 0.282239 0.373438
O O5 0.102212 0.222579 0.861708
O O6 0.089674 0.000000 0.967872
O O7 0.166402 0.222467 0.030797
O O8 0.000000 0.231601 0.000000
O O9 0.750000 0.500000 0.737333
O O10 0.750000 0.249645 0.819013
O O11 0.830882 0.274613 0.665971
O O12 0.250000 0.000000 0.099286
O O13 0.250000 0.844007 0.806760
O O14 0.122741 0.000000 0.750371
O O15 0.896614 0.500000 0.590448
#
# Coordination Sequence:
#
# PCOD8211379 Si02
#       6
#     8   8   4   4   8   8
#     4   9  18  34  55  77 101 133 175 213 245 296
#     4   9  18  34  55  74  99 136 171 205 254 310
#     4  10  20  34  53  74 104 140 167 202 261 308
#     4  10  20  36  55  78 100 128 177 220 243 298
#     4  10  20  34  52  77 106 134 165 209 261 306
#     4   8  17  34  53  74 103 138 172 205 248 306
#
# _framework density 18.465937
#
# number of rings (size 3 to 8) (size 9 to 14) (size 15 to 20)
#    0.000    2.800    1.000    1.200    4.200    0.400 
#    0.000    4.000    0.000    1.200    0.000    0.000 
#    0.000    0.000    0.000    0.000    0.000    0.000 
#
# Total GULP energy -495850.695484 kJ/mol
# GULP energy per Si atom -12396.267387 kJ/mol
# Density = 1.842391 g / cm^3
# Si number density = 18.465937 Si / 1000 Ang^3
#
#
#
# Elastic Constant Matrix: (Units=GPa)
#
#
# Indices 1 2 3 4 5 6 
#
# 1 102.1415 18.3109 53.6011 0.0000 0.0000 0.0000
# 2 18.3109 31.8842 34.1876 0.0000 0.0000 0.0000
# 3 53.6011 34.1876 134.0675 0.0000 0.0000 0.0000
# 4 0.0000 0.0000 0.0000 31.8937 0.0000 0.0000
# 5 0.0000 0.0000 0.0000 0.0000 37.3914 0.0000
# 6 0.0000 0.0000 0.0000 0.0000 0.0000 14.4897
#
#
#
# Elastic Compliance Matrix: (Units=1/GPa)
#
#
# Indices 1 2 3 4 5 6 
#
# 1 0.012534 -0.002512 -0.004371 0.000000 0.000000 0.000000
# 2 -0.002512 0.043670 -0.010132 0.000000 0.000000 0.000000
# 3 -0.004371 -0.010132 0.011790 0.000000 0.000000 0.000000
# 4 0.000000 0.000000 0.000000 0.031354 0.000000 0.000000
# 5 0.000000 0.000000 0.000000 0.000000 0.026744 0.000000
# 6 0.000000 0.000000 0.000000 0.000000 0.000000 0.069014
#
#
# Mechanical properties :
#
#
# Convention : Reuss Voigt Hill
#
# Bulk Modulus (GPa) = 29.44170 53.36581 41.40375
# Shear Modulus (GPa) = 20.79374 27.55453 24.17413
#
# Velocity S-wave (km/s) = 3.35932 3.86707 3.62210
# Velocity P-wave (km/s) = 5.57002 6.99294 6.32165
#
# Compressibility (1/GPa) = 0.03396543
#
# Stress axis : x y z
#
# Youngs Moduli (GPa) = 79.78102 22.89918 84.81774
#
# Poissons Ratio (x) = 0.05752 0.37072
# Poissons Ratio (y) = 0.20040 0.85934
# Poissons Ratio (z) = 0.34870 0.23201
#
# Static dielectric constant tensor:
#      x y z
#    x 3.827840 0.000000 0.000000 
#    y 0.000000 2.887980 0.000000 
#    z 0.000000 0.000000 3.472150 
# 
# 
# High freq. dielectric constant tensor:
#      x y z
#    x 1.726160 0.000000 0.000000 
#    y 0.000000 1.663850 0.000000 
#    z 0.000000 0.000000 1.727800 
# 
# From -- ./inp_files/23812.got.cif
#   From: 2010.03.12/outbox.cif.g09.slc.cpg/sg51_12_cif.got.tgz:23812.got - 2010.04.16 13:43:02.
