data_PCOD8211218
_publ_section_title
;
Structure prediction by ZEFSAII (Michael W. Deem and Ramdas Pophale) SiO2 
 PCOD8211218
Probable space group: P M M A
;
_chemical_formula_sum "Si O2"
_cell_formula_units_Z 48
_cell_length_a 19.940959
_cell_length_b 9.518077
_cell_length_c 13.552182
_cell_angle_alpha 90.000000
_cell_angle_beta 90.000000
_cell_angle_gamma 90.000000
_cell_volume 2572.198495
_symmetry_space_group_name_H-M "P M M A"
_symmetry_group_IT_number 51
_symmetry_cell_setting 'orthorhombic'
loop_
_space_group_symop_operation_xyz
x,y,z
1/2-x,-y,z
1/2+x,-y,-z
-x,y,-z
-x,-y,-z
1/2+x,y,-z
1/2-x,y,z
x,-y,z
loop_
_atom_site_type_symbol
_atom_site_label
_atom_site_fract_x
_atom_site_fract_y
_atom_site_fract_z
Si Si1 0.507056 0.663375 0.613043
Si Si2 0.639032 0.337340 0.310636
Si Si3 0.429259 0.167024 0.039876
Si Si4 0.750000 0.839402 0.663402
Si Si5 0.393701 0.835799 0.256580
Si Si6 0.750000 0.663002 0.466175
Si Si7 0.326168 0.839202 0.878879
O O1 0.500000 0.708978 0.500000
O O2 0.526310 0.500000 0.621217
O O3 0.438031 0.697401 0.668449
O O4 0.566210 0.753492 0.659779
O O5 0.650154 0.500000 0.284789
O O6 0.683496 0.296192 0.405222
O O7 0.663548 0.247968 0.219298
O O8 0.415330 0.224224 0.149690
O O9 0.428528 0.000000 0.042683
O O10 0.500000 0.225334 0.000000
O O11 0.371931 0.222805 0.966283
O O12 0.685202 0.806979 0.730164
O O13 0.750000 0.746562 0.566678
O O14 0.750000 0.000000 0.627794
O O15 0.410962 0.000000 0.266514
O O16 0.750000 0.500000 0.493800
O O17 0.250000 0.827117 0.915396
O O18 0.345785 0.000000 0.855459
#
# Coordination Sequence:
#
# PCOD8211218 Si02
#       7
#     8   8   8   4   8   4   8
#     4  10  21  37  57  81 109 143 186 230 273 328
#     4  10  20  35  56  80 108 143 181 226 277 325
#     4   9  18  33  54  79 108 142 179 218 266 323
#     4  10  22  36  53  80 110 142 181 224 271 320
#     4  10  21  37  57  81 112 147 182 226 274 323
#     4  10  20  36  57  78 106 148 187 222 273 328
#     4  10  20  33  54  83 110 142 182 224 270 324
#
# _framework density 18.661079000000001
#
# number of rings (size 3 to 8) (size 9 to 14) (size 15 to 20)
#    0.000    2.167    0.833    2.000    1.167    5.000 
#    0.000    0.833    0.000    3.000    0.000    0.000 
#    0.000    0.000    0.000    0.000    0.000    0.000 
#
# Total GULP energy -595352.664920 kJ/mol
# GULP energy per Si atom -12403.180519 kJ/mol
# Density = 1.861861 g / cm^3
# Si number density = 18.661079 Si / 1000 Ang^3
#
#
#
# Elastic Constant Matrix: (Units=GPa)
#
#
# Indices 1 2 3 4 5 6 
#
# 1 134.7687 41.7966 66.2300 0.0000 0.0000 0.0000
# 2 41.7966 44.9408 47.7826 0.0000 0.0000 0.0000
# 3 66.2300 47.7826 142.8581 0.0000 0.0000 0.0000
# 4 0.0000 0.0000 0.0000 -40.6049 0.0000 0.0000
# 5 0.0000 0.0000 0.0000 0.0000 33.9143 0.0000
# 6 0.0000 0.0000 0.0000 0.0000 0.0000 23.3192
#
#
#
# Elastic Compliance Matrix: (Units=1/GPa)
#
#
# Indices 1 2 3 4 5 6 
#
# 1 0.011021 -0.007476 -0.002609 0.000000 0.000000 0.000000
# 2 -0.007476 0.039603 -0.009780 0.000000 0.000000 0.000000
# 3 -0.002609 -0.009780 0.011481 0.000000 0.000000 0.000000
# 4 0.000000 0.000000 0.000000 -0.024628 0.000000 0.000000
# 5 0.000000 0.000000 0.000000 0.000000 0.029486 0.000000
# 6 0.000000 0.000000 0.000000 0.000000 0.000000 0.042883
#
#
# Mechanical properties :
#
#
# Convention : Reuss Voigt Hill
#
# Bulk Modulus (GPa) = 44.69388 70.46512 57.57950
# Shear Modulus (GPa) = 31.84006 14.44293 23.14149
#
# Velocity S-wave (km/s) = 4.13513 2.78503 3.52532
# Velocity P-wave (km/s) = 6.84116 6.94149 6.89151
#
# Compressibility (1/GPa) = 0.02237443
#
# Stress axis : x y z
#
# Youngs Moduli (GPa) = 90.73829 25.25042 87.10252
#
# Poissons Ratio (x) = 0.18877 0.22723
# Poissons Ratio (y) = 0.67835 0.85190
# Poissons Ratio (z) = 0.23671 0.24696
#
# Static dielectric constant tensor:
#      x y z
#    x 3.734120 0.000000 0.000000 
#    y 0.000000 3.193340 0.000000 
#    z 0.000000 0.000000 3.465200 
# 
# 
# High freq. dielectric constant tensor:
#      x y z
#    x 1.744020 0.000000 0.000000 
#    y 0.000000 1.697640 0.000000 
#    z 0.000000 0.000000 1.730430 
# 
# From -- ./inp_files/24927.got.cif
#   From: 2010.03.12/outbox.cif.g09.slc.cpg/sg51_13_cif.got.tgz:24927.got - 2010.04.16 13:43:02.
