data_PCOD8211767
_publ_section_title
;
Structure prediction by ZEFSAII (Michael W. Deem and Ramdas Pophale) SiO2 
 PCOD8211767
Probable space group: P M M A
;
_chemical_formula_sum "Si O2"
_cell_formula_units_Z 48
_cell_length_a 9.048812
_cell_length_b 9.179862
_cell_length_c 30.772207
_cell_angle_alpha 90.000000
_cell_angle_beta 90.000000
_cell_angle_gamma 90.000000
_cell_volume 2556.150162
_symmetry_space_group_name_H-M "P M M A"
_symmetry_group_IT_number 51
_symmetry_cell_setting 'orthorhombic'
loop_
_space_group_symop_operation_xyz
x,y,z
1/2-x,-y,z
1/2+x,-y,-z
-x,y,-z
-x,-y,-z
1/2+x,y,-z
1/2-x,y,z
x,-y,z
loop_
_atom_site_type_symbol
_atom_site_label
_atom_site_fract_x
_atom_site_fract_y
_atom_site_fract_z
Si Si1 0.419621 0.672138 0.800013
Si Si2 0.422928 0.332238 0.955080
Si Si3 0.421543 0.171020 0.122407
Si Si4 0.420777 0.170023 0.542821
Si Si5 0.086626 0.672716 0.284216
Si Si6 0.422108 0.668483 0.380650
O O1 0.250000 0.717517 0.806905
O O2 0.441162 0.500000 0.806004
O O3 0.521651 0.752968 0.834249
O O4 0.469879 0.724117 0.752048
O O5 0.250000 0.301968 0.959811
O O6 0.454517 0.500000 0.942693
O O7 0.487830 0.229711 0.918285
O O8 0.500000 0.289904 0.000000
O O9 0.250000 0.209044 0.115950
O O10 0.448844 0.000000 0.126485
O O11 0.500000 0.234135 0.500000
O O12 0.250000 0.206798 0.538028
O O13 0.480730 0.242630 0.586036
O O14 0.453122 0.000000 0.546976
O O15 0.250000 0.734384 0.272675
O O16 0.095954 0.500000 0.285746
O O17 0.037745 0.726217 0.332121
O O18 0.250000 0.694727 0.390191
O O19 0.463482 0.500000 0.385566
#
# Coordination Sequence:
#
# PCOD8211767 Si02
#       6
#     8   8   8   8   8   8
#     4  10  20  34  55  82 108 137 176 219 263 312
#     4  10  21  38  61  87 112 140 177 219 263 313
#     4  11  24  39  55  78 109 145 183 221 264 313
#     4  10  21  36  53  73  99 134 175 215 257 308
#     4   8  15  30  52  77 105 137 172 211 256 307
#     4   9  18  33  54  80 107 134 168 211 259 311
#
# _framework density 18.77824
#
# number of rings (size 3 to 8) (size 9 to 14) (size 15 to 20)
#    0.000    2.333    0.000    3.500    0.000    8.000 
#    0.000    2.500    0.000    1.000    0.000    0.000 
#    0.000    0.000    0.000    0.000    0.000    0.000 
#
# Total GULP energy -595238.437757 kJ/mol
# GULP energy per Si atom -12400.800787 kJ/mol
# Density = 1.873550 g / cm^3
# Si number density = 18.778240 Si / 1000 Ang^3
#
#
#
# Elastic Constant Matrix: (Units=GPa)
#
#
# Indices 1 2 3 4 5 6 
#
# 1 109.4652 38.3745 75.0220 0.0000 0.0000 0.0000
# 2 38.3745 50.9630 40.0549 0.0000 0.0000 0.0000
# 3 75.0220 40.0549 150.8005 0.0000 0.0000 0.0000
# 4 0.0000 0.0000 0.0000 -96.0349 0.0000 0.0000
# 5 0.0000 0.0000 0.0000 0.0000 41.9088 0.0000
# 6 0.0000 0.0000 0.0000 0.0000 0.0000 28.2479
#
#
#
# Elastic Compliance Matrix: (Units=1/GPa)
#
#
# Indices 1 2 3 4 5 6 
#
# 1 0.015698 -0.007182 -0.005902 0.000000 0.000000 0.000000
# 2 -0.007182 0.028085 -0.003887 0.000000 0.000000 0.000000
# 3 -0.005902 -0.003887 0.010600 0.000000 0.000000 0.000000
# 4 0.000000 0.000000 0.000000 -0.010413 0.000000 0.000000
# 5 0.000000 0.000000 0.000000 0.000000 0.023861 0.000000
# 6 0.000000 0.000000 0.000000 0.000000 0.000000 0.035401
#
#
# Mechanical properties :
#
#
# Convention : Reuss Voigt Hill
#
# Bulk Modulus (GPa) = 48.92029 68.68128 58.80078
# Shear Modulus (GPa) = 34.72544 5.34285 20.03414
#
# Velocity S-wave (km/s) = 4.30494 1.68861 3.26986
# Velocity P-wave (km/s) = 7.12869 6.36052 6.75553
#
# Compressibility (1/GPa) = 0.02044142
#
# Stress axis : x y z
#
# Youngs Moduli (GPa) = 63.70295 35.60659 94.34030
#
# Poissons Ratio (x) = 0.25571 0.55680
# Poissons Ratio (y) = 0.45749 0.36670
# Poissons Ratio (z) = 0.37598 0.13840
#
# Static dielectric constant tensor:
#      x y z
#    x 3.167360 0.000000 0.000000 
#    y 0.000000 3.204130 0.000000 
#    z 0.000000 0.000000 3.760370 
# 
# 
# High freq. dielectric constant tensor:
#      x y z
#    x 1.738010 0.000000 0.000000 
#    y 0.000000 1.702170 0.000000 
#    z 0.000000 0.000000 1.746660 
# 
# From -- ./inp_files/36999.got.cif
#   From: 2010.03.12/outbox.cif.g09.slc.cpg/sg51_19_cif.got.tgz:36999.got - 2010.04.16 13:43:02.
