data_PCOD8211874
_publ_section_title
;
Structure prediction by ZEFSAII (Michael W. Deem and Ramdas Pophale) SiO2 
 PCOD8211874
Probable space group: P M M A
;
_chemical_formula_sum "Si O2"
_cell_formula_units_Z 64
_cell_length_a 31.667192
_cell_length_b 9.505417
_cell_length_c 10.200686
_cell_angle_alpha 90.000000
_cell_angle_beta 90.000000
_cell_angle_gamma 90.000000
_cell_volume 3070.507118
_symmetry_space_group_name_H-M "P M M A"
_symmetry_group_IT_number 51
_symmetry_cell_setting 'orthorhombic'
loop_
_space_group_symop_operation_xyz
x,y,z
1/2-x,-y,z
1/2+x,-y,-z
-x,y,-z
-x,-y,-z
1/2+x,y,-z
1/2-x,y,z
x,-y,z
loop_
_atom_site_type_symbol
_atom_site_label
_atom_site_fract_x
_atom_site_fract_y
_atom_site_fract_z
Si Si1 0.488397 0.661026 0.648552
Si Si2 0.537547 0.660734 0.906557
Si Si3 0.796641 0.340761 0.505421
Si Si4 0.115006 0.157584 0.127261
Si Si5 0.408342 0.833689 0.686083
Si Si6 0.666883 0.337889 0.217905
Si Si7 0.132346 0.156830 0.415216
Si Si8 0.297126 0.837890 0.004104
O O1 0.500000 0.706725 0.500000
O O2 0.471509 0.500000 0.646848
O O3 0.526969 0.675268 0.751281
O O4 0.453828 0.766060 0.707992
O O5 0.546521 0.500000 0.943884
O O6 0.580659 0.743133 0.942090
O O7 0.500000 0.718589 0.000000
O O8 0.750000 0.277367 0.518593
O O9 0.798014 0.500000 0.554360
O O10 0.810891 0.328169 0.356610
O O11 0.826979 0.254533 0.599830
O O12 0.105952 0.167854 0.282254
O O13 0.106667 0.000000 0.075963
O O14 0.164032 0.200025 0.101594
O O15 0.375710 0.756122 0.783381
O O16 0.397080 0.797513 0.535493
O O17 0.408940 0.000000 0.716075
O O18 0.656814 0.500000 0.180571
O O19 0.699429 0.268020 0.117495
O O20 0.149392 0.000000 0.439591
O O21 0.250000 0.814302 0.067000
O O22 0.301092 0.000000 0.957501
#
# Coordination Sequence:
#
# PCOD8211874 Si02
#       8
#     8   8   8   8   8   8   8   8
#     4  10  21  37  58  85 118 157 200 243 295 356
#     4  10  23  41  60  86 119 155 197 245 297 349
#     4   9  18  32  51  78 110 143 183 233 285 339
#     4  10  22  40  61  84 114 153 196 237 286 343
#     4  10  20  34  56  86 117 148 190 240 294 349
#     4  10  20  35  56  80 111 149 191 239 292 349
#     4   9  19  35  54  80 112 147 186 230 282 344
#     4  10  22  39  58  83 116 152 193 242 292 344
#
# _framework density 20.843461999999999
#
# number of rings (size 3 to 8) (size 9 to 14) (size 15 to 20)
#    0.000    2.250    0.000    1.875    1.750    4.500 
#    0.000    1.250    0.000    0.000    0.000    0.000 
#    0.000    0.000    0.000    0.000    0.000    0.000 
#
# Total GULP energy -793420.096110 kJ/mol
# GULP energy per Si atom -12397.189002 kJ/mol
# Density = 2.079602 g / cm^3
# Si number density = 20.843462 Si / 1000 Ang^3
#
#
#
# Elastic Constant Matrix: (Units=GPa)
#
#
# Indices 1 2 3 4 5 6 
#
# 1 134.7377 60.9682 14.8483 0.0000 0.0000 0.0000
# 2 60.9682 90.9583 13.7899 0.0000 0.0000 0.0000
# 3 14.8483 13.7899 50.9659 0.0000 0.0000 0.0000
# 4 0.0000 0.0000 0.0000 23.9612 0.0000 0.0000
# 5 0.0000 0.0000 0.0000 0.0000 23.0829 0.0000
# 6 0.0000 0.0000 0.0000 0.0000 0.0000 39.7343
#
#
#
# Elastic Compliance Matrix: (Units=1/GPa)
#
#
# Indices 1 2 3 4 5 6 
#
# 1 0.010726 -0.007003 -0.001230 0.000000 0.000000 0.000000
# 2 -0.007003 0.016037 -0.002299 0.000000 0.000000 0.000000
# 3 -0.001230 -0.002299 0.020601 0.000000 0.000000 0.000000
# 4 0.000000 0.000000 0.000000 0.041734 0.000000 0.000000
# 5 0.000000 0.000000 0.000000 0.000000 0.043322 0.000000
# 6 0.000000 0.000000 0.000000 0.000000 0.000000 0.025167
#
#
# Mechanical properties :
#
#
# Convention : Reuss Voigt Hill
#
# Bulk Modulus (GPa) = 38.02260 50.65274 44.33767
# Shear Modulus (GPa) = 26.67826 29.82607 28.25216
#
# Velocity S-wave (km/s) = 3.58150 3.78690 3.68563
# Velocity P-wave (km/s) = 5.94848 6.59356 6.27931
#
# Compressibility (1/GPa) = 0.02630015
#
# Stress axis : x y z
#
# Youngs Moduli (GPa) = 93.22866 62.35688 48.54061
#
# Poissons Ratio (x) = 0.43670 0.05971
# Poissons Ratio (y) = 0.65290 0.11158
# Poissons Ratio (z) = 0.11468 0.14334
#
# Static dielectric constant tensor:
#      x y z
#    x 3.704910 0.000000 0.000000 
#    y 0.000000 3.816290 0.000000 
#    z 0.000000 0.000000 3.608240 
# 
# 
# High freq. dielectric constant tensor:
#      x y z
#    x 1.813970 0.000000 0.000000 
#    y 0.000000 1.813590 0.000000 
#    z 0.000000 0.000000 1.806710 
# 
# From -- ./inp_files/19504.got.cif
#   From: 2010.03.12/outbox.cif.g09.slc.cpg/sg51_10_cif.got.tgz:19504.got - 2010.04.16 13:43:02.
