data_PCOD8211012
_publ_section_title
;
Structure prediction by ZEFSAII (Michael W. Deem and Ramdas Pophale) SiO2 
 PCOD8211012
Probable space group: P M M A
;
_chemical_formula_sum "Si O2"
_cell_formula_units_Z 64
_cell_length_a 19.002331
_cell_length_b 9.104386
_cell_length_c 20.271498
_cell_angle_alpha 90.000000
_cell_angle_beta 90.000000
_cell_angle_gamma 90.000000
_cell_volume 3507.061518
_symmetry_space_group_name_H-M "P M M A"
_symmetry_group_IT_number 51
_symmetry_cell_setting 'orthorhombic'
loop_
_space_group_symop_operation_xyz
x,y,z
1/2-x,-y,z
1/2+x,-y,-z
-x,y,-z
-x,-y,-z
1/2+x,y,-z
1/2-x,y,z
x,-y,z
loop_
_atom_site_type_symbol
_atom_site_label
_atom_site_fract_x
_atom_site_fract_y
_atom_site_fract_z
Si Si1 0.908727 0.825614 0.699634
Si Si2 0.833630 0.336625 0.071868
Si Si3 0.445636 0.327343 0.682288
Si Si4 0.833536 0.667030 0.817679
Si Si5 0.330388 0.827153 0.432513
Si Si6 0.671907 0.674710 0.216902
Si Si7 0.572856 0.328336 0.469136
Si Si8 0.333871 0.835193 0.053489
O O1 0.862181 0.762757 0.758121
O O2 0.873584 0.774062 0.631261
O O3 0.986396 0.761408 0.704415
O O4 0.910836 0.000000 0.705565
O O5 0.750000 0.345252 0.067269
O O6 0.865043 0.500000 0.061415
O O7 0.854224 0.273383 0.144217
O O8 0.864030 0.231511 0.014781
O O9 0.460376 0.500000 0.691370
O O10 0.381989 0.269640 0.727794
O O11 0.424994 0.289755 0.607709
O O12 0.750000 0.672387 0.814539
O O13 0.861204 0.500000 0.813134
O O14 0.861290 0.736704 0.885930
O O15 0.250000 0.776323 0.424038
O O16 0.361732 0.752170 0.497405
O O17 0.336071 0.000000 0.441809
O O18 0.750000 0.737986 0.232620
O O19 0.675787 0.500000 0.216498
O O20 0.500000 0.269174 0.500000
O O21 0.580933 0.500000 0.482869
O O22 0.250000 0.835849 0.052129
O O23 0.363260 0.000000 0.061401
#
# Coordination Sequence:
#
# PCOD8211012 Si02
#       8
#     8   8   8   8   8   8   8   8
#     4  11  22  36  54  75 105 143 180 217 262 315
#     4   8  13  24  44  69  97 129 168 212 256 306
#     4  10  20  35  56  79 106 139 178 218 260 317
#     4  10  20  33  51  76 105 137 175 220 265 308
#     4  10  22  38  56  79 106 139 179 220 264 317
#     4   8  15  29  51  78 104 133 172 218 265 313
#     4  10  20  35  55  80 108 137 174 220 267 314
#     4   9  16  26  43  70 103 137 171 208 256 311
#
# _framework density 18.248895000000001
#
# number of rings (size 3 to 8) (size 9 to 14) (size 15 to 20)
#    0.000    2.500    1.250    2.250    0.000    4.750 
#    0.000    1.875    0.000    1.875    0.000    5.250 
#    0.000    0.000    0.000    0.000    0.000    0.000 
#
# Total GULP energy -793586.950313 kJ/mol
# GULP energy per Si atom -12399.796099 kJ/mol
# Density = 1.820736 g / cm^3
# Si number density = 18.248895 Si / 1000 Ang^3
#
#
#
# Elastic Constant Matrix: (Units=GPa)
#
#
# Indices 1 2 3 4 5 6 
#
# 1 51.4255 23.8640 27.4478 0.0000 0.0000 0.0000
# 2 23.8640 61.7487 43.2431 0.0000 0.0000 0.0000
# 3 27.4478 43.2431 125.2699 0.0000 0.0000 0.0000
# 4 0.0000 0.0000 0.0000 22.4899 0.0000 0.0000
# 5 0.0000 0.0000 0.0000 0.0000 12.9703 0.0000
# 6 0.0000 0.0000 0.0000 0.0000 0.0000 23.7641
#
#
#
# Elastic Compliance Matrix: (Units=1/GPa)
#
#
# Indices 1 2 3 4 5 6 
#
# 1 0.024397 -0.007498 -0.002757 0.000000 0.000000 0.000000
# 2 -0.007498 0.023662 -0.006525 0.000000 0.000000 0.000000
# 3 -0.002757 -0.006525 0.010839 0.000000 0.000000 0.000000
# 4 0.000000 0.000000 0.000000 0.044464 0.000000 0.000000
# 5 0.000000 0.000000 0.000000 0.000000 0.077099 0.000000
# 6 0.000000 0.000000 0.000000 0.000000 0.000000 0.042080
#
#
# Mechanical properties :
#
#
# Convention : Reuss Voigt Hill
#
# Bulk Modulus (GPa) = 39.46711 47.50600 43.48655
# Shear Modulus (GPa) = 18.90014 21.43748 20.16881
#
# Velocity S-wave (km/s) = 3.22170 3.43115 3.32807
# Velocity P-wave (km/s) = 5.95930 6.46419 6.21687
#
# Compressibility (1/GPa) = 0.02533756
#
# Stress axis : x y z
#
# Youngs Moduli (GPa) = 40.98936 42.26184 92.25543
#
# Poissons Ratio (x) = 0.31686 0.25438
# Poissons Ratio (y) = 0.30732 0.60200
# Poissons Ratio (z) = 0.11302 0.27577
#
# Static dielectric constant tensor:
#      x y z
#    x 3.180190 0.000000 0.000000 
#    y 0.000000 3.306250 0.000000 
#    z 0.000000 0.000000 3.620340 
# 
# 
# High freq. dielectric constant tensor:
#      x y z
#    x 1.676430 0.000000 0.000000 
#    y 0.000000 1.695010 0.000000 
#    z 0.000000 0.000000 1.722750 
# 
# From -- ./inp_files/30564.got.cif
#   From: 2010.03.12/outbox.cif.g09.slc.cpg/sg51_16_cif.got.tgz:30564.got - 2010.04.16 13:43:02.
