data_PCOD8211019
_publ_section_title
;
Structure prediction by ZEFSAII (Michael W. Deem and Ramdas Pophale) SiO2 
 PCOD8211019
Probable space group: P M M A
;
_chemical_formula_sum "Si O2"
_cell_formula_units_Z 64
_cell_length_a 18.861797
_cell_length_b 9.168674
_cell_length_c 20.129927
_cell_angle_alpha 90.000000
_cell_angle_beta 90.000000
_cell_angle_gamma 90.000000
_cell_volume 3481.222627
_symmetry_space_group_name_H-M "P M M A"
_symmetry_group_IT_number 51
_symmetry_cell_setting 'orthorhombic'
loop_
_space_group_symop_operation_xyz
x,y,z
1/2-x,-y,z
1/2+x,-y,-z
-x,y,-z
-x,-y,-z
1/2+x,y,-z
1/2-x,y,z
x,-y,z
loop_
_atom_site_type_symbol
_atom_site_label
_atom_site_fract_x
_atom_site_fract_y
_atom_site_fract_z
Si Si1 0.334326 0.162988 0.048637
Si Si2 0.832272 0.670309 0.224188
Si Si3 0.092621 0.829379 0.299730
Si Si4 0.569215 0.170361 0.327189
Si Si5 0.665797 0.338277 0.075704
Si Si6 0.831950 0.666290 0.584307
Si Si7 0.929893 0.667261 0.462889
Si Si8 0.832863 0.329601 0.820564
O O1 0.250000 0.160486 0.045450
O O2 0.359479 0.259847 0.110597
O O3 0.364805 0.000000 0.056642
O O4 0.365382 0.230495 0.980349
O O5 0.750000 0.705646 0.235994
O O6 0.847263 0.500000 0.236171
O O7 0.877108 0.765956 0.274025
O O8 0.855479 0.715297 0.149363
O O9 0.128862 0.776503 0.367113
O O10 0.123940 0.742663 0.238236
O O11 0.009865 0.793526 0.303631
O O12 0.107857 0.000000 0.290506
O O13 0.585529 0.238963 0.398307
O O14 0.582485 0.000000 0.333412
O O15 0.750000 0.345254 0.070744
O O16 0.635062 0.500000 0.062562
O O17 0.750000 0.708418 0.581895
O O18 0.843042 0.500000 0.609456
O O19 0.862493 0.684837 0.510580
O O20 0.941823 0.500000 0.441217
O O21 0.000000 0.726161 0.500000
O O22 0.750000 0.299431 0.808314
O O23 0.849578 0.500000 0.823142
#
# Coordination Sequence:
#
# PCOD8211019 Si02
#       8
#     8   8   8   8   8   8   8   8
#     4   9  16  26  44  73 107 142 178 217 267 324
#     4   9  19  36  58  83 110 142 182 227 272 321
#     4  11  23  37  53  76 109 146 181 219 268 326
#     4  11  24  38  56  82 112 145 180 221 270 327
#     4   8  14  27  48  74 104 137 175 220 267 316
#     4  10  21  37  58  84 109 136 178 228 272 318
#     4  10  20  37  60  81 104 140 182 221 267 323
#     4  10  20  33  51  76 106 141 183 230 273 316
#
# _framework density 18.384346000000001
#
# number of rings (size 3 to 8) (size 9 to 14) (size 15 to 20)
#    0.000    2.250    1.250    2.625    0.000    7.500 
#    0.000    2.500    0.000    0.750    0.000    5.250 
#    0.000    0.000    0.000    0.000    0.000    0.000 
#
# Total GULP energy -793682.090049 kJ/mol
# GULP energy per Si atom -12401.282657 kJ/mol
# Density = 1.834250 g / cm^3
# Si number density = 18.384346 Si / 1000 Ang^3
#
#
#
# Elastic Constant Matrix: (Units=GPa)
#
#
# Indices 1 2 3 4 5 6 
#
# 1 63.8341 52.3445 46.7647 0.0000 0.0000 0.0000
# 2 52.3445 110.0939 84.5628 0.0000 0.0000 0.0000
# 3 46.7647 84.5628 152.0838 0.0000 0.0000 0.0000
# 4 0.0000 0.0000 0.0000 -26.2884 0.0000 0.0000
# 5 0.0000 0.0000 0.0000 0.0000 171.9464 0.0000
# 6 0.0000 0.0000 0.0000 0.0000 0.0000 24.6108
#
#
#
# Elastic Compliance Matrix: (Units=1/GPa)
#
#
# Indices 1 2 3 4 5 6 
#
# 1 0.026006 -0.010861 -0.001958 0.000000 0.000000 0.000000
# 2 -0.010861 0.020390 -0.007998 0.000000 0.000000 0.000000
# 3 -0.001958 -0.007998 0.011624 0.000000 0.000000 0.000000
# 4 0.000000 0.000000 0.000000 -0.038040 0.000000 0.000000
# 5 0.000000 0.000000 0.000000 0.000000 0.005816 0.000000
# 6 0.000000 0.000000 0.000000 0.000000 0.000000 0.040633
#
#
# Mechanical properties :
#
#
# Convention : Reuss Voigt Hill
#
# Bulk Modulus (GPa) = 61.02215 77.03954 69.03084
# Shear Modulus (GPa) = 44.04360 43.54310 43.79335
#
# Velocity S-wave (km/s) = 4.89991 4.87199 4.88597
# Velocity P-wave (km/s) = 8.07940 8.58163 8.33430
#
# Compressibility (1/GPa) = 0.01638749
#
# Stress axis : x y z
#
# Youngs Moduli (GPa) = 38.45302 49.04349 86.02681
#
# Poissons Ratio (x) = 0.53265 0.16841
# Poissons Ratio (y) = 0.41763 0.68803
# Poissons Ratio (z) = 0.07528 0.39224
#
# Static dielectric constant tensor:
#      x y z
#    x 3.157050 0.000000 0.000000 
#    y 0.000000 3.522900 0.000000 
#    z 0.000000 0.000000 3.563110 
# 
# 
# High freq. dielectric constant tensor:
#      x y z
#    x 1.683560 0.000000 0.000000 
#    y 0.000000 1.717650 0.000000 
#    z 0.000000 0.000000 1.726350 
# 
# From -- ./inp_files/33826.got.cif
#   From: 2010.03.12/outbox.cif.g09.slc.cpg/sg51_17_cif.got.tgz:33826.got - 2010.04.16 13:43:02.
