data_PCOD8211357
_publ_section_title
;
Structure prediction by ZEFSAII (Michael W. Deem and Ramdas Pophale) SiO2 
 PCOD8211357
Probable space group: P M M A
;
_chemical_formula_sum "Si O2"
_cell_formula_units_Z 48
_cell_length_a 15.333201
_cell_length_b 8.883395
_cell_length_c 19.344871
_cell_angle_alpha 90.000000
_cell_angle_beta 90.000000
_cell_angle_gamma 90.000000
_cell_volume 2634.981924
_symmetry_space_group_name_H-M "P M M A"
_symmetry_group_IT_number 51
_symmetry_cell_setting 'orthorhombic'
loop_
_space_group_symop_operation_xyz
x,y,z
1/2-x,-y,z
1/2+x,-y,-z
-x,y,-z
-x,-y,-z
1/2+x,y,-z
1/2-x,y,z
x,-y,z
loop_
_atom_site_type_symbol
_atom_site_label
_atom_site_fract_x
_atom_site_fract_y
_atom_site_fract_z
Si Si1 0.559698 0.327050 0.060320
Si Si2 0.150947 0.826463 0.582850
Si Si3 0.061216 0.179278 0.791803
Si Si4 0.250000 0.668577 0.924168
Si Si5 0.849149 0.171914 0.578500
Si Si6 0.250000 0.827249 0.787092
Si Si7 0.002963 0.324167 0.337145
O O1 0.533626 0.500000 0.073119
O O2 0.542723 0.241005 0.131869
O O3 0.660172 0.313017 0.033076
O O4 0.500000 0.256056 0.000000
O O5 0.250000 0.793340 0.608274
O O6 0.142298 0.791037 0.502120
O O7 0.084035 0.721109 0.622259
O O8 0.127456 0.000000 0.598112
O O9 0.156486 0.237785 0.761792
O O10 0.991377 0.242214 0.737385
O O11 0.057317 0.000000 0.795278
O O12 0.250000 0.500000 0.889660
O O13 0.250000 0.801859 0.869065
O O14 0.750000 0.198668 0.602940
O O15 0.911184 0.282158 0.620396
O O16 0.877459 0.000000 0.592327
O O17 0.250000 0.000000 0.768125
O O18 0.002020 0.500000 0.324100
#
# Coordination Sequence:
#
# PCOD8211357 Si02
#       7
#     8   8   8   4   8   4   8
#     4   9  17  31  52  76 104 134 166 207 259 315
#     4   9  19  36  57  80 107 140 179 219 262 315
#     4  10  20  34  52  75 103 138 179 218 261 312
#     4   8  14  26  46  72  98 128 159 190 239 304
#     4   9  19  38  61  79  98 135 184 227 266 313
#     4   8  16  30  48  70  96 128 165 208 253 302
#     4  12  24  34  50  79 113 143 175 217 271 323
#
# _framework density 18.216443000000002
#
# number of rings (size 3 to 8) (size 9 to 14) (size 15 to 20)
#    0.000    2.500    0.000    3.500    1.167    4.333 
#    0.000    1.667    1.833    0.000    0.000    0.000 
#    0.000    0.000    0.000    0.000    0.000    0.000 
#
# Total GULP energy -594815.739844 kJ/mol
# GULP energy per Si atom -12391.994580 kJ/mol
# Density = 1.817498 g / cm^3
# Si number density = 18.216443 Si / 1000 Ang^3
#
#
#
# Elastic Constant Matrix: (Units=GPa)
#
#
# Indices 1 2 3 4 5 6 
#
# 1 86.8568 30.3601 46.7573 0.0000 0.0000 0.0000
# 2 30.3601 69.5917 40.3026 0.0000 0.0000 0.0000
# 3 46.7573 40.3026 73.0632 0.0000 0.0000 0.0000
# 4 0.0000 0.0000 0.0000 25.9678 0.0000 0.0000
# 5 0.0000 0.0000 0.0000 0.0000 28.7621 0.0000
# 6 0.0000 0.0000 0.0000 0.0000 0.0000 21.1877
#
#
#
# Elastic Compliance Matrix: (Units=1/GPa)
#
#
# Indices 1 2 3 4 5 6 
#
# 1 0.017701 -0.001707 -0.010386 0.000000 0.000000 0.000000
# 2 -0.001707 0.021279 -0.010645 0.000000 0.000000 0.000000
# 3 -0.010386 -0.010645 0.026206 0.000000 0.000000 0.000000
# 4 0.000000 0.000000 0.000000 0.038509 0.000000 0.000000
# 5 0.000000 0.000000 0.000000 0.000000 0.034768 0.000000
# 6 0.000000 0.000000 0.000000 0.000000 0.000000 0.047197
#
#
# Mechanical properties :
#
#
# Convention : Reuss Voigt Hill
#
# Bulk Modulus (GPa) = 50.73981 51.59460 51.16721
# Shear Modulus (GPa) = 21.03424 22.65631 21.84528
#
# Velocity S-wave (km/s) = 3.40175 3.53048 3.46671
# Velocity P-wave (km/s) = 6.58358 6.70847 6.64632
#
# Compressibility (1/GPa) = 0.01970839
#
# Stress axis : x y z
#
# Youngs Moduli (GPa) = 56.49353 46.99378 38.15985
#
# Poissons Ratio (x) = 0.08024 0.39633
# Poissons Ratio (y) = 0.09646 0.40622
# Poissons Ratio (z) = 0.58675 0.50026
#
# Static dielectric constant tensor:
#      x y z
#    x 3.569390 0.000000 0.000000 
#    y 0.000000 3.237550 0.000000 
#    z 0.000000 0.000000 3.208970 
# 
# 
# High freq. dielectric constant tensor:
#      x y z
#    x 1.706460 0.000000 0.000000 
#    y 0.000000 1.696850 0.000000 
#    z 0.000000 0.000000 1.688130 
# 
# From -- ./inp_files/29594.got.cif
#   From: 2010.03.12/outbox.cif.g09.slc.cpg/sg51_15_cif.got.tgz:29594.got - 2010.04.16 13:43:02.
