data_PCOD8211768
_publ_section_title
;
Structure prediction by ZEFSAII (Michael W. Deem and Ramdas Pophale) SiO2 
 PCOD8211768
Probable space group: P M M A
;
_chemical_formula_sum "Si O2"
_cell_formula_units_Z 48
_cell_length_a 19.278289
_cell_length_b 14.244778
_cell_length_c 9.300170
_cell_angle_alpha 90.000000
_cell_angle_beta 90.000000
_cell_angle_gamma 90.000000
_cell_volume 2553.965692
_symmetry_space_group_name_H-M "P M M A"
_symmetry_group_IT_number 51
_symmetry_cell_setting 'orthorhombic'
loop_
_space_group_symop_operation_xyz
x,y,z
1/2-x,-y,z
1/2+x,-y,-z
-x,y,-z
-x,-y,-z
1/2+x,y,-z
1/2-x,y,z
x,-y,z
loop_
_atom_site_type_symbol
_atom_site_label
_atom_site_fract_x
_atom_site_fract_y
_atom_site_fract_z
Si Si1 0.566703 0.299818 0.601877
Si Si2 0.829287 0.895020 0.249039
Si Si3 0.669833 0.710167 0.101174
Si Si4 0.169566 0.608198 0.609258
Si Si5 0.080436 0.101574 0.471671
Si Si6 0.433203 0.608044 0.097686
O O1 0.500000 0.300315 0.500000
O O2 0.629279 0.355446 0.529287
O O3 0.591062 0.191470 0.632452
O O4 0.546732 0.351135 0.747962
O O5 0.750000 0.881468 0.303220
O O6 0.844673 0.821613 0.120487
O O7 0.879783 0.874156 0.381221
O O8 0.841260 0.000000 0.188062
O O9 0.750000 0.688571 0.071056
O O10 0.644601 0.660550 0.247357
O O11 0.628852 0.669976 0.965889
O O12 0.250000 0.626761 0.578653
O O13 0.152483 0.500000 0.633965
O O14 0.000000 0.089380 0.500000
O O15 0.107720 0.000000 0.409686
O O16 0.409355 0.500000 0.110245
O O17 0.500000 0.618418 0.000000
#
# Coordination Sequence:
#
# PCOD8211768 Si02
#       6
#     8   8   8   8   8   8
#     4  11  22  37  59  82 109 148 190 239 282 329
#     4   9  17  32  58  88 115 148 191 236 283 340
#     4  10  20  37  59  83 113 149 186 228 285 345
#     4  10  20  34  55  82 109 139 184 237 283 332
#     4   9  18  32  54  85 116 145 183 235 288 335
#     4  11  25  40  55  79 114 154 194 234 286 345
#
# _framework density 18.794301999999998
#
# number of rings (size 3 to 8) (size 9 to 14) (size 15 to 20)
#    0.000    2.000    1.667    2.000    2.333    4.333 
#    0.000    0.833    0.000    1.000    0.000    0.000 
#    0.000    0.000    0.000    0.000    0.000    0.000 
#
# Total GULP energy -595070.201289 kJ/mol
# GULP energy per Si atom -12397.295860 kJ/mol
# Density = 1.875153 g / cm^3
# Si number density = 18.794302 Si / 1000 Ang^3
#
#
#
# Elastic Constant Matrix: (Units=GPa)
#
#
# Indices 1 2 3 4 5 6 
#
# 1 66.6265 44.0477 36.2730 0.0000 0.0000 0.0000
# 2 44.0477 151.0181 57.1823 0.0000 0.0000 0.0000
# 3 36.2730 57.1823 92.7923 0.0000 0.0000 0.0000
# 4 0.0000 0.0000 0.0000 28.1626 0.0000 0.0000
# 5 0.0000 0.0000 0.0000 0.0000 33.1799 0.0000
# 6 0.0000 0.0000 0.0000 0.0000 0.0000 25.9326
#
#
#
# Elastic Compliance Matrix: (Units=1/GPa)
#
#
# Indices 1 2 3 4 5 6 
#
# 1 0.020669 -0.003873 -0.005693 0.000000 0.000000 0.000000
# 2 -0.003873 0.009363 -0.004256 0.000000 0.000000 0.000000
# 3 -0.005693 -0.004256 0.015625 0.000000 0.000000 0.000000
# 4 0.000000 0.000000 0.000000 0.035508 0.000000 0.000000
# 5 0.000000 0.000000 0.000000 0.000000 0.030139 0.000000
# 6 0.000000 0.000000 0.000000 0.000000 0.000000 0.038561
#
#
# Mechanical properties :
#
#
# Convention : Reuss Voigt Hill
#
# Bulk Modulus (GPa) = 55.51503 65.04919 60.28211
# Shear Modulus (GPa) = 27.24617 28.98397 28.11507
#
# Velocity S-wave (km/s) = 3.81163 3.93130 3.87193
# Velocity P-wave (km/s) = 6.99812 7.43594 7.22035
#
# Compressibility (1/GPa) = 0.01801314
#
# Stress axis : x y z
#
# Youngs Moduli (GPa) = 48.38202 106.80598 64.00120
#
# Poissons Ratio (x) = 0.41365 0.36435
# Poissons Ratio (y) = 0.18738 0.27237
# Poissons Ratio (z) = 0.27543 0.45454
#
# Static dielectric constant tensor:
#      x y z
#    x 3.455660 0.000000 0.000000 
#    y 0.000000 4.090270 0.000000 
#    z 0.000000 0.000000 3.103740 
# 
# 
# High freq. dielectric constant tensor:
#      x y z
#    x 1.733440 0.000000 0.000000 
#    y 0.000000 1.759860 0.000000 
#    z 0.000000 0.000000 1.688090 
# 
# From -- ./inp_files/9656.got.cif
#   From: 2010.03.12/outbox.cif.g09.slc.cpg/sg51_5_cif.got.tgz:9656.got - 2010.04.16 13:43:02.
