data_PCOD8211950
_publ_section_title
;
Structure prediction by ZEFSAII (Michael W. Deem and Ramdas Pophale) SiO2 
 PCOD8211950
Probable space group: P M M A
;
_chemical_formula_sum "Si O2"
_cell_formula_units_Z 64
_cell_length_a 18.497604
_cell_length_b 20.071288
_cell_length_c 9.743805
_cell_angle_alpha 90.000000
_cell_angle_beta 90.000000
_cell_angle_gamma 90.000000
_cell_volume 3617.589665
_symmetry_space_group_name_H-M "P M M A"
_symmetry_group_IT_number 51
_symmetry_cell_setting 'orthorhombic'
loop_
_space_group_symop_operation_xyz
x,y,z
1/2-x,-y,z
1/2+x,-y,-z
-x,y,-z
-x,-y,-z
1/2+x,y,-z
1/2-x,y,z
x,-y,z
loop_
_atom_site_type_symbol
_atom_site_label
_atom_site_fract_x
_atom_site_fract_y
_atom_site_fract_z
Si Si1 0.835815 0.926237 0.122287
Si Si2 0.571720 0.423047 0.078611
Si Si3 0.909519 0.322799 0.632264
Si Si4 0.167997 0.577007 0.174741
Si Si5 0.836049 0.073529 0.814259
Si Si6 0.664723 0.193996 0.308466
Si Si7 0.424541 0.322160 0.679409
Si Si8 0.334376 0.811477 0.376586
O O1 0.750000 0.926604 0.128193
O O2 0.865129 0.868671 0.222022
O O3 0.863964 0.000000 0.167236
O O4 0.862469 0.910094 0.968336
O O5 0.561366 0.500000 0.120137
O O6 0.587278 0.383417 0.217979
O O7 0.500000 0.397092 0.000000
O O8 0.640126 0.412153 0.979814
O O9 0.882677 0.385440 0.718211
O O10 0.896154 0.341091 0.472513
O O11 0.865426 0.257938 0.676971
O O12 0.991482 0.304913 0.667849
O O13 0.250000 0.603410 0.182702
O O14 0.163053 0.500000 0.215767
O O15 0.750000 0.074668 0.808610
O O16 0.869118 0.128027 0.710595
O O17 0.863668 0.000000 0.770557
O O18 0.750000 0.207428 0.285466
O O19 0.620099 0.259110 0.262695
O O20 0.646790 0.176340 0.465185
O O21 0.250000 0.808531 0.350186
#
# Coordination Sequence:
#
# PCOD8211950 Si02
#       8
#     8   8   8   8   8   8   8   8
#     4   8  14  26  44  67  96 128 164 209 259 307
#     4  10  20  37  57  78 105 136 173 216 260 310
#     4  10  20  35  53  76 105 138 174 213 257 314
#     4  10  21  37  57  81 108 137 171 214 262 310
#     4   8  14  25  42  66  94 123 160 205 250 299
#     4   9  18  31  47  71 101 131 166 210 257 307
#     4  10  21  35  54  77 104 138 176 215 261 310
#     4   9  17  29  46  69  98 129 162 206 256 303
#
# _framework density 17.691337999999998
#
# number of rings (size 3 to 8) (size 9 to 14) (size 15 to 20)
#    0.000    2.750    1.250    1.125    0.000    3.000 
#    0.000    5.000    0.000    2.250    0.000    5.250 
#    0.000    0.000    0.000    0.000    0.000    0.000 
#
# Total GULP energy -793458.917571 kJ/mol
# GULP energy per Si atom -12397.795587 kJ/mol
# Density = 1.765107 g / cm^3
# Si number density = 17.691338 Si / 1000 Ang^3
#
#
#
# Elastic Constant Matrix: (Units=GPa)
#
#
# Indices 1 2 3 4 5 6 
#
# 1 43.3364 30.3134 21.6740 0.0000 0.0000 0.0000
# 2 30.3134 121.6842 75.7410 0.0000 0.0000 0.0000
# 3 21.6740 75.7410 88.9834 0.0000 0.0000 0.0000
# 4 0.0000 0.0000 0.0000 37.9419 0.0000 0.0000
# 5 0.0000 0.0000 0.0000 0.0000 18.8088 0.0000
# 6 0.0000 0.0000 0.0000 0.0000 0.0000 12.2318
#
#
#
# Elastic Compliance Matrix: (Units=1/GPa)
#
#
# Indices 1 2 3 4 5 6 
#
# 1 0.028092 -0.005826 -0.001884 0.000000 0.000000 0.000000
# 2 -0.005826 0.018686 -0.014486 0.000000 0.000000 0.000000
# 3 -0.001884 -0.014486 0.024027 0.000000 0.000000 0.000000
# 4 0.000000 0.000000 0.000000 0.026356 0.000000 0.000000
# 5 0.000000 0.000000 0.000000 0.000000 0.053167 0.000000
# 6 0.000000 0.000000 0.000000 0.000000 0.000000 0.081754
#
#
# Mechanical properties :
#
#
# Convention : Reuss Voigt Hill
#
# Bulk Modulus (GPa) = 37.85833 56.60675 47.23254
# Shear Modulus (GPa) = 17.52669 22.21486 19.87078
#
# Velocity S-wave (km/s) = 3.15094 3.54742 3.35504
# Velocity P-wave (km/s) = 5.88929 6.98894 6.46254
#
# Compressibility (1/GPa) = 0.02641427
#
# Stress axis : x y z
#
# Youngs Moduli (GPa) = 35.59675 53.51581 41.61920
#
# Poissons Ratio (x) = 0.31176 0.07841
# Poissons Ratio (y) = 0.20737 0.60291
# Poissons Ratio (z) = 0.06706 0.77524
#
# Static dielectric constant tensor:
#      x y z
#    x 3.088850 0.000000 0.000000 
#    y 0.000000 3.465310 0.000000 
#    z 0.000000 0.000000 3.360340 
# 
# 
# High freq. dielectric constant tensor:
#      x y z
#    x 1.657690 0.000000 0.000000 
#    y 0.000000 1.688140 0.000000 
#    z 0.000000 0.000000 1.683850 
# 
# From -- ./inp_files/10040.got.cif
#   From: 2010.03.12/outbox.cif.g09.slc.cpg/sg51_6_cif.got.tgz:10040.got - 2010.04.16 13:43:02.
