data_PCOD8211188
_publ_section_title
;
Structure prediction by ZEFSAII (Michael W. Deem and Ramdas Pophale) SiO2 
 PCOD8211188
Probable space group: P M M A
;
_chemical_formula_sum "Si O2"
_cell_formula_units_Z 56
_cell_length_a 19.101329
_cell_length_b 9.066993
_cell_length_c 16.454853
_cell_angle_alpha 90.000000
_cell_angle_beta 90.000000
_cell_angle_gamma 90.000000
_cell_volume 2849.842588
_symmetry_space_group_name_H-M "P M M A"
_symmetry_group_IT_number 51
_symmetry_cell_setting 'orthorhombic'
loop_
_space_group_symop_operation_xyz
x,y,z
1/2-x,-y,z
1/2+x,-y,-z
-x,y,-z
-x,-y,-z
1/2+x,y,-z
1/2-x,y,z
x,-y,z
loop_
_atom_site_type_symbol
_atom_site_label
_atom_site_fract_x
_atom_site_fract_y
_atom_site_fract_z
Si Si1 0.045465 0.173712 0.924720
Si Si2 0.831399 0.673619 0.363430
Si Si3 0.413635 0.670034 0.333472
Si Si4 0.919229 0.825451 0.504480
Si Si5 0.174527 0.825762 0.020123
Si Si6 0.166897 0.166038 0.198852
Si Si7 0.052136 0.668707 0.758543
O O1 0.028839 0.239139 0.836977
O O2 0.034039 0.000000 0.917950
O O3 0.124552 0.221426 0.946672
O O4 0.000000 0.236185 0.000000
O O5 0.750000 0.722745 0.355709
O O6 0.837431 0.500000 0.380621
O O7 0.869493 0.757366 0.436232
O O8 0.872423 0.713908 0.279571
O O9 0.399889 0.500000 0.354794
O O10 0.390646 0.769534 0.409297
O O11 0.365101 0.715282 0.258924
O O12 0.494825 0.697547 0.311398
O O13 0.000000 0.772520 0.500000
O O14 0.913091 0.000000 0.498266
O O15 0.250000 0.750371 0.004747
O O16 0.143408 0.782328 0.108426
O O17 0.183397 0.000000 0.022017
O O18 0.250000 0.169409 0.204951
O O19 0.139369 0.000000 0.217738
O O20 0.052551 0.500000 0.786308
#
# Coordination Sequence:
#
# PCOD8211188 Si02
#       7
#     8   8   8   8   8   8   8
#     4  10  20  33  53  81 110 143 189 239 284 336
#     4  10  22  42  65  87 117 157 196 236 286 345
#     4  11  22  36  58  83 113 151 188 228 278 340
#     4  11  23  39  62  89 115 146 187 237 288 338
#     4   8  15  30  51  74 103 141 182 226 281 336
#     4   9  18  34  56  81 111 146 186 236 286 333
#     4  10  22  38  56  82 114 150 190 234 284 338
#
# _framework density 19.650207999999999
#
# number of rings (size 3 to 8) (size 9 to 14) (size 15 to 20)
#    0.000    2.143    1.429    2.571    0.000    5.429 
#    0.000    0.714    0.000    0.857    0.000    0.000 
#    0.000    0.000    0.000    0.000    0.000    0.000 
#
# Total GULP energy -694226.023704 kJ/mol
# GULP energy per Si atom -12396.893280 kJ/mol
# Density = 1.960548 g / cm^3
# Si number density = 19.650208 Si / 1000 Ang^3
#
#
#
# Elastic Constant Matrix: (Units=GPa)
#
#
# Indices 1 2 3 4 5 6 
#
# 1 64.6927 31.3956 31.6585 0.0000 0.0000 0.0000
# 2 31.3956 47.9035 36.0506 0.0000 0.0000 0.0000
# 3 31.6585 36.0506 100.6679 0.0000 0.0000 0.0000
# 4 0.0000 0.0000 0.0000 30.5120 0.0000 0.0000
# 5 0.0000 0.0000 0.0000 0.0000 14.5400 0.0000
# 6 0.0000 0.0000 0.0000 0.0000 0.0000 24.8604
#
#
#
# Elastic Compliance Matrix: (Units=1/GPa)
#
#
# Indices 1 2 3 4 5 6 
#
# 1 0.023127 -0.013257 -0.002526 0.000000 0.000000 0.000000
# 2 -0.013257 0.036176 -0.008786 0.000000 0.000000 0.000000
# 3 -0.002526 -0.008786 0.013874 0.000000 0.000000 0.000000
# 4 0.000000 0.000000 0.000000 0.032774 0.000000 0.000000
# 5 0.000000 0.000000 0.000000 0.000000 0.068776 0.000000
# 6 0.000000 0.000000 0.000000 0.000000 0.000000 0.040225
#
#
# Mechanical properties :
#
#
# Convention : Reuss Voigt Hill
#
# Bulk Modulus (GPa) = 41.59657 45.71928 43.65792
# Shear Modulus (GPa) = 18.37550 21.59312 19.98431
#
# Velocity S-wave (km/s) = 3.06131 3.31852 3.19251
# Velocity P-wave (km/s) = 5.80603 6.16446 5.98792
#
# Compressibility (1/GPa) = 0.02404044
#
# Stress axis : x y z
#
# Youngs Moduli (GPa) = 43.23913 27.64297 72.07541
#
# Poissons Ratio (x) = 0.36645 0.18205
# Poissons Ratio (y) = 0.57320 0.63325
# Poissons Ratio (z) = 0.10921 0.24287
#
# Static dielectric constant tensor:
#      x y z
#    x 4.163640 0.000000 0.000000 
#    y 0.000000 3.373420 0.000000 
#    z 0.000000 0.000000 3.562740 
# 
# 
# High freq. dielectric constant tensor:
#      x y z
#    x 1.772290 0.000000 0.000000 
#    y 0.000000 1.741300 0.000000 
#    z 0.000000 0.000000 1.769180 
# 
# From -- ./inp_files/25651.got.cif
#   From: 2010.03.12/outbox.cif.g09.slc.cpg/sg51_13_cif.got.tgz:25651.got - 2010.04.16 13:43:02.
