data_PCOD8211646
_publ_section_title
;
Structure prediction by ZEFSAII (Michael W. Deem and Ramdas Pophale) SiO2 
 PCOD8211646
Probable space group: P M M A
;
_chemical_formula_sum "Si O2"
_cell_formula_units_Z 64
_cell_length_a 18.319244
_cell_length_b 9.063326
_cell_length_c 21.183343
_cell_angle_alpha 90.000000
_cell_angle_beta 90.000000
_cell_angle_gamma 90.000000
_cell_volume 3517.139929
_symmetry_space_group_name_H-M "P M M A"
_symmetry_group_IT_number 51
_symmetry_cell_setting 'orthorhombic'
loop_
_space_group_symop_operation_xyz
x,y,z
1/2-x,-y,z
1/2+x,-y,-z
-x,y,-z
-x,-y,-z
1/2+x,y,-z
1/2-x,y,z
x,-y,z
loop_
_atom_site_type_symbol
_atom_site_label
_atom_site_fract_x
_atom_site_fract_y
_atom_site_fract_z
Si Si1 0.834181 0.327841 0.243607
Si Si2 0.668071 0.674952 0.877541
Si Si3 0.332183 0.327829 0.378266
Si Si4 0.913970 0.329807 0.002828
Si Si5 0.540714 0.173425 0.307803
Si Si6 0.408956 0.673042 0.248833
Si Si7 0.462868 0.827193 0.436449
Si Si8 0.666051 0.171659 0.114075
O O1 0.750000 0.297009 0.259602
O O2 0.852208 0.500000 0.241690
O O3 0.880915 0.249157 0.298092
O O4 0.856198 0.259372 0.176589
O O5 0.750000 0.740417 0.882297
O O6 0.671815 0.500000 0.873980
O O7 0.629349 0.734074 0.814280
O O8 0.621357 0.726719 0.937628
O O9 0.250000 0.270076 0.388283
O O10 0.337955 0.500000 0.391795
O O11 0.355034 0.291704 0.306648
O O12 0.384098 0.247113 0.428214
O O13 0.892853 0.500000 0.015816
O O14 0.883926 0.228340 0.057962
O O15 0.000000 0.308666 0.000000
O O16 0.484282 0.239349 0.257019
O O17 0.515344 0.213786 0.378309
O O18 0.547192 0.000000 0.297198
O O19 0.427164 0.500000 0.244287
O O20 0.500000 0.765785 0.500000
O O21 0.449019 0.000000 0.441151
O O22 0.750000 0.202279 0.096199
O O23 0.651197 0.000000 0.126073
#
# Coordination Sequence:
#
# PCOD8211646 Si02
#       8
#     8   8   8   8   8   8   8   8
#     4  10  21  37  58  81 104 134 174 219 267 320
#     4   9  17  30  49  72  99 134 174 214 256 305
#     4   9  17  30  50  78 108 136 173 221 267 309
#     4  10  21  34  50  75 105 138 178 221 262 309
#     4  10  20  34  54  80 108 137 170 212 261 308
#     4   9  17  30  51  76 102 136 174 213 258 311
#     4   9  19  36  55  76 106 145 184 216 251 305
#     4  10  21  37  56  77 102 135 174 219 272 321
#
# _framework density 18.196603
#
# number of rings (size 3 to 8) (size 9 to 14) (size 15 to 20)
#    0.000    2.500    0.000    1.875    1.750    4.750 
#    0.000    1.250    0.000    5.625    0.000    0.000 
#    0.000    0.000    0.000    0.000    0.000    0.000 
#
# Total GULP energy -793785.944508 kJ/mol
# GULP energy per Si atom -12402.905383 kJ/mol
# Density = 1.815519 g / cm^3
# Si number density = 18.196603 Si / 1000 Ang^3
#
#
#
# Elastic Constant Matrix: (Units=GPa)
#
#
# Indices 1 2 3 4 5 6 
#
# 1 129.7649 51.6594 75.4243 0.0000 0.0000 0.0000
# 2 51.6594 63.4149 39.9273 0.0000 0.0000 0.0000
# 3 75.4243 39.9273 106.3115 0.0000 0.0000 0.0000
# 4 0.0000 0.0000 0.0000 26.6014 0.0000 0.0000
# 5 0.0000 0.0000 0.0000 0.0000 30.6016 0.0000
# 6 0.0000 0.0000 0.0000 0.0000 0.0000 15.3951
#
#
#
# Elastic Compliance Matrix: (Units=1/GPa)
#
#
# Indices 1 2 3 4 5 6 
#
# 1 0.015382 -0.007412 -0.008129 0.000000 0.000000 0.000000
# 2 -0.007412 0.024225 -0.003839 0.000000 0.000000 0.000000
# 3 -0.008129 -0.003839 0.016616 0.000000 0.000000 0.000000
# 4 0.000000 0.000000 0.000000 0.037592 0.000000 0.000000
# 5 0.000000 0.000000 0.000000 0.000000 0.032678 0.000000
# 6 0.000000 0.000000 0.000000 0.000000 0.000000 0.064956
#
#
# Mechanical properties :
#
#
# Convention : Reuss Voigt Hill
#
# Bulk Modulus (GPa) = 57.27107 70.39036 63.83072
# Shear Modulus (GPa) = 21.18374 23.35164 22.26769
#
# Velocity S-wave (km/s) = 3.41568 3.58620 3.50198
# Velocity P-wave (km/s) = 6.86277 7.47763 7.17679
#
# Compressibility (1/GPa) = 0.01746082
#
# Stress axis : x y z
#
# Youngs Moduli (GPa) = 65.01049 41.28012 60.18429
#
# Poissons Ratio (x) = 0.30598 0.48925
# Poissons Ratio (y) = 0.48188 0.23106
# Poissons Ratio (z) = 0.52849 0.15848
#
# Static dielectric constant tensor:
#      x y z
#    x 3.329100 0.000000 0.000000 
#    y 0.000000 3.215780 0.000000 
#    z 0.000000 0.000000 3.366430 
# 
# 
# High freq. dielectric constant tensor:
#      x y z
#    x 1.712860 0.000000 0.000000 
#    y 0.000000 1.691720 0.000000 
#    z 0.000000 0.000000 1.698970 
# 
# From -- ./inp_files/33797.got.cif
#   From: 2010.03.12/outbox.cif.g09.slc.cpg/sg51_17_cif.got.tgz:33797.got - 2010.04.16 13:43:02.
