data_PCOD8211832
_publ_section_title
;
Structure prediction by ZEFSAII (Michael W. Deem and Ramdas Pophale) SiO2 
 PCOD8211832
Probable space group: P M M A
;
_chemical_formula_sum "Si O2"
_cell_formula_units_Z 64
_cell_length_a 14.347410
_cell_length_b 8.756146
_cell_length_c 24.620966
_cell_angle_alpha 90.000000
_cell_angle_beta 90.000000
_cell_angle_gamma 90.000000
_cell_volume 3093.083127
_symmetry_space_group_name_H-M "P M M A"
_symmetry_group_IT_number 51
_symmetry_cell_setting 'orthorhombic'
loop_
_space_group_symop_operation_xyz
x,y,z
1/2-x,-y,z
1/2+x,-y,-z
-x,y,-z
-x,-y,-z
1/2+x,y,-z
1/2-x,y,z
x,-y,z
loop_
_atom_site_type_symbol
_atom_site_label
_atom_site_fract_x
_atom_site_fract_y
_atom_site_fract_z
Si Si1 0.961292 0.324406 0.866700
Si Si2 0.458948 0.821498 0.240721
Si Si3 0.991288 0.320833 0.560109
Si Si4 0.855041 0.675967 0.075872
Si Si5 0.140897 0.826404 0.036135
Si Si6 0.852430 0.678077 0.260556
Si Si7 0.642943 0.318438 0.654789
Si Si8 0.647375 0.171032 0.376538
O O1 0.943559 0.500000 0.852443
O O2 0.915265 0.227035 0.817238
O O3 0.909951 0.283709 0.922046
O O4 0.072515 0.293464 0.875084
O O5 0.565449 0.767960 0.230887
O O6 0.409592 0.743258 0.292019
O O7 0.450958 0.000000 0.249952
O O8 0.977731 0.500000 0.554700
O O9 0.908221 0.258096 0.599566
O O10 0.000000 0.246430 0.500000
O O11 0.089505 0.280359 0.585344
O O12 0.750000 0.717570 0.095597
O O13 0.859971 0.500000 0.057395
O O14 0.885722 0.778295 0.024838
O O15 0.250000 0.806847 0.045526
O O16 0.108200 0.000000 0.045266
O O17 0.750000 0.701544 0.232924
O O18 0.878374 0.500000 0.262678
O O19 0.848491 0.746371 0.319841
O O20 0.750000 0.260764 0.653997
O O21 0.637991 0.500000 0.657455
O O22 0.750000 0.159165 0.402038
O O23 0.604035 0.000000 0.370817
#
# Coordination Sequence:
#
# PCOD8211832 Si02
#       8
#     8   8   8   8   8   8   8   8
#     4  11  23  38  59  86 117 156 201 248 298 355
#     4  12  25  40  60  87 120 157 199 251 305 359
#     4  10  21  37  61  92 123 156 197 246 296 351
#     4   9  19  37  60  86 117 154 195 239 291 355
#     4  10  21  37  58  85 118 155 196 246 303 358
#     4  10  20  36  60  86 113 149 191 235 287 350
#     4  10  22  42  65  87 117 160 206 249 295 352
#     4  10  20  34  55  85 119 153 188 231 287 348
#
# _framework density 20.691327999999999
#
# number of rings (size 3 to 8) (size 9 to 14) (size 15 to 20)
#    0.000    1.750    1.250    3.000    0.000    6.750 
#    0.000    2.500    0.000    0.000    0.000    0.000 
#    0.000    0.000    0.000    0.000    0.000    0.000 
#
# Total GULP energy -793283.411774 kJ/mol
# GULP energy per Si atom -12395.053309 kJ/mol
# Density = 2.064423 g / cm^3
# Si number density = 20.691328 Si / 1000 Ang^3
#
#
#
# Elastic Constant Matrix: (Units=GPa)
#
#
# Indices 1 2 3 4 5 6 
#
# 1 81.5652 25.7383 43.3288 0.0000 0.0000 0.0000
# 2 25.7383 47.9909 26.1774 0.0000 0.0000 0.0000
# 3 43.3288 26.1774 105.7575 0.0000 0.0000 0.0000
# 4 0.0000 0.0000 0.0000 27.8239 0.0000 0.0000
# 5 0.0000 0.0000 0.0000 0.0000 15.7481 0.0000
# 6 0.0000 0.0000 0.0000 0.0000 0.0000 22.3643
#
#
#
# Elastic Compliance Matrix: (Units=1/GPa)
#
#
# Indices 1 2 3 4 5 6 
#
# 1 0.017128 -0.006195 -0.005484 0.000000 0.000000 0.000000
# 2 -0.006195 0.026330 -0.003979 0.000000 0.000000 0.000000
# 3 -0.005484 -0.003979 0.012687 0.000000 0.000000 0.000000
# 4 0.000000 0.000000 0.000000 0.035940 0.000000 0.000000
# 5 0.000000 0.000000 0.000000 0.000000 0.063500 0.000000
# 6 0.000000 0.000000 0.000000 0.000000 0.000000 0.044714
#
#
# Mechanical properties :
#
#
# Convention : Reuss Voigt Hill
#
# Bulk Modulus (GPa) = 40.27474 47.31141 43.79307
# Shear Modulus (GPa) = 20.84264 22.52519 21.68391
#
# Velocity S-wave (km/s) = 3.17726 3.30302 3.24075
# Velocity P-wave (km/s) = 5.74167 6.12058 5.93415
#
# Compressibility (1/GPa) = 0.02482946
#
# Stress axis : x y z
#
# Youngs Moduli (GPa) = 58.38343 37.97919 78.81840
#
# Poissons Ratio (x) = 0.23527 0.43225
# Poissons Ratio (y) = 0.36167 0.31364
# Poissons Ratio (z) = 0.32018 0.15113
#
# Static dielectric constant tensor:
#      x y z
#    x 4.191910 0.000000 0.000000 
#    y 0.000000 3.697010 0.000000 
#    z 0.000000 0.000000 3.704770 
# 
# 
# High freq. dielectric constant tensor:
#      x y z
#    x 1.812360 0.000000 0.000000 
#    y 0.000000 1.804280 0.000000 
#    z 0.000000 0.000000 1.808730 
# 
# From -- ./inp_files/35696.got.cif
#   From: 2010.03.12/outbox.cif.g09.slc.cpg/sg51_18_cif.got.tgz:35696.got - 2010.04.16 13:43:02.
