data_PCOD8211462
_publ_section_title
;
Structure prediction by ZEFSAII (Michael W. Deem and Ramdas Pophale) SiO2 
 PCOD8211462
Probable space group: P M M A
;
_chemical_formula_sum "Si O2"
_cell_formula_units_Z 64
_cell_length_a 13.765183
_cell_length_b 9.192362
_cell_length_c 27.325698
_cell_angle_alpha 90.000000
_cell_angle_beta 90.000000
_cell_angle_gamma 90.000000
_cell_volume 3457.644767
_symmetry_space_group_name_H-M "P M M A"
_symmetry_group_IT_number 51
_symmetry_cell_setting 'orthorhombic'
loop_
_space_group_symop_operation_xyz
x,y,z
1/2-x,-y,z
1/2+x,-y,-z
-x,y,-z
-x,-y,-z
1/2+x,y,-z
1/2-x,y,z
x,-y,z
loop_
_atom_site_type_symbol
_atom_site_label
_atom_site_fract_x
_atom_site_fract_y
_atom_site_fract_z
Si Si1 0.862853 0.171844 0.858248
Si Si2 0.358912 0.338044 0.884853
Si Si3 0.861701 0.834304 0.482006
Si Si4 0.499211 0.828808 0.054558
Si Si5 0.638996 0.329065 0.580196
Si Si6 0.531989 0.831424 0.383845
Si Si7 0.138062 0.170272 0.714740
Si Si8 0.009108 0.334178 0.792220
O O1 0.750000 0.215403 0.859728
O O2 0.910594 0.223744 0.910140
O O3 0.912850 0.251919 0.812091
O O4 0.877615 0.000000 0.851146
O O5 0.250000 0.291419 0.874511
O O6 0.367942 0.500000 0.907364
O O7 0.400005 0.221860 0.922601
O O8 0.410534 0.330024 0.833458
O O9 0.750000 0.817768 0.468386
O O10 0.891069 0.734261 0.527434
O O11 0.919238 0.782436 0.434447
O O12 0.887631 0.000000 0.496240
O O13 0.497343 0.000000 0.050935
O O14 0.500000 0.760745 0.000000
O O15 0.750000 0.287087 0.593201
O O16 0.624133 0.500000 0.579073
O O17 0.568417 0.259446 0.621315
O O18 0.608039 0.796446 0.340956
O O19 0.504001 0.000000 0.383353
O O20 0.250000 0.223122 0.722735
O O21 0.058381 0.254826 0.746587
O O22 0.130281 0.000000 0.727205
O O23 0.980983 0.500000 0.778232
#
# Coordination Sequence:
#
# PCOD8211462 Si02
#       8
#     8   8   8   8   8   8   8   8
#     4   9  18  34  55  77 104 140 181 222 261 303
#     4   9  18  32  49  70  98 132 168 205 245 293
#     4   9  17  31  52  76 102 133 168 205 247 298
#     4   9  18  31  48  74 106 137 170 210 256 303
#     4  10  21  35  50  71 101 136 173 212 252 294
#     4  10  20  34  53  77 103 132 168 208 251 303
#     4  10  21  37  57  81 108 135 164 204 257 315
#     4  10  20  35  55  78 104 133 169 212 257 307
#
# _framework density 18.509710999999999
#
# number of rings (size 3 to 8) (size 9 to 14) (size 15 to 20)
#    0.000    2.500    0.000    1.875    0.000    7.250 
#    0.000    1.875    0.000    3.000    0.000    0.000 
#    0.000    0.000    0.000    0.000    0.000    0.000 
#
# Total GULP energy -793393.430389 kJ/mol
# GULP energy per Si atom -12396.772350 kJ/mol
# Density = 1.846758 g / cm^3
# Si number density = 18.509711 Si / 1000 Ang^3
#
#
#
# Elastic Constant Matrix: (Units=GPa)
#
#
# Indices 1 2 3 4 5 6 
#
# 1 123.5124 42.2207 46.3449 0.0000 0.0000 0.0000
# 2 42.2207 48.2474 36.1052 0.0000 0.0000 0.0000
# 3 46.3449 36.1052 60.3575 0.0000 0.0000 0.0000
# 4 0.0000 0.0000 0.0000 14.5032 0.0000 0.0000
# 5 0.0000 0.0000 0.0000 0.0000 18.8682 0.0000
# 6 0.0000 0.0000 0.0000 0.0000 0.0000 34.8449
#
#
#
# Elastic Compliance Matrix: (Units=1/GPa)
#
#
# Indices 1 2 3 4 5 6 
#
# 1 0.012494 -0.006797 -0.005527 0.000000 0.000000 0.000000
# 2 -0.006797 0.041221 -0.019439 0.000000 0.000000 0.000000
# 3 -0.005527 -0.019439 0.032441 0.000000 0.000000 0.000000
# 4 0.000000 0.000000 0.000000 0.068950 0.000000 0.000000
# 5 0.000000 0.000000 0.000000 0.000000 0.052999 0.000000
# 6 0.000000 0.000000 0.000000 0.000000 0.000000 0.028699
#
#
# Mechanical properties :
#
#
# Convention : Reuss Voigt Hill
#
# Bulk Modulus (GPa) = 44.19196 53.49544 48.84370
# Shear Modulus (GPa) = 16.24044 20.80637 18.52341
#
# Velocity S-wave (km/s) = 2.96531 3.35637 3.16688
# Velocity P-wave (km/s) = 5.97084 6.63206 6.31012
#
# Compressibility (1/GPa) = 0.02262855
#
# Stress axis : x y z
#
# Youngs Moduli (GPa) = 80.04001 24.25930 30.82561
#
# Poissons Ratio (x) = 0.16488 0.17039
# Poissons Ratio (y) = 0.54401 0.59923
# Poissons Ratio (z) = 0.44242 0.47158
#
# Static dielectric constant tensor:
#      x y z
#    x 3.559620 0.000000 0.000000 
#    y 0.000000 3.403840 0.000000 
#    z 0.000000 0.000000 3.420360 
# 
# 
# High freq. dielectric constant tensor:
#      x y z
#    x 1.726580 0.000000 0.000000 
#    y 0.000000 1.710350 0.000000 
#    z 0.000000 0.000000 1.705170 
# 
# From -- ./inp_files/37836.got.cif
#   From: 2010.03.12/outbox.cif.g09.slc.cpg/sg51_19_cif.got.tgz:37836.got - 2010.04.16 13:43:02.
