data_PCOD8211301
_publ_section_title
;
Structure prediction by ZEFSAII (Michael W. Deem and Ramdas Pophale) SiO2 
 PCOD8211301
Probable space group: P M M A
;
_chemical_formula_sum "Si O2"
_cell_formula_units_Z 64
_cell_length_a 20.874205
_cell_length_b 9.931956
_cell_length_c 16.590638
_cell_angle_alpha 90.000000
_cell_angle_beta 90.000000
_cell_angle_gamma 90.000000
_cell_volume 3439.599035
_symmetry_space_group_name_H-M "P M M A"
_symmetry_group_IT_number 51
_symmetry_cell_setting 'orthorhombic'
loop_
_space_group_symop_operation_xyz
x,y,z
1/2-x,-y,z
1/2+x,-y,-z
-x,y,-z
-x,-y,-z
1/2+x,y,-z
1/2-x,y,z
x,-y,z
loop_
_atom_site_type_symbol
_atom_site_label
_atom_site_fract_x
_atom_site_fract_y
_atom_site_fract_z
Si Si1 0.394819 0.346016 0.805090
Si Si2 0.178274 0.148221 0.711381
Si Si3 0.929263 0.659108 0.015485
Si Si4 0.321165 0.845886 0.422580
Si Si5 0.493333 0.653707 0.663553
Si Si6 0.177435 0.340563 0.108096
Si Si7 0.137882 0.343687 0.287569
Si Si8 0.585949 0.845199 0.435611
O O1 0.372801 0.500000 0.803091
O O2 0.334240 0.255989 0.781211
O O3 0.452258 0.317034 0.743374
O O4 0.414455 0.300645 0.893524
O O5 0.250000 0.161780 0.680845
O O6 0.136619 0.177618 0.633939
O O7 0.163814 0.000000 0.746655
O O8 0.931766 0.500000 0.002122
O O9 0.873824 0.719196 0.956593
O O10 0.000000 0.720553 0.000000
O O11 0.250000 0.835532 0.462251
O O12 0.320086 0.749066 0.345538
O O13 0.377392 0.798957 0.483542
O O14 0.334271 0.000000 0.396191
O O15 0.484523 0.500000 0.634428
O O16 0.564537 0.684975 0.691459
O O17 0.474447 0.749999 0.587540
O O18 0.250000 0.284492 0.092973
O O19 0.179077 0.500000 0.099868
O O20 0.152956 0.298961 0.196545
O O21 0.156058 0.500000 0.300947
O O22 0.562319 0.000000 0.441543
#
# Coordination Sequence:
#
# PCOD8211301 Si02
#       8
#     8   8   8   8   8   8   8   8
#     4   9  17  29  47  72  99 125 157 198 241 285
#     4   9  17  30  48  68  93 127 161 191 231 287
#     4   9  16  27  46  71  98 128 161 199 245 293
#     4  10  21  36  53  73  97 125 161 206 250 291
#     4   9  18  32  49  72 102 131 159 197 245 292
#     4   9  17  29  46  69  96 127 166 208 245 287
#     4  10  20  34  52  72  97 130 166 203 245 295
#     4   9  18  33  52  72  95 126 163 200 240 291
#
# _framework density 18.606819000000002
#
# number of rings (size 3 to 8) (size 9 to 14) (size 15 to 20)
#    0.000    2.750    0.000    1.500    0.000    7.500 
#    0.000    3.750    0.000    3.375    0.000    1.750 
#    0.000    0.000    0.000    0.000    0.000    0.000 
#
# Total GULP energy -793280.389559 kJ/mol
# GULP energy per Si atom -12395.006087 kJ/mol
# Density = 1.856447 g / cm^3
# Si number density = 18.606819 Si / 1000 Ang^3
#
#
#
# Elastic Constant Matrix: (Units=GPa)
#
#
# Indices 1 2 3 4 5 6 
#
# 1 97.7256 21.9302 31.7313 0.0000 0.0000 0.0000
# 2 21.9302 44.5643 30.9049 0.0000 0.0000 0.0000
# 3 31.7313 30.9049 83.2504 0.0000 0.0000 0.0000
# 4 0.0000 0.0000 0.0000 16.0159 0.0000 0.0000
# 5 0.0000 0.0000 0.0000 0.0000 22.4424 0.0000
# 6 0.0000 0.0000 0.0000 0.0000 0.0000 9.9913
#
#
#
# Elastic Compliance Matrix: (Units=1/GPa)
#
#
# Indices 1 2 3 4 5 6 
#
# 1 0.012119 -0.003717 -0.003239 0.000000 0.000000 0.000000
# 2 -0.003717 0.031360 -0.010225 0.000000 0.000000 0.000000
# 3 -0.003239 -0.010225 0.017042 0.000000 0.000000 0.000000
# 4 0.000000 0.000000 0.000000 0.062438 0.000000 0.000000
# 5 0.000000 0.000000 0.000000 0.000000 0.044559 0.000000
# 6 0.000000 0.000000 0.000000 0.000000 0.000000 0.100087
#
#
# Mechanical properties :
#
#
# Convention : Reuss Voigt Hill
#
# Bulk Modulus (GPa) = 38.22893 43.85257 41.04075
# Shear Modulus (GPa) = 16.09344 19.08817 17.59081
#
# Velocity S-wave (km/s) = 2.94415 3.20639 3.07806
# Velocity P-wave (km/s) = 5.66988 6.10959 5.89384
#
# Compressibility (1/GPa) = 0.02615820
#
# Stress axis : x y z
#
# Youngs Moduli (GPa) = 82.51743 31.88826 58.67767
#
# Poissons Ratio (x) = 0.11854 0.19006
# Poissons Ratio (y) = 0.30674 0.59996
# Poissons Ratio (z) = 0.26728 0.32605
#
# Static dielectric constant tensor:
#      x y z
#    x 3.658060 0.000000 0.000000 
#    y 0.000000 3.243830 0.000000 
#    z 0.000000 0.000000 3.459030 
# 
# 
# High freq. dielectric constant tensor:
#      x y z
#    x 1.734680 0.000000 0.000000 
#    y 0.000000 1.686450 0.000000 
#    z 0.000000 0.000000 1.720230 
# 
# From -- ./inp_files/30629.got.cif
#   From: 2010.03.12/outbox.cif.g09.slc.cpg/sg51_16_cif.got.tgz:30629.got - 2010.04.16 13:43:02.
