data_PCOD8211022
_publ_section_title
;
Structure prediction by ZEFSAII (Michael W. Deem and Ramdas Pophale) SiO2 
 PCOD8211022
Probable space group: P M M A
;
_chemical_formula_sum "Si O2"
_cell_formula_units_Z 56
_cell_length_a 8.953851
_cell_length_b 15.468403
_cell_length_c 20.108968
_cell_angle_alpha 90.000000
_cell_angle_beta 90.000000
_cell_angle_gamma 90.000000
_cell_volume 2785.127775
_symmetry_space_group_name_H-M "P M M A"
_symmetry_group_IT_number 51
_symmetry_cell_setting 'orthorhombic'
loop_
_space_group_symop_operation_xyz
x,y,z
1/2-x,-y,z
1/2+x,-y,-z
-x,y,-z
-x,-y,-z
1/2+x,y,-z
1/2-x,y,z
x,-y,z
loop_
_atom_site_type_symbol
_atom_site_label
_atom_site_fract_x
_atom_site_fract_y
_atom_site_fract_z
Si Si1 0.572365 0.773605 0.931900
Si Si2 0.421768 0.175698 0.698537
Si Si3 0.417209 0.634129 0.747082
Si Si4 0.921172 0.404794 0.400485
Si Si5 0.573381 0.767751 0.566553
Si Si6 0.421285 0.902401 0.183087
Si Si7 0.074271 0.406246 0.122157
O O1 0.750000 0.776180 0.938540
O O2 0.517140 0.837406 0.873397
O O3 0.509378 0.676241 0.917724
O O4 0.500000 0.806778 0.000000
O O5 0.250000 0.155013 0.682202
O O6 0.441556 0.264417 0.737929
O O7 0.510475 0.179192 0.629148
O O8 0.488402 0.103956 0.747787
O O9 0.250000 0.614351 0.772255
O O10 0.449099 0.586547 0.678028
O O11 0.531242 0.598267 0.800761
O O12 0.750000 0.374229 0.413269
O O13 0.951233 0.500000 0.431645
O O14 0.031790 0.334265 0.431304
O O15 0.500000 0.807716 0.500000
O O16 0.750000 0.777850 0.564078
O O17 0.250000 0.879536 0.198872
O O18 0.438733 0.000000 0.156178
O O19 0.250000 0.400602 0.118462
O O20 0.019534 0.500000 0.093266
#
# Coordination Sequence:
#
# PCOD8211022 Si02
#       7
#     8   8   8   8   8   8   8
#     4  10  22  39  57  81 117 155 194 239 289 342
#     4  10  20  36  59  86 116 149 189 235 287 345
#     4   9  17  30  50  76 106 142 185 234 286 338
#     4   9  18  32  48  71 107 147 192 247 300 351
#     4  11  22  36  55  79 111 152 198 242 292 351
#     4  10  21  39  64  92 119 149 187 233 289 351
#     4  10  20  33  51  76 108 148 194 240 286 338
#
# _framework density 20.106797
#
# number of rings (size 3 to 8) (size 9 to 14) (size 15 to 20)
#    0.000    2.143    1.429    3.000    0.000    5.714 
#    0.000    0.000    0.000    0.429    0.000    0.000 
#    0.000    0.000    0.000    0.000    0.000    0.000 
#
# Total GULP energy -694272.039400 kJ/mol
# GULP energy per Si atom -12397.714989 kJ/mol
# Density = 2.006103 g / cm^3
# Si number density = 20.106797 Si / 1000 Ang^3
#
#
#
# Elastic Constant Matrix: (Units=GPa)
#
#
# Indices 1 2 3 4 5 6 
#
# 1 79.7739 29.6228 48.9348 0.0000 0.0000 0.0000
# 2 29.6228 87.1482 43.0654 0.0000 0.0000 0.0000
# 3 48.9348 43.0654 123.6663 0.0000 0.0000 0.0000
# 4 0.0000 0.0000 0.0000 12.9201 0.0000 0.0000
# 5 0.0000 0.0000 0.0000 0.0000 36.1320 0.0000
# 6 0.0000 0.0000 0.0000 0.0000 0.0000 17.7629
#
#
#
# Elastic Compliance Matrix: (Units=1/GPa)
#
#
# Indices 1 2 3 4 5 6 
#
# 1 0.017177 -0.002995 -0.005754 0.000000 0.000000 0.000000
# 2 -0.002995 0.014382 -0.003823 0.000000 0.000000 0.000000
# 3 -0.005754 -0.003823 0.011694 0.000000 0.000000 0.000000
# 4 0.000000 0.000000 0.000000 0.077399 0.000000 0.000000
# 5 0.000000 0.000000 0.000000 0.000000 0.027676 0.000000
# 6 0.000000 0.000000 0.000000 0.000000 0.000000 0.056297
#
#
# Mechanical properties :
#
#
# Convention : Reuss Voigt Hill
#
# Bulk Modulus (GPa) = 55.22131 59.31493 57.26812
# Shear Modulus (GPa) = 21.20376 24.62736 22.91556
#
# Velocity S-wave (km/s) = 3.25092 3.50355 3.37960
# Velocity P-wave (km/s) = 6.45096 6.77720 6.61609
#
# Compressibility (1/GPa) = 0.01810895
#
# Stress axis : x y z
#
# Youngs Moduli (GPa) = 58.21633 69.53072 85.51036
#
# Poissons Ratio (x) = 0.20827 0.49202
# Poissons Ratio (y) = 0.17438 0.32692
# Poissons Ratio (z) = 0.33497 0.26583
#
# Static dielectric constant tensor:
#      x y z
#    x 3.482360 0.000000 0.000000 
#    y 0.000000 3.720900 0.000000 
#    z 0.000000 0.000000 3.556830 
# 
# 
# High freq. dielectric constant tensor:
#      x y z
#    x 1.773740 0.000000 0.000000 
#    y 0.000000 1.770890 0.000000 
#    z 0.000000 0.000000 1.781120 
# 
# From -- ./inp_files/31978.got.cif
#   From: 2010.03.12/outbox.cif.g09.slc.cpg/sg51_16_cif.got.tgz:31978.got - 2010.04.16 13:43:02.
