data_PCOD8211855
_publ_section_title
;
Structure prediction by ZEFSAII (Michael W. Deem and Ramdas Pophale) SiO2 
 PCOD8211855
Probable space group: P M M A
;
_chemical_formula_sum "Si O2"
_cell_formula_units_Z 56
_cell_length_a 18.839591
_cell_length_b 9.514336
_cell_length_c 16.350222
_cell_angle_alpha 90.000000
_cell_angle_beta 90.000000
_cell_angle_gamma 90.000000
_cell_volume 2930.715144
_symmetry_space_group_name_H-M "P M M A"
_symmetry_group_IT_number 51
_symmetry_cell_setting 'orthorhombic'
loop_
_space_group_symop_operation_xyz
x,y,z
1/2-x,-y,z
1/2+x,-y,-z
-x,y,-z
-x,-y,-z
1/2+x,y,-z
1/2-x,y,z
x,-y,z
loop_
_atom_site_type_symbol
_atom_site_label
_atom_site_fract_x
_atom_site_fract_y
_atom_site_fract_z
Si Si1 0.166838 0.161581 0.477776
Si Si2 0.417622 0.336107 0.166005
Si Si3 0.833308 0.658334 0.676374
Si Si4 0.559950 0.661773 0.435018
Si Si5 0.582248 0.163352 0.989018
Si Si6 0.832444 0.835215 0.150159
Si Si7 0.437302 0.338505 0.751487
O O1 0.250000 0.177238 0.493084
O O2 0.142300 0.237279 0.394678
O O3 0.128293 0.239688 0.552230
O O4 0.143311 0.000000 0.473191
O O5 0.409246 0.500000 0.146704
O O6 0.368263 0.288822 0.240525
O O7 0.389973 0.250200 0.088329
O O8 0.498586 0.297590 0.188253
O O9 0.750000 0.662030 0.689246
O O10 0.859453 0.500000 0.654373
O O11 0.500000 0.707837 0.500000
O O12 0.581472 0.500000 0.449582
O O13 0.535815 0.687060 0.341496
O O14 0.593449 0.000000 0.970495
O O15 0.500000 0.200933 0.000000
O O16 0.628444 0.210812 0.066767
O O17 0.750000 0.792292 0.144987
O O18 0.869121 0.755462 0.226001
O O19 0.841657 0.000000 0.165861
O O20 0.415060 0.500000 0.763106
#
# Coordination Sequence:
#
# PCOD8211855 Si02
#       7
#     8   8   8   8   8   8   8
#     4  10  21  36  54  79 111 146 185 229 278 332
#     4  10  20  34  56  84 112 142 180 224 274 326
#     4   9  18  34  55  79 110 147 184 224 274 331
#     4  10  21  38  59  82 111 146 188 234 281 334
#     4  10  20  36  57  80 107 143 184 222 267 330
#     4  10  22  40  59  80 110 148 187 228 276 328
#     4  10  21  36  56  82 110 143 182 227 275 326
#
# _framework density 19.107963000000002
#
# number of rings (size 3 to 8) (size 9 to 14) (size 15 to 20)
#    0.000    2.143    1.429    1.286    0.000    6.857 
#    0.000    4.286    0.000    0.000    0.000    0.000 
#    0.000    0.000    0.000    0.000    0.000    0.000 
#
# Total GULP energy -694556.504160 kJ/mol
# GULP energy per Si atom -12402.794717 kJ/mol
# Density = 1.906447 g / cm^3
# Si number density = 19.107963 Si / 1000 Ang^3
#
#
#
# Elastic Constant Matrix: (Units=GPa)
#
#
# Indices 1 2 3 4 5 6 
#
# 1 58.5039 29.5605 38.0188 0.0000 0.0000 0.0000
# 2 29.5605 68.1448 43.6998 0.0000 0.0000 0.0000
# 3 38.0188 43.6998 101.8732 0.0000 0.0000 0.0000
# 4 0.0000 0.0000 0.0000 28.8159 0.0000 0.0000
# 5 0.0000 0.0000 0.0000 0.0000 36.8337 0.0000
# 6 0.0000 0.0000 0.0000 0.0000 0.0000 26.4003
#
#
#
# Elastic Compliance Matrix: (Units=1/GPa)
#
#
# Indices 1 2 3 4 5 6 
#
# 1 0.024534 -0.006581 -0.006333 0.000000 0.000000 0.000000
# 2 -0.006581 0.022009 -0.006985 0.000000 0.000000 0.000000
# 3 -0.006333 -0.006985 0.015176 0.000000 0.000000 0.000000
# 4 0.000000 0.000000 0.000000 0.034703 0.000000 0.000000
# 5 0.000000 0.000000 0.000000 0.000000 0.027149 0.000000
# 6 0.000000 0.000000 0.000000 0.000000 0.000000 0.037878
#
#
# Mechanical properties :
#
#
# Convention : Reuss Voigt Hill
#
# Bulk Modulus (GPa) = 45.61982 50.12001 47.86991
# Shear Modulus (GPa) = 23.97472 26.22618 25.10045
#
# Velocity S-wave (km/s) = 3.54601 3.70878 3.62831
# Velocity P-wave (km/s) = 6.37905 6.68034 6.53143
#
# Compressibility (1/GPa) = 0.02192030
#
# Stress axis : x y z
#
# Youngs Moduli (GPa) = 40.76042 45.43644 65.89487
#
# Poissons Ratio (x) = 0.29903 0.41729
# Poissons Ratio (y) = 0.26826 0.46026
# Poissons Ratio (z) = 0.25812 0.31736
#
# Static dielectric constant tensor:
#      x y z
#    x 3.466140 0.000000 0.000000 
#    y 0.000000 3.435960 0.000000 
#    z 0.000000 0.000000 3.471980 
# 
# 
# High freq. dielectric constant tensor:
#      x y z
#    x 1.740440 0.000000 0.000000 
#    y 0.000000 1.736840 0.000000 
#    z 0.000000 0.000000 1.745880 
# 
# From -- ./inp_files/25637.got.cif
#   From: 2010.03.12/outbox.cif.g09.slc.cpg/sg51_13_cif.got.tgz:25637.got - 2010.04.16 13:43:02.
