data_PCOD8211105
_publ_section_title
;
Structure prediction by ZEFSAII (Michael W. Deem and Ramdas Pophale) SiO2 
 PCOD8211105
Probable space group: P M M A
;
_chemical_formula_sum "Si O2"
_cell_formula_units_Z 64
_cell_length_a 18.318038
_cell_length_b 9.329462
_cell_length_c 21.014534
_cell_angle_alpha 90.000000
_cell_angle_beta 90.000000
_cell_angle_gamma 90.000000
_cell_volume 3591.330052
_symmetry_space_group_name_H-M "P M M A"
_symmetry_group_IT_number 51
_symmetry_cell_setting 'orthorhombic'
loop_
_space_group_symop_operation_xyz
x,y,z
1/2-x,-y,z
1/2+x,-y,-z
-x,y,-z
-x,-y,-z
1/2+x,y,-z
1/2-x,y,z
x,-y,z
loop_
_atom_site_type_symbol
_atom_site_label
_atom_site_fract_x
_atom_site_fract_y
_atom_site_fract_z
Si Si1 0.667123 0.165842 0.382706
Si Si2 0.831900 0.664947 0.768816
Si Si3 0.834452 0.833826 0.894061
Si Si4 0.399124 0.832232 0.752469
Si Si5 0.334373 0.664634 0.869009
Si Si6 0.413913 0.336730 0.998171
Si Si7 0.027001 0.334685 0.303490
Si Si8 0.038618 0.667895 0.563516
O O1 0.750000 0.211143 0.396247
O O2 0.649395 0.200324 0.309477
O O3 0.616622 0.256263 0.429966
O O4 0.653465 0.000000 0.397351
O O5 0.750000 0.705704 0.745821
O O6 0.835429 0.500000 0.790448
O O7 0.856778 0.758994 0.828415
O O8 0.887810 0.694995 0.711111
O O9 0.750000 0.806543 0.909403
O O10 0.853250 0.000000 0.887448
O O11 0.880944 0.769271 0.950609
O O12 0.356705 0.766591 0.811613
O O13 0.478169 0.759749 0.744055
O O14 0.410471 0.000000 0.764112
O O15 0.250000 0.691134 0.886518
O O16 0.348003 0.500000 0.849052
O O17 0.383489 0.707003 0.929291
O O18 0.391183 0.500000 0.014258
O O19 0.500000 0.317246 0.000000
O O20 0.006270 0.500000 0.291448
O O21 0.013005 0.292330 0.376754
O O22 0.053559 0.500000 0.558653
O O23 0.000000 0.726059 0.500000
#
# Coordination Sequence:
#
# PCOD8211105 Si02
#       8
#     8   8   8   8   8   8   8   8
#     4   9  18  33  52  75 104 138 177 215 251 300
#     4   9  18  33  54  76  98 131 174 215 256 305
#     4  10  21  36  54  76 102 131 165 211 264 311
#     4  10  20  33  52  78 106 136 169 210 259 308
#     4  10  21  36  53  74 102 135 170 210 256 306
#     4  10  22  38  55  75 100 134 174 213 253 304
#     4   9  18  33  53  76 105 138 172 211 253 304
#     4   9  18  33  52  77 108 140 174 212 256 303
#
# _framework density 17.820696999999999
#
# number of rings (size 3 to 8) (size 9 to 14) (size 15 to 20)
#    0.000    2.500    0.000    1.500    1.750    4.250 
#    0.000    0.625    0.000    2.250    0.000    1.750 
#    0.000    0.000    0.000    0.000    0.000    0.000 
#
# Total GULP energy -793762.998043 kJ/mol
# GULP energy per Si atom -12402.546844 kJ/mol
# Density = 1.778014 g / cm^3
# Si number density = 17.820697 Si / 1000 Ang^3
#
#
#
# Elastic Constant Matrix: (Units=GPa)
#
#
# Indices 1 2 3 4 5 6 
#
# 1 119.8995 53.2440 72.6417 0.0000 0.0000 0.0000
# 2 53.2440 71.3870 49.6762 0.0000 0.0000 0.0000
# 3 72.6417 49.6762 101.6628 0.0000 0.0000 0.0000
# 4 0.0000 0.0000 0.0000 19.2716 0.0000 0.0000
# 5 0.0000 0.0000 0.0000 0.0000 28.9403 0.0000
# 6 0.0000 0.0000 0.0000 0.0000 0.0000 -210.1170
#
#
#
# Elastic Compliance Matrix: (Units=1/GPa)
#
#
# Indices 1 2 3 4 5 6 
#
# 1 0.016311 -0.006145 -0.008652 0.000000 0.000000 0.000000
# 2 -0.006145 0.023540 -0.007112 0.000000 0.000000 0.000000
# 3 -0.008652 -0.007112 0.019494 0.000000 0.000000 0.000000
# 4 0.000000 0.000000 0.000000 0.051890 0.000000 0.000000
# 5 0.000000 0.000000 0.000000 0.000000 0.034554 0.000000
# 6 0.000000 0.000000 0.000000 0.000000 0.000000 -0.004759
#
#
# Mechanical properties :
#
#
# Convention : Reuss Voigt Hill
#
# Bulk Modulus (GPa) = 64.40289 71.56366 67.98328
# Shear Modulus (GPa) = 26.31252 -24.55520 0.87866
#
# Velocity S-wave (km/s) = 3.84671 -3.71604 0.70294
# Velocity P-wave (km/s) = 7.47980 4.67256 6.23620
#
# Compressibility (1/GPa) = 0.01552725
#
# Stress axis : x y z
#
# Youngs Moduli (GPa) = 61.30819 42.48051 51.29785
#
# Poissons Ratio (x) = 0.26103 0.44384
# Poissons Ratio (y) = 0.37672 0.36483
# Poissons Ratio (z) = 0.53046 0.30212
#
# Static dielectric constant tensor:
#      x y z
#    x 3.394150 0.000000 0.000000 
#    y 0.000000 3.324600 0.000000 
#    z 0.000000 0.000000 3.233630 
# 
# 
# High freq. dielectric constant tensor:
#      x y z
#    x 1.695550 0.000000 0.000000 
#    y 0.000000 1.689410 0.000000 
#    z 0.000000 0.000000 1.677980 
# 
# From -- ./inp_files/33983.got.cif
#   From: 2010.03.12/outbox.cif.g09.slc.cpg/sg51_17_cif.got.tgz:33983.got - 2010.04.16 13:43:02.
