data_PCOD8211207
_publ_section_title
;
Structure prediction by ZEFSAII (Michael W. Deem and Ramdas Pophale) SiO2 
 PCOD8211207
Probable space group: P M M A
;
_chemical_formula_sum "Si O2"
_cell_formula_units_Z 48
_cell_length_a 23.125765
_cell_length_b 9.019364
_cell_length_c 11.275923
_cell_angle_alpha 90.000000
_cell_angle_beta 90.000000
_cell_angle_gamma 90.000000
_cell_volume 2351.928550
_symmetry_space_group_name_H-M "P M M A"
_symmetry_group_IT_number 51
_symmetry_cell_setting 'orthorhombic'
loop_
_space_group_symop_operation_xyz
x,y,z
1/2-x,-y,z
1/2+x,-y,-z
-x,y,-z
-x,-y,-z
1/2+x,y,-z
1/2-x,y,z
x,-y,z
loop_
_atom_site_type_symbol
_atom_site_label
_atom_site_fract_x
_atom_site_fract_y
_atom_site_fract_z
Si Si1 0.365370 0.827264 0.101035
Si Si2 0.591902 0.170901 0.540202
Si Si3 0.480787 0.168588 0.225523
Si Si4 0.316468 0.333081 0.317028
Si Si5 0.911782 0.325029 0.297769
Si Si6 0.683175 0.826414 0.154175
O O1 0.432713 0.789094 0.126903
O O2 0.324427 0.732267 0.185871
O O3 0.353905 0.000000 0.128700
O O4 0.348498 0.784920 0.968231
O O5 0.545125 0.191014 0.643488
O O6 0.653046 0.231712 0.585230
O O7 0.571923 0.263371 0.426837
O O8 0.598625 0.000000 0.503608
O O9 0.536792 0.272644 0.209442
O O10 0.501464 0.000000 0.207075
O O11 0.250000 0.333444 0.351300
O O12 0.341851 0.500000 0.320613
O O13 0.908235 0.500000 0.300228
O O14 0.849783 0.261741 0.257248
O O15 0.750000 0.775693 0.150099
O O16 0.678513 0.000000 0.180580
#
# Coordination Sequence:
#
# PCOD8211207 Si02
#       6
#     8   8   8   8   8   8
#     4   9  19  37  62  88 112 144 189 239 284 329
#     4  10  21  38  60  83 110 149 194 238 283 333
#     4   9  19  37  61  88 115 143 181 232 285 336
#     4  10  20  33  53  84 119 151 184 230 288 343
#     4  12  25  38  56  83 117 154 188 229 282 340
#     4  10  22  41  63  84 110 150 197 238 277 328
#
# _framework density 20.408784000000001
#
# number of rings (size 3 to 8) (size 9 to 14) (size 15 to 20)
#    0.000    2.000    0.000    4.500    0.000    9.667 
#    0.000    3.333    0.000    0.000    0.000    0.000 
#    0.000    0.000    0.000    0.000    0.000    0.000 
#
# Total GULP energy -595339.956391 kJ/mol
# GULP energy per Si atom -12402.915758 kJ/mol
# Density = 2.036233 g / cm^3
# Si number density = 20.408784 Si / 1000 Ang^3
#
#
#
# Elastic Constant Matrix: (Units=GPa)
#
#
# Indices 1 2 3 4 5 6 
#
# 1 106.0996 53.5681 26.9653 0.0000 0.0000 0.0000
# 2 53.5681 101.6961 25.9531 0.0000 0.0000 0.0000
# 3 26.9653 25.9531 47.8677 0.0000 0.0000 0.0000
# 4 0.0000 0.0000 0.0000 13.7582 0.0000 0.0000
# 5 0.0000 0.0000 0.0000 0.0000 18.0288 0.0000
# 6 0.0000 0.0000 0.0000 0.0000 0.0000 28.2050
#
#
#
# Elastic Compliance Matrix: (Units=1/GPa)
#
#
# Indices 1 2 3 4 5 6 
#
# 1 0.013587 -0.006039 -0.004380 0.000000 0.000000 0.000000
# 2 -0.006039 0.014097 -0.004241 0.000000 0.000000 0.000000
# 3 -0.004380 -0.004241 0.025657 0.000000 0.000000 0.000000
# 4 0.000000 0.000000 0.000000 0.072684 0.000000 0.000000
# 5 0.000000 0.000000 0.000000 0.000000 0.055467 0.000000
# 6 0.000000 0.000000 0.000000 0.000000 0.000000 0.035455
#
#
# Mechanical properties :
#
#
# Convention : Reuss Voigt Hill
#
# Bulk Modulus (GPa) = 41.62911 52.07070 46.84990
# Shear Modulus (GPa) = 19.66381 21.94354 20.80368
#
# Velocity S-wave (km/s) = 3.10739 3.28258 3.19619
# Velocity P-wave (km/s) = 5.77204 6.31952 6.05198
#
# Compressibility (1/GPa) = 0.02402165
#
# Stress axis : x y z
#
# Youngs Moduli (GPa) = 73.59751 70.93846 38.97509
#
# Poissons Ratio (x) = 0.42843 0.17070
# Poissons Ratio (y) = 0.44449 0.16529
# Poissons Ratio (z) = 0.32234 0.30084
#
# Static dielectric constant tensor:
#      x y z
#    x 3.742430 0.000000 0.000000 
#    y 0.000000 3.689630 0.000000 
#    z 0.000000 0.000000 3.620980 
# 
# 
# High freq. dielectric constant tensor:
#      x y z
#    x 1.804370 0.000000 0.000000 
#    y 0.000000 1.791420 0.000000 
#    z 0.000000 0.000000 1.789040 
# 
# From -- ./inp_files/18613.got.cif
#   From: 2010.03.12/outbox.cif.g09.slc.cpg/sg51_10_cif.got.tgz:18613.got - 2010.04.16 13:43:02.
