data_PCOD8211291
_publ_section_title
;
Structure prediction by ZEFSAII (Michael W. Deem and Ramdas Pophale) SiO2 
 PCOD8211291
Probable space group: P M M A
;
_chemical_formula_sum "Si O2"
_cell_formula_units_Z 48
_cell_length_a 7.521886
_cell_length_b 9.740731
_cell_length_c 32.391430
_cell_angle_alpha 90.000000
_cell_angle_beta 90.000000
_cell_angle_gamma 90.000000
_cell_volume 2373.276935
_symmetry_space_group_name_H-M "P M M A"
_symmetry_group_IT_number 51
_symmetry_cell_setting 'orthorhombic'
loop_
_space_group_symop_operation_xyz
x,y,z
1/2-x,-y,z
1/2+x,-y,-z
-x,y,-z
-x,-y,-z
1/2+x,y,-z
1/2-x,y,z
x,-y,z
loop_
_atom_site_type_symbol
_atom_site_label
_atom_site_fract_x
_atom_site_fract_y
_atom_site_fract_z
Si Si1 0.460698 0.252121 0.597811
Si Si2 0.750000 0.668280 0.092982
Si Si3 0.543877 0.843664 0.759560
Si Si4 0.454952 0.652793 0.313370
Si Si5 0.042995 0.843010 0.047795
Si Si6 0.541926 0.500000 0.452468
Si Si7 0.750000 0.842930 0.173525
Si Si8 0.541285 0.000000 0.451724
O O1 0.250000 0.250616 0.596462
O O2 0.519994 0.261141 0.644983
O O3 0.544859 0.373273 0.570965
O O4 0.543698 0.124933 0.573392
O O5 0.750000 0.500000 0.091530
O O6 0.573511 0.730123 0.071678
O O7 0.750000 0.724674 0.139368
O O8 0.750000 0.813583 0.770321
O O9 0.466727 0.742930 0.724091
O O10 0.428262 0.818694 0.800206
O O11 0.520282 0.000000 0.743782
O O12 0.250000 0.632731 0.304499
O O13 0.544843 0.500000 0.315814
O O14 0.250000 0.811388 0.056312
O O15 0.997194 0.000000 0.061792
O O16 0.000000 0.826662 0.000000
O O17 0.750000 0.500000 0.445640
O O18 0.500000 0.500000 0.500000
O O19 0.750000 0.000000 0.155897
O O20 0.500000 0.000000 0.500000
O O21 0.750000 0.000000 0.446551
#
# Coordination Sequence:
#
# PCOD8211291 Si02
#       8
#     8   4   8   8   8   4   4   4
#     4  10  21  36  52  77 106 136 175 220 267 327
#     4  12  26  40  60  96 142 180 222 280 338 412
#     4   9  20  39  62  89 118 149 195 256 307 364
#     4  10  21  36  55  82 112 141 178 223 285 350
#     4  10  20  39  67  95 128 177 236 290 338 390
#     4  10  20  34  52  72 100 136 176 214 260 320
#     4  10  22  42  64  90 120 166 222 258 318 382
#     4  10  22  38  54  76 104 138 176 220 268 322
#
# _framework density 20.225197999999999
#
# number of rings (size 3 to 8) (size 9 to 14) (size 15 to 20)
#    0.000    2.000    1.667    1.250    2.333    3.333 
#    0.000    1.667    0.000    0.000    0.000    0.000 
#    0.000    0.000    0.000    0.000    0.000    0.000 
#
# Total GULP energy -594840.954092 kJ/mol
# GULP energy per Si atom -12392.519877 kJ/mol
# Density = 2.017916 g / cm^3
# Si number density = 20.225198 Si / 1000 Ang^3
#
#
#
# Elastic Constant Matrix: (Units=GPa)
#
#
# Indices 1 2 3 4 5 6 
#
# 1 79.3628 47.5992 39.3902 0.0000 0.0000 0.0000
# 2 47.5992 177.6385 86.6401 0.0000 0.0000 0.0000
# 3 39.3902 86.6401 133.2922 0.0000 0.0000 0.0000
# 4 0.0000 0.0000 0.0000 40.1434 0.0000 0.0000
# 5 0.0000 0.0000 0.0000 0.0000 29.3454 0.0000
# 6 0.0000 0.0000 0.0000 0.0000 0.0000 0.3567
#
#
#
# Elastic Compliance Matrix: (Units=1/GPa)
#
#
# Indices 1 2 3 4 5 6 
#
# 1 0.015690 -0.002845 -0.002788 0.000000 0.000000 0.000000
# 2 -0.002845 0.008758 -0.004852 0.000000 0.000000 0.000000
# 3 -0.002788 -0.004852 0.011480 0.000000 0.000000 0.000000
# 4 0.000000 0.000000 0.000000 0.024911 0.000000 0.000000
# 5 0.000000 0.000000 0.000000 0.000000 0.034077 0.000000
# 6 0.000000 0.000000 0.000000 0.000000 0.000000 2.803617
#
#
# Mechanical properties :
#
#
# Convention : Reuss Voigt Hill
#
# Bulk Modulus (GPa) = 66.84791 81.95029 74.39910
# Shear Modulus (GPa) = 1.70970 28.41336 15.06153
#
# Velocity S-wave (km/s) = 0.92042 3.75220 2.73186
# Velocity P-wave (km/s) = 5.85262 7.70577 6.84222
#
# Compressibility (1/GPa) = 0.01495933
#
# Stress axis : x y z
#
# Youngs Moduli (GPa) = 63.73456 114.17835 87.10724
#
# Poissons Ratio (x) = 0.32479 0.24283
# Poissons Ratio (y) = 0.18130 0.42267
# Poissons Ratio (z) = 0.17767 0.55402
#
# Static dielectric constant tensor:
#      x y z
#    x 2.877810 0.000000 0.000000 
#    y 0.000000 4.171040 0.000000 
#    z 0.000000 0.000000 3.607720 
# 
# 
# High freq. dielectric constant tensor:
#      x y z
#    x 1.791340 0.000000 0.000000 
#    y 0.000000 1.793880 0.000000 
#    z 0.000000 0.000000 1.784250 
# 
# From -- ./inp_files/37295.got.cif
#   From: 2010.03.12/outbox.cif.g09.slc.cpg/sg51_19_cif.got.tgz:37295.got - 2010.04.16 13:43:02.
