data_PCOD8211415
_publ_section_title
;
Structure prediction by ZEFSAII (Michael W. Deem and Ramdas Pophale) SiO2 
 PCOD8211415
Probable space group: P M M A
;
_chemical_formula_sum "Si O2"
_cell_formula_units_Z 52
_cell_length_a 8.762618
_cell_length_b 21.503834
_cell_length_c 14.784536
_cell_angle_alpha 90.000000
_cell_angle_beta 90.000000
_cell_angle_gamma 90.000000
_cell_volume 2785.848387
_symmetry_space_group_name_H-M "P M M A"
_symmetry_group_IT_number 51
_symmetry_cell_setting 'orthorhombic'
loop_
_space_group_symop_operation_xyz
x,y,z
1/2-x,-y,z
1/2+x,-y,-z
-x,y,-z
-x,-y,-z
1/2+x,y,-z
1/2-x,y,z
x,-y,z
loop_
_atom_site_type_symbol
_atom_site_label
_atom_site_fract_x
_atom_site_fract_y
_atom_site_fract_z
Si Si1 0.571023 0.800961 0.404949
Si Si2 0.924978 0.068745 0.321860
Si Si3 0.929665 0.741558 0.764959
Si Si4 0.427536 0.500000 0.096059
Si Si5 0.076993 0.930823 0.132626
Si Si6 0.430362 0.634889 0.100096
Si Si7 0.074567 0.184269 0.913016
O O1 0.500000 0.781647 0.500000
O O2 0.750000 0.791223 0.408693
O O3 0.528567 0.873457 0.386145
O O4 0.506681 0.751060 0.332299
O O5 0.750000 0.078422 0.288658
O O6 0.038938 0.070104 0.238467
O O7 0.940382 0.000000 0.369658
O O8 0.750000 0.737786 0.751088
O O9 0.992383 0.682540 0.823438
O O10 0.979757 0.800867 0.823133
O O11 0.250000 0.500000 0.080833
O O12 0.474294 0.566100 0.141393
O O13 0.500000 0.500000 0.000000
O O14 0.250000 0.905603 0.119187
O O15 0.954131 0.889516 0.077332
O O16 0.061303 0.000000 0.093896
O O17 0.250000 0.643275 0.089120
O O18 0.500000 0.646337 0.000000
O O19 0.250000 0.202853 0.904462
O O20 0.000000 0.218956 0.000000
#
# Coordination Sequence:
#
# PCOD8211415 Si02
#       7
#     8   8   8   4   8   8   8
#     4  11  23  38  57  80 105 138 175 220 273 326
#     4   9  18  34  55  77 101 130 166 210 266 328
#     4  11  22  37  55  78 108 141 178 220 263 314
#     4   8  14  28  48  76 113 148 183 216 253 300
#     4  10  20  34  53  75  98 128 167 212 263 316
#     4   9  18  31  52  81 114 151 184 218 257 302
#     4  12  24  37  53  74 101 137 176 217 262 312
#
# _framework density 18.665766999999999
#
# number of rings (size 3 to 8) (size 9 to 14) (size 15 to 20)
#    0.000    1.846    1.538    3.231    0.000    4.615 
#    0.000    0.000    0.000    0.000    0.000    0.538 
#    0.000    0.000    0.000    0.000    0.000    0.000 
#
# Total GULP energy -644248.308741 kJ/mol
# GULP energy per Si atom -12389.390553 kJ/mol
# Density = 1.862328 g / cm^3
# Si number density = 18.665767 Si / 1000 Ang^3
#
#
#
# Elastic Constant Matrix: (Units=GPa)
#
#
# Indices 1 2 3 4 5 6 
#
# 1 62.4127 31.0555 30.0914 0.0000 0.0000 0.0000
# 2 31.0555 111.9128 44.0622 0.0000 0.0000 0.0000
# 3 30.0914 44.0622 110.0187 0.0000 0.0000 0.0000
# 4 0.0000 0.0000 0.0000 18.7475 0.0000 0.0000
# 5 0.0000 0.0000 0.0000 0.0000 28.7389 0.0000
# 6 0.0000 0.0000 0.0000 0.0000 0.0000 17.2783
#
#
#
# Elastic Compliance Matrix: (Units=1/GPa)
#
#
# Indices 1 2 3 4 5 6 
#
# 1 0.019861 -0.004004 -0.003829 0.000000 0.000000 0.000000
# 2 -0.004004 0.011415 -0.003477 0.000000 0.000000 0.000000
# 3 -0.003829 -0.003477 0.011529 0.000000 0.000000 0.000000
# 4 0.000000 0.000000 0.000000 0.053341 0.000000 0.000000
# 5 0.000000 0.000000 0.000000 0.000000 0.034796 0.000000
# 6 0.000000 0.000000 0.000000 0.000000 0.000000 0.057876
#
#
# Mechanical properties :
#
#
# Convention : Reuss Voigt Hill
#
# Bulk Modulus (GPa) = 49.53788 54.97361 52.25574
# Shear Modulus (GPa) = 22.91847 24.89529 23.90688
#
# Velocity S-wave (km/s) = 3.50785 3.65600 3.58269
# Velocity P-wave (km/s) = 6.55772 6.88021 6.72090
#
# Compressibility (1/GPa) = 0.02018657
#
# Stress axis : x y z
#
# Youngs Moduli (GPa) = 50.35119 87.60059 86.73819
#
# Poissons Ratio (x) = 0.35074 0.33208
# Poissons Ratio (y) = 0.20160 0.30157
# Poissons Ratio (z) = 0.19277 0.30457
#
# Static dielectric constant tensor:
#      x y z
#    x 3.343720 0.000000 0.000000 
#    y 0.000000 2.716910 0.000000 
#    z 0.000000 0.000000 3.216020 
# 
# 
# High freq. dielectric constant tensor:
#      x y z
#    x 1.728490 0.000000 0.000000 
#    y 0.000000 1.719120 0.000000 
#    z 0.000000 0.000000 1.693440 
# 
# From -- ./inp_files/22097.got.cif
#   From: 2010.03.12/outbox.cif.g09.slc.cpg/sg51_12_cif.got.tgz:22097.got - 2010.04.16 13:43:02.
