data_PCOD8211030
_publ_section_title
;
Structure prediction by ZEFSAII (Michael W. Deem and Ramdas Pophale) SiO2 
 PCOD8211030
Probable space group: P M M A
;
_chemical_formula_sum "Si O2"
_cell_formula_units_Z 40
_cell_length_a 9.057775
_cell_length_b 9.129375
_cell_length_c 25.845067
_cell_angle_alpha 90.000000
_cell_angle_beta 90.000000
_cell_angle_gamma 90.000000
_cell_volume 2137.175748
_symmetry_space_group_name_H-M "P M M A"
_symmetry_group_IT_number 51
_symmetry_cell_setting 'orthorhombic'
loop_
_space_group_symop_operation_xyz
x,y,z
1/2-x,-y,z
1/2+x,-y,-z
-x,y,-z
-x,-y,-z
1/2+x,y,-z
1/2-x,y,z
x,-y,z
loop_
_atom_site_type_symbol
_atom_site_label
_atom_site_fract_x
_atom_site_fract_y
_atom_site_fract_z
Si Si1 0.574352 0.165131 0.747425
Si Si2 0.573956 0.665331 0.847203
Si Si3 0.576933 0.832000 0.446854
Si Si4 0.576910 0.831182 0.948224
Si Si5 0.079293 0.671796 0.355158
O O1 0.750000 0.164833 0.749675
O O2 0.510503 0.246819 0.797929
O O3 0.519994 0.249486 0.696441
O O4 0.512135 0.000000 0.746254
O O5 0.750000 0.668685 0.846238
O O6 0.514077 0.500000 0.844829
O O7 0.515220 0.740347 0.899582
O O8 0.500000 0.785229 0.500000
O O9 0.750000 0.807609 0.453446
O O10 0.517339 0.726733 0.402607
O O11 0.538684 0.000000 0.432797
O O12 0.750000 0.808510 0.955071
O O13 0.536064 0.000000 0.938442
O O14 0.500000 0.771275 0.000000
O O15 0.250000 0.711160 0.365616
O O16 0.056585 0.500000 0.347665
#
# Coordination Sequence:
#
# PCOD8211030 Si02
#       5
#     8   8   8   8   8
#     4   9  16  27  46  71  98 128 162 201 244 290
#     4   9  16  26  42  66  95 124 156 197 243 289
#     4  10  21  37  57  79 103 134 172 211 250 294
#     4   9  17  29  45  65  90 121 157 196 238 285
#     4  10  20  33  51  77 107 136 166 203 249 299
#
# _framework density 18.716290000000001
#
# number of rings (size 3 to 8) (size 9 to 14) (size 15 to 20)
#    0.000    2.600    0.000    2.400    0.000    8.000 
#    0.000    0.000    0.000    1.200    0.000    2.800 
#    0.000    0.000    0.000    0.000    0.000    0.000 
#
# Total GULP energy -496069.422314 kJ/mol
# GULP energy per Si atom -12401.735558 kJ/mol
# Density = 1.867369 g / cm^3
# Si number density = 18.716290 Si / 1000 Ang^3
#
#
#
# Elastic Constant Matrix: (Units=GPa)
#
#
# Indices 1 2 3 4 5 6 
#
# 1 34.8062 29.6223 40.0650 0.0000 0.0000 0.0000
# 2 29.6223 130.1785 92.4144 0.0000 0.0000 0.0000
# 3 40.0650 92.4144 184.4909 0.0000 0.0000 0.0000
# 4 0.0000 0.0000 0.0000 28.5764 0.0000 0.0000
# 5 0.0000 0.0000 0.0000 0.0000 25.2676 0.0000
# 6 0.0000 0.0000 0.0000 0.0000 0.0000 17.6289
#
#
#
# Elastic Compliance Matrix: (Units=1/GPa)
#
#
# Indices 1 2 3 4 5 6 
#
# 1 0.039972 -0.004552 -0.006400 0.000000 0.000000 0.000000
# 2 -0.004552 0.012439 -0.005242 0.000000 0.000000 0.000000
# 3 -0.006400 -0.005242 0.009436 0.000000 0.000000 0.000000
# 4 0.000000 0.000000 0.000000 0.034994 0.000000 0.000000
# 5 0.000000 0.000000 0.000000 0.000000 0.039576 0.000000
# 6 0.000000 0.000000 0.000000 0.000000 0.000000 0.056725
#
#
# Mechanical properties :
#
#
# Convention : Reuss Voigt Hill
#
# Bulk Modulus (GPa) = 33.94692 74.85324 54.40008
# Shear Modulus (GPa) = 21.24480 26.78618 24.01549
#
# Velocity S-wave (km/s) = 3.37278 3.78718 3.58597
# Velocity P-wave (km/s) = 5.77447 7.69442 6.80252
#
# Compressibility (1/GPa) = 0.02945775
#
# Stress axis : x y z
#
# Youngs Moduli (GPa) = 25.01759 80.39082 105.97397
#
# Poissons Ratio (x) = 0.36594 0.67827
# Poissons Ratio (y) = 0.11388 0.55556
# Poissons Ratio (z) = 0.16012 0.42145
#
# Static dielectric constant tensor:
#      x y z
#    x 2.948650 0.000000 0.000000 
#    y 0.000000 3.536840 0.000000 
#    z 0.000000 0.000000 3.650610 
# 
# 
# High freq. dielectric constant tensor:
#      x y z
#    x 1.674930 0.000000 0.000000 
#    y 0.000000 1.733430 0.000000 
#    z 0.000000 0.000000 1.743930 
# 
# From -- ./inp_files/32795.got.cif
#   From: 2010.03.12/outbox.cif.g09.slc.cpg/sg51_17_cif.got.tgz:32795.got - 2010.04.16 13:43:02.
