data_PCOD8211808
_publ_section_title
;
Structure prediction by ZEFSAII (Michael W. Deem and Ramdas Pophale) SiO2 
 PCOD8211808
Probable space group: P M M A
;
_chemical_formula_sum "Si O2"
_cell_formula_units_Z 40
_cell_length_a 8.900730
_cell_length_b 7.633317
_cell_length_c 29.317239
_cell_angle_alpha 90.000000
_cell_angle_beta 90.000000
_cell_angle_gamma 90.000000
_cell_volume 1991.874597
_symmetry_space_group_name_H-M "P M M A"
_symmetry_group_IT_number 51
_symmetry_cell_setting 'orthorhombic'
loop_
_space_group_symop_operation_xyz
x,y,z
1/2-x,-y,z
1/2+x,-y,-z
-x,y,-z
-x,-y,-z
1/2+x,y,-z
1/2-x,y,z
x,-y,z
loop_
_atom_site_type_symbol
_atom_site_label
_atom_site_fract_x
_atom_site_fract_y
_atom_site_fract_z
Si Si1 0.071809 0.500000 0.699641
Si Si2 0.070751 0.500000 0.802742
Si Si3 0.925293 0.297528 0.545899
Si Si4 0.573079 0.203510 0.862057
Si Si5 0.921488 0.805807 0.364153
Si Si6 0.581476 0.792474 0.044628
O O1 0.250000 0.500000 0.701692
O O2 0.010140 0.500000 0.750914
O O3 0.011386 0.671288 0.672966
O O4 0.250000 0.500000 0.806359
O O5 0.007741 0.677317 0.824757
O O6 0.750000 0.265924 0.541647
O O7 0.968417 0.500000 0.552322
O O8 0.000000 0.222028 0.500000
O O9 0.985512 0.194514 0.589361
O O10 0.750000 0.236508 0.860675
O O11 0.513119 0.263845 0.911300
O O12 0.533673 0.000000 0.852293
O O13 0.750000 0.755003 0.375787
O O14 0.932393 0.000000 0.342810
O O15 0.750000 0.715206 0.048205
O O16 0.588553 0.000000 0.040582
O O17 0.500000 0.713488 0.000000
#
# Coordination Sequence:
#
# PCOD8211808 Si02
#       6
#     4   4   8   8   8   8
#     4   9  20  39  60  83 112 143 182 234 287 341
#     4  11  23  39  62  89 114 147 191 244 300 351
#     4  10  20  34  55  83 115 153 190 227 273 325
#     4  10  21  38  59  84 117 156 196 239 288 345
#     4  10  20  36  60  86 112 146 186 229 279 333
#     4   9  16  28  50  81 116 154 194 235 282 339
#
# _framework density 20.081585
#
# number of rings (size 3 to 8) (size 9 to 14) (size 15 to 20)
#    0.000    2.200    1.000    2.100    0.000    6.000 
#    0.000    4.500    0.000    0.000    0.000    0.000 
#    0.000    0.000    0.000    0.000    0.000    0.000 
#
# Total GULP energy -496058.917816 kJ/mol
# GULP energy per Si atom -12401.472945 kJ/mol
# Density = 2.003588 g / cm^3
# Si number density = 20.081585 Si / 1000 Ang^3
#
#
#
# Elastic Constant Matrix: (Units=GPa)
#
#
# Indices 1 2 3 4 5 6 
#
# 1 99.6813 40.2433 55.9112 0.0000 0.0000 0.0000
# 2 40.2433 101.2357 68.7908 0.0000 0.0000 0.0000
# 3 55.9112 68.7908 178.2421 0.0000 0.0000 0.0000
# 4 0.0000 0.0000 0.0000 8.7157 0.0000 0.0000
# 5 0.0000 0.0000 0.0000 0.0000 29.6172 0.0000
# 6 0.0000 0.0000 0.0000 0.0000 0.0000 21.8402
#
#
#
# Elastic Compliance Matrix: (Units=1/GPa)
#
#
# Indices 1 2 3 4 5 6 
#
# 1 0.012907 -0.003226 -0.002804 0.000000 0.000000 0.000000
# 2 -0.003226 0.014195 -0.004467 0.000000 0.000000 0.000000
# 3 -0.002804 -0.004467 0.008214 0.000000 0.000000 0.000000
# 4 0.000000 0.000000 0.000000 0.114736 0.000000 0.000000
# 5 0.000000 0.000000 0.000000 0.000000 0.033764 0.000000
# 6 0.000000 0.000000 0.000000 0.000000 0.000000 0.045787
#
#
# Mechanical properties :
#
#
# Convention : Reuss Voigt Hill
#
# Bulk Modulus (GPa) = 69.81397 78.78331 74.29864
# Shear Modulus (GPa) = 19.57944 26.31554 22.94749
#
# Velocity S-wave (km/s) = 3.12588 3.62392 3.38407
# Velocity P-wave (km/s) = 6.91873 7.53838 7.23519
#
# Compressibility (1/GPa) = 0.01432378
#
# Stress axis : x y z
#
# Youngs Moduli (GPa) = 77.47841 70.44539 121.74721
#
# Poissons Ratio (x) = 0.22723 0.34135
# Poissons Ratio (y) = 0.24991 0.54382
# Poissons Ratio (z) = 0.21723 0.31466
#
# Static dielectric constant tensor:
#      x y z
#    x 3.593310 0.000000 0.000000 
#    y 0.000000 3.562510 0.000000 
#    z 0.000000 0.000000 3.717420 
# 
# 
# High freq. dielectric constant tensor:
#      x y z
#    x 1.779620 0.000000 0.000000 
#    y 0.000000 1.779410 0.000000 
#    z 0.000000 0.000000 1.780930 
# 
# From -- ./inp_files/36064.got.cif
#   From: 2010.03.12/outbox.cif.g09.slc.cpg/sg51_19_cif.got.tgz:36064.got - 2010.04.16 13:43:02.
