data_PCOD8211265
_publ_section_title
;
Structure prediction by ZEFSAII (Michael W. Deem and Ramdas Pophale) SiO2 
 PCOD8211265
Probable space group: P M M A
;
_chemical_formula_sum "Si O2"
_cell_formula_units_Z 40
_cell_length_a 24.874059
_cell_length_b 8.621014
_cell_length_c 10.402083
_cell_angle_alpha 90.000000
_cell_angle_beta 90.000000
_cell_angle_gamma 90.000000
_cell_volume 2230.618631
_symmetry_space_group_name_H-M "P M M A"
_symmetry_group_IT_number 51
_symmetry_cell_setting 'orthorhombic'
loop_
_space_group_symop_operation_xyz
x,y,z
1/2-x,-y,z
1/2+x,-y,-z
-x,y,-z
-x,-y,-z
1/2+x,y,-z
1/2-x,y,z
x,-y,z
loop_
_atom_site_type_symbol
_atom_site_label
_atom_site_fract_x
_atom_site_fract_y
_atom_site_fract_z
Si Si1 0.862456 0.183156 0.274455
Si Si2 0.250000 0.669851 0.021846
Si Si3 0.470845 0.683342 0.124800
Si Si4 0.136613 0.314994 0.005477
Si Si5 0.250000 0.671869 0.716817
Si Si6 0.531674 0.684393 0.373609
O O1 0.877593 0.245851 0.133174
O O2 0.804467 0.240658 0.326602
O O3 0.908890 0.241742 0.371316
O O4 0.861246 0.000000 0.270615
O O5 0.250000 0.500000 0.085894
O O6 0.306202 0.753725 0.059480
O O7 0.250000 0.658472 0.868911
O O8 0.478351 0.500000 0.125965
O O9 0.496459 0.750925 0.254460
O O10 0.500000 0.754415 0.000000
O O11 0.407985 0.728606 0.111398
O O12 0.141242 0.500000 0.985461
O O13 0.250000 0.500000 0.654969
O O14 0.500000 0.738772 0.500000
O O15 0.537849 0.500000 0.368926
#
# Coordination Sequence:
#
# PCOD8211265 Si02
#       6
#     8   4   8   8   4   8
#     4  11  20  30  47  74 105 130 161 205 255 302
#     4   7  12  21  39  66  89 114 146 192 242 288
#     4   9  15  26  48  71  92 123 168 215 249 286
#     4   9  15  27  46  67  94 126 164 203 250 299
#     4   9  17  31  51  72  97 130 168 204 244 292
#     4  10  20  34  51  70  96 135 177 213 251 298
#
# _framework density 17.932245000000002
#
# number of rings (size 3 to 8) (size 9 to 14) (size 15 to 20)
#    0.000    2.600    2.000    3.300    0.000    0.400 
#    0.000    2.000    0.000    1.200    0.000    5.600 
#    0.000    3.200    0.000    0.000    0.000    0.000 
#
# Total GULP energy -495605.869406 kJ/mol
# GULP energy per Si atom -12390.146735 kJ/mol
# Density = 1.789143 g / cm^3
# Si number density = 17.932245 Si / 1000 Ang^3
#
#
#
# Elastic Constant Matrix: (Units=GPa)
#
#
# Indices 1 2 3 4 5 6 
#
# 1 190.3025 37.1450 64.1982 0.0000 0.0000 0.0000
# 2 37.1450 61.0557 18.3795 0.0000 0.0000 0.0000
# 3 64.1982 18.3795 82.7233 0.0000 0.0000 0.0000
# 4 0.0000 0.0000 0.0000 6.1712 0.0000 0.0000
# 5 0.0000 0.0000 0.0000 0.0000 22.3213 0.0000
# 6 0.0000 0.0000 0.0000 0.0000 0.0000 16.2171
#
#
#
# Elastic Compliance Matrix: (Units=1/GPa)
#
#
# Indices 1 2 3 4 5 6 
#
# 1 0.007617 -0.003059 -0.005231 0.000000 0.000000 0.000000
# 2 -0.003059 0.018781 -0.001799 0.000000 0.000000 0.000000
# 3 -0.005231 -0.001799 0.016548 0.000000 0.000000 0.000000
# 4 0.000000 0.000000 0.000000 0.162043 0.000000 0.000000
# 5 0.000000 0.000000 0.000000 0.000000 0.044800 0.000000
# 6 0.000000 0.000000 0.000000 0.000000 0.000000 0.061663
#
#
# Mechanical properties :
#
#
# Convention : Reuss Voigt Hill
#
# Bulk Modulus (GPa) = 43.92252 63.72521 53.82386
# Shear Modulus (GPa) = 14.73970 23.23252 18.98611
#
# Velocity S-wave (km/s) = 2.87011 3.60331 3.25740
# Velocity P-wave (km/s) = 5.96071 7.27500 6.65040
#
# Compressibility (1/GPa) = 0.02276737
#
# Stress axis : x y z
#
# Youngs Moduli (GPa) = 131.29120 53.24522 60.43039
#
# Poissons Ratio (x) = 0.16288 0.31613
# Poissons Ratio (y) = 0.40162 0.10870
# Poissons Ratio (z) = 0.68683 0.09578
#
# Static dielectric constant tensor:
#      x y z
#    x 3.942980 0.000000 0.000000 
#    y 0.000000 2.966790 0.000000 
#    z 0.000000 0.000000 2.992090 
# 
# 
# High freq. dielectric constant tensor:
#      x y z
#    x 1.725020 0.000000 0.000000 
#    y 0.000000 1.658340 0.000000 
#    z 0.000000 0.000000 1.637130 
# 
# From -- ./inp_files/12212.got.cif
#   From: 2010.03.12/outbox.cif.g09.slc.cpg/sg51_7_cif.got.tgz:12212.got - 2010.04.16 13:43:02.
