data_PCOD8211891
_publ_section_title
;
Structure prediction by ZEFSAII (Michael W. Deem and Ramdas Pophale) SiO2 
 PCOD8211891
Probable space group: P M M A
;
_chemical_formula_sum "Si O2"
_cell_formula_units_Z 64
_cell_length_a 28.602164
_cell_length_b 9.159431
_cell_length_c 12.638192
_cell_angle_alpha 90.000000
_cell_angle_beta 90.000000
_cell_angle_gamma 90.000000
_cell_volume 3310.947823
_symmetry_space_group_name_H-M "P M M A"
_symmetry_group_IT_number 51
_symmetry_cell_setting 'orthorhombic'
loop_
_space_group_symop_operation_xyz
x,y,z
1/2-x,-y,z
1/2+x,-y,-z
-x,y,-z
-x,-y,-z
1/2+x,y,-z
1/2-x,y,z
x,-y,z
loop_
_atom_site_type_symbol
_atom_site_label
_atom_site_fract_x
_atom_site_fract_y
_atom_site_fract_z
Si Si1 0.045603 0.668350 0.778009
Si Si2 0.104249 0.330270 0.973523
Si Si3 0.954730 0.832273 0.439654
Si Si4 0.805084 0.162062 0.333396
Si Si5 0.386001 0.832033 0.372088
Si Si6 0.802588 0.331390 0.127572
Si Si7 0.937790 0.331054 0.810309
Si Si8 0.696121 0.328630 0.542777
O O1 0.057704 0.500000 0.756783
O O2 0.078404 0.736096 0.870398
O O3 0.055715 0.750459 0.669035
O O4 0.993028 0.688149 0.818488
O O5 0.091388 0.500000 0.975508
O O6 0.160418 0.303578 0.966841
O O7 0.085309 0.263866 0.083114
O O8 0.909510 0.814582 0.513206
O O9 0.000000 0.765329 0.500000
O O10 0.965336 0.000000 0.411924
O O11 0.750000 0.147325 0.329991
O O12 0.821676 0.238413 0.226014
O O13 0.819849 0.261820 0.431164
O O14 0.827737 0.000000 0.343855
O O15 0.420421 0.764496 0.286657
O O16 0.336580 0.746259 0.369013
O O17 0.376551 0.000000 0.344295
O O18 0.750000 0.285536 0.091445
O O19 0.802913 0.500000 0.162783
O O20 0.923627 0.500000 0.792581
O O21 0.750000 0.292761 0.569693
O O22 0.687003 0.500000 0.539879
#
# Coordination Sequence:
#
# PCOD8211891 Si02
#       8
#     8   8   8   8   8   8   8   8
#     4  10  20  34  57  84 109 142 186 238 288 337
#     4   9  19  35  55  81 109 141 186 239 288 335
#     4  10  21  38  56  79 115 152 183 225 281 340
#     4   9  17  30  49  74 107 144 178 218 271 326
#     4  11  23  38  58  82 114 153 189 230 282 337
#     4   9  17  31  51  75 105 142 183 227 276 330
#     4  10  20  37  58  79 108 146 190 238 289 339
#     4  10  21  37  57  82 112 147 189 234 278 330
#
# _framework density 19.329813999999999
#
# number of rings (size 3 to 8) (size 9 to 14) (size 15 to 20)
#    0.000    2.250    1.250    1.500    1.750    5.000 
#    0.000    1.875    0.000    3.750    0.000    0.000 
#    0.000    0.000    0.000    0.000    0.000    0.000 
#
# Total GULP energy -793553.044057 kJ/mol
# GULP energy per Si atom -12399.266313 kJ/mol
# Density = 1.928582 g / cm^3
# Si number density = 19.329814 Si / 1000 Ang^3
#
#
#
# Elastic Constant Matrix: (Units=GPa)
#
#
# Indices 1 2 3 4 5 6 
#
# 1 92.5411 35.2239 31.5992 0.0000 0.0000 0.0000
# 2 35.2239 79.3913 30.6900 0.0000 0.0000 0.0000
# 3 31.5992 30.6900 86.5339 0.0000 0.0000 0.0000
# 4 0.0000 0.0000 0.0000 -3.9224 0.0000 0.0000
# 5 0.0000 0.0000 0.0000 0.0000 25.3654 0.0000
# 6 0.0000 0.0000 0.0000 0.0000 0.0000 16.4806
#
#
#
# Elastic Compliance Matrix: (Units=1/GPa)
#
#
# Indices 1 2 3 4 5 6 
#
# 1 0.013777 -0.004830 -0.003318 0.000000 0.000000 0.000000
# 2 -0.004830 0.016290 -0.004014 0.000000 0.000000 0.000000
# 3 -0.003318 -0.004014 0.014191 0.000000 0.000000 0.000000
# 4 0.000000 0.000000 0.000000 -0.254947 0.000000 0.000000
# 5 0.000000 0.000000 0.000000 0.000000 0.039424 0.000000
# 6 0.000000 0.000000 0.000000 0.000000 0.000000 0.060677
#
#
# Mechanical properties :
#
#
# Convention : Reuss Voigt Hill
#
# Bulk Modulus (GPa) = 50.16186 50.38804 50.27495
# Shear Modulus (GPa) = -62.80037 18.31494 -22.24271
#
# Velocity S-wave (km/s) = -5.70608 3.08148 -3.39587
# Velocity P-wave (km/s) = 4.17201 6.22775 3.26949
#
# Compressibility (1/GPa) = 0.01993547
#
# Stress axis : x y z
#
# Youngs Moduli (GPa) = 72.58233 61.38590 70.46570
#
# Poissons Ratio (x) = 0.29650 0.23381
# Poissons Ratio (y) = 0.35058 0.28283
# Poissons Ratio (z) = 0.24083 0.24639
#
# Static dielectric constant tensor:
#      x y z
#    x 3.609900 0.000000 0.000000 
#    y 0.000000 3.503400 0.000000 
#    z 0.000000 0.000000 3.435100 
# 
# 
# High freq. dielectric constant tensor:
#      x y z
#    x 1.762480 0.000000 0.000000 
#    y 0.000000 1.736090 0.000000 
#    z 0.000000 0.000000 1.735530 
# 
# From -- ./inp_files/19596.got.cif
#   From: 2010.03.12/outbox.cif.g09.slc.cpg/sg51_10_cif.got.tgz:19596.got - 2010.04.16 13:43:02.
