data_PCOD8211049
_publ_section_title
;
Structure prediction by ZEFSAII (Michael W. Deem and Ramdas Pophale) SiO2 
 PCOD8211049
Probable space group: P M M A
;
_chemical_formula_sum "Si O2"
_cell_formula_units_Z 40
_cell_length_a 9.063859
_cell_length_b 9.024627
_cell_length_c 25.651272
_cell_angle_alpha 90.000000
_cell_angle_beta 90.000000
_cell_angle_gamma 90.000000
_cell_volume 2098.221379
_symmetry_space_group_name_H-M "P M M A"
_symmetry_group_IT_number 51
_symmetry_cell_setting 'orthorhombic'
loop_
_space_group_symop_operation_xyz
x,y,z
1/2-x,-y,z
1/2+x,-y,-z
-x,y,-z
-x,-y,-z
1/2+x,y,-z
1/2-x,y,z
x,-y,z
loop_
_atom_site_type_symbol
_atom_site_label
_atom_site_fract_x
_atom_site_fract_y
_atom_site_fract_z
Si Si1 0.580936 0.825977 0.752332
Si Si2 0.922946 0.670918 0.154319
Si Si3 0.583695 0.323602 0.949471
Si Si4 0.919159 0.326558 0.645800
Si Si5 0.577126 0.829899 0.447066
O O1 0.750000 0.782773 0.764976
O O2 0.476400 0.767462 0.797530
O O3 0.528903 0.752577 0.698565
O O4 0.560147 0.000000 0.746712
O O5 0.750000 0.691848 0.146485
O O6 0.964529 0.500000 0.164644
O O7 0.001675 0.731775 0.102401
O O8 0.750000 0.261683 0.949127
O O9 0.582764 0.500000 0.951628
O O10 0.500000 0.258898 0.000000
O O11 0.750000 0.285778 0.632844
O O12 0.941349 0.500000 0.653625
O O13 0.021792 0.272113 0.599432
O O14 0.500000 0.776259 0.500000
O O15 0.750000 0.807583 0.454134
O O16 0.535774 0.000000 0.434792
#
# Coordination Sequence:
#
# PCOD8211049 Si02
#       5
#     8   8   8   8   8
#     4  10  21  37  57  79 104 138 179 221 267 320
#     4  10  20  33  51  77 108 141 178 220 265 314
#     4   9  16  27  46  73 105 139 175 217 264 314
#     4  10  21  37  58  83 110 141 178 221 269 319
#     4  10  21  37  58  83 111 145 183 221 263 313
#
# _framework density 19.063765
#
# number of rings (size 3 to 8) (size 9 to 14) (size 15 to 20)
#    0.000    2.200    0.000    3.000    0.000    8.400 
#    0.000    0.000    0.000    0.600    0.000    0.000 
#    0.000    0.000    0.000    0.000    0.000    0.000 
#
# Total GULP energy -496183.985108 kJ/mol
# GULP energy per Si atom -12404.599628 kJ/mol
# Density = 1.902038 g / cm^3
# Si number density = 19.063765 Si / 1000 Ang^3
#
#
#
# Elastic Constant Matrix: (Units=GPa)
#
#
# Indices 1 2 3 4 5 6 
#
# 1 106.1163 36.8963 73.3818 0.0000 0.0000 0.0000
# 2 36.8963 61.8849 51.9781 0.0000 0.0000 0.0000
# 3 73.3818 51.9781 162.3515 0.0000 0.0000 0.0000
# 4 0.0000 0.0000 0.0000 -52.9376 0.0000 0.0000
# 5 0.0000 0.0000 0.0000 0.0000 39.3085 0.0000
# 6 0.0000 0.0000 0.0000 0.0000 0.0000 25.7088
#
#
#
# Elastic Compliance Matrix: (Units=1/GPa)
#
#
# Indices 1 2 3 4 5 6 
#
# 1 0.014497 -0.004295 -0.005178 0.000000 0.000000 0.000000
# 2 -0.004295 0.023375 -0.005542 0.000000 0.000000 0.000000
# 3 -0.005178 -0.005542 0.010274 0.000000 0.000000 0.000000
# 4 0.000000 0.000000 0.000000 -0.018890 0.000000 0.000000
# 5 0.000000 0.000000 0.000000 0.000000 0.025440 0.000000
# 6 0.000000 0.000000 0.000000 0.000000 0.000000 0.038897
#
#
# Mechanical properties :
#
#
# Convention : Reuss Voigt Hill
#
# Bulk Modulus (GPa) = 55.19764 72.76276 63.98020
# Shear Modulus (GPa) = 38.56188 13.62237 26.09213
#
# Velocity S-wave (km/s) = 4.50242 2.67604 3.70358
# Velocity P-wave (km/s) = 7.48639 6.91370 7.20574
#
# Compressibility (1/GPa) = 0.01811672
#
# Stress axis : x y z
#
# Youngs Moduli (GPa) = 68.97800 42.78128 97.33052
#
# Poissons Ratio (x) = 0.18373 0.50396
# Poissons Ratio (y) = 0.29623 0.53945
# Poissons Ratio (z) = 0.35715 0.23711
#
# Static dielectric constant tensor:
#      x y z
#    x 3.537040 0.000000 0.000000 
#    y 0.000000 3.242570 0.000000 
#    z 0.000000 0.000000 3.615250 
# 
# 
# High freq. dielectric constant tensor:
#      x y z
#    x 1.746930 0.000000 0.000000 
#    y 0.000000 1.716620 0.000000 
#    z 0.000000 0.000000 1.755410 
# 
# From -- ./inp_files/34293.got.cif
#   From: 2010.03.12/outbox.cif.g09.slc.cpg/sg51_18_cif.got.tgz:34293.got - 2010.04.16 13:43:02.
