data_PCOD8211794
_publ_section_title
;
Structure prediction by ZEFSAII (Michael W. Deem and Ramdas Pophale) SiO2 
 PCOD8211794
Probable space group: P M M A
;
_chemical_formula_sum "Si O2"
_cell_formula_units_Z 56
_cell_length_a 14.192661
_cell_length_b 8.575203
_cell_length_c 22.144873
_cell_angle_alpha 90.000000
_cell_angle_beta 90.000000
_cell_angle_gamma 90.000000
_cell_volume 2695.140643
_symmetry_space_group_name_H-M "P M M A"
_symmetry_group_IT_number 51
_symmetry_cell_setting 'orthorhombic'
loop_
_space_group_symop_operation_xyz
x,y,z
1/2-x,-y,z
1/2+x,-y,-z
-x,y,-z
-x,-y,-z
1/2+x,y,-z
1/2-x,y,z
x,-y,z
loop_
_atom_site_type_symbol
_atom_site_label
_atom_site_fract_x
_atom_site_fract_y
_atom_site_fract_z
Si Si1 0.353513 0.328305 0.372922
Si Si2 0.353396 0.675859 0.230789
Si Si3 0.457605 0.180101 0.792392
Si Si4 0.015175 0.178514 0.565505
Si Si5 0.856793 0.186092 0.328894
Si Si6 0.641270 0.815916 0.970039
Si Si7 0.959472 0.317585 0.083692
O O1 0.250000 0.306771 0.401092
O O2 0.393401 0.500000 0.390463
O O3 0.347722 0.312516 0.302019
O O4 0.417205 0.191604 0.399331
O O5 0.250000 0.717898 0.203899
O O6 0.382464 0.500000 0.211035
O O7 0.429628 0.799301 0.208242
O O8 0.410900 0.248001 0.730913
O O9 0.419706 0.275314 0.850000
O O10 0.431761 0.000000 0.800711
O O11 0.095241 0.253309 0.609501
O O12 0.000000 0.261515 0.500000
O O13 0.042129 0.000000 0.554309
O O14 0.750000 0.246719 0.326827
O O15 0.862821 0.000000 0.329569
O O16 0.750000 0.761275 0.959825
O O17 0.569686 0.733235 0.922890
O O18 0.632624 0.000000 0.961373
O O19 0.607604 0.772097 0.037163
O O20 0.950872 0.500000 0.071322
#
# Coordination Sequence:
#
# PCOD8211794 Si02
#       7
#     8   8   8   8   8   8   8
#     4   9  18  33  53  76 105 140 176 218 275 341
#     4   9  18  33  53  77 106 141 178 222 283 346
#     4  11  21  35  57  82 111 150 196 241 286 340
#     4  10  20  34  55  83 110 141 186 237 288 340
#     4   9  19  36  55  77 109 148 188 233 286 340
#     4  10  21  40  65  90 119 155 197 243 286 335
#     4  11  23  38  59  88 122 157 194 240 291 345
#
# _framework density 20.778137000000001
#
# number of rings (size 3 to 8) (size 9 to 14) (size 15 to 20)
#    0.000    2.143    1.429    3.857    0.000    3.714 
#    0.000    4.286    0.000    3.429    0.000    0.000 
#    0.000    0.000    0.000    0.000    0.000    0.000 
#
# Total GULP energy -694068.778387 kJ/mol
# GULP energy per Si atom -12394.085328 kJ/mol
# Density = 2.073085 g / cm^3
# Si number density = 20.778137 Si / 1000 Ang^3
#
#
#
# Elastic Constant Matrix: (Units=GPa)
#
#
# Indices 1 2 3 4 5 6 
#
# 1 91.3390 8.7323 31.5600 0.0000 0.0000 0.0000
# 2 8.7323 36.5016 8.4351 0.0000 0.0000 0.0000
# 3 31.5600 8.4351 113.9427 0.0000 0.0000 0.0000
# 4 0.0000 0.0000 0.0000 17.9326 0.0000 0.0000
# 5 0.0000 0.0000 0.0000 0.0000 12.8608 0.0000
# 6 0.0000 0.0000 0.0000 0.0000 0.0000 19.7789
#
#
#
# Elastic Compliance Matrix: (Units=1/GPa)
#
#
# Indices 1 2 3 4 5 6 
#
# 1 0.012276 -0.002189 -0.003238 0.000000 0.000000 0.000000
# 2 -0.002189 0.028263 -0.001486 0.000000 0.000000 0.000000
# 3 -0.003238 -0.001486 0.009783 0.000000 0.000000 0.000000
# 4 0.000000 0.000000 0.000000 0.055764 0.000000 0.000000
# 5 0.000000 0.000000 0.000000 0.000000 0.077756 0.000000
# 6 0.000000 0.000000 0.000000 0.000000 0.000000 0.050559
#
#
# Mechanical properties :
#
#
# Convention : Reuss Voigt Hill
#
# Bulk Modulus (GPa) = 27.39965 37.69310 32.54638
# Shear Modulus (GPa) = 19.20173 22.98486 21.09330
#
# Velocity S-wave (km/s) = 3.04325 3.32957 3.18963
# Velocity P-wave (km/s) = 5.05608 5.74121 5.40950
#
# Compressibility (1/GPa) = 0.03649681
#
# Stress axis : x y z
#
# Youngs Moduli (GPa) = 81.45725 35.38191 102.21490
#
# Poissons Ratio (x) = 0.07743 0.33100
# Poissons Ratio (y) = 0.17827 0.15190
# Poissons Ratio (z) = 0.26378 0.05258
#
# Static dielectric constant tensor:
#      x y z
#    x 9.244740 0.000000 0.000000 
#    y 0.000000 3.482390 0.000000 
#    z 0.000000 0.000000 3.884660 
# 
# 
# High freq. dielectric constant tensor:
#      x y z
#    x 1.808550 0.000000 0.000000 
#    y 0.000000 1.786090 0.000000 
#    z 0.000000 0.000000 1.817480 
# 
# From -- ./inp_files/33473.got.cif
#   From: 2010.03.12/outbox.cif.g09.slc.cpg/sg51_17_cif.got.tgz:33473.got - 2010.04.16 13:43:02.
