data_PCOD8211510
_publ_section_title
;
Structure prediction by ZEFSAII (Michael W. Deem and Ramdas Pophale) SiO2 
 PCOD8211510
Probable space group: P M M A
;
_chemical_formula_sum "Si O2"
_cell_formula_units_Z 56
_cell_length_a 8.680149
_cell_length_b 14.467706
_cell_length_c 23.311906
_cell_angle_alpha 90.000000
_cell_angle_beta 90.000000
_cell_angle_gamma 90.000000
_cell_volume 2927.552137
_symmetry_space_group_name_H-M "P M M A"
_symmetry_group_IT_number 51
_symmetry_cell_setting 'orthorhombic'
loop_
_space_group_symop_operation_xyz
x,y,z
1/2-x,-y,z
1/2+x,-y,-z
-x,y,-z
-x,-y,-z
1/2+x,y,-z
1/2-x,y,z
x,-y,z
loop_
_atom_site_type_symbol
_atom_site_label
_atom_site_fract_x
_atom_site_fract_y
_atom_site_fract_z
Si Si1 0.432818 0.897659 0.161288
Si Si2 0.568734 0.228061 0.940790
Si Si3 0.430254 0.605741 0.437721
Si Si4 0.927761 0.606384 0.766133
Si Si5 0.430660 0.718603 0.663485
Si Si6 0.068922 0.893536 0.290505
Si Si7 0.570004 0.394781 0.114715
O O1 0.250000 0.899477 0.157624
O O2 0.500815 0.830018 0.112698
O O3 0.480089 0.866185 0.225376
O O4 0.498543 0.000000 0.149245
O O5 0.750000 0.219224 0.944035
O O6 0.519333 0.334176 0.932110
O O7 0.500000 0.189223 0.000000
O O8 0.500000 0.621351 0.500000
O O9 0.250000 0.629358 0.438136
O O10 0.457782 0.500000 0.417379
O O11 0.518850 0.676394 0.396864
O O12 0.750000 0.625564 0.780595
O O13 0.957657 0.500000 0.750081
O O14 0.976308 0.666827 0.712687
O O15 0.025413 0.636721 0.821268
O O16 0.250000 0.704849 0.672050
O O17 0.475283 0.827187 0.666285
O O18 0.250000 0.878446 0.299651
O O19 0.024643 0.000000 0.303304
O O20 0.750000 0.381194 0.105679
O O21 0.517694 0.500000 0.104683
#
# Coordination Sequence:
#
# PCOD8211510 Si02
#       7
#     8   8   8   8   8   8   8
#     4   8  16  33  56  79 102 131 168 211 263 320
#     4  11  22  35  53  75 101 134 172 215 260 313
#     4  10  21  38  59  83 114 152 193 234 274 320
#     4  10  20  34  53  78 108 141 177 218 267 324
#     4  12  23  33  52  82 116 151 186 227 271 318
#     4   9  18  35  59  83 107 139 181 228 277 329
#     4  10  21  37  55  75 101 132 168 215 270 325
#
# _framework density 19.128608
#
# number of rings (size 3 to 8) (size 9 to 14) (size 15 to 20)
#    0.000    2.000    0.000    5.143    0.000    6.286 
#    0.000    0.714    0.000    3.429    0.000    0.000 
#    0.000    0.000    0.000    0.000    0.000    0.000 
#
# Total GULP energy -694506.300098 kJ/mol
# GULP energy per Si atom -12401.898216 kJ/mol
# Density = 1.908507 g / cm^3
# Si number density = 19.128608 Si / 1000 Ang^3
#
#
#
# Elastic Constant Matrix: (Units=GPa)
#
#
# Indices 1 2 3 4 5 6 
#
# 1 54.0087 29.2232 16.5871 0.0000 0.0000 0.0000
# 2 29.2232 92.3036 51.8375 0.0000 0.0000 0.0000
# 3 16.5871 51.8375 78.3943 0.0000 0.0000 0.0000
# 4 0.0000 0.0000 0.0000 34.3338 0.0000 0.0000
# 5 0.0000 0.0000 0.0000 0.0000 33.0074 0.0000
# 6 0.0000 0.0000 0.0000 0.0000 0.0000 21.9765
#
#
#
# Elastic Compliance Matrix: (Units=1/GPa)
#
#
# Indices 1 2 3 4 5 6 
#
# 1 0.022343 -0.007029 -0.000080 0.000000 0.000000 0.000000
# 2 -0.007029 0.019445 -0.011370 0.000000 0.000000 0.000000
# 3 -0.000080 -0.011370 0.020292 0.000000 0.000000 0.000000
# 4 0.000000 0.000000 0.000000 0.029126 0.000000 0.000000
# 5 0.000000 0.000000 0.000000 0.000000 0.030296 0.000000
# 6 0.000000 0.000000 0.000000 0.000000 0.000000 0.045503
#
#
# Mechanical properties :
#
#
# Convention : Reuss Voigt Hill
#
# Bulk Modulus (GPa) = 39.80687 46.66691 43.23689
# Shear Modulus (GPa) = 23.54746 26.33412 24.94079
#
# Velocity S-wave (km/s) = 3.51238 3.71440 3.61480
# Velocity P-wave (km/s) = 6.10773 6.54561 6.33046
#
# Compressibility (1/GPa) = 0.02512129
#
# Stress axis : x y z
#
# Youngs Moduli (GPa) = 44.75602 51.42736 49.28169
#
# Poissons Ratio (x) = 0.36149 0.00392
# Poissons Ratio (y) = 0.31460 0.56036
# Poissons Ratio (z) = 0.00356 0.58475
#
# Static dielectric constant tensor:
#      x y z
#    x 3.364450 0.000000 0.000000 
#    y 0.000000 3.737080 0.000000 
#    z 0.000000 0.000000 3.480960 
# 
# 
# High freq. dielectric constant tensor:
#      x y z
#    x 1.735920 0.000000 0.000000 
#    y 0.000000 1.747390 0.000000 
#    z 0.000000 0.000000 1.731660 
# 
# From -- ./inp_files/31871.got.cif
#   From: 2010.03.12/outbox.cif.g09.slc.cpg/sg51_16_cif.got.tgz:31871.got - 2010.04.16 13:43:02.
