data_PCOD8211150
_publ_section_title
;
Structure prediction by ZEFSAII (Michael W. Deem and Ramdas Pophale) SiO2 
 PCOD8211150
Probable space group: P M M A
;
_chemical_formula_sum "Si O2"
_cell_formula_units_Z 64
_cell_length_a 32.831396
_cell_length_b 8.881619
_cell_length_c 11.401467
_cell_angle_alpha 90.000000
_cell_angle_beta 90.000000
_cell_angle_gamma 90.000000
_cell_volume 3324.621607
_symmetry_space_group_name_H-M "P M M A"
_symmetry_group_IT_number 51
_symmetry_cell_setting 'orthorhombic'
loop_
_space_group_symop_operation_xyz
x,y,z
1/2-x,-y,z
1/2+x,-y,-z
-x,y,-z
-x,-y,-z
1/2+x,y,-z
1/2-x,y,z
x,-y,z
loop_
_atom_site_type_symbol
_atom_site_label
_atom_site_fract_x
_atom_site_fract_y
_atom_site_fract_z
Si Si1 0.628606 0.322849 0.109083
Si Si2 0.296202 0.821957 0.774272
Si Si3 0.855855 0.670460 0.657473
Si Si4 0.937747 0.328837 0.515499
Si Si5 0.935839 0.172418 0.271956
Si Si6 0.702214 0.831508 0.490248
Si Si7 0.394979 0.824161 0.132375
Si Si8 0.473820 0.827647 0.272816
O O1 0.632403 0.500000 0.106059
O O2 0.673162 0.256958 0.136075
O O3 0.596167 0.277747 0.207569
O O4 0.612742 0.265156 0.985576
O O5 0.250000 0.770672 0.803769
O O6 0.307789 0.774302 0.641340
O O7 0.300020 0.000000 0.787980
O O8 0.849813 0.500000 0.701045
O O9 0.893390 0.685488 0.570388
O O10 0.816271 0.721246 0.586570
O O11 0.861961 0.775274 0.770787
O O12 0.947599 0.500000 0.477746
O O13 0.938663 0.216520 0.407177
O O14 0.970799 0.276626 0.611806
O O15 0.981202 0.192190 0.217171
O O16 0.921129 0.000000 0.260778
O O17 0.750000 0.832781 0.510055
O O18 0.684523 0.000000 0.507117
O O19 0.440427 0.780880 0.175929
O O20 0.390399 0.000000 0.106739
O O21 0.466148 0.000000 0.311788
#
# Coordination Sequence:
#
# PCOD8211150 Si02
#       8
#     8   8   8   8   8   8   8   8
#     4  12  25  39  56  82 114 145 183 229 278 328
#     4   9  19  38  63  88 114 146 183 221 265 320
#     4  10  20  34  53  79 110 142 177 219 269 323
#     4  10  20  33  52  81 114 144 177 223 280 336
#     4  11  22  36  55  80 111 146 187 230 271 323
#     4   9  18  33  55  84 114 142 175 216 263 319
#     4  10  21  40  61  77 101 142 189 232 274 321
#     4   9  20  37  57  80 106 143 188 231 275 325
#
# _framework density 19.250309999999999
#
# number of rings (size 3 to 8) (size 9 to 14) (size 15 to 20)
#    0.000    2.000    0.000    4.500    0.000    8.000 
#    0.000    4.375    0.000    3.750    0.000    0.000 
#    0.000    0.000    0.000    0.000    0.000    0.000 
#
# Total GULP energy -793781.145304 kJ/mol
# GULP energy per Si atom -12402.830395 kJ/mol
# Density = 1.920650 g / cm^3
# Si number density = 19.250310 Si / 1000 Ang^3
#
#
#
# Elastic Constant Matrix: (Units=GPa)
#
#
# Indices 1 2 3 4 5 6 
#
# 1 78.0733 39.6145 50.3068 0.0000 0.0000 0.0000
# 2 39.6145 77.2639 31.5129 0.0000 0.0000 0.0000
# 3 50.3068 31.5129 78.4168 0.0000 0.0000 0.0000
# 4 0.0000 0.0000 0.0000 32.9599 0.0000 0.0000
# 5 0.0000 0.0000 0.0000 0.0000 21.4063 0.0000
# 6 0.0000 0.0000 0.0000 0.0000 0.0000 22.8395
#
#
#
# Elastic Compliance Matrix: (Units=1/GPa)
#
#
# Indices 1 2 3 4 5 6 
#
# 1 0.025016 -0.007512 -0.013030 0.000000 0.000000 0.000000
# 2 -0.007512 0.017735 -0.002308 0.000000 0.000000 0.000000
# 3 -0.013030 -0.002308 0.022039 0.000000 0.000000 0.000000
# 4 0.000000 0.000000 0.000000 0.030340 0.000000 0.000000
# 5 0.000000 0.000000 0.000000 0.000000 0.046715 0.000000
# 6 0.000000 0.000000 0.000000 0.000000 0.000000 0.043784
#
#
# Mechanical properties :
#
#
# Convention : Reuss Voigt Hill
#
# Bulk Modulus (GPa) = 52.38114 52.95803 52.66958
# Shear Modulus (GPa) = 21.03566 22.92912 21.98239
#
# Velocity S-wave (km/s) = 3.30925 3.45498 3.38290
# Velocity P-wave (km/s) = 6.47079 6.59438 6.53288
#
# Compressibility (1/GPa) = 0.01909084
#
# Stress axis : x y z
#
# Youngs Moduli (GPa) = 39.97506 56.38416 45.37436
#
# Poissons Ratio (x) = 0.42354 0.59121
# Poissons Ratio (y) = 0.30028 0.10474
# Poissons Ratio (z) = 0.52086 0.13015
#
# Static dielectric constant tensor:
#      x y z
#    x 3.606670 0.000000 0.000000 
#    y 0.000000 3.573550 0.000000 
#    z 0.000000 0.000000 3.404720 
# 
# 
# High freq. dielectric constant tensor:
#      x y z
#    x 1.754000 0.000000 0.000000 
#    y 0.000000 1.752680 0.000000 
#    z 0.000000 0.000000 1.735770 
# 
# From -- ./inp_files/19476.got.cif
#   From: 2010.03.12/outbox.cif.g09.slc.cpg/sg51_10_cif.got.tgz:19476.got - 2010.04.16 13:43:02.
