data_PCOD8211677
_publ_section_title
;
Structure prediction by ZEFSAII (Michael W. Deem and Ramdas Pophale) SiO2 
 PCOD8211677
Probable space group: P M M A
;
_chemical_formula_sum "Si O2"
_cell_formula_units_Z 64
_cell_length_a 28.483874
_cell_length_b 9.310535
_cell_length_c 12.576103
_cell_angle_alpha 90.000000
_cell_angle_beta 90.000000
_cell_angle_gamma 90.000000
_cell_volume 3335.183846
_symmetry_space_group_name_H-M "P M M A"
_symmetry_group_IT_number 51
_symmetry_cell_setting 'orthorhombic'
loop_
_space_group_symop_operation_xyz
x,y,z
1/2-x,-y,z
1/2+x,-y,-z
-x,y,-z
-x,-y,-z
1/2+x,y,-z
1/2-x,y,z
x,-y,z
loop_
_atom_site_type_symbol
_atom_site_label
_atom_site_fract_x
_atom_site_fract_y
_atom_site_fract_z
Si Si1 0.376153 0.170153 0.340992
Si Si2 0.056358 0.336792 0.741651
Si Si3 0.303256 0.833874 0.514617
Si Si4 0.018808 0.170097 0.386090
Si Si5 0.160350 0.667715 0.710831
Si Si6 0.630180 0.167518 0.896417
Si Si7 0.304431 0.166505 0.912507
Si Si8 0.052726 0.334561 0.984440
O O1 0.338338 0.230102 0.425494
O O2 0.428323 0.228308 0.368673
O O3 0.359827 0.221075 0.223841
O O4 0.376214 0.000000 0.348373
O O5 0.038939 0.500000 0.726040
O O6 0.105494 0.309114 0.680971
O O7 0.068011 0.305383 0.864089
O O8 0.015411 0.233219 0.702881
O O9 0.250000 0.817005 0.473013
O O10 0.308411 0.744588 0.622448
O O11 0.314687 0.000000 0.539986
O O12 0.000000 0.222813 0.500000
O O13 0.016787 0.000000 0.375645
O O14 0.173104 0.500000 0.715504
O O15 0.171230 0.735398 0.824940
O O16 0.619002 0.000000 0.895910
O O17 0.674090 0.204343 0.971984
O O18 0.583577 0.243456 0.935884
O O19 0.250000 0.204057 0.919064
O O20 0.313061 0.000000 0.883384
O O21 0.058532 0.500000 0.016361
O O22 0.000000 0.281683 0.000000
#
# Coordination Sequence:
#
# PCOD8211677 Si02
#       8
#     8   8   8   8   8   8   8   8
#     4   9  19  36  56  82 115 146 184 231 280 334
#     4  10  21  35  52  78 110 144 184 227 275 331
#     4  10  21  38  61  85 110 145 187 232 284 340
#     4  10  20  34  54  80 110 147 187 229 277 329
#     4  11  22  37  57  82 114 147 183 233 285 336
#     4  10  20  35  56  81 110 145 186 232 276 331
#     4  10  21  36  55  81 111 144 185 232 283 337
#     4  10  20  35  54  77 109 147 185 227 275 329
#
# _framework density 19.189347000000001
#
# number of rings (size 3 to 8) (size 9 to 14) (size 15 to 20)
#    0.000    2.000    1.250    2.250    0.000    5.500 
#    0.000    3.750    0.000    0.000    0.000    1.750 
#    0.000    0.000    0.000    0.000    0.000    0.000 
#
# Total GULP energy -793729.110324 kJ/mol
# GULP energy per Si atom -12402.017349 kJ/mol
# Density = 1.914567 g / cm^3
# Si number density = 19.189347 Si / 1000 Ang^3
#
#
#
# Elastic Constant Matrix: (Units=GPa)
#
#
# Indices 1 2 3 4 5 6 
#
# 1 118.8300 39.1381 56.0043 0.0000 0.0000 0.0000
# 2 39.1381 50.4693 38.0738 0.0000 0.0000 0.0000
# 3 56.0043 38.0738 106.4076 0.0000 0.0000 0.0000
# 4 0.0000 0.0000 0.0000 10.3207 0.0000 0.0000
# 5 0.0000 0.0000 0.0000 0.0000 34.9042 0.0000
# 6 0.0000 0.0000 0.0000 0.0000 0.0000 16.0624
#
#
#
# Elastic Compliance Matrix: (Units=1/GPa)
#
#
# Indices 1 2 3 4 5 6 
#
# 1 0.012586 -0.006524 -0.004290 0.000000 0.000000 0.000000
# 2 -0.006524 0.030522 -0.007487 0.000000 0.000000 0.000000
# 3 -0.004290 -0.007487 0.014335 0.000000 0.000000 0.000000
# 4 0.000000 0.000000 0.000000 0.096892 0.000000 0.000000
# 5 0.000000 0.000000 0.000000 0.000000 0.028650 0.000000
# 6 0.000000 0.000000 0.000000 0.000000 0.000000 0.062257
#
#
# Mechanical properties :
#
#
# Convention : Reuss Voigt Hill
#
# Bulk Modulus (GPa) = 47.98457 60.23769 54.11113
# Shear Modulus (GPa) = 17.31360 21.75686 19.53523
#
# Velocity S-wave (km/s) = 3.00701 3.37085 3.19411
# Velocity P-wave (km/s) = 6.09231 6.82711 6.47015
#
# Compressibility (1/GPa) = 0.02084003
#
# Stress axis : x y z
#
# Youngs Moduli (GPa) = 79.45392 32.76371 69.76076
#
# Poissons Ratio (x) = 0.21375 0.29926
# Poissons Ratio (y) = 0.51835 0.52232
# Poissons Ratio (z) = 0.34085 0.24531
#
# Static dielectric constant tensor:
#      x y z
#    x 3.616480 0.000000 0.000000 
#    y 0.000000 3.282380 0.000000 
#    z 0.000000 0.000000 3.664330 
# 
# 
# High freq. dielectric constant tensor:
#      x y z
#    x 1.756770 0.000000 0.000000 
#    y 0.000000 1.724540 0.000000 
#    z 0.000000 0.000000 1.751220 
# 
# From -- ./inp_files/19620.got.cif
#   From: 2010.03.12/outbox.cif.g09.slc.cpg/sg51_10_cif.got.tgz:19620.got - 2010.04.16 13:43:02.
