data_PCOD8211886
_publ_section_title
;
Structure prediction by ZEFSAII (Michael W. Deem and Ramdas Pophale) SiO2 
 PCOD8211886
Probable space group: P M M A
;
_chemical_formula_sum "Si O2"
_cell_formula_units_Z 48
_cell_length_a 27.752488
_cell_length_b 8.979427
_cell_length_c 10.163804
_cell_angle_alpha 90.000000
_cell_angle_beta 90.000000
_cell_angle_gamma 90.000000
_cell_volume 2532.834593
_symmetry_space_group_name_H-M "P M M A"
_symmetry_group_IT_number 51
_symmetry_cell_setting 'orthorhombic'
loop_
_space_group_symop_operation_xyz
x,y,z
1/2-x,-y,z
1/2+x,-y,-z
-x,y,-z
-x,-y,-z
1/2+x,y,-z
1/2-x,y,z
x,-y,z
loop_
_atom_site_type_symbol
_atom_site_label
_atom_site_fract_x
_atom_site_fract_y
_atom_site_fract_z
Si Si1 0.609116 0.674864 0.518589
Si Si2 0.544220 0.671280 0.270935
Si Si3 0.694996 0.171507 0.391917
Si Si4 0.598905 0.669590 0.001096
Si Si5 0.696308 0.329966 0.120678
Si Si6 0.943575 0.824913 0.755818
O O1 0.611491 0.500000 0.539612
O O2 0.574091 0.718747 0.399013
O O3 0.662548 0.734217 0.491166
O O4 0.591044 0.748121 0.651703
O O5 0.527243 0.500000 0.280540
O O6 0.498156 0.775605 0.264952
O O7 0.577273 0.698222 0.144814
O O8 0.750000 0.197003 0.435511
O O9 0.687073 0.222905 0.242777
O O10 0.679895 0.000000 0.400408
O O11 0.588958 0.500000 0.955526
O O12 0.573836 0.781226 0.901095
O O13 0.656389 0.702536 0.008682
O O14 0.750000 0.304364 0.061373
O O15 0.690152 0.500000 0.171123
O O16 0.940177 0.000000 0.738683
#
# Coordination Sequence:
#
# PCOD8211886 Si02
#       6
#     8   8   8   8   8   8
#     4  11  22  40  63  86 112 151 197 239 283 337
#     4  10  21  39  62  86 110 147 197 243 286 337
#     4  10  20  34  56  88 122 151 182 229 287 340
#     4  10  20  38  60  85 115 152 193 238 285 335
#     4   9  17  33  59  88 114 145 191 237 277 332
#     4  12  26  39  54  83 119 156 191 236 296 350
#
# _framework density 18.951098999999999
#
# number of rings (size 3 to 8) (size 9 to 14) (size 15 to 20)
#    0.000    1.667    1.667    3.500    0.000    7.667 
#    0.000    0.833    0.000    3.000    0.000    0.000 
#    0.000    0.000    0.000    0.000    0.000    0.000 
#
# Total GULP energy -595383.255196 kJ/mol
# GULP energy per Si atom -12403.817817 kJ/mol
# Density = 1.890797 g / cm^3
# Si number density = 18.951099 Si / 1000 Ang^3
#
#
#
# Elastic Constant Matrix: (Units=GPa)
#
#
# Indices 1 2 3 4 5 6 
#
# 1 87.2061 45.4575 3.3158 0.0000 0.0000 0.0000
# 2 45.4575 97.1960 23.4990 0.0000 0.0000 0.0000
# 3 3.3158 23.4990 45.3943 0.0000 0.0000 0.0000
# 4 0.0000 0.0000 0.0000 16.5767 0.0000 0.0000
# 5 0.0000 0.0000 0.0000 0.0000 -33.2847 0.0000
# 6 0.0000 0.0000 0.0000 0.0000 0.0000 28.8350
#
#
#
# Elastic Compliance Matrix: (Units=1/GPa)
#
#
# Indices 1 2 3 4 5 6 
#
# 1 0.015513 -0.007980 0.002998 0.000000 0.000000 0.000000
# 2 -0.007980 0.015865 -0.007630 0.000000 0.000000 0.000000
# 3 0.002998 -0.007630 0.025760 0.000000 0.000000 0.000000
# 4 0.000000 0.000000 0.000000 0.060326 0.000000 0.000000
# 5 0.000000 0.000000 0.000000 0.000000 -0.030044 0.000000
# 6 0.000000 0.000000 0.000000 0.000000 0.000000 0.034680
#
#
# Mechanical properties :
#
#
# Convention : Reuss Voigt Hill
#
# Bulk Modulus (GPa) = 31.33438 41.59344 36.46391
# Shear Modulus (GPa) = 31.65314 12.92702 22.29008
#
# Velocity S-wave (km/s) = 4.09131 2.61459 3.43328
# Velocity P-wave (km/s) = 6.23607 5.57765 5.91603
#
# Compressibility (1/GPa) = 0.03191383
#
# Stress axis : x y z
#
# Youngs Moduli (GPa) = 64.46302 63.03057 38.81985
#
# Poissons Ratio (x) = 0.50298 -0.11637
# Poissons Ratio (y) = 0.51441 0.29620
# Poissons Ratio (z) = -0.19325 0.48092
#
# Static dielectric constant tensor:
#      x y z
#    x 3.772840 0.000000 0.000000 
#    y 0.000000 3.523970 0.000000 
#    z 0.000000 0.000000 3.310320 
# 
# 
# High freq. dielectric constant tensor:
#      x y z
#    x 1.753000 0.000000 0.000000 
#    y 0.000000 1.737030 0.000000 
#    z 0.000000 0.000000 1.718770 
# 
# From -- ./inp_files/12797.got.cif
#   From: 2010.03.12/outbox.cif.g09.slc.cpg/sg51_7_cif.got.tgz:12797.got - 2010.04.16 13:43:02.
