data_PCOD8211955
_publ_section_title
;
Structure prediction by ZEFSAII (Michael W. Deem and Ramdas Pophale) SiO2 
 PCOD8211955
Probable space group: P M M A
;
_chemical_formula_sum "Si O2"
_cell_formula_units_Z 56
_cell_length_a 22.108793
_cell_length_b 9.163477
_cell_length_c 14.722848
_cell_angle_alpha 90.000000
_cell_angle_beta 90.000000
_cell_angle_gamma 90.000000
_cell_volume 2982.752072
_symmetry_space_group_name_H-M "P M M A"
_symmetry_group_IT_number 51
_symmetry_cell_setting 'orthorhombic'
loop_
_space_group_symop_operation_xyz
x,y,z
1/2-x,-y,z
1/2+x,-y,-z
-x,y,-z
-x,-y,-z
1/2+x,y,-z
1/2-x,y,z
x,-y,z
loop_
_atom_site_type_symbol
_atom_site_label
_atom_site_fract_x
_atom_site_fract_y
_atom_site_fract_z
Si Si1 0.181941 0.331272 0.202050
Si Si2 0.586225 0.328353 0.289561
Si Si3 0.818716 0.334015 0.438373
Si Si4 0.489360 0.834326 0.398293
Si Si5 0.944829 0.830942 0.118401
Si Si6 0.151166 0.833529 0.380592
Si Si7 0.081463 0.830547 0.086973
O O1 0.250000 0.313360 0.162457
O O2 0.165017 0.500000 0.214624
O O3 0.181390 0.256339 0.300201
O O4 0.134124 0.261097 0.133585
O O5 0.583152 0.500000 0.279190
O O6 0.640852 0.278295 0.354550
O O7 0.523608 0.270401 0.329749
O O8 0.594831 0.259975 0.189955
O O9 0.750000 0.324102 0.405067
O O10 0.836253 0.500000 0.465043
O O11 0.828639 0.231303 0.523850
O O12 0.500000 0.775672 0.500000
O O13 0.420347 0.824913 0.369683
O O14 0.513959 0.000000 0.390360
O O15 0.015246 0.782094 0.122049
O O16 0.940847 0.000000 0.143920
O O17 0.915656 0.801812 0.020471
O O18 0.173769 0.000000 0.375990
O O19 0.092320 0.000000 0.109657
#
# Coordination Sequence:
#
# PCOD8211955 Si02
#       7
#     8   8   8   8   8   8   8
#     4  11  24  39  55  80 116 153 185 225 278 329
#     4  11  22  34  54  83 111 143 184 224 266 324
#     4  10  22  39  54  71 104 147 185 224 268 314
#     4  10  20  35  53  77 111 145 176 222 281 325
#     4   9  19  37  61  86 113 141 174 223 284 333
#     4  11  22  36  57  82 107 142 187 228 271 326
#     4   9  19  38  62  86 110 142 181 224 274 331
#
# _framework density 18.774608000000001
#
# number of rings (size 3 to 8) (size 9 to 14) (size 15 to 20)
#    0.000    1.857    1.429    3.429    0.000    9.714 
#    0.000    2.143    0.000    2.571    0.000    0.000 
#    0.000    0.000    0.000    0.000    0.000    0.000 
#
# Total GULP energy -694561.238359 kJ/mol
# GULP energy per Si atom -12402.879256 kJ/mol
# Density = 1.873188 g / cm^3
# Si number density = 18.774608 Si / 1000 Ang^3
#
#
#
# Elastic Constant Matrix: (Units=GPa)
#
#
# Indices 1 2 3 4 5 6 
#
# 1 91.5441 49.7217 47.8130 0.0000 0.0000 0.0000
# 2 49.7217 95.8333 62.4946 0.0000 0.0000 0.0000
# 3 47.8130 62.4946 118.6578 0.0000 0.0000 0.0000
# 4 0.0000 0.0000 0.0000 31.5584 0.0000 0.0000
# 5 0.0000 0.0000 0.0000 0.0000 20.3119 0.0000
# 6 0.0000 0.0000 0.0000 0.0000 0.0000 33.1972
#
#
#
# Elastic Compliance Matrix: (Units=1/GPa)
#
#
# Indices 1 2 3 4 5 6 
#
# 1 0.015947 -0.006220 -0.003150 0.000000 0.000000 0.000000
# 2 -0.006220 0.018319 -0.007142 0.000000 0.000000 0.000000
# 3 -0.003150 -0.007142 0.013459 0.000000 0.000000 0.000000
# 4 0.000000 0.000000 0.000000 0.031687 0.000000 0.000000
# 5 0.000000 0.000000 0.000000 0.000000 0.049232 0.000000
# 6 0.000000 0.000000 0.000000 0.000000 0.000000 0.030123
#
#
# Mechanical properties :
#
#
# Convention : Reuss Voigt Hill
#
# Bulk Modulus (GPa) = 68.02222 69.56596 68.79409
# Shear Modulus (GPa) = 25.42045 26.74723 26.08384
#
# Velocity S-wave (km/s) = 3.68364 3.77855 3.73139
# Velocity P-wave (km/s) = 7.37576 7.49468 7.43546
#
# Compressibility (1/GPa) = 0.01470108
#
# Stress axis : x y z
#
# Youngs Moduli (GPa) = 62.70700 54.58713 74.30213
#
# Poissons Ratio (x) = 0.33952 0.23406
# Poissons Ratio (y) = 0.39002 0.53068
# Poissons Ratio (z) = 0.19753 0.38987
#
# Static dielectric constant tensor:
#      x y z
#    x 3.360580 0.000000 0.000000 
#    y 0.000000 3.486380 0.000000 
#    z 0.000000 0.000000 3.481760 
# 
# 
# High freq. dielectric constant tensor:
#      x y z
#    x 1.724990 0.000000 0.000000 
#    y 0.000000 1.730900 0.000000 
#    z 0.000000 0.000000 1.732220 
# 
# From -- ./inp_files/25666.got.cif
#   From: 2010.03.12/outbox.cif.g09.slc.cpg/sg51_13_cif.got.tgz:25666.got - 2010.04.16 13:43:02.
