data_PCOD8211584
_publ_section_title
;
Structure prediction by ZEFSAII (Michael W. Deem and Ramdas Pophale) SiO2 
 PCOD8211584
Probable space group: P M M A
;
_chemical_formula_sum "Si O2"
_cell_formula_units_Z 40
_cell_length_a 17.503442
_cell_length_b 9.214808
_cell_length_c 12.865106
_cell_angle_alpha 90.000000
_cell_angle_beta 90.000000
_cell_angle_gamma 90.000000
_cell_volume 2075.023977
_symmetry_space_group_name_H-M "P M M A"
_symmetry_group_IT_number 51
_symmetry_cell_setting 'orthorhombic'
loop_
_space_group_symop_operation_xyz
x,y,z
1/2-x,-y,z
1/2+x,-y,-z
-x,y,-z
-x,-y,-z
1/2+x,y,-z
1/2-x,y,z
x,-y,z
loop_
_atom_site_type_symbol
_atom_site_label
_atom_site_fract_x
_atom_site_fract_y
_atom_site_fract_z
Si Si1 0.088858 0.668080 0.481829
Si Si2 0.159487 0.836812 0.670781
Si Si3 0.838524 0.830106 0.703573
Si Si4 0.659301 0.839396 0.936466
Si Si5 0.841208 0.337125 0.130751
O O1 0.112163 0.500000 0.485213
O O2 0.136198 0.751465 0.568572
O O3 0.109147 0.733640 0.370211
O O4 0.000000 0.691388 0.500000
O O5 0.250000 0.842258 0.675584
O O6 0.126890 0.755751 0.772574
O O7 0.125902 0.000000 0.668029
O O8 0.750000 0.791772 0.684299
O O9 0.863803 0.788468 0.820834
O O10 0.852532 0.000000 0.682196
O O11 0.750000 0.846318 0.943207
O O12 0.626317 0.000000 0.959050
O O13 0.626605 0.730191 0.023298
O O14 0.750000 0.336546 0.130564
O O15 0.873010 0.500000 0.140940
#
# Coordination Sequence:
#
# PCOD8211584 Si02
#       5
#     8   8   8   8   8
#     4  11  24  38  51  71 101 135 170 210 257 305
#     4  10  20  34  54  78 102 131 169 210 251 297
#     4   9  18  33  54  79 104 132 169 210 250 296
#     4   8  14  26  45  71 103 133 161 198 243 291
#     4   9  16  26  44  73 106 135 163 198 243 294
#
# _framework density 19.276886000000001
#
# number of rings (size 3 to 8) (size 9 to 14) (size 15 to 20)
#    0.000    2.600    0.000    3.600    0.000    8.800 
#    0.000    2.000    0.000    1.200    0.000    8.400 
#    0.000    0.000    0.000    0.000    0.000    0.000 
#
# Total GULP energy -495965.747036 kJ/mol
# GULP energy per Si atom -12399.143676 kJ/mol
# Density = 1.923301 g / cm^3
# Si number density = 19.276886 Si / 1000 Ang^3
#
#
#
# Elastic Constant Matrix: (Units=GPa)
#
#
# Indices 1 2 3 4 5 6 
#
# 1 8.1316 11.3818 3.4023 0.0000 0.0000 0.0000
# 2 11.3818 132.0598 71.5086 0.0000 0.0000 0.0000
# 3 3.4023 71.5086 140.2026 0.0000 0.0000 0.0000
# 4 0.0000 0.0000 0.0000 73.2147 0.0000 0.0000
# 5 0.0000 0.0000 0.0000 0.0000 0.5406 0.0000
# 6 0.0000 0.0000 0.0000 0.0000 0.0000 15.2757
#
#
#
# Elastic Compliance Matrix: (Units=1/GPa)
#
#
# Indices 1 2 3 4 5 6 
#
# 1 0.141333 -0.014263 0.003845 0.000000 0.000000 0.000000
# 2 -0.014263 0.011901 -0.005724 0.000000 0.000000 0.000000
# 3 0.003845 -0.005724 0.009959 0.000000 0.000000 0.000000
# 4 0.000000 0.000000 0.000000 0.013658 0.000000 0.000000
# 5 0.000000 0.000000 0.000000 0.000000 1.849913 0.000000
# 6 0.000000 0.000000 0.000000 0.000000 0.000000 0.065463
#
#
# Mechanical properties :
#
#
# Convention : Reuss Voigt Hill
#
# Bulk Modulus (GPa) = 7.63892 50.33103 28.98497
# Shear Modulus (GPa) = 2.30612 30.74629 16.52620
#
# Velocity S-wave (km/s) = 1.09495 3.99806 2.93116
# Velocity P-wave (km/s) = 2.36006 6.89049 5.15018
#
# Compressibility (1/GPa) = 0.13090859
#
# Stress axis : x y z
#
# Youngs Moduli (GPa) = 7.07550 84.02662 100.41573
#
# Poissons Ratio (x) = 1.19847 -0.38610
# Poissons Ratio (y) = 0.10092 0.57476
# Poissons Ratio (z) = -0.02721 0.48095
#
# Static dielectric constant tensor:
#      x y z
#    x 2.904190 0.000000 0.000000 
#    y 0.000000 3.763220 0.000000 
#    z 0.000000 0.000000 3.837130 
# 
# 
# High freq. dielectric constant tensor:
#      x y z
#    x 1.693120 0.000000 0.000000 
#    y 0.000000 1.758350 0.000000 
#    z 0.000000 0.000000 1.768800 
# 
# From -- ./inp_files/17094.got.cif
#   From: 2010.03.12/outbox.cif.g09.slc.cpg/sg51_9_cif.got.tgz:17094.got - 2010.04.16 13:43:02.
