data_PCOD8211193
_publ_section_title
;
Structure prediction by ZEFSAII (Michael W. Deem and Ramdas Pophale) SiO2 
 PCOD8211193
Probable space group: P M M A
;
_chemical_formula_sum "Si O2"
_cell_formula_units_Z 64
_cell_length_a 28.394781
_cell_length_b 9.662936
_cell_length_c 12.378418
_cell_angle_alpha 90.000000
_cell_angle_beta 90.000000
_cell_angle_gamma 90.000000
_cell_volume 3396.352596
_symmetry_space_group_name_H-M "P M M A"
_symmetry_group_IT_number 51
_symmetry_cell_setting 'orthorhombic'
loop_
_space_group_symop_operation_xyz
x,y,z
1/2-x,-y,z
1/2+x,-y,-z
-x,y,-z
-x,-y,-z
1/2+x,y,-z
1/2-x,y,z
x,-y,z
loop_
_atom_site_type_symbol
_atom_site_label
_atom_site_fract_x
_atom_site_fract_y
_atom_site_fract_z
Si Si1 0.196246 0.661124 0.906363
Si Si2 0.373902 0.660155 0.343745
Si Si3 0.696287 0.839972 0.515898
Si Si4 0.052887 0.841622 0.986552
Si Si5 0.554299 0.843576 0.260703
Si Si6 0.372257 0.658338 0.096097
Si Si7 0.157748 0.841249 0.713035
Si Si8 0.018573 0.661981 0.382073
O O1 0.250000 0.708429 0.917209
O O2 0.191703 0.500000 0.877906
O O3 0.171576 0.743918 0.811225
O O4 0.172191 0.695784 0.021102
O O5 0.368330 0.500000 0.375713
O O6 0.338332 0.747263 0.414867
O O7 0.359222 0.686661 0.220114
O O8 0.427428 0.708462 0.367189
O O9 0.750000 0.805728 0.547631
O O10 0.689944 0.805695 0.389457
O O11 0.684165 0.000000 0.538097
O O12 0.068334 0.819722 0.863609
O O13 0.058210 0.000000 0.023553
O O14 0.083652 0.751423 0.066582
O O15 0.000000 0.789596 0.000000
O O16 0.603356 0.815588 0.323101
O O17 0.513323 0.740484 0.295287
O O18 0.535993 0.000000 0.279772
O O19 0.387781 0.500000 0.079787
O O20 0.164514 0.000000 0.750487
O O21 0.012630 0.500000 0.359561
O O22 0.000000 0.703639 0.500000
#
# Coordination Sequence:
#
# PCOD8211193 Si02
#       8
#     8   8   8   8   8   8   8   8
#     4  10  21  36  55  81 111 144 186 235 286 337
#     4  10  22  39  58  82 113 151 194 234 282 343
#     4  10  22  39  59  84 111 142 184 236 292 344
#     4  10  20  34  53  80 113 147 186 232 278 330
#     4  10  20  33  53  82 112 146 188 228 278 339
#     4  10  21  37  56  80 111 148 190 233 278 336
#     4  10  20  37  59  84 115 147 185 234 285 343
#     4  10  21  36  54  80 113 149 191 237 283 334
#
# _framework density 18.843743
#
# number of rings (size 3 to 8) (size 9 to 14) (size 15 to 20)
#    0.000    2.000    1.250    1.875    0.000    4.500 
#    0.000    1.250    0.000    0.000    0.000    0.000 
#    0.000    0.000    0.000    0.000    0.000    0.000 
#
# Total GULP energy -793788.214793 kJ/mol
# GULP energy per Si atom -12402.940856 kJ/mol
# Density = 1.880085 g / cm^3
# Si number density = 18.843743 Si / 1000 Ang^3
#
#
#
# Elastic Constant Matrix: (Units=GPa)
#
#
# Indices 1 2 3 4 5 6 
#
# 1 125.1663 56.9815 55.4721 0.0000 0.0000 0.0000
# 2 56.9815 63.9930 46.9573 0.0000 0.0000 0.0000
# 3 55.4721 46.9573 89.6934 0.0000 0.0000 0.0000
# 4 0.0000 0.0000 0.0000 26.4312 0.0000 0.0000
# 5 0.0000 0.0000 0.0000 0.0000 33.5009 0.0000
# 6 0.0000 0.0000 0.0000 0.0000 0.0000 37.2588
#
#
#
# Elastic Compliance Matrix: (Units=1/GPa)
#
#
# Indices 1 2 3 4 5 6 
#
# 1 0.014075 -0.009978 -0.003481 0.000000 0.000000 0.000000
# 2 -0.009978 0.032449 -0.010817 0.000000 0.000000 0.000000
# 3 -0.003481 -0.010817 0.018965 0.000000 0.000000 0.000000
# 4 0.000000 0.000000 0.000000 0.037834 0.000000 0.000000
# 5 0.000000 0.000000 0.000000 0.000000 0.029850 0.000000
# 6 0.000000 0.000000 0.000000 0.000000 0.000000 0.026839
#
#
# Mechanical properties :
#
#
# Convention : Reuss Voigt Hill
#
# Bulk Modulus (GPa) = 59.04362 66.40828 62.72595
# Shear Modulus (GPa) = 23.34169 27.40098 25.37134
#
# Velocity S-wave (km/s) = 3.52333 3.81742 3.67332
# Velocity P-wave (km/s) = 6.92482 7.39921 7.16594
#
# Compressibility (1/GPa) = 0.01693663
#
# Stress axis : x y z
#
# Youngs Moduli (GPa) = 71.05010 30.81743 52.72964
#
# Poissons Ratio (x) = 0.30751 0.18353
# Poissons Ratio (y) = 0.70897 0.57037
# Poissons Ratio (z) = 0.24729 0.33335
#
# Static dielectric constant tensor:
#      x y z
#    x 3.552810 0.000000 0.000000 
#    y 0.000000 3.400520 0.000000 
#    z 0.000000 0.000000 3.460770 
# 
# 
# High freq. dielectric constant tensor:
#      x y z
#    x 1.741260 0.000000 0.000000 
#    y 0.000000 1.727970 0.000000 
#    z 0.000000 0.000000 1.732910 
# 
# From -- ./inp_files/19449.got.cif
#   From: 2010.03.12/outbox.cif.g09.slc.cpg/sg51_10_cif.got.tgz:19449.got - 2010.04.16 13:43:02.
