data_PCOD8211914
_publ_section_title
;
Structure prediction by ZEFSAII (Michael W. Deem and Ramdas Pophale) SiO2 
 PCOD8211914
Probable space group: P M M A
;
_chemical_formula_sum "Si O2"
_cell_formula_units_Z 56
_cell_length_a 20.598456
_cell_length_b 9.302982
_cell_length_c 15.002052
_cell_angle_alpha 90.000000
_cell_angle_beta 90.000000
_cell_angle_gamma 90.000000
_cell_volume 2874.799200
_symmetry_space_group_name_H-M "P M M A"
_symmetry_group_IT_number 51
_symmetry_cell_setting 'orthorhombic'
loop_
_space_group_symop_operation_xyz
x,y,z
1/2-x,-y,z
1/2+x,-y,-z
-x,y,-z
-x,-y,-z
1/2+x,y,-z
1/2-x,y,z
x,-y,z
loop_
_atom_site_type_symbol
_atom_site_label
_atom_site_fract_x
_atom_site_fract_y
_atom_site_fract_z
Si Si1 0.131410 0.835869 0.483593
Si Si2 0.250000 0.668906 0.408489
Si Si3 0.535069 0.832509 0.663376
Si Si4 0.573998 0.669721 0.000738
Si Si5 0.750000 0.154961 0.760972
Si Si6 0.614289 0.839907 0.835071
Si Si7 0.106280 0.834941 0.690141
Si Si8 0.325673 0.670123 0.845455
O O1 0.187247 0.729649 0.455712
O O2 0.065415 0.784631 0.432166
O O3 0.128704 0.825392 0.588847
O O4 0.146494 0.000000 0.453339
O O5 0.250000 0.500000 0.417119
O O6 0.250000 0.712275 0.305543
O O7 0.585330 0.791305 0.740415
O O8 0.465746 0.762808 0.689456
O O9 0.519926 0.000000 0.657045
O O10 0.573784 0.500000 0.003877
O O11 0.622358 0.725680 0.079541
O O12 0.500000 0.729808 0.000000
O O13 0.600413 0.720852 0.907231
O O14 0.809268 0.161314 0.827758
O O15 0.750000 0.000000 0.709042
O O16 0.588680 0.000000 0.861605
O O17 0.154376 0.744420 0.752660
O O18 0.107278 0.000000 0.723973
O O19 0.250000 0.710076 0.868850
O O20 0.331845 0.500000 0.833412
#
# Coordination Sequence:
#
# PCOD8211914 Si02
#       8
#     8   4   8   8   4   8   8   8
#     4  10  20  37  59  82 117 156 189 235 292 344
#     4  12  24  36  54  83 116 153 200 241 276 332
#     4   9  17  34  59  88 118 148 183 230 290 351
#     4  10  22  40  61  85 114 152 194 236 290 352
#     4  10  20  38  58  83 118 155 186 225 292 352
#     4  10  20  34  59  88 116 148 183 229 288 342
#     4  10  21  36  61  90 111 144 198 245 284 336
#     4  10  23  42  59  78 114 160 195 236 296 350
#
# _framework density 19.479621999999999
#
# number of rings (size 3 to 8) (size 9 to 14) (size 15 to 20)
#    0.000    2.000    1.429    1.929    2.000    4.000 
#    0.000    0.714    0.000    1.714    0.000    0.000 
#    0.000    0.000    0.000    0.000    0.000    0.000 
#
# Total GULP energy -694001.905222 kJ/mol
# GULP energy per Si atom -12392.891165 kJ/mol
# Density = 1.943529 g / cm^3
# Si number density = 19.479622 Si / 1000 Ang^3
#
#
#
# Elastic Constant Matrix: (Units=GPa)
#
#
# Indices 1 2 3 4 5 6 
#
# 1 145.1441 39.1702 41.7466 0.0000 0.0000 0.0000
# 2 39.1702 38.2409 19.4319 0.0000 0.0000 0.0000
# 3 41.7466 19.4319 84.3683 0.0000 0.0000 0.0000
# 4 0.0000 0.0000 0.0000 -333.8207 0.0000 0.0000
# 5 0.0000 0.0000 0.0000 0.0000 24.9310 0.0000
# 6 0.0000 0.0000 0.0000 0.0000 0.0000 21.0089
#
#
#
# Elastic Compliance Matrix: (Units=1/GPa)
#
#
# Indices 1 2 3 4 5 6 
#
# 1 0.010140 -0.008876 -0.002973 0.000000 0.000000 0.000000
# 2 -0.008876 0.037385 -0.004219 0.000000 0.000000 0.000000
# 3 -0.002973 -0.004219 0.014296 0.000000 0.000000 0.000000
# 4 0.000000 0.000000 0.000000 -0.002996 0.000000 0.000000
# 5 0.000000 0.000000 0.000000 0.000000 0.040111 0.000000
# 6 0.000000 0.000000 0.000000 0.000000 0.000000 0.047599
#
#
# Mechanical properties :
#
#
# Convention : Reuss Voigt Hill
#
# Bulk Modulus (GPa) = 33.68646 52.05005 42.86826
# Shear Modulus (GPa) = 26.51597 -46.41583 -9.94993
#
# Velocity S-wave (km/s) = 3.69347 -4.88668 -2.26251
# Velocity P-wave (km/s) = 5.95984 2.24972 3.90246
#
# Compressibility (1/GPa) = 0.02968552
#
# Stress axis : x y z
#
# Youngs Moduli (GPa) = 98.61764 26.74855 69.95132
#
# Poissons Ratio (x) = 0.23741 0.20798
# Poissons Ratio (y) = 0.87531 0.29511
# Poissons Ratio (z) = 0.29321 0.11285
#
# Static dielectric constant tensor:
#      x y z
#    x 4.205250 0.000000 0.000000 
#    y 0.000000 3.300740 0.000000 
#    z 0.000000 0.000000 3.491780 
# 
# 
# High freq. dielectric constant tensor:
#      x y z
#    x 1.778400 0.000000 0.000000 
#    y 0.000000 1.726370 0.000000 
#    z 0.000000 0.000000 1.759300 
# 
# From -- ./inp_files/25895.got.cif
#   From: 2010.03.12/outbox.cif.g09.slc.cpg/sg51_13_cif.got.tgz:25895.got - 2010.04.16 13:43:02.
