data_PCOD8211884
_publ_section_title
;
Structure prediction by ZEFSAII (Michael W. Deem and Ramdas Pophale) SiO2 
 PCOD8211884
Probable space group: P M M A
;
_chemical_formula_sum "Si O2"
_cell_formula_units_Z 48
_cell_length_a 9.755911
_cell_length_b 7.765548
_cell_length_c 32.157988
_cell_angle_alpha 90.000000
_cell_angle_beta 90.000000
_cell_angle_gamma 90.000000
_cell_volume 2436.289015
_symmetry_space_group_name_H-M "P M M A"
_symmetry_group_IT_number 51
_symmetry_cell_setting 'orthorhombic'
loop_
_space_group_symop_operation_xyz
x,y,z
1/2-x,-y,z
1/2+x,-y,-z
-x,y,-z
-x,-y,-z
1/2+x,y,-z
1/2-x,y,z
x,-y,z
loop_
_atom_site_type_symbol
_atom_site_label
_atom_site_fract_x
_atom_site_fract_y
_atom_site_fract_z
Si Si1 0.092666 0.000000 0.323516
Si Si2 0.592044 0.308759 0.184027
Si Si3 0.409224 0.203625 0.539137
Si Si4 0.405222 0.305828 0.385815
Si Si5 0.516161 0.805645 0.097653
Si Si6 0.750000 0.303360 0.944593
Si Si7 0.087608 0.000000 0.757773
Si Si8 0.750000 0.795344 0.037927
O O1 0.060099 0.828779 0.349717
O O2 0.250000 0.000000 0.308193
O O3 0.990399 0.000000 0.285340
O O4 0.750000 0.270687 0.173613
O O5 0.570757 0.500000 0.202936
O O6 0.510908 0.299370 0.140613
O O7 0.539198 0.169495 0.217189
O O8 0.500000 0.264536 0.500000
O O9 0.250000 0.264847 0.534924
O O10 0.480907 0.288979 0.578668
O O11 0.415330 0.000000 0.544171
O O12 0.250000 0.269011 0.402871
O O13 0.413896 0.500000 0.367821
O O14 0.374089 0.800795 0.074432
O O15 0.621495 0.728627 0.064352
O O16 0.558062 0.000000 0.109260
O O17 0.750000 0.500000 0.929464
O O18 0.750000 0.299786 0.994193
O O19 0.250000 0.000000 0.749224
O O20 0.750000 0.000000 0.030356
#
# Coordination Sequence:
#
# PCOD8211884 Si02
#       8
#     4   8   8   8   8   4   4   4
#     4  10  22  42  63  89 122 155 194 243 307 373
#     4  10  20  37  63  91 117 150 194 238 288 351
#     4  10  20  34  56  87 124 167 216 264 310 359
#     4  10  21  38  62  88 119 163 208 252 304 362
#     4  11  21  39  63  84 114 155 199 242 288 345
#     4  12  26  38  50  84 126 156 196 243 291 340
#     4  10  22  40  64  89 116 148 191 241 295 356
#     4  10  22  38  62  84 110 154 204 242 284 343
#
# _framework density 19.702093999999999
#
# number of rings (size 3 to 8) (size 9 to 14) (size 15 to 20)
#    0.000    1.667    2.500    2.250    0.000    6.000 
#    1.500    0.000    0.000    0.000    0.000    0.000 
#    0.000    0.000    0.000    0.000    0.000    0.000 
#
# Total GULP energy -595220.133669 kJ/mol
# GULP energy per Si atom -12400.419451 kJ/mol
# Density = 1.965725 g / cm^3
# Si number density = 19.702094 Si / 1000 Ang^3
#
#
#
# Elastic Constant Matrix: (Units=GPa)
#
#
# Indices 1 2 3 4 5 6 
#
# 1 123.2205 32.2121 66.8635 0.0000 0.0000 0.0000
# 2 32.2121 111.5781 56.8117 0.0000 0.0000 0.0000
# 3 66.8635 56.8117 135.0932 0.0000 0.0000 0.0000
# 4 0.0000 0.0000 0.0000 4.1849 0.0000 0.0000
# 5 0.0000 0.0000 0.0000 0.0000 18.5322 0.0000
# 6 0.0000 0.0000 0.0000 0.0000 0.0000 20.0814
#
#
#
# Elastic Compliance Matrix: (Units=1/GPa)
#
#
# Indices 1 2 3 4 5 6 
#
# 1 0.011119 -0.000519 -0.005285 0.000000 0.000000 0.000000
# 2 -0.000519 0.011428 -0.004549 0.000000 0.000000 0.000000
# 3 -0.005285 -0.004549 0.011931 0.000000 0.000000 0.000000
# 4 0.000000 0.000000 0.000000 0.238957 0.000000 0.000000
# 5 0.000000 0.000000 0.000000 0.000000 0.053960 0.000000
# 6 0.000000 0.000000 0.000000 0.000000 0.000000 0.049797
#
#
# Mechanical properties :
#
#
# Convention : Reuss Voigt Hill
#
# Bulk Modulus (GPa) = 72.61024 75.74071 74.17548
# Shear Modulus (GPa) = 12.42265 22.82666 17.62466
#
# Velocity S-wave (km/s) = 2.51375 3.40750 2.99416
# Velocity P-wave (km/s) = 6.73493 7.34900 7.04866
#
# Compressibility (1/GPa) = 0.01377216
#
# Stress axis : x y z
#
# Youngs Moduli (GPa) = 89.93579 87.50074 83.81397
#
# Poissons Ratio (x) = 0.04542 0.44296
# Poissons Ratio (y) = 0.04668 0.38129
# Poissons Ratio (z) = 0.47531 0.39806
#
# Static dielectric constant tensor:
#      x y z
#    x 3.566430 0.000000 0.000000 
#    y 0.000000 3.650930 0.000000 
#    z 0.000000 0.000000 3.355120 
# 
# 
# High freq. dielectric constant tensor:
#      x y z
#    x 1.763870 0.000000 0.000000 
#    y 0.000000 1.777900 0.000000 
#    z 0.000000 0.000000 1.752950 
# 
# From -- ./inp_files/37285.got.cif
#   From: 2010.03.12/outbox.cif.g09.slc.cpg/sg51_19_cif.got.tgz:37285.got - 2010.04.16 13:43:02.
