data_PCOD8211245
_publ_section_title
;
Structure prediction by ZEFSAII (Michael W. Deem and Ramdas Pophale) SiO2 
 PCOD8211245
Probable space group: P M M A
;
_chemical_formula_sum "Si O2"
_cell_formula_units_Z 48
_cell_length_a 18.495543
_cell_length_b 7.677512
_cell_length_c 17.675658
_cell_angle_alpha 90.000000
_cell_angle_beta 90.000000
_cell_angle_gamma 90.000000
_cell_volume 2509.939076
_symmetry_space_group_name_H-M "P M M A"
_symmetry_group_IT_number 51
_symmetry_cell_setting 'orthorhombic'
loop_
_space_group_symop_operation_xyz
x,y,z
1/2-x,-y,z
1/2+x,-y,-z
-x,y,-z
-x,-y,-z
1/2+x,y,-z
1/2-x,y,z
x,-y,z
loop_
_atom_site_type_symbol
_atom_site_label
_atom_site_fract_x
_atom_site_fract_y
_atom_site_fract_z
Si Si1 0.669315 0.294992 0.772766
Si Si2 0.831270 0.197209 0.933951
Si Si3 0.094640 0.299534 0.784580
Si Si4 0.025994 0.000000 0.585542
Si Si5 0.164124 0.000000 0.687303
Si Si6 0.562551 0.693924 0.050007
Si Si7 0.537058 0.695766 0.678103
O O1 0.750000 0.222930 0.754941
O O2 0.670126 0.500000 0.783668
O O3 0.636182 0.213717 0.849629
O O4 0.616751 0.242934 0.704143
O O5 0.750000 0.265335 0.928251
O O6 0.837385 0.000000 0.962714
O O7 0.868381 0.317397 0.996037
O O8 0.125197 0.500000 0.784218
O O9 0.084958 0.221215 0.869691
O O10 0.014967 0.295623 0.750171
O O11 0.147906 0.173178 0.737106
O O12 0.989875 0.175502 0.614582
O O13 0.000000 0.000000 0.500000
O O14 0.111799 0.000000 0.611453
O O15 0.250000 0.000000 0.664663
O O16 0.534585 0.500000 0.069539
O O17 0.500000 0.792442 0.000000
O O18 0.538898 0.500000 0.644393
#
# Coordination Sequence:
#
# PCOD8211245 Si02
#       7
#     8   8   8   4   4   8   8
#     4   9  17  31  51  74 103 141 181 220 265 314
#     4  10  21  32  43  66 101 138 176 218 268 320
#     4   9  19  35  55  79 106 143 190 235 277 320
#     4  10  22  40  62  89 114 141 174 205 259 335
#     4  10  22  40  61  83 112 143 180 227 274 329
#     4  10  20  34  50  70  99 137 185 237 282 322
#     4   9  18  35  58  82 110 141 176 218 260 314
#
# _framework density 19.12397
#
# number of rings (size 3 to 8) (size 9 to 14) (size 15 to 20)
#    0.000    2.500    0.000    1.500    2.333    5.333 
#    3.000    2.500    0.000    0.000    0.000    0.000 
#    0.000    0.000    0.000    0.000    0.000    0.000 
#
# Total GULP energy -594740.221212 kJ/mol
# GULP energy per Si atom -12390.421275 kJ/mol
# Density = 1.908044 g / cm^3
# Si number density = 19.123970 Si / 1000 Ang^3
#
#
#
# Elastic Constant Matrix: (Units=GPa)
#
#
# Indices 1 2 3 4 5 6 
#
# 1 101.3891 34.1836 64.6315 0.0000 0.0000 0.0000
# 2 34.1836 68.1124 40.9853 0.0000 0.0000 0.0000
# 3 64.6315 40.9853 123.0743 0.0000 0.0000 0.0000
# 4 0.0000 0.0000 0.0000 16.9973 0.0000 0.0000
# 5 0.0000 0.0000 0.0000 0.0000 21.2343 0.0000
# 6 0.0000 0.0000 0.0000 0.0000 0.0000 19.4584
#
#
#
# Elastic Compliance Matrix: (Units=1/GPa)
#
#
# Indices 1 2 3 4 5 6 
#
# 1 0.015503 -0.003604 -0.006941 0.000000 0.000000 0.000000
# 2 -0.003604 0.019199 -0.004501 0.000000 0.000000 0.000000
# 3 -0.006941 -0.004501 0.013269 0.000000 0.000000 0.000000
# 4 0.000000 0.000000 0.000000 0.058833 0.000000 0.000000
# 5 0.000000 0.000000 0.000000 0.000000 0.047094 0.000000
# 6 0.000000 0.000000 0.000000 0.000000 0.000000 0.051392
#
#
# Mechanical properties :
#
#
# Convention : Reuss Voigt Hill
#
# Bulk Modulus (GPa) = 55.93157 63.57517 59.75337
# Shear Modulus (GPa) = 20.71772 21.72302 21.22037
#
# Velocity S-wave (km/s) = 3.29498 3.37398 3.33471
# Velocity P-wave (km/s) = 6.61711 6.96378 6.79266
#
# Compressibility (1/GPa) = 0.01787899
#
# Stress axis : x y z
#
# Youngs Moduli (GPa) = 64.50533 52.08736 75.36341
#
# Poissons Ratio (x) = 0.18771 0.52310
# Poissons Ratio (y) = 0.23246 0.33920
# Poissons Ratio (z) = 0.44773 0.23444
#
# Static dielectric constant tensor:
#      x y z
#    x 3.630800 0.000000 0.000000 
#    y 0.000000 3.599270 0.000000 
#    z 0.000000 0.000000 3.228710 
# 
# 
# High freq. dielectric constant tensor:
#      x y z
#    x 1.737650 0.000000 0.000000 
#    y 0.000000 1.746760 0.000000 
#    z 0.000000 0.000000 1.711760 
# 
# From -- ./inp_files/24855.got.cif
#   From: 2010.03.12/outbox.cif.g09.slc.cpg/sg51_13_cif.got.tgz:24855.got - 2010.04.16 13:43:02.
