data_PCOD8211439
_publ_section_title
;
Structure prediction by ZEFSAII (Michael W. Deem and Ramdas Pophale) SiO2 
 PCOD8211439
Probable space group: P M M A
;
_chemical_formula_sum "Si O2"
_cell_formula_units_Z 64
_cell_length_a 19.153201
_cell_length_b 9.151590
_cell_length_c 19.959981
_cell_angle_alpha 90.000000
_cell_angle_beta 90.000000
_cell_angle_gamma 90.000000
_cell_volume 3498.630235
_symmetry_space_group_name_H-M "P M M A"
_symmetry_group_IT_number 51
_symmetry_cell_setting 'orthorhombic'
loop_
_space_group_symop_operation_xyz
x,y,z
1/2-x,-y,z
1/2+x,-y,-z
-x,y,-z
-x,-y,-z
1/2+x,y,-z
1/2-x,y,z
x,-y,z
loop_
_atom_site_type_symbol
_atom_site_label
_atom_site_fract_x
_atom_site_fract_y
_atom_site_fract_z
Si Si1 0.576022 0.829185 0.241672
Si Si2 0.063392 0.331178 0.236319
Si Si3 0.577341 0.329737 0.610161
Si Si4 0.670099 0.330430 0.878092
Si Si5 0.170080 0.829638 0.491137
Si Si6 0.937342 0.830906 0.395327
Si Si7 0.667246 0.666921 0.139004
Si Si8 0.166902 0.165079 0.991261
O O1 0.502166 0.767801 0.216071
O O2 0.586207 0.794552 0.320001
O O3 0.638323 0.748149 0.204049
O O4 0.579723 0.000000 0.225939
O O5 0.041354 0.500000 0.229002
O O6 0.088229 0.296608 0.311462
O O7 0.126775 0.289429 0.187763
O O8 0.574973 0.500000 0.594317
O O9 0.642787 0.259094 0.572653
O O10 0.505270 0.260476 0.583631
O O11 0.750000 0.287983 0.862829
O O12 0.663320 0.500000 0.896849
O O13 0.639656 0.239864 0.940693
O O14 0.250000 0.786054 0.504799
O O15 0.126427 0.785963 0.557005
O O16 0.162337 0.000000 0.474933
O O17 0.957609 0.000000 0.403036
O O18 0.750000 0.676972 0.142569
O O19 0.641490 0.500000 0.137819
O O20 0.637971 0.745685 0.072354
O O21 0.250000 0.168744 0.990583
O O22 0.138322 0.000000 0.987675
#
# Coordination Sequence:
#
# PCOD8211439 Si02
#       8
#     8   8   8   8   8   8   8   8
#     4  10  20  34  54  78 103 132 169 215 259 299
#     4   9  19  35  53  74 104 139 171 206 251 306
#     4  10  20  34  54  78 103 134 172 212 254 302
#     4   9  17  31  52  75  99 132 172 209 249 301
#     4  10  21  36  53  75 104 136 170 210 255 303
#     4   9  19  36  56  75  99 136 176 209 249 306
#     4  10  20  34  53  76 103 136 171 207 251 306
#     4   9  17  30  49  74 103 133 167 209 254 299
#
# _framework density 18.292873
#
# number of rings (size 3 to 8) (size 9 to 14) (size 15 to 20)
#    0.000    2.500    0.000    1.875    0.000    7.000 
#    0.000    3.125    0.000    5.250    0.000    0.000 
#    0.000    0.000    0.000    0.000    0.000    0.000 
#
# Total GULP energy -793814.089618 kJ/mol
# GULP energy per Si atom -12403.345150 kJ/mol
# Density = 1.825124 g / cm^3
# Si number density = 18.292873 Si / 1000 Ang^3
#
#
#
# Elastic Constant Matrix: (Units=GPa)
#
#
# Indices 1 2 3 4 5 6 
#
# 1 76.1703 44.7552 50.1921 0.0000 0.0000 0.0000
# 2 44.7552 96.4463 53.5384 0.0000 0.0000 0.0000
# 3 50.1921 53.5384 99.0713 0.0000 0.0000 0.0000
# 4 0.0000 0.0000 0.0000 33.9290 0.0000 0.0000
# 5 0.0000 0.0000 0.0000 0.0000 28.9011 0.0000
# 6 0.0000 0.0000 0.0000 0.0000 0.0000 28.5719
#
#
#
# Elastic Compliance Matrix: (Units=1/GPa)
#
#
# Indices 1 2 3 4 5 6 
#
# 1 0.021674 -0.005660 -0.007922 0.000000 0.000000 0.000000
# 2 -0.005660 0.016290 -0.005935 0.000000 0.000000 0.000000
# 3 -0.007922 -0.005935 0.017315 0.000000 0.000000 0.000000
# 4 0.000000 0.000000 0.000000 0.029473 0.000000 0.000000
# 5 0.000000 0.000000 0.000000 0.000000 0.034601 0.000000
# 6 0.000000 0.000000 0.000000 0.000000 0.000000 0.034999
#
#
# Mechanical properties :
#
#
# Convention : Reuss Voigt Hill
#
# Bulk Modulus (GPa) = 61.56257 63.18435 62.37346
# Shear Modulus (GPa) = 25.15057 26.49389 25.82223
#
# Velocity S-wave (km/s) = 3.71196 3.80981 3.76120
# Velocity P-wave (km/s) = 7.21793 7.34631 7.28240
#
# Compressibility (1/GPa) = 0.01624364
#
# Stress axis : x y z
#
# Youngs Moduli (GPa) = 46.13728 61.38770 57.75409
#
# Poissons Ratio (x) = 0.34747 0.45753
# Poissons Ratio (y) = 0.26115 0.34280
# Poissons Ratio (z) = 0.36550 0.36436
#
# Static dielectric constant tensor:
#      x y z
#    x 3.199840 0.000000 0.000000 
#    y 0.000000 3.464030 0.000000 
#    z 0.000000 0.000000 3.470460 
# 
# 
# High freq. dielectric constant tensor:
#      x y z
#    x 1.689180 0.000000 0.000000 
#    y 0.000000 1.714920 0.000000 
#    z 0.000000 0.000000 1.716890 
# 
# From -- ./inp_files/33902.got.cif
#   From: 2010.03.12/outbox.cif.g09.slc.cpg/sg51_17_cif.got.tgz:33902.got - 2010.04.16 13:43:02.
