data_PCOD8211233
_publ_section_title
;
Structure prediction by ZEFSAII (Michael W. Deem and Ramdas Pophale) SiO2 
 PCOD8211233
Probable space group: P M M A
;
_chemical_formula_sum "Si O2"
_cell_formula_units_Z 64
_cell_length_a 28.412005
_cell_length_b 8.834844
_cell_length_c 15.700513
_cell_angle_alpha 90.000000
_cell_angle_beta 90.000000
_cell_angle_gamma 90.000000
_cell_volume 3941.074192
_symmetry_space_group_name_H-M "P M M A"
_symmetry_group_IT_number 51
_symmetry_cell_setting 'orthorhombic'
loop_
_space_group_symop_operation_xyz
x,y,z
1/2-x,-y,z
1/2+x,-y,-z
-x,y,-z
-x,-y,-z
1/2+x,y,-z
1/2-x,y,z
x,-y,z
loop_
_atom_site_type_symbol
_atom_site_label
_atom_site_fract_x
_atom_site_fract_y
_atom_site_fract_z
Si Si1 0.802987 0.822443 0.900822
Si Si2 0.696572 0.674697 0.080907
Si Si3 0.445871 0.823297 0.999129
Si Si4 0.559005 0.318842 0.319656
Si Si5 0.392869 0.679023 0.155770
Si Si6 0.444308 0.665288 0.495754
Si Si7 0.112861 0.177274 0.833164
Si Si8 0.952307 0.319207 0.685944
O O1 0.750000 0.778207 0.872935
O O2 0.839567 0.740431 0.838259
O O3 0.811477 0.000000 0.896432
O O4 0.813166 0.770681 0.996550
O O5 0.750000 0.696479 0.113008
O O6 0.685798 0.500000 0.060477
O O7 0.662099 0.736766 0.153227
O O8 0.417836 0.732104 0.070024
O O9 0.441151 0.000000 0.020060
O O10 0.500000 0.770721 0.000000
O O11 0.424185 0.782466 0.907488
O O12 0.564520 0.500000 0.313565
O O13 0.572194 0.257471 0.415429
O O14 0.593605 0.235364 0.256076
O O15 0.505864 0.268620 0.296610
O O16 0.392137 0.500000 0.157222
O O17 0.420447 0.744319 0.237654
O O18 0.500000 0.645234 0.500000
O O19 0.420445 0.500000 0.493422
O O20 0.433063 0.748675 0.405259
O O21 0.122680 0.000000 0.828501
O O22 0.950397 0.500000 0.680017
#
# Coordination Sequence:
#
# PCOD8211233 Si02
#       8
#     8   8   8   8   8   8   8   8
#     4  10  20  34  50  66  88 119 153 190 233 280
#     4  10  20  34  52  71  89 112 149 197 239 275
#     4  10  21  34  44  58  89 132 167 189 217 265
#     4   9  16  28  48  69  92 124 160 196 228 269
#     4  11  20  29  46  70  94 121 153 194 233 271
#     4   7  11  23  44  67  90 118 153 193 235 273
#     4  11  21  31  45  66  95 129 156 187 229 273
#     4   8  15  27  44  70  97 121 154 194 236 275
#
# _framework density 16.239228000000001
#
# number of rings (size 3 to 8) (size 9 to 14) (size 15 to 20)
#    0.000    2.500    1.250    3.750    0.000    2.250 
#    0.000    0.625    0.000    4.875    0.000    0.875 
#    0.000    3.000    0.000    0.000    0.000    0.000 
#
# Total GULP energy -793216.851835 kJ/mol
# GULP energy per Si atom -12394.013310 kJ/mol
# Density = 1.620227 g / cm^3
# Si number density = 16.239228 Si / 1000 Ang^3
#
#
#
# Elastic Constant Matrix: (Units=GPa)
#
#
# Indices 1 2 3 4 5 6 
#
# 1 85.6049 21.1498 33.5921 0.0000 0.0000 0.0000
# 2 21.1498 35.0640 16.8860 0.0000 0.0000 0.0000
# 3 33.5921 16.8860 89.0450 0.0000 0.0000 0.0000
# 4 0.0000 0.0000 0.0000 6.3410 0.0000 0.0000
# 5 0.0000 0.0000 0.0000 0.0000 14.5503 0.0000
# 6 0.0000 0.0000 0.0000 0.0000 0.0000 22.9587
#
#
#
# Elastic Compliance Matrix: (Units=1/GPa)
#
#
# Indices 1 2 3 4 5 6 
#
# 1 0.015134 -0.007020 -0.004378 0.000000 0.000000 0.000000
# 2 -0.007020 0.034642 -0.003921 0.000000 0.000000 0.000000
# 3 -0.004378 -0.003921 0.013625 0.000000 0.000000 0.000000
# 4 0.000000 0.000000 0.000000 0.157705 0.000000 0.000000
# 5 0.000000 0.000000 0.000000 0.000000 0.068727 0.000000
# 6 0.000000 0.000000 0.000000 0.000000 0.000000 0.043556
#
#
# Mechanical properties :
#
#
# Convention : Reuss Voigt Hill
#
# Bulk Modulus (GPa) = 30.52214 39.21888 34.87051
# Shear Modulus (GPa) = 13.33514 17.97571 15.65542
#
# Velocity S-wave (km/s) = 2.86871 3.33067 3.10828
# Velocity P-wave (km/s) = 5.45974 6.24454 5.86528
#
# Compressibility (1/GPa) = 0.03276310
#
# Stress axis : x y z
#
# Youngs Moduli (GPa) = 66.07659 28.86674 73.39219
#
# Poissons Ratio (x) = 0.20265 0.32131
# Poissons Ratio (y) = 0.46386 0.28777
# Poissons Ratio (z) = 0.28928 0.11319
#
# Static dielectric constant tensor:
#      x y z
#    x 3.122120 0.000000 0.000000 
#    y 0.000000 2.882800 0.000000 
#    z 0.000000 0.000000 3.308210 
# 
# 
# High freq. dielectric constant tensor:
#      x y z
#    x 1.608640 0.000000 0.000000 
#    y 0.000000 1.609290 0.000000 
#    z 0.000000 0.000000 1.618160 
# 
# From -- ./inp_files/26574.got.cif
#   From: 2010.03.12/outbox.cif.g09.slc.cpg/sg51_14_cif.got.tgz:26574.got - 2010.04.16 13:43:02.
