data_PCOD8211014
_publ_section_title
;
Structure prediction by ZEFSAII (Michael W. Deem and Ramdas Pophale) SiO2 
 PCOD8211014
Probable space group: P M M A
;
_chemical_formula_sum "Si O2"
_cell_formula_units_Z 64
_cell_length_a 9.008254
_cell_length_b 28.754565
_cell_length_c 13.671780
_cell_angle_alpha 90.000000
_cell_angle_beta 90.000000
_cell_angle_gamma 90.000000
_cell_volume 3541.379643
_symmetry_space_group_name_H-M "P M M A"
_symmetry_group_IT_number 51
_symmetry_cell_setting 'orthorhombic'
loop_
_space_group_symop_operation_xyz
x,y,z
1/2-x,-y,z
1/2+x,-y,-z
-x,y,-z
-x,-y,-z
1/2+x,y,-z
1/2-x,y,z
x,-y,z
loop_
_atom_site_type_symbol
_atom_site_label
_atom_site_fract_x
_atom_site_fract_y
_atom_site_fract_z
Si Si1 0.582527 0.879267 0.601850
Si Si2 0.921945 0.400769 0.897537
Si Si3 0.921695 0.860525 0.214745
Si Si4 0.925021 0.359876 0.396420
Si Si5 0.923778 0.768554 0.102909
Si Si6 0.075645 0.690443 0.222369
Si Si7 0.420389 0.447792 0.726303
Si Si8 0.581718 0.948168 0.761013
O O1 0.500000 0.877484 0.500000
O O2 0.750000 0.861552 0.586411
O O3 0.502780 0.846209 0.682986
O O4 0.578846 0.931831 0.646661
O O5 0.750000 0.409978 0.912650
O O6 0.954700 0.349235 0.857889
O O7 0.981559 0.438836 0.821775
O O8 0.000000 0.407754 0.000000
O O9 0.750000 0.866425 0.238410
O O10 0.950593 0.822046 0.132392
O O11 0.986351 0.910449 0.176517
O O12 0.750000 0.350936 0.403709
O O13 0.962265 0.412136 0.360101
O O14 0.000000 0.352385 0.500000
O O15 0.996899 0.322616 0.323545
O O16 0.750000 0.756385 0.095635
O O17 0.000425 0.737368 0.185064
O O18 0.000000 0.758622 0.000000
O O19 0.250000 0.697918 0.240443
O O20 0.250000 0.440703 0.757337
O O21 0.450960 0.500000 0.687937
O O22 0.750000 0.947595 0.800695
O O23 0.513619 0.000000 0.769852
#
# Coordination Sequence:
#
# PCOD8211014 Si02
#       8
#     8   8   8   8   8   8   8   8
#     4   9  17  29  47  71 102 138 174 212 254 302
#     4  10  20  33  51  76 105 139 176 218 268 322
#     4   9  19  34  50  74 105 137 173 214 259 310
#     4  10  20  36  58  82 111 144 179 219 264 314
#     4  11  23  38  59  84 109 136 172 215 264 320
#     4  10  21  37  58  83 109 136 174 219 267 319
#     4   9  19  35  53  75 105 142 183 225 266 311
#     4   8  16  30  48  72 103 140 179 217 260 308
#
# _framework density 18.072054000000001
#
# number of rings (size 3 to 8) (size 9 to 14) (size 15 to 20)
#    0.750    1.750    0.000    2.250    0.000    6.250 
#    0.000    0.625    0.000    3.375    0.000    0.000 
#    0.000    0.000    0.000    0.000    0.000    0.000 
#
# Total GULP energy -793302.458501 kJ/mol
# GULP energy per Si atom -12395.350914 kJ/mol
# Density = 1.803092 g / cm^3
# Si number density = 18.072054 Si / 1000 Ang^3
#
#
#
# Elastic Constant Matrix: (Units=GPa)
#
#
# Indices 1 2 3 4 5 6 
#
# 1 117.3104 48.5822 58.4853 0.0000 0.0000 0.0000
# 2 48.5822 73.7225 49.9163 0.0000 0.0000 0.0000
# 3 58.4853 49.9163 104.9847 0.0000 0.0000 0.0000
# 4 0.0000 0.0000 0.0000 20.0309 0.0000 0.0000
# 5 0.0000 0.0000 0.0000 0.0000 29.5695 0.0000
# 6 0.0000 0.0000 0.0000 0.0000 0.0000 27.4331
#
#
#
# Elastic Compliance Matrix: (Units=1/GPa)
#
#
# Indices 1 2 3 4 5 6 
#
# 1 0.013141 -0.005461 -0.004724 0.000000 0.000000 0.000000
# 2 -0.005461 0.022274 -0.007548 0.000000 0.000000 0.000000
# 3 -0.004724 -0.007548 0.015746 0.000000 0.000000 0.000000
# 4 0.000000 0.000000 0.000000 0.049923 0.000000 0.000000
# 5 0.000000 0.000000 0.000000 0.000000 0.033819 0.000000
# 6 0.000000 0.000000 0.000000 0.000000 0.000000 0.036452
#
#
# Mechanical properties :
#
#
# Convention : Reuss Voigt Hill
#
# Bulk Modulus (GPa) = 63.71850 67.77615 65.74733
# Shear Modulus (GPa) = 23.57897 24.67561 24.12729
#
# Velocity S-wave (km/s) = 3.61601 3.69914 3.65781
# Velocity P-wave (km/s) = 7.26420 7.47192 7.36879
#
# Compressibility (1/GPa) = 0.01569403
#
# Stress axis : x y z
#
# Youngs Moduli (GPa) = 76.09554 44.89547 63.50914
#
# Poissons Ratio (x) = 0.24519 0.30003
# Poissons Ratio (y) = 0.41558 0.47937
# Poissons Ratio (z) = 0.35949 0.33887
#
# Static dielectric constant tensor:
#      x y z
#    x 3.453030 0.000000 0.000000 
#    y 0.000000 3.296310 0.000000 
#    z 0.000000 0.000000 3.066180 
# 
# 
# High freq. dielectric constant tensor:
#      x y z
#    x 1.714500 0.000000 0.000000 
#    y 0.000000 1.688260 0.000000 
#    z 0.000000 0.000000 1.682310 
# 
# From -- ./inp_files/22588.got.cif
#   From: 2010.03.12/outbox.cif.g09.slc.cpg/sg51_12_cif.got.tgz:22588.got - 2010.04.16 13:43:02.
