data_PCOD8211185
_publ_section_title
;
Structure prediction by ZEFSAII (Michael W. Deem and Ramdas Pophale) SiO2 
 PCOD8211185
Probable space group: P M M A
;
_chemical_formula_sum "Si O2"
_cell_formula_units_Z 44
_cell_length_a 8.977284
_cell_length_b 17.225246
_cell_length_c 15.190877
_cell_angle_alpha 90.000000
_cell_angle_beta 90.000000
_cell_angle_gamma 90.000000
_cell_volume 2349.055321
_symmetry_space_group_name_H-M "P M M A"
_symmetry_group_IT_number 51
_symmetry_cell_setting 'orthorhombic'
loop_
_space_group_symop_operation_xyz
x,y,z
1/2-x,-y,z
1/2+x,-y,-z
-x,y,-z
-x,-y,-z
1/2+x,y,-z
1/2-x,y,z
x,-y,z
loop_
_atom_site_type_symbol
_atom_site_label
_atom_site_fract_x
_atom_site_fract_y
_atom_site_fract_z
Si Si1 0.078689 0.699419 0.775912
Si Si2 0.422604 0.128031 0.417519
Si Si3 0.074490 0.000000 0.094709
Si Si4 0.075724 0.864253 0.223875
Si Si5 0.921390 0.707099 0.419889
Si Si6 0.424686 0.588906 0.089334
O O1 0.250000 0.698137 0.806793
O O2 0.064668 0.667634 0.675615
O O3 0.019976 0.786703 0.787800
O O4 0.981424 0.640533 0.831276
O O5 0.500000 0.082277 0.500000
O O6 0.250000 0.127985 0.439235
O O7 0.453142 0.094286 0.319407
O O8 0.485730 0.214267 0.414797
O O9 0.024286 0.923838 0.148564
O O10 0.250000 0.000000 0.081955
O O11 0.000000 0.000000 0.000000
O O12 0.250000 0.842702 0.215648
O O13 0.750000 0.723455 0.443197
O O14 0.000000 0.657925 0.500000
O O15 0.250000 0.599389 0.078994
O O16 0.469534 0.500000 0.108348
O O17 0.500000 0.618786 0.000000
#
# Coordination Sequence:
#
# PCOD8211185 Si02
#       6
#     8   8   4   8   8   8
#     4  10  20  33  53  81 109 137 172 213 255 303
#     4   9  15  25  44  69  97 129 162 201 249 300
#     4  10  22  40  57  72  94 130 173 216 263 308
#     4   9  19  35  53  73 101 136 173 212 256 307
#     4   9  16  26  43  70 102 135 170 207 247 293
#     4  10  21  37  57  80 106 136 169 208 257 310
#
# _framework density 18.730931999999999
#
# number of rings (size 3 to 8) (size 9 to 14) (size 15 to 20)
#    0.000    2.545    0.000    3.273    0.000    5.455 
#    0.000    2.273    0.000    0.545    0.000    0.000 
#    0.000    0.000    0.000    0.000    0.000    0.000 
#
# Total GULP energy -545189.070540 kJ/mol
# GULP energy per Si atom -12390.660694 kJ/mol
# Density = 1.868830 g / cm^3
# Si number density = 18.730932 Si / 1000 Ang^3
#
#
#
# Elastic Constant Matrix: (Units=GPa)
#
#
# Indices 1 2 3 4 5 6 
#
# 1 91.6981 31.0258 59.1739 0.0000 0.0000 0.0000
# 2 31.0258 55.4212 49.6206 0.0000 0.0000 0.0000
# 3 59.1739 49.6206 160.6690 0.0000 0.0000 0.0000
# 4 0.0000 0.0000 0.0000 -72.8384 0.0000 0.0000
# 5 0.0000 0.0000 0.0000 0.0000 39.2359 0.0000
# 6 0.0000 0.0000 0.0000 0.0000 0.0000 13.8616
#
#
#
# Elastic Compliance Matrix: (Units=1/GPa)
#
#
# Indices 1 2 3 4 5 6 
#
# 1 0.015186 -0.004829 -0.004102 0.000000 0.000000 0.000000
# 2 -0.004829 0.026476 -0.006398 0.000000 0.000000 0.000000
# 3 -0.004102 -0.006398 0.009711 0.000000 0.000000 0.000000
# 4 0.000000 0.000000 0.000000 -0.013729 0.000000 0.000000
# 5 0.000000 0.000000 0.000000 0.000000 0.025487 0.000000
# 6 0.000000 0.000000 0.000000 0.000000 0.000000 0.072142
#
#
# Mechanical properties :
#
#
# Convention : Reuss Voigt Hill
#
# Bulk Modulus (GPa) = 48.27528 65.26987 56.77258
# Shear Modulus (GPa) = 28.92945 7.24969 18.08957
#
# Velocity S-wave (km/s) = 3.93424 1.96948 3.11104
# Velocity P-wave (km/s) = 6.81665 6.33194 6.57876
#
# Compressibility (1/GPa) = 0.02071454
#
# Stress axis : x y z
#
# Youngs Moduli (GPa) = 65.84983 37.77076 102.98104
#
# Poissons Ratio (x) = 0.18240 0.42238
# Poissons Ratio (y) = 0.31800 0.65888
# Poissons Ratio (z) = 0.27009 0.24166
#
# Static dielectric constant tensor:
#      x y z
#    x 3.518640 0.000000 0.000000 
#    y 0.000000 3.012340 0.000000 
#    z 0.000000 0.000000 4.954070 
# 
# 
# High freq. dielectric constant tensor:
#      x y z
#    x 1.739390 0.000000 0.000000 
#    y 0.000000 1.679120 0.000000 
#    z 0.000000 0.000000 1.750060 
# 
# From -- ./inp_files/20917.got.cif
#   From: 2010.03.12/outbox.cif.g09.slc.cpg/sg51_11_cif.got.tgz:20917.got - 2010.04.16 13:43:02.
