data_PCOD8211458
_publ_section_title
;
Structure prediction by ZEFSAII (Michael W. Deem and Ramdas Pophale) SiO2 
 PCOD8211458
Probable space group: P M M A
;
_chemical_formula_sum "Si O2"
_cell_formula_units_Z 48
_cell_length_a 29.713971
_cell_length_b 9.384965
_cell_length_c 9.479294
_cell_angle_alpha 90.000000
_cell_angle_beta 90.000000
_cell_angle_gamma 90.000000
_cell_volume 2643.439320
_symmetry_space_group_name_H-M "P M M A"
_symmetry_group_IT_number 51
_symmetry_cell_setting 'orthorhombic'
loop_
_space_group_symop_operation_xyz
x,y,z
1/2-x,-y,z
1/2+x,-y,-z
-x,y,-z
-x,-y,-z
1/2+x,y,-z
1/2-x,y,z
x,-y,z
loop_
_atom_site_type_symbol
_atom_site_label
_atom_site_fract_x
_atom_site_fract_y
_atom_site_fract_z
Si Si1 0.250000 0.166853 0.353418
Si Si2 0.427581 0.836268 0.127156
Si Si3 0.750000 0.333881 0.358104
Si Si4 0.006040 0.835352 0.661673
Si Si5 0.674908 0.165291 0.863864
Si Si6 0.428413 0.333476 0.851280
Si Si7 0.675354 0.664287 0.138398
O O1 0.250000 0.248047 0.498955
O O2 0.294465 0.212678 0.267184
O O3 0.250000 0.000000 0.385730
O O4 0.459056 0.804428 0.260130
O O5 0.376799 0.798639 0.173886
O O6 0.431411 0.000000 0.077415
O O7 0.443665 0.738682 0.997686
O O8 0.750000 0.500000 0.394858
O O9 0.794310 0.290385 0.270558
O O10 0.045066 0.736554 0.722764
O O11 0.000000 0.792300 0.500000
O O12 0.020410 0.000000 0.677884
O O13 0.682007 0.000000 0.897105
O O14 0.690880 0.248053 0.002392
O O15 0.439532 0.500000 0.860254
O O16 0.376090 0.303372 0.821830
O O17 0.682896 0.500000 0.100022
#
# Coordination Sequence:
#
# PCOD8211458 Si02
#       7
#     4   8   4   8   8   8   8
#     4  10  21  34  50  78 110 134 163 206 252 296
#     4   9  18  34  54  74  99 132 169 207 246 293
#     4  10  21  36  52  72 102 138 169 198 242 300
#     4  10  21  35  51  73 101 135 172 205 243 298
#     4   9  18  33  53  76 101 130 165 207 252 294
#     4  10  20  34  53  77 102 128 164 211 257 296
#     4   9  19  35  54  76 100 129 169 211 247 293
#
# _framework density 18.158162999999998
#
# number of rings (size 3 to 8) (size 9 to 14) (size 15 to 20)
#    0.000    2.500    0.000    1.500    0.000    6.333 
#    0.000    1.667    0.000    0.000    0.000    0.000 
#    0.000    0.000    0.000    0.000    0.000    0.000 
#
# Total GULP energy -595371.764265 kJ/mol
# GULP energy per Si atom -12403.578422 kJ/mol
# Density = 1.811683 g / cm^3
# Si number density = 18.158163 Si / 1000 Ang^3
#
#
#
# Elastic Constant Matrix: (Units=GPa)
#
#
# Indices 1 2 3 4 5 6 
#
# 1 101.5251 54.9656 85.1595 0.0000 0.0000 0.0000
# 2 54.9656 78.7270 79.9944 0.0000 0.0000 0.0000
# 3 85.1595 79.9944 174.3439 0.0000 0.0000 0.0000
# 4 0.0000 0.0000 0.0000 13.4763 0.0000 0.0000
# 5 0.0000 0.0000 0.0000 0.0000 23.3336 0.0000
# 6 0.0000 0.0000 0.0000 0.0000 0.0000 26.4814
#
#
#
# Elastic Compliance Matrix: (Units=1/GPa)
#
#
# Indices 1 2 3 4 5 6 
#
# 1 0.018546 -0.007014 -0.005841 0.000000 0.000000 0.000000
# 2 -0.007014 0.026449 -0.008710 0.000000 0.000000 0.000000
# 3 -0.005841 -0.008710 0.012585 0.000000 0.000000 0.000000
# 4 0.000000 0.000000 0.000000 0.074205 0.000000 0.000000
# 5 0.000000 0.000000 0.000000 0.000000 0.042857 0.000000
# 6 0.000000 0.000000 0.000000 0.000000 0.000000 0.037762
#
#
# Mechanical properties :
#
#
# Convention : Reuss Voigt Hill
#
# Bulk Modulus (GPa) = 69.19623 88.31499 78.75561
# Shear Modulus (GPa) = 19.20491 21.62334 20.41412
#
# Velocity S-wave (km/s) = 3.25568 3.45459 3.35661
# Velocity P-wave (km/s) = 7.23345 8.04079 7.64778
#
# Compressibility (1/GPa) = 0.01445165
#
# Stress axis : x y z
#
# Youngs Moduli (GPa) = 53.91857 37.80893 79.45858
#
# Poissons Ratio (x) = 0.26518 0.46412
# Poissons Ratio (y) = 0.37817 0.69206
# Poissons Ratio (z) = 0.31494 0.32930
#
# Static dielectric constant tensor:
#      x y z
#    x 3.574250 0.000000 0.000000 
#    y 0.000000 3.353790 0.000000 
#    z 0.000000 0.000000 3.232210 
# 
# 
# High freq. dielectric constant tensor:
#      x y z
#    x 1.716860 0.000000 0.000000 
#    y 0.000000 1.701070 0.000000 
#    z 0.000000 0.000000 1.694950 
# 
# From -- ./inp_files/12885.got.cif
#   From: 2010.03.12/outbox.cif.g09.slc.cpg/sg51_7_cif.got.tgz:12885.got - 2010.04.16 13:43:02.
