data_PCOD8211483
_publ_section_title
;
Structure prediction by ZEFSAII (Michael W. Deem and Ramdas Pophale) SiO2 
 PCOD8211483
Probable space group: P M M A
;
_chemical_formula_sum "Si O2"
_cell_formula_units_Z 60
_cell_length_a 9.032997
_cell_length_b 19.827619
_cell_length_c 18.462715
_cell_angle_alpha 90.000000
_cell_angle_beta 90.000000
_cell_angle_gamma 90.000000
_cell_volume 3306.724376
_symmetry_space_group_name_H-M "P M M A"
_symmetry_group_IT_number 51
_symmetry_cell_setting 'orthorhombic'
loop_
_space_group_symop_operation_xyz
x,y,z
1/2-x,-y,z
1/2+x,-y,-z
-x,y,-z
-x,-y,-z
1/2+x,y,-z
1/2-x,y,z
x,-y,z
loop_
_atom_site_type_symbol
_atom_site_label
_atom_site_fract_x
_atom_site_fract_y
_atom_site_fract_z
Si Si1 0.578486 0.834048 0.286077
Si Si2 0.579591 0.000000 0.075369
Si Si3 0.921333 0.695960 0.215527
Si Si4 0.081957 0.251899 0.074859
Si Si5 0.914862 0.114489 0.851129
Si Si6 0.075914 0.576769 0.286912
Si Si7 0.085827 0.420358 0.567813
Si Si8 0.576985 0.922827 0.424740
O O1 0.750000 0.852065 0.268321
O O2 0.556959 0.752493 0.279314
O O3 0.465985 0.863762 0.228079
O O4 0.533186 0.867397 0.363266
O O5 0.538001 0.936244 0.122469
O O6 0.750000 0.000000 0.057747
O O7 0.500000 0.000000 0.000000
O O8 0.750000 0.678176 0.207035
O O9 0.983110 0.718962 0.138874
O O10 0.009584 0.627242 0.228843
O O11 0.250000 0.281732 0.073833
O O12 0.090500 0.172509 0.088716
O O13 0.000000 0.268221 0.000000
O O14 0.750000 0.082845 0.844384
O O15 0.250000 0.585391 0.292126
O O16 0.032356 0.500000 0.266523
O O17 0.007272 0.599128 0.362631
O O18 0.250000 0.388612 0.573625
O O19 0.098583 0.500000 0.557926
O O20 0.000000 0.388063 0.500000
O O21 0.500000 0.902146 0.500000
O O22 0.750000 0.919361 0.439316
O O23 0.532096 0.000000 0.401678
#
# Coordination Sequence:
#
# PCOD8211483 Si02
#       8
#     8   4   8   8   8   8   8   8
#     4   9  19  35  54  77 105 139 177 220 268 318
#     4  12  24  36  50  70 103 140 173 212 258 310
#     4  10  20  35  55  79 108 139 176 219 265 319
#     4  10  20  35  56  79 105 136 174 217 262 314
#     4  10  21  35  52  77 105 136 175 217 261 313
#     4  10  20  34  53  77 106 140 178 220 267 321
#     4   9  16  27  45  70 100 133 169 208 251 301
#     4   9  18  33  53  77 105 138 180 225 272 318
#
# _framework density 18.144843000000002
#
# number of rings (size 3 to 8) (size 9 to 14) (size 15 to 20)
#    0.000    2.267    0.000    3.000    0.933    6.133 
#    0.000    0.667    0.000    2.000    0.000    0.000 
#    0.000    0.000    0.000    0.000    0.000    0.000 
#
# Total GULP energy -743683.251770 kJ/mol
# GULP energy per Si atom -12394.720863 kJ/mol
# Density = 1.810354 g / cm^3
# Si number density = 18.144843 Si / 1000 Ang^3
#
#
#
# Elastic Constant Matrix: (Units=GPa)
#
#
# Indices 1 2 3 4 5 6 
#
# 1 105.3102 36.2965 35.9071 0.0000 0.0000 0.0000
# 2 36.2965 69.7702 40.1778 0.0000 0.0000 0.0000
# 3 35.9071 40.1778 92.1425 0.0000 0.0000 0.0000
# 4 0.0000 0.0000 0.0000 13.1109 0.0000 0.0000
# 5 0.0000 0.0000 0.0000 0.0000 34.9874 0.0000
# 6 0.0000 0.0000 0.0000 0.0000 0.0000 23.9150
#
#
#
# Elastic Compliance Matrix: (Units=1/GPa)
#
#
# Indices 1 2 3 4 5 6 
#
# 1 0.012024 -0.004750 -0.002615 0.000000 0.000000 0.000000
# 2 -0.004750 0.021015 -0.007312 0.000000 0.000000 0.000000
# 3 -0.002615 -0.007312 0.015060 0.000000 0.000000 0.000000
# 4 0.000000 0.000000 0.000000 0.076272 0.000000 0.000000
# 5 0.000000 0.000000 0.000000 0.000000 0.028582 0.000000
# 6 0.000000 0.000000 0.000000 0.000000 0.000000 0.041815
#
#
# Mechanical properties :
#
#
# Convention : Reuss Voigt Hill
#
# Bulk Modulus (GPa) = 53.34572 54.66506 54.00539
# Shear Modulus (GPa) = 21.70424 24.72543 23.21483
#
# Velocity S-wave (km/s) = 3.46232 3.69544 3.58078
# Velocity P-wave (km/s) = 6.74146 6.95707 6.85011
#
# Compressibility (1/GPa) = 0.01874564
#
# Stress axis : x y z
#
# Youngs Moduli (GPa) = 83.16471 47.58614 66.40053
#
# Poissons Ratio (x) = 0.22602 0.17362
# Poissons Ratio (y) = 0.39501 0.48554
# Poissons Ratio (z) = 0.21745 0.34796
#
# Static dielectric constant tensor:
#      x y z
#    x 3.490710 0.000000 0.000000 
#    y 0.000000 3.254860 0.000000 
#    z 0.000000 0.000000 3.272290 
# 
# 
# High freq. dielectric constant tensor:
#      x y z
#    x 1.720170 0.000000 0.000000 
#    y 0.000000 1.677770 0.000000 
#    z 0.000000 0.000000 1.697640 
# 
# From -- ./inp_files/28401.got.cif
#   From: 2010.03.12/outbox.cif.g09.slc.cpg/sg51_15_cif.got.tgz:28401.got - 2010.04.16 13:43:02.
