data_PCOD8211979
_publ_section_title
;
Structure prediction by ZEFSAII (Michael W. Deem and Ramdas Pophale) SiO2 
 PCOD8211979
Probable space group: P M M A
;
_chemical_formula_sum "Si O2"
_cell_formula_units_Z 56
_cell_length_a 13.704532
_cell_length_b 8.803013
_cell_length_c 23.743739
_cell_angle_alpha 90.000000
_cell_angle_beta 90.000000
_cell_angle_gamma 90.000000
_cell_volume 2864.472533
_symmetry_space_group_name_H-M "P M M A"
_symmetry_group_IT_number 51
_symmetry_cell_setting 'orthorhombic'
loop_
_space_group_symop_operation_xyz
x,y,z
1/2-x,-y,z
1/2+x,-y,-z
-x,y,-z
-x,-y,-z
1/2+x,y,-z
1/2-x,y,z
x,-y,z
loop_
_atom_site_type_symbol
_atom_site_label
_atom_site_fract_x
_atom_site_fract_y
_atom_site_fract_z
Si Si1 0.356911 0.819175 0.027966
Si Si2 0.547621 0.180303 0.085532
Si Si3 0.365999 0.171876 0.583789
Si Si4 0.139558 0.179403 0.356382
Si Si5 0.135244 0.823232 0.798401
Si Si6 0.633887 0.671629 0.528501
Si Si7 0.959861 0.321047 0.309002
O O1 0.250000 0.754836 0.044082
O O2 0.435743 0.765950 0.074679
O O3 0.355770 0.000000 0.025889
O O4 0.386395 0.758053 0.966001
O O5 0.586253 0.243408 0.144790
O O6 0.554867 0.000000 0.086890
O O7 0.250000 0.171789 0.580690
O O8 0.410103 0.254617 0.528389
O O9 0.397155 0.260281 0.639166
O O10 0.406304 0.000000 0.586354
O O11 0.250000 0.237524 0.345937
O O12 0.099394 0.232163 0.417371
O O13 0.069244 0.251715 0.309411
O O14 0.134559 0.000000 0.352904
O O15 0.250000 0.797817 0.802926
O O16 0.093198 0.725774 0.747826
O O17 0.110068 0.000000 0.788679
O O18 0.750000 0.675295 0.525129
O O19 0.594940 0.500000 0.534380
O O20 0.967042 0.500000 0.312870
#
# Coordination Sequence:
#
# PCOD8211979 Si02
#       7
#     8   8   8   8   8   8   8
#     4   8  12  20  38  68 105 139 171 214 267 317
#     4   8  14  24  41  68 102 139 177 216 264 321
#     4  10  20  35  55  79 108 140 175 218 267 318
#     4  10  21  39  61  81 102 131 170 216 264 317
#     4  10  20  35  54  75 103 140 180 221 265 316
#     4   9  17  31  53  81 111 139 168 207 260 321
#     4  12  25  38  54  76 103 136 176 221 268 319
#
# _framework density 19.549848000000001
#
# number of rings (size 3 to 8) (size 9 to 14) (size 15 to 20)
#    0.000    2.429    0.000    4.286    0.000    7.714 
#    0.000    3.571    0.000    2.571    0.000    2.000 
#    0.000    1.143    0.000    0.000    0.000    0.000 
#
# Total GULP energy -694354.015850 kJ/mol
# GULP energy per Si atom -12399.178854 kJ/mol
# Density = 1.950535 g / cm^3
# Si number density = 19.549848 Si / 1000 Ang^3
#
#
#
# Elastic Constant Matrix: (Units=GPa)
#
#
# Indices 1 2 3 4 5 6 
#
# 1 91.4295 26.8310 46.8926 0.0000 0.0000 0.0000
# 2 26.8310 88.2392 36.0889 0.0000 0.0000 0.0000
# 3 46.8926 36.0889 111.4157 0.0000 0.0000 0.0000
# 4 0.0000 0.0000 0.0000 2.6965 0.0000 0.0000
# 5 0.0000 0.0000 0.0000 0.0000 31.9280 0.0000
# 6 0.0000 0.0000 0.0000 0.0000 0.0000 17.9576
#
#
#
# Elastic Compliance Matrix: (Units=1/GPa)
#
#
# Indices 1 2 3 4 5 6 
#
# 1 0.014301 -0.002175 -0.005315 0.000000 0.000000 0.000000
# 2 -0.002175 0.013394 -0.003423 0.000000 0.000000 0.000000
# 3 -0.005315 -0.003423 0.012321 0.000000 0.000000 0.000000
# 4 0.000000 0.000000 0.000000 0.370852 0.000000 0.000000
# 5 0.000000 0.000000 0.000000 0.000000 0.031320 0.000000
# 6 0.000000 0.000000 0.000000 0.000000 0.000000 0.055687
#
#
# Mechanical properties :
#
#
# Convention : Reuss Voigt Hill
#
# Bulk Modulus (GPa) = 54.97207 56.74550 55.85878
# Shear Modulus (GPa) = 9.50995 22.60121 16.05558
#
# Velocity S-wave (km/s) = 2.20795 3.40381 2.86888
# Velocity P-wave (km/s) = 5.88897 6.67360 6.29353
#
# Compressibility (1/GPa) = 0.01819106
#
# Stress axis : x y z
#
# Youngs Moduli (GPa) = 69.92280 74.65911 81.16209
#
# Poissons Ratio (x) = 0.16239 0.43135
# Poissons Ratio (y) = 0.15208 0.27783
# Poissons Ratio (z) = 0.37162 0.25557
#
# Static dielectric constant tensor:
#      x y z
#    x 3.870020 0.000000 0.000000 
#    y 0.000000 3.292640 0.000000 
#    z 0.000000 0.000000 3.595390 
# 
# 
# High freq. dielectric constant tensor:
#      x y z
#    x 1.777950 0.000000 0.000000 
#    y 0.000000 1.731470 0.000000 
#    z 0.000000 0.000000 1.747690 
# 
# From -- ./inp_files/33478.got.cif
#   From: 2010.03.12/outbox.cif.g09.slc.cpg/sg51_17_cif.got.tgz:33478.got - 2010.04.16 13:43:02.
