data_PCOD8211951
_publ_section_title
;
Structure prediction by ZEFSAII (Michael W. Deem and Ramdas Pophale) SiO2 
 PCOD8211951
Probable space group: P M M A
;
_chemical_formula_sum "Si O2"
_cell_formula_units_Z 64
_cell_length_a 30.889194
_cell_length_b 9.340961
_cell_length_c 11.967138
_cell_angle_alpha 90.000000
_cell_angle_beta 90.000000
_cell_angle_gamma 90.000000
_cell_volume 3452.935249
_symmetry_space_group_name_H-M "P M M A"
_symmetry_group_IT_number 51
_symmetry_cell_setting 'orthorhombic'
loop_
_space_group_symop_operation_xyz
x,y,z
1/2-x,-y,z
1/2+x,-y,-z
-x,y,-z
-x,-y,-z
1/2+x,y,-z
1/2-x,y,z
x,-y,z
loop_
_atom_site_type_symbol
_atom_site_label
_atom_site_fract_x
_atom_site_fract_y
_atom_site_fract_z
Si Si1 0.300407 0.162232 0.724205
Si Si2 0.130623 0.332324 0.600780
Si Si3 0.019186 0.161790 0.386608
Si Si4 0.564316 0.836232 0.248534
Si Si5 0.130519 0.663396 0.115904
Si Si6 0.951262 0.666285 0.029760
Si Si7 0.298853 0.167769 0.979426
Si Si8 0.896878 0.336508 0.644039
O O1 0.250000 0.177674 0.701276
O O2 0.323636 0.274723 0.643857
O O3 0.315638 0.000000 0.698574
O O4 0.311685 0.201971 0.851803
O O5 0.125843 0.500000 0.627940
O O6 0.092499 0.245458 0.659749
O O7 0.129442 0.301373 0.468366
O O8 0.060285 0.245293 0.344623
O O9 0.000000 0.231710 0.500000
O O10 0.985112 0.168531 0.286739
O O11 0.033451 0.000000 0.414005
O O12 0.568139 0.758677 0.130426
O O13 0.580771 0.000000 0.237122
O O14 0.142731 0.500000 0.090023
O O15 0.166846 0.758891 0.059414
O O16 0.132677 0.696729 0.248192
O O17 0.081636 0.694552 0.072668
O O18 0.952137 0.500000 0.065134
O O19 0.000000 0.717411 0.000000
O O20 0.250000 0.223602 0.003804
O O21 0.300708 0.000000 0.001495
O O22 0.912230 0.500000 0.645330
#
# Coordination Sequence:
#
# PCOD8211951 Si02
#       8
#     8   8   8   8   8   8   8   8
#     4   9  19  37  60  84 111 141 172 214 271 330
#     4  11  22  35  54  81 109 139 179 222 266 318
#     4  10  20  35  53  76 106 141 184 228 269 315
#     4  11  22  35  54  79 109 141 178 226 274 321
#     4  10  21  37  56  80 110 146 187 228 274 327
#     4  10  21  37  56  79 111 147 184 228 275 329
#     4   9  19  37  60  85 110 138 177 224 275 331
#     4  10  22  38  55  77 108 147 187 225 268 321
#
# _framework density 18.534955
#
# number of rings (size 3 to 8) (size 9 to 14) (size 15 to 20)
#    0.000    2.000    1.250    3.000    0.000    7.000 
#    0.000    1.875    0.000    3.750    0.000    0.000 
#    0.000    0.000    0.000    0.000    0.000    0.000 
#
# Total GULP energy -793697.923643 kJ/mol
# GULP energy per Si atom -12401.530057 kJ/mol
# Density = 1.849277 g / cm^3
# Si number density = 18.534955 Si / 1000 Ang^3
#
#
#
# Elastic Constant Matrix: (Units=GPa)
#
#
# Indices 1 2 3 4 5 6 
#
# 1 97.4576 49.2651 50.3746 0.0000 0.0000 0.0000
# 2 49.2651 83.8874 58.2767 0.0000 0.0000 0.0000
# 3 50.3746 58.2767 122.3715 0.0000 0.0000 0.0000
# 4 0.0000 0.0000 0.0000 22.8809 0.0000 0.0000
# 5 0.0000 0.0000 0.0000 0.0000 25.8213 0.0000
# 6 0.0000 0.0000 0.0000 0.0000 0.0000 20.1309
#
#
#
# Elastic Compliance Matrix: (Units=1/GPa)
#
#
# Indices 1 2 3 4 5 6 
#
# 1 0.015305 -0.006891 -0.003018 0.000000 0.000000 0.000000
# 2 -0.006891 0.020917 -0.007125 0.000000 0.000000 0.000000
# 3 -0.003018 -0.007125 0.012807 0.000000 0.000000 0.000000
# 4 0.000000 0.000000 0.000000 0.043705 0.000000 0.000000
# 5 0.000000 0.000000 0.000000 0.000000 0.038728 0.000000
# 6 0.000000 0.000000 0.000000 0.000000 0.000000 0.049675
#
#
# Mechanical properties :
#
#
# Convention : Reuss Voigt Hill
#
# Bulk Modulus (GPa) = 66.84140 68.83882 67.84011
# Shear Modulus (GPa) = 22.70750 23.48660 23.09705
#
# Velocity S-wave (km/s) = 3.50397 3.56357 3.53389
# Velocity P-wave (km/s) = 7.24645 7.35885 7.30286
#
# Compressibility (1/GPa) = 0.01496079
#
# Stress axis : x y z
#
# Youngs Moduli (GPa) = 65.34016 47.80754 78.08032
#
# Poissons Ratio (x) = 0.32945 0.23568
# Poissons Ratio (y) = 0.45026 0.55629
# Poissons Ratio (z) = 0.19722 0.34061
#
# Static dielectric constant tensor:
#      x y z
#    x 3.297700 0.000000 0.000000 
#    y 0.000000 3.421510 0.000000 
#    z 0.000000 0.000000 3.483610 
# 
# 
# High freq. dielectric constant tensor:
#      x y z
#    x 1.714450 0.000000 0.000000 
#    y 0.000000 1.719490 0.000000 
#    z 0.000000 0.000000 1.721420 
# 
# From -- ./inp_files/19487.got.cif
#   From: 2010.03.12/outbox.cif.g09.slc.cpg/sg51_10_cif.got.tgz:19487.got - 2010.04.16 13:43:02.
