data_PCOD8211696
_publ_section_title
;
Structure prediction by ZEFSAII (Michael W. Deem and Ramdas Pophale) SiO2 
 PCOD8211696
Probable space group: P M M A
;
_chemical_formula_sum "Si O2"
_cell_formula_units_Z 48
_cell_length_a 15.161730
_cell_length_b 8.825932
_cell_length_c 18.761849
_cell_angle_alpha 90.000000
_cell_angle_beta 90.000000
_cell_angle_gamma 90.000000
_cell_volume 2510.643053
_symmetry_space_group_name_H-M "P M M A"
_symmetry_group_IT_number 51
_symmetry_cell_setting 'orthorhombic'
loop_
_space_group_symop_operation_xyz
x,y,z
1/2-x,-y,z
1/2+x,-y,-z
-x,y,-z
-x,-y,-z
1/2+x,y,-z
1/2-x,y,z
x,-y,z
loop_
_atom_site_type_symbol
_atom_site_label
_atom_site_fract_x
_atom_site_fract_y
_atom_site_fract_z
Si Si1 0.608823 0.164669 0.688295
Si Si2 0.849565 0.322397 0.306023
Si Si3 0.998191 0.323566 0.417499
Si Si4 0.250000 0.821583 0.081768
Si Si5 0.936698 0.677740 0.934337
Si Si6 0.250000 0.672266 0.229752
Si Si7 0.963549 0.166558 0.195826
O O1 0.579251 0.225512 0.611849
O O2 0.666602 0.297157 0.721661
O O3 0.525366 0.142971 0.737384
O O4 0.656458 0.000000 0.680071
O O5 0.750000 0.267684 0.322069
O O6 0.854199 0.500000 0.293453
O O7 0.908274 0.277736 0.375409
O O8 0.879310 0.251417 0.229692
O O9 0.017520 0.500000 0.405682
O O10 0.000000 0.280887 0.500000
O O11 0.159496 0.751397 0.049990
O O12 0.250000 0.791127 0.165652
O O13 0.250000 0.000000 0.066926
O O14 0.921503 0.500000 0.923833
O O15 0.984855 0.740157 0.864405
O O16 0.000000 0.715291 0.000000
O O17 0.250000 0.500000 0.201267
O O18 0.936840 0.000000 0.165431
#
# Coordination Sequence:
#
# PCOD8211696 Si02
#       7
#     8   8   8   4   8   4   8
#     4  10  20  34  54  81 112 145 184 233 285 339
#     4   9  18  34  56  79 108 150 197 245 293 349
#     4   9  18  34  54  79 112 150 194 239 289 349
#     4  12  24  40  64  92 122 157 196 243 300 360
#     4  11  24  42  64  90 121 159 200 244 293 355
#     4  12  22  34  58  86 114 147 188 235 282 338
#     4  10  20  35  58  84 112 146 186 238 292 345
#
# _framework density 19.118608999999999
#
# number of rings (size 3 to 8) (size 9 to 14) (size 15 to 20)
#    0.000    1.833    1.667    3.000    0.000    3.333 
#    3.000    0.000    0.000    0.000    0.000    0.000 
#    0.000    0.000    0.000    0.000    0.000    0.000 
#
# Total GULP energy -594843.562329 kJ/mol
# GULP energy per Si atom -12392.574215 kJ/mol
# Density = 1.907509 g / cm^3
# Si number density = 19.118609 Si / 1000 Ang^3
#
#
#
# Elastic Constant Matrix: (Units=GPa)
#
#
# Indices 1 2 3 4 5 6 
#
# 1 116.6793 45.7833 48.1230 0.0000 0.0000 0.0000
# 2 45.7833 97.1553 43.7938 0.0000 0.0000 0.0000
# 3 48.1230 43.7938 99.5592 0.0000 0.0000 0.0000
# 4 0.0000 0.0000 0.0000 17.4943 0.0000 0.0000
# 5 0.0000 0.0000 0.0000 0.0000 29.1763 0.0000
# 6 0.0000 0.0000 0.0000 0.0000 0.0000 21.9274
#
#
#
# Elastic Compliance Matrix: (Units=1/GPa)
#
#
# Indices 1 2 3 4 5 6 
#
# 1 0.011677 -0.003690 -0.004021 0.000000 0.000000 0.000000
# 2 -0.003690 0.014005 -0.004377 0.000000 0.000000 0.000000
# 3 -0.004021 -0.004377 0.013913 0.000000 0.000000 0.000000
# 4 0.000000 0.000000 0.000000 0.057162 0.000000 0.000000
# 5 0.000000 0.000000 0.000000 0.000000 0.034274 0.000000
# 6 0.000000 0.000000 0.000000 0.000000 0.000000 0.045605
#
#
# Mechanical properties :
#
#
# Convention : Reuss Voigt Hill
#
# Bulk Modulus (GPa) = 64.85477 65.42157 65.13817
# Shear Modulus (GPa) = 24.27770 25.43252 24.85511
#
# Velocity S-wave (km/s) = 3.56736 3.65122 3.60953
# Velocity P-wave (km/s) = 7.13891 7.21583 7.17747
#
# Compressibility (1/GPa) = 0.01541907
#
# Stress axis : x y z
#
# Youngs Moduli (GPa) = 85.63976 71.40551 71.87524
#
# Poissons Ratio (x) = 0.26349 0.28900
# Poissons Ratio (y) = 0.31602 0.31457
# Poissons Ratio (z) = 0.34435 0.31251
#
# Static dielectric constant tensor:
#      x y z
#    x 3.641810 0.000000 0.000000 
#    y 0.000000 3.857450 0.000000 
#    z 0.000000 0.000000 3.399910 
# 
# 
# High freq. dielectric constant tensor:
#      x y z
#    x 1.740170 0.000000 0.000000 
#    y 0.000000 1.753810 0.000000 
#    z 0.000000 0.000000 1.730100 
# 
# From -- ./inp_files/29614.got.cif
#   From: 2010.03.12/outbox.cif.g09.slc.cpg/sg51_15_cif.got.tgz:29614.got - 2010.04.16 13:43:02.
