data_PCOD8211078
_publ_section_title
;
Structure prediction by ZEFSAII (Michael W. Deem and Ramdas Pophale) SiO2 
 PCOD8211078
Probable space group: P M M A
;
_chemical_formula_sum "Si O2"
_cell_formula_units_Z 48
_cell_length_a 15.519985
_cell_length_b 18.457057
_cell_length_c 9.272197
_cell_angle_alpha 90.000000
_cell_angle_beta 90.000000
_cell_angle_gamma 90.000000
_cell_volume 2656.050945
_symmetry_space_group_name_H-M "P M M A"
_symmetry_group_IT_number 51
_symmetry_cell_setting 'orthorhombic'
loop_
_space_group_symop_operation_xyz
x,y,z
1/2-x,-y,z
1/2+x,-y,-z
-x,y,-z
-x,-y,-z
1/2+x,y,-z
1/2-x,y,z
x,-y,z
loop_
_atom_site_type_symbol
_atom_site_label
_atom_site_fract_x
_atom_site_fract_y
_atom_site_fract_z
Si Si1 0.502080 0.166545 0.335165
Si Si2 0.651555 0.339935 0.861892
Si Si3 0.844176 0.175105 0.857922
Si Si4 0.585955 0.081751 0.093968
Si Si5 0.493272 0.336162 0.664270
Si Si6 0.348678 0.584816 0.841137
O O1 0.500000 0.140004 0.500000
O O2 0.409131 0.149703 0.266155
O O3 0.573244 0.120442 0.248382
O O4 0.524965 0.250831 0.323113
O O5 0.750000 0.352507 0.806815
O O6 0.636411 0.256909 0.909394
O O7 0.583481 0.359747 0.737391
O O8 0.630259 0.390236 0.997111
O O9 0.750000 0.169571 0.787041
O O10 0.844570 0.125563 0.000731
O O11 0.617980 0.000000 0.120965
O O12 0.500000 0.083785 0.000000
O O13 0.500000 0.361091 0.500000
O O14 0.411509 0.375686 0.731285
O O15 0.250000 0.604472 0.801183
O O16 0.365616 0.500000 0.831456
#
# Coordination Sequence:
#
# PCOD8211078 Si02
#       6
#     8   8   8   8   8   8
#     4   9  18  33  50  72 101 132 167 202 244 300
#     4   9  18  33  53  75  97 127 169 211 250 296
#     4   9  17  31  51  72  96 127 164 207 249 290
#     4   9  17  29  47  70  95 126 163 200 240 288
#     4  10  20  33  52  76 103 134 166 205 252 302
#     4  10  21  36  53  74 100 131 168 208 251 301
#
# _framework density 18.071942
#
# number of rings (size 3 to 8) (size 9 to 14) (size 15 to 20)
#    0.000    2.667    0.000    1.500    0.000    5.667 
#    0.000    3.333    0.000    2.000    0.000    0.000 
#    0.000    0.000    0.000    0.000    0.000    0.000 
#
# Total GULP energy -595150.725655 kJ/mol
# GULP energy per Si atom -12398.973451 kJ/mol
# Density = 1.803081 g / cm^3
# Si number density = 18.071942 Si / 1000 Ang^3
#
#
#
# Elastic Constant Matrix: (Units=GPa)
#
#
# Indices 1 2 3 4 5 6 
#
# 1 97.3315 46.3911 69.0092 0.0000 0.0000 0.0000
# 2 46.3911 74.0951 59.6068 0.0000 0.0000 0.0000
# 3 69.0092 59.6068 149.5478 0.0000 0.0000 0.0000
# 4 0.0000 0.0000 0.0000 11.1516 0.0000 0.0000
# 5 0.0000 0.0000 0.0000 0.0000 22.0214 0.0000
# 6 0.0000 0.0000 0.0000 0.0000 0.0000 19.8139
#
#
#
# Elastic Compliance Matrix: (Units=1/GPa)
#
#
# Indices 1 2 3 4 5 6 
#
# 1 0.017123 -0.006424 -0.005341 0.000000 0.000000 0.000000
# 2 -0.006424 0.022276 -0.005914 0.000000 0.000000 0.000000
# 3 -0.005341 -0.005914 0.011509 0.000000 0.000000 0.000000
# 4 0.000000 0.000000 0.000000 0.089673 0.000000 0.000000
# 5 0.000000 0.000000 0.000000 0.000000 0.045410 0.000000
# 6 0.000000 0.000000 0.000000 0.000000 0.000000 0.050470
#
#
# Mechanical properties :
#
#
# Convention : Reuss Voigt Hill
#
# Bulk Modulus (GPa) = 64.31274 74.55429 69.43352
# Shear Modulus (GPa) = 18.05037 20.32854 19.18945
#
# Velocity S-wave (km/s) = 3.16382 3.35754 3.26212
# Velocity P-wave (km/s) = 7.00076 7.50830 7.25897
#
# Compressibility (1/GPa) = 0.01554902
#
# Stress axis : x y z
#
# Youngs Moduli (GPa) = 58.40164 44.89080 86.89036
#
# Poissons Ratio (x) = 0.28838 0.46407
# Poissons Ratio (y) = 0.37518 0.51391
# Poissons Ratio (z) = 0.31191 0.26550
#
# Static dielectric constant tensor:
#      x y z
#    x 3.385630 0.000000 0.000000 
#    y 0.000000 3.376520 0.000000 
#    z 0.000000 0.000000 3.268290 
# 
# 
# High freq. dielectric constant tensor:
#      x y z
#    x 1.697620 0.000000 0.000000 
#    y 0.000000 1.697790 0.000000 
#    z 0.000000 0.000000 1.687570 
# 
# From -- ./inp_files/8288.got.cif
#   From: 2010.03.12/outbox.cif.g09.slc.cpg/sg51_5_cif.got.tgz:8288.got - 2010.04.16 13:43:02.
