data_PCOD8211953
_publ_section_title
;
Structure prediction by ZEFSAII (Michael W. Deem and Ramdas Pophale) SiO2 
 PCOD8211953
Probable space group: P M M A
;
_chemical_formula_sum "Si O2"
_cell_formula_units_Z 56
_cell_length_a 9.114713
_cell_length_b 19.385201
_cell_length_c 15.972448
_cell_angle_alpha 90.000000
_cell_angle_beta 90.000000
_cell_angle_gamma 90.000000
_cell_volume 2822.180519
_symmetry_space_group_name_H-M "P M M A"
_symmetry_group_IT_number 51
_symmetry_cell_setting 'orthorhombic'
loop_
_space_group_symop_operation_xyz
x,y,z
1/2-x,-y,z
1/2+x,-y,-z
-x,y,-z
-x,-y,-z
1/2+x,y,-z
1/2-x,y,z
x,-y,z
loop_
_atom_site_type_symbol
_atom_site_label
_atom_site_fract_x
_atom_site_fract_y
_atom_site_fract_z
Si Si1 0.079746 0.076011 0.586647
Si Si2 0.418466 0.788158 0.674598
Si Si3 0.424235 0.421939 0.751469
Si Si4 0.077857 0.782311 0.160801
Si Si5 0.081842 0.347502 0.584381
Si Si6 0.420283 0.924256 0.085876
Si Si7 0.074730 0.659997 0.916441
O O1 0.250000 0.085865 0.567654
O O2 0.026296 0.135679 0.648958
O O3 0.000000 0.085542 0.500000
O O4 0.046382 0.000000 0.625271
O O5 0.250000 0.789038 0.706534
O O6 0.522308 0.760807 0.747814
O O7 0.434650 0.734919 0.597683
O O8 0.250000 0.418752 0.750076
O O9 0.483123 0.500000 0.754027
O O10 0.483980 0.386032 0.666467
O O11 0.478489 0.383810 0.835746
O O12 0.250000 0.767194 0.151382
O O13 0.038845 0.863387 0.149955
O O14 0.988678 0.737425 0.093277
O O15 0.250000 0.368897 0.572040
O O16 0.000000 0.370381 0.500000
O O17 0.250000 0.922584 0.064915
O O18 0.465419 0.000000 0.122469
O O19 0.500000 0.908939 0.000000
O O20 0.250000 0.661074 0.926160
O O21 0.000000 0.627898 0.000000
#
# Coordination Sequence:
#
# PCOD8211953 Si02
#       7
#     8   8   8   8   8   8   8
#     4   9  18  32  50  73 104 142 186 235 287 345
#     4  10  20  35  53  76 109 147 188 233 287 341
#     4   9  19  38  62  86 117 156 192 228 280 343
#     4  11  22  35  55  82 111 146 190 238 286 337
#     4  10  20  36  58  85 114 151 191 233 282 336
#     4   9  19  35  52  73 103 139 181 229 279 331
#     4  11  22  39  62  88 119 154 192 235 284 338
#
# _framework density 19.842813
#
# number of rings (size 3 to 8) (size 9 to 14) (size 15 to 20)
#    0.000    2.143    1.429    1.714    0.000    4.571 
#    0.000    0.000    0.000    3.000    0.000    0.000 
#    0.000    0.000    0.000    0.000    0.000    0.000 
#
# Total GULP energy -694244.004954 kJ/mol
# GULP energy per Si atom -12397.214374 kJ/mol
# Density = 1.979765 g / cm^3
# Si number density = 19.842813 Si / 1000 Ang^3
#
#
#
# Elastic Constant Matrix: (Units=GPa)
#
#
# Indices 1 2 3 4 5 6 
#
# 1 51.0908 32.0083 41.4431 0.0000 0.0000 0.0000
# 2 32.0083 117.0973 55.0989 0.0000 0.0000 0.0000
# 3 41.4431 55.0989 138.1267 0.0000 0.0000 0.0000
# 4 0.0000 0.0000 0.0000 19.2326 0.0000 0.0000
# 5 0.0000 0.0000 0.0000 0.0000 35.7862 0.0000
# 6 0.0000 0.0000 0.0000 0.0000 0.0000 16.5253
#
#
#
# Elastic Compliance Matrix: (Units=1/GPa)
#
#
# Indices 1 2 3 4 5 6 
#
# 1 0.027672 -0.004502 -0.006506 0.000000 0.000000 0.000000
# 2 -0.004502 0.011246 -0.003135 0.000000 0.000000 0.000000
# 3 -0.006506 -0.003135 0.010442 0.000000 0.000000 0.000000
# 4 0.000000 0.000000 0.000000 0.051995 0.000000 0.000000
# 5 0.000000 0.000000 0.000000 0.000000 0.027944 0.000000
# 6 0.000000 0.000000 0.000000 0.000000 0.000000 0.060513
#
#
# Mechanical properties :
#
#
# Convention : Reuss Voigt Hill
#
# Bulk Modulus (GPa) = 47.45646 62.60171 55.02909
# Shear Modulus (GPa) = 22.21000 26.15978 24.18489
#
# Velocity S-wave (km/s) = 3.34922 3.63485 3.49495
# Velocity P-wave (km/s) = 6.23895 7.01666 6.63920
#
# Compressibility (1/GPa) = 0.02107195
#
# Stress axis : x y z
#
# Youngs Moduli (GPa) = 36.13822 88.92204 95.76258
#
# Poissons Ratio (x) = 0.40036 0.62308
# Poissons Ratio (y) = 0.16271 0.30022
# Poissons Ratio (z) = 0.23513 0.27878
#
# Static dielectric constant tensor:
#      x y z
#    x 3.708000 0.000000 0.000000 
#    y 0.000000 3.901990 0.000000 
#    z 0.000000 0.000000 22.011160 
# 
# 
# High freq. dielectric constant tensor:
#      x y z
#    x 1.752840 0.000000 0.000000 
#    y 0.000000 1.781810 0.000000 
#    z 0.000000 0.000000 1.766990 
# 
# From -- ./inp_files/21716.got.cif
#   From: 2010.03.12/outbox.cif.g09.slc.cpg/sg51_11_cif.got.tgz:21716.got - 2010.04.16 13:43:02.
