data_PCOD8211852
_publ_section_title
;
Structure prediction by ZEFSAII (Michael W. Deem and Ramdas Pophale) SiO2 
 PCOD8211852
Probable space group: P M M A
;
_chemical_formula_sum "Si O2"
_cell_formula_units_Z 40
_cell_length_a 9.190172
_cell_length_b 10.005791
_cell_length_c 24.107256
_cell_angle_alpha 90.000000
_cell_angle_beta 90.000000
_cell_angle_gamma 90.000000
_cell_volume 2216.781286
_symmetry_space_group_name_H-M "P M M A"
_symmetry_group_IT_number 51
_symmetry_cell_setting 'orthorhombic'
loop_
_space_group_symop_operation_xyz
x,y,z
1/2-x,-y,z
1/2+x,-y,-z
-x,y,-z
-x,-y,-z
1/2+x,y,-z
1/2-x,y,z
x,-y,z
loop_
_atom_site_type_symbol
_atom_site_label
_atom_site_fract_x
_atom_site_fract_y
_atom_site_fract_z
Si Si1 0.079644 0.347210 0.443869
Si Si2 0.078756 0.847355 0.347210
Si Si3 0.083176 0.000000 0.943391
Si Si4 0.418879 0.733708 0.879263
Si Si5 0.917969 0.847637 0.237357
Si Si6 0.076372 0.500000 0.059664
O O1 0.250000 0.327600 0.453749
O O2 0.042571 0.500000 0.427412
O O3 0.021603 0.249379 0.395768
O O4 0.000000 0.304877 0.500000
O O5 0.250000 0.834634 0.340506
O O6 0.009614 0.797444 0.289773
O O7 0.031956 0.000000 0.360627
O O8 0.041664 0.127772 0.907782
O O9 0.250000 0.000000 0.959538
O O10 0.000000 0.000000 0.000000
O O11 0.250000 0.693285 0.889082
O O12 0.451878 0.749705 0.813985
O O13 0.527326 0.627229 0.905221
O O14 0.750000 0.839241 0.253794
O O15 0.959290 0.000000 0.221270
O O16 0.250000 0.500000 0.051676
O O17 0.000000 0.500000 0.000000
#
# Coordination Sequence:
#
# PCOD8211852 Si02
#       6
#     8   8   4   8   8   4
#     4   9  18  33  51  71 100 137 173 214 262 308
#     4   9  18  32  50  74 105 139 173 212 259 309
#     4  10  20  34  56  84 108 136 175 220 267 318
#     4  10  20  38  60  81 110 144 178 222 272 321
#     4   9  17  33  57  82 108 139 175 217 265 315
#     4  12  26  42  58  80 110 146 183 222 271 326
#
# _framework density 18.044180000000001
#
# number of rings (size 3 to 8) (size 9 to 14) (size 15 to 20)
#    0.000    2.400    1.000    1.500    0.000    4.400 
#    1.800    0.000    0.000    0.000    0.000    0.000 
#    0.000    0.000    0.000    0.000    0.000    0.000 
#
# Total GULP energy -496021.171601 kJ/mol
# GULP energy per Si atom -12400.529290 kJ/mol
# Density = 1.800311 g / cm^3
# Si number density = 18.044180 Si / 1000 Ang^3
#
#
#
# Elastic Constant Matrix: (Units=GPa)
#
#
# Indices 1 2 3 4 5 6 
#
# 1 63.6038 51.8488 60.9023 0.0000 0.0000 0.0000
# 2 51.8488 104.6095 77.8353 0.0000 0.0000 0.0000
# 3 60.9023 77.8353 158.5125 0.0000 0.0000 0.0000
# 4 0.0000 0.0000 0.0000 32.9552 0.0000 0.0000
# 5 0.0000 0.0000 0.0000 0.0000 37.6624 0.0000
# 6 0.0000 0.0000 0.0000 0.0000 0.0000 48.1170
#
#
#
# Elastic Compliance Matrix: (Units=1/GPa)
#
#
# Indices 1 2 3 4 5 6 
#
# 1 0.030348 -0.010031 -0.006734 0.000000 0.000000 0.000000
# 2 -0.010031 0.018378 -0.005170 0.000000 0.000000 0.000000
# 3 -0.006734 -0.005170 0.011435 0.000000 0.000000 0.000000
# 4 0.000000 0.000000 0.000000 0.030344 0.000000 0.000000
# 5 0.000000 0.000000 0.000000 0.000000 0.026552 0.000000
# 6 0.000000 0.000000 0.000000 0.000000 0.000000 0.020783
#
#
# Mechanical properties :
#
#
# Convention : Reuss Voigt Hill
#
# Bulk Modulus (GPa) = 61.38918 78.65542 70.02230
# Shear Modulus (GPa) = 26.71794 32.82288 29.77041
#
# Velocity S-wave (km/s) = 3.85216 4.26963 4.06626
# Velocity P-wave (km/s) = 7.34036 8.24569 7.80616
#
# Compressibility (1/GPa) = 0.01628951
#
# Stress axis : x y z
#
# Youngs Moduli (GPa) = 32.95151 54.41272 87.45134
#
# Poissons Ratio (x) = 0.54580 0.58894
# Poissons Ratio (y) = 0.33053 0.45215
# Poissons Ratio (z) = 0.22191 0.28133
#
# Static dielectric constant tensor:
#      x y z
#    x 3.231720 0.000000 0.000000 
#    y 0.000000 3.377070 0.000000 
#    z 0.000000 0.000000 3.378510 
# 
# 
# High freq. dielectric constant tensor:
#      x y z
#    x 1.689900 0.000000 0.000000 
#    y 0.000000 1.694890 0.000000 
#    z 0.000000 0.000000 1.707060 
# 
# From -- ./inp_files/36092.got.cif
#   From: 2010.03.12/outbox.cif.g09.slc.cpg/sg51_19_cif.got.tgz:36092.got - 2010.04.16 13:43:02.
