data_PCOD8211002
_publ_section_title
;
Structure prediction by ZEFSAII (Michael W. Deem and Ramdas Pophale) SiO2 
 PCOD8211002
Probable space group: P M M A
;
_chemical_formula_sum "Si O2"
_cell_formula_units_Z 32
_cell_length_a 9.108918
_cell_length_b 9.135303
_cell_length_c 20.623403
_cell_angle_alpha 90.000000
_cell_angle_beta 90.000000
_cell_angle_gamma 90.000000
_cell_volume 1716.129582
_symmetry_space_group_name_H-M "P M M A"
_symmetry_group_IT_number 51
_symmetry_cell_setting 'orthorhombic'
loop_
_space_group_symop_operation_xyz
x,y,z
1/2-x,-y,z
1/2+x,-y,-z
-x,y,-z
-x,-y,-z
1/2+x,y,-z
1/2-x,y,z
x,-y,z
loop_
_atom_site_type_symbol
_atom_site_label
_atom_site_fract_x
_atom_site_fract_y
_atom_site_fract_z
Si Si1 0.581133 0.672394 0.806523
Si Si2 0.077985 0.169553 0.691516
Si Si3 0.915642 0.825804 0.562628
Si Si4 0.921521 0.167595 0.935785
O O1 0.750000 0.717480 0.793163
O O2 0.561120 0.500000 0.808744
O O3 0.478754 0.736923 0.751254
O O4 0.526514 0.737082 0.874793
O O5 0.250000 0.194322 0.682281
O O6 0.998379 0.228105 0.626972
O O7 0.040310 0.000000 0.704230
O O8 0.750000 0.764175 0.563195
O O9 0.000000 0.762064 0.500000
O O10 0.915065 0.000000 0.559650
O O11 0.750000 0.183881 0.947630
O O12 0.967329 0.000000 0.922410
O O13 0.000000 0.228618 0.000000
#
# Coordination Sequence:
#
# PCOD8211002 Si02
#       4
#     8   8   8   8
#     4  10  21  36  53  74 102 137 175 213 255 305
#     4  10  20  33  51  76 104 135 173 215 258 306
#     4   9  16  27  46  73 104 135 168 210 258 305
#     4   9  18  33  53  76 102 132 167 208 253 302
#
# _framework density 18.646609000000002
#
# number of rings (size 3 to 8) (size 9 to 14) (size 15 to 20)
#    0.000    2.500    0.000    2.250    0.000    7.500 
#    0.000    2.500    0.000    0.750    0.000    0.000 
#    0.000    0.000    0.000    0.000    0.000    0.000 
#
# Total GULP energy -396883.740588 kJ/mol
# GULP energy per Si atom -12402.616893 kJ/mol
# Density = 1.860417 g / cm^3
# Si number density = 18.646609 Si / 1000 Ang^3
#
#
#
# Elastic Constant Matrix: (Units=GPa)
#
#
# Indices 1 2 3 4 5 6 
#
# 1 102.7582 35.6255 80.2683 0.0000 0.0000 0.0000
# 2 35.6255 50.0690 51.2974 0.0000 0.0000 0.0000
# 3 80.2683 51.2974 179.0181 0.0000 0.0000 0.0000
# 4 0.0000 0.0000 0.0000 -4.9730 0.0000 0.0000
# 5 0.0000 0.0000 0.0000 0.0000 43.1362 0.0000
# 6 0.0000 0.0000 0.0000 0.0000 0.0000 19.0821
#
#
#
# Elastic Compliance Matrix: (Units=1/GPa)
#
#
# Indices 1 2 3 4 5 6 
#
# 1 0.016061 -0.005733 -0.005559 0.000000 0.000000 0.000000
# 2 -0.005733 0.030319 -0.006117 0.000000 0.000000 0.000000
# 3 -0.005559 -0.006117 0.009831 0.000000 0.000000 0.000000
# 4 0.000000 0.000000 0.000000 -0.201086 0.000000 0.000000
# 5 0.000000 0.000000 0.000000 0.000000 0.023182 0.000000
# 6 0.000000 0.000000 0.000000 0.000000 0.000000 0.052405
#
#
# Mechanical properties :
#
#
# Convention : Reuss Voigt Hill
#
# Bulk Modulus (GPa) = 46.74293 74.02529 60.38411
# Shear Modulus (GPa) = -182.89807 22.42600 -80.23604
#
# Velocity S-wave (km/s) = -9.91461 3.47174 -6.56683
# Velocity P-wave (km/s) = 10.29290 7.47368 5.00439
#
# Compressibility (1/GPa) = 0.02139361
#
# Stress axis : x y z
#
# Youngs Moduli (GPa) = 62.26121 32.98267 101.71446
#
# Poissons Ratio (x) = 0.18908 0.56542
# Poissons Ratio (y) = 0.35693 0.62222
# Poissons Ratio (z) = 0.34610 0.20177
#
# Static dielectric constant tensor:
#      x y z
#    x 3.494400 0.000000 0.000000 
#    y 0.000000 3.095970 0.000000 
#    z 0.000000 0.000000 3.607730 
# 
# 
# High freq. dielectric constant tensor:
#      x y z
#    x 1.727770 0.000000 0.000000 
#    y 0.000000 1.686890 0.000000 
#    z 0.000000 0.000000 1.739670 
# 
# From -- ./inp_files/26941.got.cif
#   From: 2010.03.12/outbox.cif.g09.slc.cpg/sg51_14_cif.got.tgz:26941.got - 2010.04.16 13:43:02.
