data_PCOD8211187
_publ_section_title
;
Structure prediction by ZEFSAII (Michael W. Deem and Ramdas Pophale) SiO2 
 PCOD8211187
Probable space group: P M M A
;
_chemical_formula_sum "Si O2"
_cell_formula_units_Z 64
_cell_length_a 17.219690
_cell_length_b 21.058698
_cell_length_c 8.391814
_cell_angle_alpha 90.000000
_cell_angle_beta 90.000000
_cell_angle_gamma 90.000000
_cell_volume 3043.075269
_symmetry_space_group_name_H-M "P M M A"
_symmetry_group_IT_number 51
_symmetry_cell_setting 'orthorhombic'
loop_
_space_group_symop_operation_xyz
x,y,z
1/2-x,-y,z
1/2+x,-y,-z
-x,y,-z
-x,-y,-z
1/2+x,y,-z
1/2-x,y,z
x,-y,z
loop_
_atom_site_type_symbol
_atom_site_label
_atom_site_fract_x
_atom_site_fract_y
_atom_site_fract_z
Si Si1 0.160800 0.429497 0.099922
Si Si2 0.162504 0.815091 0.334033
Si Si3 0.665941 0.694241 0.488072
Si Si4 0.398075 0.671316 0.843662
Si Si5 0.341781 0.069570 0.520369
Si Si6 0.841710 0.929925 0.125291
Si Si7 0.541662 0.383821 0.658575
Si Si8 0.087374 0.194755 0.015184
O O1 0.250000 0.416349 0.155145
O O2 0.155379 0.500000 0.022859
O O3 0.100851 0.430703 0.249820
O O4 0.136346 0.376883 0.972432
O O5 0.250000 0.824494 0.267914
O O6 0.163650 0.769905 0.489565
O O7 0.123340 0.880387 0.394879
O O8 0.110232 0.785586 0.194184
O O9 0.750000 0.668122 0.547970
O O10 0.659175 0.673183 0.305721
O O11 0.594873 0.672134 0.594447
O O12 0.482146 0.645767 0.787210
O O13 0.400634 0.742854 0.908158
O O14 0.250000 0.080555 0.527505
O O15 0.376424 0.079120 0.696970
O O16 0.362804 0.000000 0.454930
O O17 0.750000 0.932067 0.133856
O O18 0.869830 0.000000 0.059338
O O19 0.864228 0.868559 0.023416
O O20 0.500000 0.415206 0.500000
O O21 0.000000 0.172386 0.000000
#
# Coordination Sequence:
#
# PCOD8211187 Si02
#       8
#     8   8   8   8   8   8   8   8
#     4  11  24  42  65  93 125 160 201 253 305 352
#     4  10  20  33  53  81 109 143 188 236 291 349
#     4  10  20  36  60  88 118 152 197 254 303 350
#     4  11  23  40  62  89 121 162 205 245 299 365
#     4   8  15  31  54  76  99 131 177 232 283 337
#     4   9  19  37  59  81 107 144 191 240 293 355
#     4  10  22  40  63  89 121 160 201 244 298 363
#     4  12  24  36  54  82 118 155 191 237 292 351
#
# _framework density 21.031355000000001
#
# number of rings (size 3 to 8) (size 9 to 14) (size 15 to 20)
#    0.000    1.875    0.000    5.250    0.000    6.000 
#    0.000    5.000    0.000    8.250    0.000    0.000 
#    0.000    0.000    0.000    0.000    0.000    0.000 
#
# Total GULP energy -792931.478274 kJ/mol
# GULP energy per Si atom -12389.554348 kJ/mol
# Density = 2.098349 g / cm^3
# Si number density = 21.031355 Si / 1000 Ang^3
#
#
#
# Elastic Constant Matrix: (Units=GPa)
#
#
# Indices 1 2 3 4 5 6 
#
# 1 99.8314 37.5384 41.1069 0.0000 0.0000 0.0000
# 2 37.5384 111.9158 46.0250 0.0000 0.0000 0.0000
# 3 41.1069 46.0250 92.4546 0.0000 0.0000 0.0000
# 4 0.0000 0.0000 0.0000 27.3410 0.0000 0.0000
# 5 0.0000 0.0000 0.0000 0.0000 25.3801 0.0000
# 6 0.0000 0.0000 0.0000 0.0000 0.0000 37.4991
#
#
#
# Elastic Compliance Matrix: (Units=1/GPa)
#
#
# Indices 1 2 3 4 5 6 
#
# 1 0.012775 -0.002451 -0.004460 0.000000 0.000000 0.000000
# 2 -0.002451 0.011706 -0.004738 0.000000 0.000000 0.000000
# 3 -0.004460 -0.004738 0.015157 0.000000 0.000000 0.000000
# 4 0.000000 0.000000 0.000000 0.036575 0.000000 0.000000
# 5 0.000000 0.000000 0.000000 0.000000 0.039401 0.000000
# 6 0.000000 0.000000 0.000000 0.000000 0.000000 0.026667
#
#
# Mechanical properties :
#
#
# Convention : Reuss Voigt Hill
#
# Bulk Modulus (GPa) = 61.19385 61.50473 61.34929
# Shear Modulus (GPa) = 29.23549 30.01279 29.62414
#
# Velocity S-wave (km/s) = 3.73244 3.78173 3.75716
# Velocity P-wave (km/s) = 6.90901 6.95532 6.93220
#
# Compressibility (1/GPa) = 0.01634151
#
# Stress axis : x y z
#
# Youngs Moduli (GPa) = 78.27884 85.42908 65.97406
#
# Poissons Ratio (x) = 0.20937 0.29424
# Poissons Ratio (y) = 0.19184 0.31255
# Poissons Ratio (z) = 0.34912 0.40472
#
# Static dielectric constant tensor:
#      x y z
#    x 3.734970 0.000000 0.000000 
#    y 0.000000 3.783700 0.000000 
#    z 0.000000 0.000000 3.980660 
# 
# 
# High freq. dielectric constant tensor:
#      x y z
#    x 1.814600 0.000000 0.000000 
#    y 0.000000 1.825260 0.000000 
#    z 0.000000 0.000000 1.820660 
# 
# From -- ./inp_files/10090.got.cif
#   From: 2010.03.12/outbox.cif.g09.slc.cpg/sg51_6_cif.got.tgz:10090.got - 2010.04.16 13:43:02.
