data_PCOD8211445
_publ_section_title
;
Structure prediction by ZEFSAII (Michael W. Deem and Ramdas Pophale) SiO2 
 PCOD8211445
Probable space group: P M M A
;
_chemical_formula_sum "Si O2"
_cell_formula_units_Z 48
_cell_length_a 9.166821
_cell_length_b 19.151347
_cell_length_c 13.565602
_cell_angle_alpha 90.000000
_cell_angle_beta 90.000000
_cell_angle_gamma 90.000000
_cell_volume 2381.535981
_symmetry_space_group_name_H-M "P M M A"
_symmetry_group_IT_number 51
_symmetry_cell_setting 'orthorhombic'
loop_
_space_group_symop_operation_xyz
x,y,z
1/2-x,-y,z
1/2+x,-y,-z
-x,y,-z
-x,-y,-z
1/2+x,y,-z
1/2-x,y,z
x,-y,z
loop_
_atom_site_type_symbol
_atom_site_label
_atom_site_fract_x
_atom_site_fract_y
_atom_site_fract_z
Si Si1 0.422215 0.712790 0.103438
Si Si2 0.918995 0.774395 0.285726
Si Si3 0.092817 0.920865 0.084805
Si Si4 0.083295 0.421986 0.221343
Si Si5 0.421432 0.638484 0.601225
Si Si6 0.417007 0.074671 0.717439
O O1 0.250000 0.724792 0.092518
O O2 0.484813 0.766016 0.186354
O O3 0.458969 0.633494 0.136974
O O4 0.500000 0.726972 0.000000
O O5 0.750000 0.764717 0.255403
O O6 0.963146 0.717547 0.367155
O O7 0.945685 0.851250 0.337587
O O8 0.250000 0.882983 0.094761
O O9 0.012373 0.919575 0.186839
O O10 0.118774 0.000000 0.050188
O O11 0.000000 0.881227 0.000000
O O12 0.250000 0.409583 0.255611
O O13 0.061574 0.500000 0.178362
O O14 0.979252 0.413928 0.315660
O O15 0.500000 0.620264 0.500000
O O16 0.250000 0.627819 0.587805
O O17 0.250000 0.071551 0.750559
O O18 0.455297 0.000000 0.661432
#
# Coordination Sequence:
#
# PCOD8211445 Si02
#       6
#     8   8   8   8   8   8
#     4  10  20  34  53  76 104 141 180 215 252 295
#     4   9  19  35  53  74 100 131 171 216 258 306
#     4   9  16  25  37  55  81 113 149 189 234 286
#     4   9  19  36  56  80 110 140 172 211 252 296
#     4  10  20  35  56  80 105 135 170 208 254 307
#     4   9  17  30  48  68  90 119 157 204 258 308
#
# _framework density 20.155059000000001
#
# number of rings (size 3 to 8) (size 9 to 14) (size 15 to 20)
#    0.000    2.667    0.000    1.500    0.000    5.667 
#    0.000    0.000    0.000    0.500    0.000    0.000 
#    0.000    0.000    0.000    0.000    0.000    0.500 
#
# Total GULP energy -594648.900565 kJ/mol
# GULP energy per Si atom -12388.518762 kJ/mol
# Density = 2.010919 g / cm^3
# Si number density = 20.155059 Si / 1000 Ang^3
#
#
#
# Elastic Constant Matrix: (Units=GPa)
#
#
# Indices 1 2 3 4 5 6 
#
# 1 55.8077 8.8520 13.7849 0.0000 0.0000 0.0000
# 2 8.8520 124.7761 -0.7804 0.0000 0.0000 0.0000
# 3 13.7849 -0.7804 43.2999 0.0000 0.0000 0.0000
# 4 0.0000 0.0000 0.0000 9.5006 0.0000 0.0000
# 5 0.0000 0.0000 0.0000 0.0000 22.1356 0.0000
# 6 0.0000 0.0000 0.0000 0.0000 0.0000 18.0887
#
#
#
# Elastic Compliance Matrix: (Units=1/GPa)
#
#
# Indices 1 2 3 4 5 6 
#
# 1 0.019702 -0.001437 -0.006298 0.000000 0.000000 0.000000
# 2 -0.001437 0.008120 0.000604 0.000000 0.000000 0.000000
# 3 -0.006298 0.000604 0.025111 0.000000 0.000000 0.000000
# 4 0.000000 0.000000 0.000000 0.105256 0.000000 0.000000
# 5 0.000000 0.000000 0.000000 0.000000 0.045176 0.000000
# 6 0.000000 0.000000 0.000000 0.000000 0.000000 0.055283
#
#
# Mechanical properties :
#
#
# Convention : Reuss Voigt Hill
#
# Bulk Modulus (GPa) = 25.85981 29.73295 27.79638
# Shear Modulus (GPa) = 17.49463 23.41347 20.45405
#
# Velocity S-wave (km/s) = 2.94938 3.41202 3.18910
# Velocity P-wave (km/s) = 4.94538 5.50515 5.23275
#
# Compressibility (1/GPa) = 0.03867005
#
# Stress axis : x y z
#
# Youngs Moduli (GPa) = 50.75534 123.15137 39.82355
#
# Poissons Ratio (x) = 0.17699 0.25082
# Poissons Ratio (y) = 0.07294 -0.02405
# Poissons Ratio (z) = 0.31967 -0.07437
#
# Static dielectric constant tensor:
#      x y z
#    x 3.841240 0.000000 0.000000 
#    y 0.000000 4.186660 0.000000 
#    z 0.000000 0.000000 3.455910 
# 
# 
# High freq. dielectric constant tensor:
#      x y z
#    x 1.796110 0.000000 0.000000 
#    y 0.000000 1.804490 0.000000 
#    z 0.000000 0.000000 1.734850 
# 
# From -- ./inp_files/21399.got.cif
#   From: 2010.03.12/outbox.cif.g09.slc.cpg/sg51_11_cif.got.tgz:21399.got - 2010.04.16 13:43:02.
