data_PCOD8211056
_publ_section_title
;
Structure prediction by ZEFSAII (Michael W. Deem and Ramdas Pophale) SiO2 
 PCOD8211056
Probable space group: P M M A
;
_chemical_formula_sum "Si O2"
_cell_formula_units_Z 56
_cell_length_a 20.174363
_cell_length_b 9.019682
_cell_length_c 15.395443
_cell_angle_alpha 90.000000
_cell_angle_beta 90.000000
_cell_angle_gamma 90.000000
_cell_volume 2801.452397
_symmetry_space_group_name_H-M "P M M A"
_symmetry_group_IT_number 51
_symmetry_cell_setting 'orthorhombic'
loop_
_space_group_symop_operation_xyz
x,y,z
1/2-x,-y,z
1/2+x,-y,-z
-x,y,-z
-x,-y,-z
1/2+x,y,-z
1/2-x,y,z
x,-y,z
loop_
_atom_site_type_symbol
_atom_site_label
_atom_site_fract_x
_atom_site_fract_y
_atom_site_fract_z
Si Si1 0.007284 0.832603 0.741271
Si Si2 0.176478 0.665524 0.467893
Si Si3 0.050262 0.671041 0.574851
Si Si4 0.643782 0.835427 0.700087
Si Si5 0.172690 0.174090 0.968637
Si Si6 0.324738 0.659927 0.135041
Si Si7 0.543325 0.324244 0.085015
O O1 0.049966 0.758983 0.665176
O O2 0.006499 0.738728 0.830076
O O3 0.934504 0.833540 0.702465
O O4 0.032489 0.000000 0.759747
O O5 0.250000 0.679944 0.507811
O O6 0.164557 0.500000 0.429343
O O7 0.125224 0.695533 0.544518
O O8 0.168100 0.785793 0.393420
O O9 0.032548 0.500000 0.593723
O O10 0.000000 0.731523 0.500000
O O11 0.672841 0.722110 0.768946
O O12 0.671531 0.000000 0.718578
O O13 0.250000 0.216810 0.947102
O O14 0.118489 0.258293 0.909809
O O15 0.162900 0.000000 0.958281
O O16 0.149392 0.220451 0.065769
O O17 0.250000 0.626820 0.110275
O O18 0.363110 0.500000 0.127719
O O19 0.549137 0.500000 0.091237
O O20 0.500000 0.277432 0.000000
#
# Coordination Sequence:
#
# PCOD8211056 Si02
#       7
#     8   8   8   8   8   8   8
#     4  11  24  39  59  87 118 156 200 249 304 361
#     4  10  21  37  58  85 117 152 192 242 299 354
#     4  10  20  38  63  87 113 153 200 244 291 353
#     4  11  22  34  52  81 116 152 192 241 298 360
#     4  10  21  38  60  85 116 156 200 249 308 368
#     4  10  20  33  51  77 111 152 196 240 291 356
#     4  11  24  41  63  92 124 161 207 258 307 362
#
# _framework density 19.989630999999999
#
# number of rings (size 3 to 8) (size 9 to 14) (size 15 to 20)
#    0.000    1.571    1.429    3.429    0.000    9.714 
#    0.000    0.714    0.000    2.571    0.000    0.000 
#    0.000    0.000    0.000    0.000    0.000    0.000 
#
# Total GULP energy -694179.688775 kJ/mol
# GULP energy per Si atom -12396.065871 kJ/mol
# Density = 1.994413 g / cm^3
# Si number density = 19.989631 Si / 1000 Ang^3
#
#
#
# Elastic Constant Matrix: (Units=GPa)
#
#
# Indices 1 2 3 4 5 6 
#
# 1 102.2507 35.6361 29.0381 0.0000 0.0000 0.0000
# 2 35.6361 99.6535 31.6009 0.0000 0.0000 0.0000
# 3 29.0381 31.6009 91.2386 0.0000 0.0000 0.0000
# 4 0.0000 0.0000 0.0000 35.3656 0.0000 0.0000
# 5 0.0000 0.0000 0.0000 0.0000 47.8013 0.0000
# 6 0.0000 0.0000 0.0000 0.0000 0.0000 23.5118
#
#
#
# Elastic Compliance Matrix: (Units=1/GPa)
#
#
# Indices 1 2 3 4 5 6 
#
# 1 0.011678 -0.003367 -0.002550 0.000000 0.000000 0.000000
# 2 -0.003367 0.012244 -0.003169 0.000000 0.000000 0.000000
# 3 -0.002550 -0.003169 0.012870 0.000000 0.000000 0.000000
# 4 0.000000 0.000000 0.000000 0.028276 0.000000 0.000000
# 5 0.000000 0.000000 0.000000 0.000000 0.020920 0.000000
# 6 0.000000 0.000000 0.000000 0.000000 0.000000 0.042532
#
#
# Mechanical properties :
#
#
# Convention : Reuss Voigt Hill
#
# Bulk Modulus (GPa) = 53.71182 53.96589 53.83885
# Shear Modulus (GPa) = 32.70156 34.46028 33.58092
#
# Velocity S-wave (km/s) = 4.04905 4.15650 4.10313
# Velocity P-wave (km/s) = 6.98483 7.07749 7.03131
#
# Compressibility (1/GPa) = 0.01861788
#
# Stress axis : x y z
#
# Youngs Moduli (GPa) = 85.63343 81.67397 77.70264
#
# Poissons Ratio (x) = 0.27501 0.19817
# Poissons Ratio (y) = 0.28834 0.24624
# Poissons Ratio (z) = 0.21840 0.25883
#
# Static dielectric constant tensor:
#      x y z
#    x 3.747200 0.000000 0.000000 
#    y 0.000000 3.875060 0.000000 
#    z 0.000000 0.000000 3.401960 
# 
# 
# High freq. dielectric constant tensor:
#      x y z
#    x 1.783580 0.000000 0.000000 
#    y 0.000000 1.789340 0.000000 
#    z 0.000000 0.000000 1.758940 
# 
# From -- ./inp_files/25754.got.cif
#   From: 2010.03.12/outbox.cif.g09.slc.cpg/sg51_13_cif.got.tgz:25754.got - 2010.04.16 13:43:02.
