data_PCOD8211589
_publ_section_title
;
Structure prediction by ZEFSAII (Michael W. Deem and Ramdas Pophale) SiO2 
 PCOD8211589
Probable space group: P M M A
;
_chemical_formula_sum "Si O2"
_cell_formula_units_Z 36
_cell_length_a 9.970289
_cell_length_b 7.934402
_cell_length_c 24.739123
_cell_angle_alpha 90.000000
_cell_angle_beta 90.000000
_cell_angle_gamma 90.000000
_cell_volume 1957.069494
_symmetry_space_group_name_H-M "P M M A"
_symmetry_group_IT_number 51
_symmetry_cell_setting 'orthorhombic'
loop_
_space_group_symop_operation_xyz
x,y,z
1/2-x,-y,z
1/2+x,-y,-z
-x,y,-z
-x,-y,-z
1/2+x,y,-z
1/2-x,y,z
x,-y,z
loop_
_atom_site_type_symbol
_atom_site_label
_atom_site_fract_x
_atom_site_fract_y
_atom_site_fract_z
Si Si1 0.603409 0.196683 0.336403
Si Si2 0.589820 0.000000 0.947164
Si Si3 0.098706 0.799889 0.544680
Si Si4 0.591101 0.312531 0.873643
Si Si5 0.601427 0.697260 0.753882
O O1 0.750000 0.272674 0.320359
O O2 0.558870 0.268045 0.395255
O O3 0.495569 0.231400 0.290967
O O4 0.620169 0.000000 0.343249
O O5 0.545120 0.168155 0.915045
O O6 0.750000 0.000000 0.959471
O O7 0.500000 0.000000 0.000000
O O8 0.250000 0.743398 0.530901
O O9 0.000000 0.718326 0.500000
O O10 0.086221 0.000000 0.542925
O O11 0.750000 0.322342 0.871440
O O12 0.535872 0.500000 0.890368
O O13 0.541613 0.261619 0.813474
O O14 0.750000 0.778186 0.746933
O O15 0.612932 0.500000 0.746546
#
# Coordination Sequence:
#
# PCOD8211589 Si02
#       5
#     8   4   8   8   8
#     4   9  18  30  44  68  99 127 155 194 247 301
#     4  10  20  34  54  78 104 136 169 204 249 292
#     4   8  14  25  40  59  87 120 154 193 238 288
#     4   8  16  32  52  74 101 133 169 208 249 294
#     4   9  18  32  50  72  95 122 162 206 242 285
#
# _framework density 18.394850000000002
#
# number of rings (size 3 to 8) (size 9 to 14) (size 15 to 20)
#    0.000    3.333    0.000    2.667    1.556    2.222 
#    0.000    3.333    0.000    2.000    0.000    0.000 
#    0.000    0.000    0.000    0.000    0.000    0.000 
#
# Total GULP energy -445985.614973 kJ/mol
# GULP energy per Si atom -12388.489305 kJ/mol
# Density = 1.835298 g / cm^3
# Si number density = 18.394850 Si / 1000 Ang^3
#
#
#
# Elastic Constant Matrix: (Units=GPa)
#
#
# Indices 1 2 3 4 5 6 
#
# 1 75.1854 31.2277 70.4342 0.0000 0.0000 0.0000
# 2 31.2277 59.5946 58.5868 0.0000 0.0000 0.0000
# 3 70.4342 58.5868 150.9435 0.0000 0.0000 0.0000
# 4 0.0000 0.0000 0.0000 -21.3160 0.0000 0.0000
# 5 0.0000 0.0000 0.0000 0.0000 37.5955 0.0000
# 6 0.0000 0.0000 0.0000 0.0000 0.0000 9.4047
#
#
#
# Elastic Compliance Matrix: (Units=1/GPa)
#
#
# Indices 1 2 3 4 5 6 
#
# 1 0.023862 -0.002518 -0.010157 0.000000 0.000000 0.000000
# 2 -0.002518 0.027399 -0.009460 0.000000 0.000000 0.000000
# 3 -0.010157 -0.009460 0.015036 0.000000 0.000000 0.000000
# 4 0.000000 0.000000 0.000000 -0.046913 0.000000 0.000000
# 5 0.000000 0.000000 0.000000 0.000000 0.026599 0.000000
# 6 0.000000 0.000000 0.000000 0.000000 0.000000 0.106330
#
#
# Mechanical properties :
#
#
# Convention : Reuss Voigt Hill
#
# Bulk Modulus (GPa) = 45.39837 67.35786 56.37811
# Shear Modulus (GPa) = 24.51884 13.50181 19.01033
#
# Velocity S-wave (km/s) = 3.65488 2.71218 3.21823
# Velocity P-wave (km/s) = 6.52260 6.81947 6.67269
#
# Compressibility (1/GPa) = 0.02202722
#
# Stress axis : x y z
#
# Youngs Moduli (GPa) = 41.90851 36.49736 66.50661
#
# Poissons Ratio (x) = 0.09191 0.67550
# Poissons Ratio (y) = 0.10554 0.62912
# Poissons Ratio (z) = 0.42566 0.34525
#
# Static dielectric constant tensor:
#      x y z
#    x 2.962730 0.000000 0.000000 
#    y 0.000000 3.448090 0.000000 
#    z 0.000000 0.000000 4.073060 
# 
# 
# High freq. dielectric constant tensor:
#      x y z
#    x 1.685910 0.000000 0.000000 
#    y 0.000000 1.697690 0.000000 
#    z 0.000000 0.000000 1.716720 
# 
# From -- ./inp_files/32769.got.cif
#   From: 2010.03.12/outbox.cif.g09.slc.cpg/sg51_17_cif.got.tgz:32769.got - 2010.04.16 13:43:02.
