data_PCOD8211716
_publ_section_title
;
Structure prediction by ZEFSAII (Michael W. Deem and Ramdas Pophale) SiO2 
 PCOD8211716
Probable space group: P M M A
;
_chemical_formula_sum "Si O2"
_cell_formula_units_Z 56
_cell_length_a 14.075310
_cell_length_b 8.981663
_cell_length_c 22.089428
_cell_angle_alpha 90.000000
_cell_angle_beta 90.000000
_cell_angle_gamma 90.000000
_cell_volume 2792.538663
_symmetry_space_group_name_H-M "P M M A"
_symmetry_group_IT_number 51
_symmetry_cell_setting 'orthorhombic'
loop_
_space_group_symop_operation_xyz
x,y,z
1/2-x,-y,z
1/2+x,-y,-z
-x,y,-z
-x,-y,-z
1/2+x,y,-z
1/2-x,y,z
x,-y,z
loop_
_atom_site_type_symbol
_atom_site_label
_atom_site_fract_x
_atom_site_fract_y
_atom_site_fract_z
Si Si1 0.643583 0.172251 0.265136
Si Si2 0.354984 0.664319 0.856124
Si Si3 0.542209 0.324737 0.711501
Si Si4 0.355770 0.823655 0.530532
Si Si5 0.358435 0.172686 0.174428
Si Si6 0.546398 0.176111 0.592051
Si Si7 0.502741 0.167347 0.071248
O O1 0.750000 0.204849 0.290023
O O2 0.637536 0.209406 0.194442
O O3 0.567742 0.276852 0.297801
O O4 0.616538 0.000000 0.274959
O O5 0.250000 0.658222 0.883322
O O6 0.383603 0.500000 0.830485
O O7 0.421741 0.709297 0.910599
O O8 0.554308 0.500000 0.712859
O O9 0.585291 0.260615 0.773466
O O10 0.590369 0.257847 0.651096
O O11 0.250000 0.758574 0.545761
O O12 0.387452 0.772810 0.463543
O O13 0.436488 0.773681 0.578694
O O14 0.351299 0.000000 0.531701
O O15 0.250000 0.229954 0.171229
O O16 0.405119 0.200272 0.108168
O O17 0.362271 0.000000 0.192136
O O18 0.551447 0.000000 0.602482
O O19 0.536408 0.000000 0.087134
O O20 0.500000 0.187144 0.000000
#
# Coordination Sequence:
#
# PCOD8211716 Si02
#       7
#     8   8   8   8   8   8   8
#     4  10  20  35  57  82 108 143 187 234 285 342
#     4  10  20  34  54  82 114 146 179 221 281 347
#     4  12  24  37  56  84 121 158 193 239 291 347
#     4   8  15  31  56  83 110 143 188 241 287 328
#     4  10  22  41  62  83 112 153 199 244 289 340
#     4   9  18  33  55  83 112 146 192 239 282 337
#     4  10  21  37  60  88 115 147 191 242 291 343
#
# _framework density 20.053438
#
# number of rings (size 3 to 8) (size 9 to 14) (size 15 to 20)
#    0.000    2.143    1.429    3.000    0.000    4.000 
#    0.000    5.714    0.000    0.857    0.000    0.000 
#    0.000    0.000    0.000    0.000    0.000    0.000 
#
# Total GULP energy -693975.283493 kJ/mol
# GULP energy per Si atom -12392.415777 kJ/mol
# Density = 2.000780 g / cm^3
# Si number density = 20.053438 Si / 1000 Ang^3
#
#
#
# Elastic Constant Matrix: (Units=GPa)
#
#
# Indices 1 2 3 4 5 6 
#
# 1 86.2133 27.3984 29.0337 0.0000 0.0000 0.0000
# 2 27.3984 68.2456 30.8398 0.0000 0.0000 0.0000
# 3 29.0337 30.8398 108.0654 0.0000 0.0000 0.0000
# 4 0.0000 0.0000 0.0000 9.6508 0.0000 0.0000
# 5 0.0000 0.0000 0.0000 0.0000 15.0442 0.0000
# 6 0.0000 0.0000 0.0000 0.0000 0.0000 19.7012
#
#
#
# Elastic Compliance Matrix: (Units=1/GPa)
#
#
# Indices 1 2 3 4 5 6 
#
# 1 0.013837 -0.004449 -0.002448 0.000000 0.000000 0.000000
# 2 -0.004449 0.018253 -0.004014 0.000000 0.000000 0.000000
# 3 -0.002448 -0.004014 0.011057 0.000000 0.000000 0.000000
# 4 0.000000 0.000000 0.000000 0.103619 0.000000 0.000000
# 5 0.000000 0.000000 0.000000 0.000000 0.066471 0.000000
# 6 0.000000 0.000000 0.000000 0.000000 0.000000 0.050758
#
#
# Mechanical properties :
#
#
# Convention : Reuss Voigt Hill
#
# Bulk Modulus (GPa) = 46.89201 48.56312 47.72756
# Shear Modulus (GPa) = 17.06921 20.56273 18.81597
#
# Velocity S-wave (km/s) = 2.92067 3.20566 3.06648
# Velocity P-wave (km/s) = 5.89984 6.16207 6.03238
#
# Compressibility (1/GPa) = 0.02132560
#
# Stress axis : x y z
#
# Youngs Moduli (GPa) = 72.26775 54.78594 90.44224
#
# Poissons Ratio (x) = 0.24375 0.22140
# Poissons Ratio (y) = 0.32152 0.36301
# Poissons Ratio (z) = 0.17691 0.21989
#
# Static dielectric constant tensor:
#      x y z
#    x 3.997960 0.000000 0.000000 
#    y 0.000000 3.443350 0.000000 
#    z 0.000000 0.000000 3.576290 
# 
# 
# High freq. dielectric constant tensor:
#      x y z
#    x 1.782220 0.000000 0.000000 
#    y 0.000000 1.758470 0.000000 
#    z 0.000000 0.000000 1.780310 
# 
# From -- ./inp_files/33361.got.cif
#   From: 2010.03.12/outbox.cif.g09.slc.cpg/sg51_17_cif.got.tgz:33361.got - 2010.04.16 13:43:02.
