data_PCOD8211842
_publ_section_title
;
Structure prediction by ZEFSAII (Michael W. Deem and Ramdas Pophale) SiO2 
 PCOD8211842
Probable space group: P M M A
;
_chemical_formula_sum "Si O2"
_cell_formula_units_Z 56
_cell_length_a 15.534723
_cell_length_b 9.447650
_cell_length_c 20.665788
_cell_angle_alpha 90.000000
_cell_angle_beta 90.000000
_cell_angle_gamma 90.000000
_cell_volume 3033.047973
_symmetry_space_group_name_H-M "P M M A"
_symmetry_group_IT_number 51
_symmetry_cell_setting 'orthorhombic'
loop_
_space_group_symop_operation_xyz
x,y,z
1/2-x,-y,z
1/2+x,-y,-z
-x,y,-z
-x,-y,-z
1/2+x,y,-z
1/2-x,y,z
x,-y,z
loop_
_atom_site_type_symbol
_atom_site_label
_atom_site_fract_x
_atom_site_fract_y
_atom_site_fract_z
Si Si1 0.575166 0.662749 0.801293
Si Si2 0.651981 0.337859 0.377735
Si Si3 0.750000 0.338217 0.732643
Si Si4 0.015053 0.336023 0.929198
Si Si5 0.652146 0.156720 0.138443
Si Si6 0.933065 0.837100 0.268242
Si Si7 0.750000 0.162221 0.601093
Si Si8 0.602906 0.836683 0.498130
O O1 0.548297 0.500000 0.786336
O O2 0.671354 0.695757 0.780109
O O3 0.563066 0.692482 0.878503
O O4 0.519203 0.771563 0.760527
O O5 0.750000 0.329459 0.353336
O O6 0.620276 0.500000 0.380334
O O7 0.590633 0.249584 0.331416
O O8 0.645482 0.269193 0.447784
O O9 0.750000 0.500000 0.709752
O O10 0.750000 0.250047 0.667009
O O11 0.033594 0.500000 0.937829
O O12 0.101892 0.272290 0.901453
O O13 0.000000 0.267520 0.000000
O O14 0.750000 0.175574 0.118956
O O15 0.642399 0.178481 0.215491
O O16 0.617977 0.000000 0.120318
O O17 0.949618 0.000000 0.287836
O O18 0.840181 0.194054 0.562792
O O19 0.750000 0.000000 0.621939
O O20 0.500000 0.804432 0.500000
O O21 0.616911 0.000000 0.477457
#
# Coordination Sequence:
#
# PCOD8211842 Si02
#       8
#     8   8   4   8   8   8   4   8
#     4   9  19  37  56  80 113 147 188 232 280 333
#     4  11  23  37  55  82 113 143 178 224 278 334
#     4  10  22  38  58  80 110 153 190 233 284 335
#     4   9  18  34  55  81 112 146 184 226 273 326
#     4   9  18  33  52  77 107 140 179 220 266 324
#     4  10  20  34  56  81 108 144 182 223 275 331
#     4  10  22  40  60  84 116 147 186 243 288 337
#     4  10  22  40  60  82 108 143 185 231 287 342
#
# _framework density 18.463273999999998
#
# number of rings (size 3 to 8) (size 9 to 14) (size 15 to 20)
#    0.000    2.286    0.714    1.286    2.000    4.000 
#    1.286    0.000    0.000    0.000    0.000    0.000 
#    0.000    0.000    0.000    0.000    0.000    0.000 
#
# Total GULP energy -694147.992117 kJ/mol
# GULP energy per Si atom -12395.499859 kJ/mol
# Density = 1.842125 g / cm^3
# Si number density = 18.463274 Si / 1000 Ang^3
#
#
#
# Elastic Constant Matrix: (Units=GPa)
#
#
# Indices 1 2 3 4 5 6 
#
# 1 99.2942 43.9629 51.9807 0.0000 0.0000 0.0000
# 2 43.9629 96.1446 65.4361 0.0000 0.0000 0.0000
# 3 51.9807 65.4361 127.4725 0.0000 0.0000 0.0000
# 4 0.0000 0.0000 0.0000 27.5438 0.0000 0.0000
# 5 0.0000 0.0000 0.0000 0.0000 14.3778 0.0000
# 6 0.0000 0.0000 0.0000 0.0000 0.0000 115.8519
#
#
#
# Elastic Compliance Matrix: (Units=1/GPa)
#
#
# Indices 1 2 3 4 5 6 
#
# 1 0.013638 -0.003767 -0.003627 0.000000 0.000000 0.000000
# 2 -0.003767 0.017027 -0.007204 0.000000 0.000000 0.000000
# 3 -0.003627 -0.007204 0.013022 0.000000 0.000000 0.000000
# 4 0.000000 0.000000 0.000000 0.036306 0.000000 0.000000
# 5 0.000000 0.000000 0.000000 0.000000 0.069551 0.000000
# 6 0.000000 0.000000 0.000000 0.000000 0.000000 0.008632
#
#
# Mechanical properties :
#
#
# Convention : Reuss Voigt Hill
#
# Bulk Modulus (GPa) = 69.01709 71.74118 70.37913
# Shear Modulus (GPa) = 26.01407 42.32348 34.16878
#
# Velocity S-wave (km/s) = 3.75769 4.79300 4.30657
# Velocity P-wave (km/s) = 7.50259 8.34092 7.93284
#
# Compressibility (1/GPa) = 0.01448917
#
# Stress axis : x y z
#
# Youngs Moduli (GPa) = 73.32441 58.73085 76.79186
#
# Poissons Ratio (x) = 0.22125 0.27856
# Poissons Ratio (y) = 0.27623 0.55323
# Poissons Ratio (z) = 0.26598 0.42311
#
# Static dielectric constant tensor:
#      x y z
#    x 3.409980 0.000000 0.000000 
#    y 0.000000 3.473170 0.000000 
#    z 0.000000 0.000000 3.433580 
# 
# 
# High freq. dielectric constant tensor:
#      x y z
#    x 1.713280 0.000000 0.000000 
#    y 0.000000 1.721410 0.000000 
#    z 0.000000 0.000000 1.712060 
# 
# From -- ./inp_files/33532.got.cif
#   From: 2010.03.12/outbox.cif.g09.slc.cpg/sg51_17_cif.got.tgz:33532.got - 2010.04.16 13:43:02.
