data_PCOD8211755
_publ_section_title
;
Structure prediction by ZEFSAII (Michael W. Deem and Ramdas Pophale) SiO2 
 PCOD8211755
Probable space group: P M M A
;
_chemical_formula_sum "Si O2"
_cell_formula_units_Z 52
_cell_length_a 9.741071
_cell_length_b 15.271786
_cell_length_c 18.955492
_cell_angle_alpha 90.000000
_cell_angle_beta 90.000000
_cell_angle_gamma 90.000000
_cell_volume 2819.886315
_symmetry_space_group_name_H-M "P M M A"
_symmetry_group_IT_number 51
_symmetry_cell_setting 'orthorhombic'
loop_
_space_group_symop_operation_xyz
x,y,z
1/2-x,-y,z
1/2+x,-y,-z
-x,y,-z
-x,-y,-z
1/2+x,y,-z
1/2-x,y,z
x,-y,z
loop_
_atom_site_type_symbol
_atom_site_label
_atom_site_fract_x
_atom_site_fract_y
_atom_site_fract_z
Si Si1 0.408952 0.500000 0.070039
Si Si2 0.094002 0.596937 0.678515
Si Si3 0.399996 0.898942 0.056902
Si Si4 0.907539 0.100084 0.331107
Si Si5 0.907454 0.632400 0.809066
Si Si6 0.591686 0.165482 0.795839
Si Si7 0.909082 0.256469 0.431377
O O1 0.250000 0.500000 0.046919
O O2 0.443671 0.414189 0.116950
O O3 0.500000 0.500000 0.000000
O O4 0.250000 0.620170 0.700556
O O5 0.086651 0.500000 0.643724
O O6 0.040560 0.669386 0.623482
O O7 0.001951 0.594870 0.747782
O O8 0.250000 0.853228 0.051803
O O9 0.456114 0.889756 0.136210
O O10 0.385826 0.000000 0.037364
O O11 0.500000 0.852967 0.000000
O O12 0.750000 0.108423 0.306538
O O13 0.934378 0.160032 0.399365
O O14 0.000815 0.134749 0.268602
O O15 0.944932 0.000000 0.350661
O O16 0.750000 0.612224 0.788542
O O17 0.935250 0.734774 0.816591
O O18 0.750000 0.147592 0.775977
O O19 0.750000 0.270491 0.451361
O O20 0.000000 0.266840 0.500000
#
# Coordination Sequence:
#
# PCOD8211755 Si02
#       7
#     4   8   8   8   8   8   8
#     4  10  22  38  54  80 117 152 191 236 281 336
#     4  10  20  36  60  86 112 144 184 226 274 333
#     4   9  18  32  48  69 100 135 172 217 267 318
#     4  10  21  37  57  82 113 149 188 232 281 334
#     4  10  20  35  56  81 110 145 185 229 276 328
#     4  10  20  34  55  81 108 140 184 233 279 330
#     4  10  22  39  57  83 117 148 184 229 275 331
#
# _framework density 18.440459000000001
#
# number of rings (size 3 to 8) (size 9 to 14) (size 15 to 20)
#    0.000    2.154    2.308    0.462    0.000    4.615 
#    0.000    1.538    0.000    0.000    0.000    0.000 
#    0.000    0.000    0.000    0.000    0.000    0.000 
#
# Total GULP energy -644759.324232 kJ/mol
# GULP energy per Si atom -12399.217774 kJ/mol
# Density = 1.839849 g / cm^3
# Si number density = 18.440459 Si / 1000 Ang^3
#
#
#
# Elastic Constant Matrix: (Units=GPa)
#
#
# Indices 1 2 3 4 5 6 
#
# 1 80.4052 39.9775 74.0874 0.0000 0.0000 0.0000
# 2 39.9775 107.4886 47.6337 0.0000 0.0000 0.0000
# 3 74.0874 47.6337 129.3880 0.0000 0.0000 0.0000
# 4 0.0000 0.0000 0.0000 26.0494 0.0000 0.0000
# 5 0.0000 0.0000 0.0000 0.0000 42.8746 0.0000
# 6 0.0000 0.0000 0.0000 0.0000 0.0000 19.8861
#
#
#
# Elastic Compliance Matrix: (Units=1/GPa)
#
#
# Indices 1 2 3 4 5 6 
#
# 1 0.027633 -0.003902 -0.014386 0.000000 0.000000 0.000000
# 2 -0.003902 0.011668 -0.002061 0.000000 0.000000 0.000000
# 3 -0.014386 -0.002061 0.016725 0.000000 0.000000 0.000000
# 4 0.000000 0.000000 0.000000 0.038389 0.000000 0.000000
# 5 0.000000 0.000000 0.000000 0.000000 0.023324 0.000000
# 6 0.000000 0.000000 0.000000 0.000000 0.000000 0.050286
#
#
# Mechanical properties :
#
#
# Convention : Reuss Voigt Hill
#
# Bulk Modulus (GPa) = 65.24363 71.18654 68.21508
# Shear Modulus (GPa) = 23.38287 28.13423 25.75855
#
# Velocity S-wave (km/s) = 3.56479 3.91023 3.74150
# Velocity P-wave (km/s) = 7.23886 7.68595 7.46575
#
# Compressibility (1/GPa) = 0.01532717
#
# Stress axis : x y z
#
# Youngs Moduli (GPa) = 36.18906 85.70445 59.79127
#
# Poissons Ratio (x) = 0.33443 0.86015
# Poissons Ratio (y) = 0.14121 0.12324
# Poissons Ratio (z) = 0.52061 0.17665
#
# Static dielectric constant tensor:
#      x y z
#    x 3.522880 0.000000 0.000000 
#    y 0.000000 3.652950 0.000000 
#    z 0.000000 0.000000 3.208110 
# 
# 
# High freq. dielectric constant tensor:
#      x y z
#    x 1.715010 0.000000 0.000000 
#    y 0.000000 1.725760 0.000000 
#    z 0.000000 0.000000 1.702090 
# 
# From -- ./inp_files/31747.got.cif
#   From: 2010.03.12/outbox.cif.g09.slc.cpg/sg51_16_cif.got.tgz:31747.got - 2010.04.16 13:43:02.
