data_PCOD8211119
_publ_section_title
;
Structure prediction by ZEFSAII (Michael W. Deem and Ramdas Pophale) SiO2 
 PCOD8211119
Probable space group: P M M A
;
_chemical_formula_sum "Si O2"
_cell_formula_units_Z 48
_cell_length_a 9.305415
_cell_length_b 9.378988
_cell_length_c 30.879552
_cell_angle_alpha 90.000000
_cell_angle_beta 90.000000
_cell_angle_gamma 90.000000
_cell_volume 2695.024500
_symmetry_space_group_name_H-M "P M M A"
_symmetry_group_IT_number 51
_symmetry_cell_setting 'orthorhombic'
loop_
_space_group_symop_operation_xyz
x,y,z
1/2-x,-y,z
1/2+x,-y,-z
-x,y,-z
-x,-y,-z
1/2+x,y,-z
1/2-x,y,z
x,-y,z
loop_
_atom_site_type_symbol
_atom_site_label
_atom_site_fract_x
_atom_site_fract_y
_atom_site_fract_z
Si Si1 0.917317 0.667580 0.117058
Si Si2 0.079694 0.157785 0.800789
Si Si3 0.408720 0.669534 0.460644
Si Si4 0.579257 0.339222 0.634643
Si Si5 0.088078 0.168471 0.705246
Si Si6 0.581964 0.164516 0.955979
O O1 0.750000 0.704654 0.108473
O O2 0.943849 0.500000 0.117807
O O3 0.970818 0.730533 0.162938
O O4 0.015287 0.735953 0.080446
O O5 0.250000 0.147352 0.799271
O O6 0.028459 0.209302 0.753208
O O7 0.017241 0.000000 0.811667
O O8 0.500000 0.736152 0.500000
O O9 0.250000 0.734719 0.465164
O O10 0.401723 0.500000 0.464444
O O11 0.473785 0.708887 0.413398
O O12 0.750000 0.330151 0.636248
O O13 0.527659 0.500000 0.644432
O O14 0.514769 0.235499 0.669966
O O15 0.250000 0.226497 0.698764
O O16 0.085190 0.000000 0.699737
O O17 0.750000 0.199419 0.961872
O O18 0.557810 0.000000 0.942986
O O19 0.500000 0.201399 0.000000
#
# Coordination Sequence:
#
# PCOD8211119 Si02
#       6
#     8   8   8   8   8   8
#     4  10  20  33  52  79 107 134 164 200 246 296
#     4   8  15  30  51  72  96 128 165 204 243 284
#     4   8  14  25  41  62  89 119 152 192 236 283
#     4   9  18  31  46  68  98 128 158 195 241 292
#     4   9  18  32  50  73  98 125 162 205 244 285
#     4  10  21  37  57  79 102 132 171 210 246 287
#
# _framework density 17.810600999999998
#
# number of rings (size 3 to 8) (size 9 to 14) (size 15 to 20)
#    0.000    3.000    0.000    3.000    0.000    4.333 
#    0.000    4.167    0.000    1.500    0.000    0.000 
#    0.000    0.000    0.000    0.000    0.000    0.000 
#
# Total GULP energy -594975.488885 kJ/mol
# GULP energy per Si atom -12395.322685 kJ/mol
# Density = 1.777006 g / cm^3
# Si number density = 17.810601 Si / 1000 Ang^3
#
#
#
# Elastic Constant Matrix: (Units=GPa)
#
#
# Indices 1 2 3 4 5 6 
#
# 1 59.5396 34.2689 59.3505 0.0000 0.0000 0.0000
# 2 34.2689 60.5895 66.0217 0.0000 0.0000 0.0000
# 3 59.3505 66.0217 166.0554 0.0000 0.0000 0.0000
# 4 0.0000 0.0000 0.0000 30.4415 0.0000 0.0000
# 5 0.0000 0.0000 0.0000 0.0000 30.0314 0.0000
# 6 0.0000 0.0000 0.0000 0.0000 0.0000 24.7358
#
#
#
# Elastic Compliance Matrix: (Units=1/GPa)
#
#
# Indices 1 2 3 4 5 6 
#
# 1 0.028563 -0.008876 -0.006680 0.000000 0.000000 0.000000
# 2 -0.008876 0.031879 -0.009502 0.000000 0.000000 0.000000
# 3 -0.006680 -0.009502 0.012187 0.000000 0.000000 0.000000
# 4 0.000000 0.000000 0.000000 0.032850 0.000000 0.000000
# 5 0.000000 0.000000 0.000000 0.000000 0.033298 0.000000
# 6 0.000000 0.000000 0.000000 0.000000 0.000000 0.040427
#
#
# Mechanical properties :
#
#
# Convention : Reuss Voigt Hill
#
# Bulk Modulus (GPa) = 44.41893 67.27408 55.84650
# Shear Modulus (GPa) = 21.11257 25.47797 23.29527
#
# Velocity S-wave (km/s) = 3.44669 3.78629 3.62047
# Velocity P-wave (km/s) = 6.39009 7.54775 6.99292
#
# Compressibility (1/GPa) = 0.02251293
#
# Stress axis : x y z
#
# Youngs Moduli (GPa) = 35.01048 31.36855 82.05180
#
# Poissons Ratio (x) = 0.27844 0.54807
# Poissons Ratio (y) = 0.31077 0.77967
# Poissons Ratio (z) = 0.23386 0.29807
#
# Static dielectric constant tensor:
#      x y z
#    x 3.155200 0.000000 0.000000 
#    y 0.000000 3.106220 0.000000 
#    z 0.000000 0.000000 3.622600 
# 
# 
# High freq. dielectric constant tensor:
#      x y z
#    x 1.667250 0.000000 0.000000 
#    y 0.000000 1.665570 0.000000 
#    z 0.000000 0.000000 1.705650 
# 
# From -- ./inp_files/37034.got.cif
#   From: 2010.03.12/outbox.cif.g09.slc.cpg/sg51_19_cif.got.tgz:37034.got - 2010.04.16 13:43:02.
