data_PCOD8211626
_publ_section_title
;
Structure prediction by ZEFSAII (Michael W. Deem and Ramdas Pophale) SiO2 
 PCOD8211626
Probable space group: P M M A
;
_chemical_formula_sum "Si O2"
_cell_formula_units_Z 48
_cell_length_a 16.742921
_cell_length_b 15.458754
_cell_length_c 9.595498
_cell_angle_alpha 90.000000
_cell_angle_beta 90.000000
_cell_angle_gamma 90.000000
_cell_volume 2483.551862
_symmetry_space_group_name_H-M "P M M A"
_symmetry_group_IT_number 51
_symmetry_cell_setting 'orthorhombic'
loop_
_space_group_symop_operation_xyz
x,y,z
1/2-x,-y,z
1/2+x,-y,-z
-x,y,-z
-x,-y,-z
1/2+x,y,-z
1/2-x,y,z
x,-y,z
loop_
_atom_site_type_symbol
_atom_site_label
_atom_site_fract_x
_atom_site_fract_y
_atom_site_fract_z
Si Si1 0.408824 0.775384 0.448280
Si Si2 0.588959 0.100192 0.043855
Si Si3 0.925060 0.597129 0.902820
Si Si4 0.840921 0.766968 0.845521
Si Si5 0.578806 0.409731 0.584847
Si Si6 0.159186 0.097329 0.664985
O O1 0.500000 0.784539 0.500000
O O2 0.398568 0.793987 0.283648
O O3 0.375719 0.676374 0.467991
O O4 0.354404 0.839380 0.535976
O O5 0.600542 0.119887 0.207531
O O6 0.606898 0.000000 0.010953
O O7 0.500000 0.126841 0.000000
O O8 0.651175 0.157918 0.959108
O O9 0.891354 0.500000 0.939339
O O10 0.860645 0.674332 0.919007
O O11 0.951743 0.600804 0.742738
O O12 0.000000 0.619156 0.000000
O O13 0.750000 0.762724 0.792429
O O14 0.500000 0.421489 0.500000
O O15 0.629984 0.500000 0.569570
O O16 0.250000 0.106610 0.717197
O O17 0.142146 0.000000 0.611862
#
# Coordination Sequence:
#
# PCOD8211626 Si02
#       6
#     8   8   8   8   8   8
#     4  10  20  34  54  79 106 141 183 223 261 313
#     4  10  21  38  59  80 103 136 179 224 269 324
#     4   9  18  33  53  76 104 141 182 220 260 313
#     4  11  22  34  52  81 114 143 175 223 281 331
#     4   8  15  29  49  75 103 130 167 214 258 299
#     4  10  21  37  55  75 103 139 175 215 269 326
#
# _framework density 19.327157
#
# number of rings (size 3 to 8) (size 9 to 14) (size 15 to 20)
#    0.000    2.333    0.000    2.500    0.000    5.000 
#    0.000    0.000    0.000    1.500    0.000    0.000 
#    0.000    6.667    0.000    0.000    0.000    0.000 
#
# Total GULP energy -594698.636825 kJ/mol
# GULP energy per Si atom -12389.554934 kJ/mol
# Density = 1.928317 g / cm^3
# Si number density = 19.327157 Si / 1000 Ang^3
#
#
#
# Elastic Constant Matrix: (Units=GPa)
#
#
# Indices 1 2 3 4 5 6 
#
# 1 68.0471 36.9407 25.2920 0.0000 0.0000 0.0000
# 2 36.9407 137.1366 69.6372 0.0000 0.0000 0.0000
# 3 25.2920 69.6372 73.4311 0.0000 0.0000 0.0000
# 4 0.0000 0.0000 0.0000 29.0821 0.0000 0.0000
# 5 0.0000 0.0000 0.0000 0.0000 27.3827 0.0000
# 6 0.0000 0.0000 0.0000 0.0000 0.0000 19.9269
#
#
#
# Elastic Compliance Matrix: (Units=1/GPa)
#
#
# Indices 1 2 3 4 5 6 
#
# 1 0.017552 -0.003198 -0.003012 0.000000 0.000000 0.000000
# 2 -0.003198 0.014648 -0.012790 0.000000 0.000000 0.000000
# 3 -0.003012 -0.012790 0.026785 0.000000 0.000000 0.000000
# 4 0.000000 0.000000 0.000000 0.034385 0.000000 0.000000
# 5 0.000000 0.000000 0.000000 0.000000 0.036519 0.000000
# 6 0.000000 0.000000 0.000000 0.000000 0.000000 0.050183
#
#
# Mechanical properties :
#
#
# Convention : Reuss Voigt Hill
#
# Bulk Modulus (GPa) = 47.65584 60.26163 53.95873
# Shear Modulus (GPa) = 22.21556 25.06133 23.63845
#
# Velocity S-wave (km/s) = 3.39403 3.60486 3.50103
# Velocity P-wave (km/s) = 6.33010 6.96952 6.65749
#
# Compressibility (1/GPa) = 0.02098379
#
# Stress axis : x y z
#
# Youngs Moduli (GPa) = 56.97503 68.26853 37.33486
#
# Poissons Ratio (x) = 0.21834 0.11246
# Poissons Ratio (y) = 0.18222 0.47750
# Poissons Ratio (z) = 0.17162 0.87313
#
# Static dielectric constant tensor:
#      x y z
#    x 3.135540 0.000000 0.000000 
#    y 0.000000 4.182240 0.000000 
#    z 0.000000 0.000000 3.370910 
# 
# 
# High freq. dielectric constant tensor:
#      x y z
#    x 1.716550 0.000000 0.000000 
#    y 0.000000 1.777760 0.000000 
#    z 0.000000 0.000000 1.749610 
# 
# From -- ./inp_files/8209.got.cif
#   From: 2010.03.12/outbox.cif.g09.slc.cpg/sg51_5_cif.got.tgz:8209.got - 2010.04.16 13:43:02.
