data_PCOD8211616
_publ_section_title
;
Structure prediction by ZEFSAII (Michael W. Deem and Ramdas Pophale) SiO2 
 PCOD8211616
Probable space group: P M M A
;
_chemical_formula_sum "Si O2"
_cell_formula_units_Z 48
_cell_length_a 9.009207
_cell_length_b 9.161136
_cell_length_c 30.930688
_cell_angle_alpha 90.000000
_cell_angle_beta 90.000000
_cell_angle_gamma 90.000000
_cell_volume 2552.851052
_symmetry_space_group_name_H-M "P M M A"
_symmetry_group_IT_number 51
_symmetry_cell_setting 'orthorhombic'
loop_
_space_group_symop_operation_xyz
x,y,z
1/2-x,-y,z
1/2+x,-y,-z
-x,y,-z
-x,-y,-z
1/2+x,y,-z
1/2-x,y,z
x,-y,z
loop_
_atom_site_type_symbol
_atom_site_label
_atom_site_fract_x
_atom_site_fract_y
_atom_site_fract_z
Si Si1 0.923852 0.666751 0.456761
Si Si2 0.575964 0.331493 0.706228
Si Si3 0.417404 0.673536 0.792646
Si Si4 0.076590 0.831123 0.955691
Si Si5 0.419183 0.326592 0.122057
Si Si6 0.578846 0.828278 0.371018
O O1 0.750000 0.680801 0.463753
O O2 0.972599 0.500000 0.448123
O O3 0.977260 0.762534 0.416319
O O4 0.000000 0.728349 0.500000
O O5 0.750000 0.311342 0.712994
O O6 0.534210 0.500000 0.697704
O O7 0.495631 0.270657 0.749060
O O8 0.522546 0.236693 0.666243
O O9 0.250000 0.735194 0.794327
O O10 0.417729 0.500000 0.793369
O O11 0.507743 0.733432 0.833804
O O12 0.250000 0.799012 0.959771
O O13 0.010493 0.735501 0.917651
O O14 0.043335 0.000000 0.945928
O O15 0.000000 0.781369 0.000000
O O16 0.250000 0.271326 0.120102
O O17 0.427457 0.500000 0.120110
O O18 0.750000 0.785022 0.362422
O O19 0.556456 0.000000 0.372698
#
# Coordination Sequence:
#
# PCOD8211616 Si02
#       6
#     8   8   8   8   8   8
#     4   9  18  33  53  76 102 133 171 214 257 304
#     4  10  20  34  54  79 105 135 173 215 258 307
#     4   9  17  31  53  79 106 137 172 212 259 309
#     4  10  21  37  56  77 103 138 179 220 263 313
#     4  10  20  34  54  81 111 140 172 214 263 313
#     4  10  21  36  53  75 105 140 176 214 258 308
#
# _framework density 18.802509000000001
#
# number of rings (size 3 to 8) (size 9 to 14) (size 15 to 20)
#    0.000    2.333    0.000    2.500    0.000    7.333 
#    0.000    2.500    0.000    5.000    0.000    0.000 
#    0.000    0.000    0.000    0.000    0.000    0.000 
#
# Total GULP energy -595357.735294 kJ/mol
# GULP energy per Si atom -12403.286152 kJ/mol
# Density = 1.875971 g / cm^3
# Si number density = 18.802509 Si / 1000 Ang^3
#
#
#
# Elastic Constant Matrix: (Units=GPa)
#
#
# Indices 1 2 3 4 5 6 
#
# 1 101.5974 30.3763 67.1307 0.0000 0.0000 0.0000
# 2 30.3763 42.1131 42.5169 0.0000 0.0000 0.0000
# 3 67.1307 42.5169 163.9555 0.0000 0.0000 0.0000
# 4 0.0000 0.0000 0.0000 -25.3688 0.0000 0.0000
# 5 0.0000 0.0000 0.0000 0.0000 43.6606 0.0000
# 6 0.0000 0.0000 0.0000 0.0000 0.0000 23.5127
#
#
#
# Elastic Compliance Matrix: (Units=1/GPa)
#
#
# Indices 1 2 3 4 5 6 
#
# 1 0.014556 -0.006072 -0.004385 0.000000 0.000000 0.000000
# 2 -0.006072 0.034700 -0.006512 0.000000 0.000000 0.000000
# 3 -0.004385 -0.006512 0.009583 0.000000 0.000000 0.000000
# 4 0.000000 0.000000 0.000000 -0.039419 0.000000 0.000000
# 5 0.000000 0.000000 0.000000 0.000000 0.022904 0.000000
# 6 0.000000 0.000000 0.000000 0.000000 0.000000 0.042530
#
#
# Mechanical properties :
#
#
# Convention : Reuss Voigt Hill
#
# Bulk Modulus (GPa) = 40.15987 65.30151 52.73069
# Shear Modulus (GPa) = 39.34110 19.53706 29.43908
#
# Velocity S-wave (km/s) = 4.57916 3.22695 3.96118
# Velocity P-wave (km/s) = 7.02591 6.97782 7.00191
#
# Compressibility (1/GPa) = 0.02490048
#
# Stress axis : x y z
#
# Youngs Moduli (GPa) = 68.70158 28.81846 104.34614
#
# Poissons Ratio (x) = 0.17498 0.45758
# Poissons Ratio (y) = 0.41714 0.67953
# Poissons Ratio (z) = 0.30127 0.18767
#
# Static dielectric constant tensor:
#      x y z
#    x 3.616710 0.000000 0.000000 
#    y 0.000000 3.195760 0.000000 
#    z 0.000000 0.000000 3.633130 
# 
# 
# High freq. dielectric constant tensor:
#      x y z
#    x 1.739560 0.000000 0.000000 
#    y 0.000000 1.701920 0.000000 
#    z 0.000000 0.000000 1.746270 
# 
# From -- ./inp_files/36929.got.cif
#   From: 2010.03.12/outbox.cif.g09.slc.cpg/sg51_19_cif.got.tgz:36929.got - 2010.04.16 13:43:02.
