data_PCOD8211754
_publ_section_title
;
Structure prediction by ZEFSAII (Michael W. Deem and Ramdas Pophale) SiO2 
 PCOD8211754
Probable space group: P M M A
;
_chemical_formula_sum "Si O2"
_cell_formula_units_Z 64
_cell_length_a 9.339323
_cell_length_b 14.494866
_cell_length_c 24.906543
_cell_angle_alpha 90.000000
_cell_angle_beta 90.000000
_cell_angle_gamma 90.000000
_cell_volume 3371.654402
_symmetry_space_group_name_H-M "P M M A"
_symmetry_group_IT_number 51
_symmetry_cell_setting 'orthorhombic'
loop_
_space_group_symop_operation_xyz
x,y,z
1/2-x,-y,z
1/2+x,-y,-z
-x,y,-z
-x,-y,-z
1/2+x,y,-z
1/2-x,y,z
x,-y,z
loop_
_atom_site_type_symbol
_atom_site_label
_atom_site_fract_x
_atom_site_fract_y
_atom_site_fract_z
Si Si1 0.585373 0.203115 0.449026
Si Si2 0.079601 0.759279 0.753412
Si Si3 0.412598 0.604559 0.302071
Si Si4 0.087962 0.897028 0.048138
Si Si5 0.411011 0.601691 0.592425
Si Si6 0.583425 0.606087 0.946587
Si Si7 0.919861 0.895405 0.340622
Si Si8 0.413869 0.245591 0.139373
O O1 0.500000 0.163329 0.500000
O O2 0.750000 0.175865 0.456971
O O3 0.564450 0.314305 0.448526
O O4 0.525050 0.156478 0.394414
O O5 0.250000 0.752361 0.755238
O O6 0.028170 0.838638 0.711682
O O7 0.013889 0.661746 0.736790
O O8 0.018670 0.778551 0.812055
O O9 0.250000 0.642309 0.301395
O O10 0.417339 0.500000 0.281076
O O11 0.471191 0.611595 0.362022
O O12 0.250000 0.897299 0.028382
O O13 0.070710 0.843576 0.102998
O O14 0.029807 0.000000 0.058756
O O15 0.000000 0.849216 0.000000
O O16 0.250000 0.611437 0.617067
O O17 0.426763 0.500000 0.564609
O O18 0.750000 0.624428 0.958286
O O19 0.550900 0.500000 0.932639
O O20 0.534765 0.665286 0.894836
O O21 0.500000 0.637188 0.000000
O O22 0.750000 0.897496 0.341410
O O23 0.981253 0.000000 0.338341
O O24 0.250000 0.259706 0.159389
#
# Coordination Sequence:
#
# PCOD8211754 Si02
#       8
#     8   8   8   8   8   8   8   8
#     4  10  20  35  55  82 112 145 180 223 275 326
#     4  11  22  37  57  81 107 142 186 228 272 324
#     4  10  20  34  55  81 108 140 176 216 264 318
#     4   9  18  33  53  76 104 138 175 219 273 328
#     4   9  17  32  54  79 109 144 180 217 260 314
#     4   9  18  33  53  76 105 142 181 220 263 312
#     4   9  19  38  60  79 105 142 182 227 282 336
#     4  10  21  35  51  76 110 143 175 220 275 325
#
# _framework density 18.981779
#
# number of rings (size 3 to 8) (size 9 to 14) (size 15 to 20)
#    0.000    2.375    1.250    1.125    0.000    3.750 
#    0.000    1.250    0.000    2.625    0.000    0.000 
#    0.000    0.000    0.000    0.000    0.000    0.000 
#
# Total GULP energy -793391.352794 kJ/mol
# GULP energy per Si atom -12396.739887 kJ/mol
# Density = 1.893858 g / cm^3
# Si number density = 18.981779 Si / 1000 Ang^3
#
#
#
# Elastic Constant Matrix: (Units=GPa)
#
#
# Indices 1 2 3 4 5 6 
#
# 1 77.6428 38.0661 58.5841 0.0000 0.0000 0.0000
# 2 38.0661 99.4826 52.0276 0.0000 0.0000 0.0000
# 3 58.5841 52.0276 130.2053 0.0000 0.0000 0.0000
# 4 0.0000 0.0000 0.0000 14.3954 0.0000 0.0000
# 5 0.0000 0.0000 0.0000 0.0000 36.9368 0.0000
# 6 0.0000 0.0000 0.0000 0.0000 0.0000 -55.7708
#
#
#
# Elastic Compliance Matrix: (Units=1/GPa)
#
#
# Indices 1 2 3 4 5 6 
#
# 1 0.020596 -0.003836 -0.007734 0.000000 0.000000 0.000000
# 2 -0.003836 0.013422 -0.003637 0.000000 0.000000 0.000000
# 3 -0.007734 -0.003637 0.012613 0.000000 0.000000 0.000000
# 4 0.000000 0.000000 0.000000 0.069466 0.000000 0.000000
# 5 0.000000 0.000000 0.000000 0.000000 0.027073 0.000000
# 6 0.000000 0.000000 0.000000 0.000000 0.000000 -0.017931
#
#
# Mechanical properties :
#
#
# Convention : Reuss Voigt Hill
#
# Bulk Modulus (GPa) = 61.66499 67.18736 64.42617
# Shear Modulus (GPa) = 31.04426 9.68913 20.36670
#
# Velocity S-wave (km/s) = 4.04849 2.26175 3.27916
# Velocity P-wave (km/s) = 7.37636 6.50333 6.95356
#
# Compressibility (1/GPa) = 0.01621666
#
# Stress axis : x y z
#
# Youngs Moduli (GPa) = 48.55372 74.50429 79.28118
#
# Poissons Ratio (x) = 0.28580 0.61316
# Poissons Ratio (y) = 0.18625 0.28836
# Poissons Ratio (z) = 0.37551 0.27099
#
# Static dielectric constant tensor:
#      x y z
#    x 3.409410 0.000000 0.000000 
#    y 0.000000 3.753320 0.000000 
#    z 0.000000 0.000000 3.344420 
# 
# 
# High freq. dielectric constant tensor:
#      x y z
#    x 1.724320 0.000000 0.000000 
#    y 0.000000 1.745920 0.000000 
#    z 0.000000 0.000000 1.725140 
# 
# From -- ./inp_files/34941.got.cif
#   From: 2010.03.12/outbox.cif.g09.slc.cpg/sg51_18_cif.got.tgz:34941.got - 2010.04.16 13:43:02.
