data_PCOD8211178
_publ_section_title
;
Structure prediction by ZEFSAII (Michael W. Deem and Ramdas Pophale) SiO2 
 PCOD8211178
Probable space group: P M M A
;
_chemical_formula_sum "Si O2"
_cell_formula_units_Z 48
_cell_length_a 8.700183
_cell_length_b 30.968193
_cell_length_c 9.105678
_cell_angle_alpha 90.000000
_cell_angle_beta 90.000000
_cell_angle_gamma 90.000000
_cell_volume 2453.333229
_symmetry_space_group_name_H-M "P M M A"
_symmetry_group_IT_number 51
_symmetry_cell_setting 'orthorhombic'
loop_
_space_group_symop_operation_xyz
x,y,z
1/2-x,-y,z
1/2+x,-y,-z
-x,y,-z
-x,-y,-z
1/2+x,y,-z
1/2-x,y,z
x,-y,z
loop_
_atom_site_type_symbol
_atom_site_label
_atom_site_fract_x
_atom_site_fract_y
_atom_site_fract_z
Si Si1 0.570055 0.131899 0.839673
Si Si2 0.432496 0.705408 0.839743
Si Si3 0.568379 0.371767 0.659900
Si Si4 0.068104 0.783688 0.339932
Si Si5 0.930372 0.548180 0.847087
Si Si6 0.069787 0.953308 0.838937
O O1 0.750000 0.127325 0.856393
O O2 0.523053 0.172476 0.742260
O O3 0.505824 0.088242 0.759242
O O4 0.500000 0.138566 0.000000
O O5 0.250000 0.703789 0.848169
O O6 0.494984 0.660995 0.774580
O O7 0.485502 0.744242 0.737988
O O8 0.500000 0.712949 0.000000
O O9 0.500000 0.364016 0.500000
O O10 0.750000 0.364432 0.654241
O O11 0.523552 0.419754 0.715267
O O12 0.250000 0.775576 0.343569
O O13 0.000000 0.787710 0.500000
O O14 0.750000 0.547838 0.869439
O O15 0.991716 0.500000 0.808313
O O16 0.000000 0.564886 0.000000
O O17 0.250000 0.945593 0.849928
O O18 0.034376 0.000000 0.761502
O O19 0.000000 0.954552 0.000000
#
# Coordination Sequence:
#
# PCOD8211178 Si02
#       6
#     8   8   8   8   8   8
#     4  10  20  33  53  80 109 142 181 225 273 327
#     4  12  25  42  64  88 115 147 186 231 279 333
#     4  11  23  39  59  85 119 155 192 235 284 337
#     4  11  24  41  60  84 113 147 186 228 280 335
#     4   9  19  36  58  84 114 150 193 239 286 336
#     4   9  16  26  44  72 105 140 178 222 271 321
#
# _framework density 19.565218000000002
#
# number of rings (size 3 to 8) (size 9 to 14) (size 15 to 20)
#    0.000    1.667    0.000    6.000    0.000    8.000 
#    0.000    0.000    0.000    0.500    0.000    0.000 
#    0.000    0.000    0.000    0.000    0.000    0.000 
#
# Total GULP energy -595123.810893 kJ/mol
# GULP energy per Si atom -12398.412727 kJ/mol
# Density = 1.952069 g / cm^3
# Si number density = 19.565218 Si / 1000 Ang^3
#
#
#
# Elastic Constant Matrix: (Units=GPa)
#
#
# Indices 1 2 3 4 5 6 
#
# 1 101.7092 58.2858 34.2051 0.0000 0.0000 0.0000
# 2 58.2858 138.0035 42.6020 0.0000 0.0000 0.0000
# 3 34.2051 42.6020 83.7026 0.0000 0.0000 0.0000
# 4 0.0000 0.0000 0.0000 44.5742 0.0000 0.0000
# 5 0.0000 0.0000 0.0000 0.0000 31.0844 0.0000
# 6 0.0000 0.0000 0.0000 0.0000 0.0000 26.0346
#
#
#
# Elastic Compliance Matrix: (Units=1/GPa)
#
#
# Indices 1 2 3 4 5 6 
#
# 1 0.013630 -0.004790 -0.003132 0.000000 0.000000 0.000000
# 2 -0.004790 0.010280 -0.003275 0.000000 0.000000 0.000000
# 3 -0.003132 -0.003275 0.014894 0.000000 0.000000 0.000000
# 4 0.000000 0.000000 0.000000 0.022435 0.000000 0.000000
# 5 0.000000 0.000000 0.000000 0.000000 0.032171 0.000000
# 6 0.000000 0.000000 0.000000 0.000000 0.000000 0.038410
#
#
# Mechanical properties :
#
#
# Convention : Reuss Voigt Hill
#
# Bulk Modulus (GPa) = 60.93672 65.95569 63.44621
# Shear Modulus (GPa) = 31.31196 32.89345 32.10271
#
# Velocity S-wave (km/s) = 4.00483 4.10472 4.05508
# Velocity P-wave (km/s) = 7.25244 7.49992 7.37722
#
# Compressibility (1/GPa) = 0.01641047
#
# Stress axis : x y z
#
# Youngs Moduli (GPa) = 73.36676 97.27491 67.14186
#
# Poissons Ratio (x) = 0.46593 0.21030
# Poissons Ratio (y) = 0.35141 0.21988
# Poissons Ratio (z) = 0.22979 0.31857
#
# Static dielectric constant tensor:
#      x y z
#    x 3.715830 0.000000 0.000000 
#    y 0.000000 4.379360 0.000000 
#    z 0.000000 0.000000 3.631690 
# 
# 
# High freq. dielectric constant tensor:
#      x y z
#    x 1.776300 0.000000 0.000000 
#    y 0.000000 1.789960 0.000000 
#    z 0.000000 0.000000 1.737390 
# 
# From -- ./inp_files/6067.got.cif
#   From: 2010.03.12/outbox.cif.g09.slc.cpg/sg51_4_cif.got.tgz:6067.got - 2010.04.16 13:43:02.
