data_PCOD8211670
_publ_section_title
;
Structure prediction by ZEFSAII (Michael W. Deem and Ramdas Pophale) SiO2 
 PCOD8211670
Probable space group: P M M A
;
_chemical_formula_sum "Si O2"
_cell_formula_units_Z 36
_cell_length_a 9.360001
_cell_length_b 7.871172
_cell_length_c 24.648423
_cell_angle_alpha 90.000000
_cell_angle_beta 90.000000
_cell_angle_gamma 90.000000
_cell_volume 1815.952298
_symmetry_space_group_name_H-M "P M M A"
_symmetry_group_IT_number 51
_symmetry_cell_setting 'orthorhombic'
loop_
_space_group_symop_operation_xyz
x,y,z
1/2-x,-y,z
1/2+x,-y,-z
-x,y,-z
-x,-y,-z
1/2+x,y,-z
1/2-x,y,z
x,-y,z
loop_
_atom_site_type_symbol
_atom_site_label
_atom_site_fract_x
_atom_site_fract_y
_atom_site_fract_z
Si Si1 0.913799 0.195225 0.229069
Si Si2 0.086136 0.689394 0.130335
Si Si3 0.088329 0.702548 0.448613
Si Si4 0.581070 0.000000 0.943850
Si Si5 0.911797 0.701367 0.346353
O O1 0.750000 0.255258 0.226356
O O2 0.972124 0.225946 0.289756
O O3 0.001314 0.306005 0.186550
O O4 0.931850 0.000000 0.212937
O O5 0.250000 0.727738 0.144401
O O6 0.066923 0.500000 0.105164
O O7 0.030808 0.830981 0.088183
O O8 0.250000 0.772842 0.451064
O O9 0.088679 0.500000 0.449133
O O10 0.000000 0.772484 0.500000
O O11 0.012332 0.771409 0.394239
O O12 0.750000 0.000000 0.954497
O O13 0.500000 0.000000 0.000000
O O14 0.750000 0.765854 0.356721
O O15 0.915857 0.500000 0.344164
#
# Coordination Sequence:
#
# PCOD8211670 Si02
#       5
#     8   8   8   4   8
#     4  10  20  34  54  80 110 144 183 227 278 334
#     4  10  21  38  60  85 115 152 191 232 281 333
#     4   9  16  26  42  65  93 126 166 214 269 328
#     4  10  22  40  60  86 120 154 191 234 277 326
#     4   9  17  29  45  68  99 132 168 214 267 324
#
# _framework density 19.824309
#
# number of rings (size 3 to 8) (size 9 to 14) (size 15 to 20)
#    0.000    2.444    1.111    1.333    0.000    6.222 
#    0.000    2.222    0.000    0.667    0.000    0.000 
#    0.000    0.000    0.000    0.000    0.000    0.000 
#
# Total GULP energy -446423.821672 kJ/mol
# GULP energy per Si atom -12400.661713 kJ/mol
# Density = 1.977919 g / cm^3
# Si number density = 19.824309 Si / 1000 Ang^3
#
#
#
# Elastic Constant Matrix: (Units=GPa)
#
#
# Indices 1 2 3 4 5 6 
#
# 1 95.4083 28.1307 75.6131 0.0000 0.0000 0.0000
# 2 28.1307 75.1191 48.7934 0.0000 0.0000 0.0000
# 3 75.6131 48.7934 162.8932 0.0000 0.0000 0.0000
# 4 0.0000 0.0000 0.0000 25.2470 0.0000 0.0000
# 5 0.0000 0.0000 0.0000 0.0000 42.2598 0.0000
# 6 0.0000 0.0000 0.0000 0.0000 0.0000 11.8162
#
#
#
# Elastic Compliance Matrix: (Units=1/GPa)
#
#
# Indices 1 2 3 4 5 6 
#
# 1 0.016719 -0.001515 -0.007307 0.000000 0.000000 0.000000
# 2 -0.001515 0.016665 -0.004289 0.000000 0.000000 0.000000
# 3 -0.007307 -0.004289 0.010815 0.000000 0.000000 0.000000
# 4 0.000000 0.000000 0.000000 0.039609 0.000000 0.000000
# 5 0.000000 0.000000 0.000000 0.000000 0.023663 0.000000
# 6 0.000000 0.000000 0.000000 0.000000 0.000000 0.084630
#
#
# Mechanical properties :
#
#
# Convention : Reuss Voigt Hill
#
# Bulk Modulus (GPa) = 55.62181 70.94387 63.28284
# Shear Modulus (GPa) = 22.29012 27.92350 25.10681
#
# Velocity S-wave (km/s) = 3.35682 3.75714 3.56260
# Velocity P-wave (km/s) = 6.56830 7.39496 6.99386
#
# Compressibility (1/GPa) = 0.01797856
#
# Stress axis : x y z
#
# Youngs Moduli (GPa) = 59.81299 60.00521 92.46006
#
# Poissons Ratio (x) = 0.09089 0.67560
# Poissons Ratio (y) = 0.09060 0.39655
# Poissons Ratio (z) = 0.43705 0.25735
#
# Static dielectric constant tensor:
#      x y z
#    x 3.621030 0.000000 0.000000 
#    y 0.000000 3.470790 0.000000 
#    z 0.000000 0.000000 3.570650 
# 
# 
# High freq. dielectric constant tensor:
#      x y z
#    x 1.764750 0.000000 0.000000 
#    y 0.000000 1.761320 0.000000 
#    z 0.000000 0.000000 1.771110 
# 
# From -- ./inp_files/34322.got.cif
#   From: 2010.03.12/outbox.cif.g09.slc.cpg/sg51_18_cif.got.tgz:34322.got - 2010.04.16 13:43:02.
