data_PCOD8211521
_publ_section_title
;
Structure prediction by ZEFSAII (Michael W. Deem and Ramdas Pophale) SiO2 
 PCOD8211521
Probable space group: P M M A
;
_chemical_formula_sum "Si O2"
_cell_formula_units_Z 64
_cell_length_a 30.679213
_cell_length_b 9.387845
_cell_length_c 12.035478
_cell_angle_alpha 90.000000
_cell_angle_beta 90.000000
_cell_angle_gamma 90.000000
_cell_volume 3466.358435
_symmetry_space_group_name_H-M "P M M A"
_symmetry_group_IT_number 51
_symmetry_cell_setting 'orthorhombic'
loop_
_space_group_symop_operation_xyz
x,y,z
1/2-x,-y,z
1/2+x,-y,-z
-x,y,-z
-x,-y,-z
1/2+x,y,-z
1/2-x,y,z
x,-y,z
loop_
_atom_site_type_symbol
_atom_site_label
_atom_site_fract_x
_atom_site_fract_y
_atom_site_fract_z
Si Si1 0.199411 0.332390 0.975441
Si Si2 0.450939 0.834345 0.969806
Si Si3 0.396932 0.162433 0.355028
Si Si4 0.019489 0.339690 0.387075
Si Si5 0.799239 0.837695 0.239780
Si Si6 0.625705 0.836717 0.401614
Si Si7 0.563720 0.338298 0.247396
Si Si8 0.368188 0.836921 0.116208
O O1 0.250000 0.295522 0.000917
O O2 0.191600 0.500000 0.969879
O O3 0.184748 0.265186 0.858300
O O4 0.168752 0.266400 0.069129
O O5 0.431733 0.747660 0.866347
O O6 0.452361 0.000000 0.936732
O O7 0.500000 0.782103 0.000000
O O8 0.416977 0.805419 0.069897
O O9 0.439790 0.254256 0.343980
O O10 0.370645 0.199267 0.467599
O O11 0.367047 0.192768 0.248099
O O12 0.412615 0.000000 0.354884
O O13 0.034424 0.500000 0.415352
O O14 0.000000 0.270407 0.500000
O O15 0.986009 0.336235 0.285798
O O16 0.750000 0.803175 0.273862
O O17 0.827056 0.808062 0.349606
O O18 0.804692 0.000000 0.197758
O O19 0.591229 0.733289 0.345083
O O20 0.610861 0.000000 0.382399
O O21 0.580027 0.500000 0.228573
O O22 0.355505 0.000000 0.088840
#
# Coordination Sequence:
#
# PCOD8211521 Si02
#       8
#     8   8   8   8   8   8   8   8
#     4  10  21  37  58  84 110 138 178 225 271 323
#     4  10  21  37  55  76 108 145 180 222 271 322
#     4  10  21  36  55  79 106 140 184 224 260 313
#     4  10  20  35  51  72 105 142 180 219 264 313
#     4   9  18  34  56  80 107 137 166 205 262 319
#     4  10  20  34  53  79 107 134 170 214 259 309
#     4  11  22  34  52  77 105 136 175 220 263 312
#     4  10  21  37  56  80 110 145 184 225 273 326
#
# _framework density 18.463180000000001
#
# number of rings (size 3 to 8) (size 9 to 14) (size 15 to 20)
#    0.000    2.000    1.250    2.250    0.000    7.750 
#    0.000    0.625    0.000    2.250    0.000    1.750 
#    0.000    0.000    0.000    0.000    0.000    0.000 
#
# Total GULP energy -793709.388878 kJ/mol
# GULP energy per Si atom -12401.709201 kJ/mol
# Density = 1.842116 g / cm^3
# Si number density = 18.463180 Si / 1000 Ang^3
#
#
#
# Elastic Constant Matrix: (Units=GPa)
#
#
# Indices 1 2 3 4 5 6 
#
# 1 87.8057 49.4821 52.3860 0.0000 0.0000 0.0000
# 2 49.4821 86.3804 59.0820 0.0000 0.0000 0.0000
# 3 52.3860 59.0820 133.2196 0.0000 0.0000 0.0000
# 4 0.0000 0.0000 0.0000 15.6607 0.0000 0.0000
# 5 0.0000 0.0000 0.0000 0.0000 27.2719 0.0000
# 6 0.0000 0.0000 0.0000 0.0000 0.0000 24.2745
#
#
#
# Elastic Compliance Matrix: (Units=1/GPa)
#
#
# Indices 1 2 3 4 5 6 
#
# 1 0.017935 -0.007823 -0.003583 0.000000 0.000000 0.000000
# 2 -0.007823 0.020030 -0.005807 0.000000 0.000000 0.000000
# 3 -0.003583 -0.005807 0.011491 0.000000 0.000000 0.000000
# 4 0.000000 0.000000 0.000000 0.063854 0.000000 0.000000
# 5 0.000000 0.000000 0.000000 0.000000 0.036668 0.000000
# 6 0.000000 0.000000 0.000000 0.000000 0.000000 0.041195
#
#
# Mechanical properties :
#
#
# Convention : Reuss Voigt Hill
#
# Bulk Modulus (GPa) = 66.53594 69.92289 68.22942
# Shear Modulus (GPa) = 21.68170 23.20513 22.44341
#
# Velocity S-wave (km/s) = 3.43055 3.54903 3.49029
# Velocity P-wave (km/s) = 7.19770 7.39918 7.29914
#
# Compressibility (1/GPa) = 0.01502947
#
# Stress axis : x y z
#
# Youngs Moduli (GPa) = 55.75615 49.92548 87.02724
#
# Poissons Ratio (x) = 0.39058 0.31183
# Poissons Ratio (y) = 0.43619 0.50535
# Poissons Ratio (z) = 0.19978 0.28991
#
# Static dielectric constant tensor:
#      x y z
#    x 3.325740 0.000000 0.000000 
#    y 0.000000 3.448810 0.000000 
#    z 0.000000 0.000000 3.466420 
# 
# 
# High freq. dielectric constant tensor:
#      x y z
#    x 1.706810 0.000000 0.000000 
#    y 0.000000 1.716090 0.000000 
#    z 0.000000 0.000000 1.718300 
# 
# From -- ./inp_files/19486.got.cif
#   From: 2010.03.12/outbox.cif.g09.slc.cpg/sg51_10_cif.got.tgz:19486.got - 2010.04.16 13:43:02.
