data_PCOD8211701
_publ_section_title
;
Structure prediction by ZEFSAII (Michael W. Deem and Ramdas Pophale) SiO2 
 PCOD8211701
Probable space group: P M M A
;
_chemical_formula_sum "Si O2"
_cell_formula_units_Z 52
_cell_length_a 8.731745
_cell_length_b 22.865576
_cell_length_c 14.198772
_cell_angle_alpha 90.000000
_cell_angle_beta 90.000000
_cell_angle_gamma 90.000000
_cell_volume 2834.875402
_symmetry_space_group_name_H-M "P M M A"
_symmetry_group_IT_number 51
_symmetry_cell_setting 'orthorhombic'
loop_
_space_group_symop_operation_xyz
x,y,z
1/2-x,-y,z
1/2+x,-y,-z
-x,y,-z
-x,-y,-z
1/2+x,y,-z
1/2-x,y,z
x,-y,z
loop_
_atom_site_type_symbol
_atom_site_label
_atom_site_fract_x
_atom_site_fract_y
_atom_site_fract_z
Si Si1 0.068799 0.779239 0.601676
Si Si2 0.429247 0.434885 0.402464
Si Si3 0.929325 0.854971 0.098519
Si Si4 0.430078 0.325149 0.285388
Si Si5 0.568881 0.114810 0.713474
Si Si6 0.071212 0.281515 0.901708
Si Si7 0.930020 0.000000 0.602607
O O1 0.250000 0.777464 0.594541
O O2 0.000000 0.791990 0.500000
O O3 0.010393 0.718201 0.641774
O O4 0.019585 0.830491 0.670979
O O5 0.500000 0.412167 0.500000
O O6 0.250000 0.436101 0.418558
O O7 0.490679 0.500000 0.376680
O O8 0.471942 0.390724 0.318376
O O9 0.750000 0.868942 0.100203
O O10 0.962625 0.786606 0.115438
O O11 0.016549 0.891696 0.178512
O O12 0.000000 0.875687 0.000000
O O13 0.250000 0.312591 0.286983
O O14 0.492358 0.318432 0.180309
O O15 0.750000 0.124865 0.706954
O O16 0.515030 0.056991 0.658911
O O17 0.250000 0.294983 0.902357
O O18 0.000000 0.302609 0.000000
O O19 0.000000 0.000000 0.500000
O O20 0.750000 0.000000 0.591468
#
# Coordination Sequence:
#
# PCOD8211701 Si02
#       7
#     8   8   8   8   8   8   4
#     4  12  24  37  53  79 112 145 182 227 278 329
#     4   9  19  35  54  78 109 147 189 229 271 323
#     4  10  20  35  57  85 114 147 182 225 276 330
#     4  11  21  34  55  82 112 146 182 226 279 329
#     4  11  22  39  60  83 112 145 184 229 276 331
#     4  10  20  34  54  81 114 146 182 225 274 331
#     4  10  24  42  61  84 109 146 189 230 274 326
#
# _framework density 18.342956999999998
#
# number of rings (size 3 to 8) (size 9 to 14) (size 15 to 20)
#    0.000    1.538    1.538    4.154    0.000    6.154 
#    0.000    0.385    0.000    0.462    0.000    0.000 
#    0.000    0.000    0.000    0.000    0.000    0.000 
#
# Total GULP energy -645026.547182 kJ/mol
# GULP energy per Si atom -12404.356677 kJ/mol
# Density = 1.830121 g / cm^3
# Si number density = 18.342957 Si / 1000 Ang^3
#
#
#
# Elastic Constant Matrix: (Units=GPa)
#
#
# Indices 1 2 3 4 5 6 
#
# 1 92.9730 38.1247 49.0124 0.0000 0.0000 0.0000
# 2 38.1247 85.4386 52.1548 0.0000 0.0000 0.0000
# 3 49.0124 52.1548 150.3725 0.0000 0.0000 0.0000
# 4 0.0000 0.0000 0.0000 25.5544 0.0000 0.0000
# 5 0.0000 0.0000 0.0000 0.0000 39.4006 0.0000
# 6 0.0000 0.0000 0.0000 0.0000 0.0000 9.2737
#
#
#
# Elastic Compliance Matrix: (Units=1/GPa)
#
#
# Indices 1 2 3 4 5 6 
#
# 1 0.014210 -0.004457 -0.003086 0.000000 0.000000 0.000000
# 2 -0.004457 0.016246 -0.004182 0.000000 0.000000 0.000000
# 3 -0.003086 -0.004182 0.009106 0.000000 0.000000 0.000000
# 4 0.000000 0.000000 0.000000 0.039132 0.000000 0.000000
# 5 0.000000 0.000000 0.000000 0.000000 0.025380 0.000000
# 6 0.000000 0.000000 0.000000 0.000000 0.000000 0.107831
#
#
# Mechanical properties :
#
#
# Convention : Reuss Voigt Hill
#
# Bulk Modulus (GPa) = 62.06262 67.48532 64.77397
# Shear Modulus (GPa) = 20.77037 27.47856 24.12447
#
# Velocity S-wave (km/s) = 3.36867 3.87466 3.63049
# Velocity P-wave (km/s) = 7.00276 7.54241 7.27759
#
# Compressibility (1/GPa) = 0.01611276
#
# Stress axis : x y z
#
# Youngs Moduli (GPa) = 70.37153 61.55336 109.81333
#
# Poissons Ratio (x) = 0.27436 0.33885
# Poissons Ratio (y) = 0.31367 0.45923
# Poissons Ratio (z) = 0.21715 0.25741
#
# Static dielectric constant tensor:
#      x y z
#    x 3.455060 0.000000 0.000000 
#    y 0.000000 3.471210 0.000000 
#    z 0.000000 0.000000 3.550280 
# 
# 
# High freq. dielectric constant tensor:
#      x y z
#    x 1.724300 0.000000 0.000000 
#    y 0.000000 1.693220 0.000000 
#    z 0.000000 0.000000 1.722180 
# 
# From -- ./inp_files/21640.got.cif
#   From: 2010.03.12/outbox.cif.g09.slc.cpg/sg51_11_cif.got.tgz:21640.got - 2010.04.16 13:43:02.
