data_PCOD8211025
_publ_section_title
;
Structure prediction by ZEFSAII (Michael W. Deem and Ramdas Pophale) SiO2 
 PCOD8211025
Probable space group: P M M A
;
_chemical_formula_sum "Si O2"
_cell_formula_units_Z 48
_cell_length_a 16.435464
_cell_length_b 8.976528
_cell_length_c 18.233765
_cell_angle_alpha 90.000000
_cell_angle_beta 90.000000
_cell_angle_gamma 90.000000
_cell_volume 2690.089396
_symmetry_space_group_name_H-M "P M M A"
_symmetry_group_IT_number 51
_symmetry_cell_setting 'orthorhombic'
loop_
_space_group_symop_operation_xyz
x,y,z
1/2-x,-y,z
1/2+x,-y,-z
-x,y,-z
-x,-y,-z
1/2+x,y,-z
1/2-x,y,z
x,-y,z
loop_
_atom_site_type_symbol
_atom_site_label
_atom_site_fract_x
_atom_site_fract_y
_atom_site_fract_z
Si Si1 0.579382 0.163530 0.049120
Si Si2 0.416934 0.836360 0.455764
Si Si3 0.009262 0.675745 0.170444
Si Si4 0.156156 0.670550 0.581003
Si Si5 0.521849 0.823775 0.324613
Si Si6 0.841529 0.825028 0.906264
O O1 0.563688 0.277641 0.115296
O O2 0.600898 0.000000 0.081900
O O3 0.500000 0.150343 0.000000
O O4 0.649264 0.219266 0.992694
O O5 0.500000 0.847995 0.500000
O O6 0.356723 0.722013 0.496316
O O7 0.442217 0.783668 0.373932
O O8 0.375448 0.000000 0.453063
O O9 0.012798 0.500000 0.174415
O O10 0.096897 0.735230 0.144998
O O11 0.987906 0.740316 0.248860
O O12 0.250000 0.689420 0.602163
O O13 0.127842 0.500000 0.587473
O O14 0.104683 0.770155 0.636823
O O15 0.528370 0.000000 0.312293
O O16 0.750000 0.786193 0.881436
O O17 0.860788 0.000000 0.897018
#
# Coordination Sequence:
#
# PCOD8211025 Si02
#       6
#     8   8   8   8   8   8
#     4   8  15  30  51  72  95 127 166 203 240 292
#     4   8  16  31  51  73  94 123 166 206 239 286
#     4  11  21  32  50  76 105 136 168 207 257 307
#     4  10  20  33  51  77 106 132 161 204 257 306
#     4  10  20  35  54  74  99 135 176 212 247 295
#     4   9  18  34  55  76  99 130 169 211 252 298
#
# _framework density 17.843273
#
# number of rings (size 3 to 8) (size 9 to 14) (size 15 to 20)
#    0.000    2.667    0.000    4.500    0.000    8.333 
#    0.000    1.667    0.000    4.000    0.000    0.000 
#    0.000    0.000    0.000    0.000    0.000    0.000 
#
# Total GULP energy -594915.705791 kJ/mol
# GULP energy per Si atom -12394.077204 kJ/mol
# Density = 1.780266 g / cm^3
# Si number density = 17.843273 Si / 1000 Ang^3
#
#
#
# Elastic Constant Matrix: (Units=GPa)
#
#
# Indices 1 2 3 4 5 6 
#
# 1 61.0812 39.6404 30.2344 0.0000 0.0000 0.0000
# 2 39.6404 109.3012 53.5184 0.0000 0.0000 0.0000
# 3 30.2344 53.5184 107.7142 0.0000 0.0000 0.0000
# 4 0.0000 0.0000 0.0000 -0.6780 0.0000 0.0000
# 5 0.0000 0.0000 0.0000 0.0000 18.7580 0.0000
# 6 0.0000 0.0000 0.0000 0.0000 0.0000 24.2881
#
#
#
# Elastic Compliance Matrix: (Units=1/GPa)
#
#
# Indices 1 2 3 4 5 6 
#
# 1 0.022091 -0.006575 -0.002934 0.000000 0.000000 0.000000
# 2 -0.006575 0.014048 -0.005134 0.000000 0.000000 0.000000
# 3 -0.002934 -0.005134 0.012658 0.000000 0.000000 0.000000
# 4 0.000000 0.000000 0.000000 -1.474837 0.000000 0.000000
# 5 0.000000 0.000000 0.000000 0.000000 0.053311 0.000000
# 6 0.000000 0.000000 0.000000 0.000000 0.000000 0.041172
#
#
# Mechanical properties :
#
#
# Convention : Reuss Voigt Hill
#
# Bulk Modulus (GPa) = 51.25408 58.32033 54.78720
# Shear Modulus (GPa) = -3.85872 18.78716 7.46422
#
# Velocity S-wave (km/s) = -1.47216 3.24836 2.04751
# Velocity P-wave (km/s) = 5.08894 6.84287 6.03001
#
# Compressibility (1/GPa) = 0.01951064
#
# Stress axis : x y z
#
# Youngs Moduli (GPa) = 45.26719 71.18699 79.00052
#
# Poissons Ratio (x) = 0.46808 0.23177
# Poissons Ratio (y) = 0.29765 0.40559
# Poissons Ratio (z) = 0.13280 0.36547
#
# Static dielectric constant tensor:
#      x y z
#    x 3.448410 0.000000 0.000000 
#    y 0.000000 3.332180 0.000000 
#    z 0.000000 0.000000 3.526990 
# 
# 
# High freq. dielectric constant tensor:
#      x y z
#    x 1.667170 0.000000 0.000000 
#    y 0.000000 1.691140 0.000000 
#    z 0.000000 0.000000 1.685150 
# 
# From -- ./inp_files/30044.got.cif
#   From: 2010.03.12/outbox.cif.g09.slc.cpg/sg51_16_cif.got.tgz:30044.got - 2010.04.16 13:43:02.
