data_PCOD8211171
_publ_section_title
;
Structure prediction by ZEFSAII (Michael W. Deem and Ramdas Pophale) SiO2 
 PCOD8211171
Probable space group: P M M A
;
_chemical_formula_sum "Si O2"
_cell_formula_units_Z 56
_cell_length_a 9.598463
_cell_length_b 20.151970
_cell_length_c 15.398876
_cell_angle_alpha 90.000000
_cell_angle_beta 90.000000
_cell_angle_gamma 90.000000
_cell_volume 2978.572839
_symmetry_space_group_name_H-M "P M M A"
_symmetry_group_IT_number 51
_symmetry_cell_setting 'orthorhombic'
loop_
_space_group_symop_operation_xyz
x,y,z
1/2-x,-y,z
1/2+x,-y,-z
-x,y,-z
-x,-y,-z
1/2+x,y,-z
1/2-x,y,z
x,-y,z
loop_
_atom_site_type_symbol
_atom_site_label
_atom_site_fract_x
_atom_site_fract_y
_atom_site_fract_z
Si Si1 0.588884 0.573569 0.415128
Si Si2 0.589071 0.793275 0.919979
Si Si3 0.250000 0.427062 0.154255
Si Si4 0.096019 0.698731 0.693209
Si Si5 0.750000 0.573139 0.049406
Si Si6 0.588740 0.923793 0.582154
Si Si7 0.491393 0.654753 0.868570
Si Si8 0.412026 0.181864 0.275623
O O1 0.500000 0.584312 0.500000
O O2 0.750000 0.581341 0.440141
O O3 0.561472 0.500000 0.374903
O O4 0.541581 0.630532 0.349011
O O5 0.750000 0.808794 0.939229
O O6 0.565840 0.713948 0.921240
O O7 0.543950 0.824786 0.826251
O O8 0.500000 0.824655 0.000000
O O9 0.250000 0.500000 0.198536
O O10 0.389488 0.387850 0.180466
O O11 0.250000 0.435493 0.051870
O O12 0.250000 0.718026 0.659035
O O13 0.106779 0.686556 0.795792
O O14 0.991231 0.758931 0.674458
O O15 0.750000 0.500000 0.094311
O O16 0.607244 0.610735 0.071093
O O17 0.500000 0.897318 0.500000
O O18 0.750000 0.914540 0.557416
O O19 0.552514 0.884732 0.670980
O O20 0.551209 0.000000 0.601640
O O21 0.250000 0.200043 0.279478
#
# Coordination Sequence:
#
# PCOD8211171 Si02
#       8
#     8   8   4   8   4   8   8   8
#     4   9  19  36  54  71  92 122 165 213 262 319
#     4  10  20  33  53  74  99 137 180 224 271 316
#     4  11  22  34  46  66  93 123 162 213 267 323
#     4  10  21  36  53  74 100 133 170 215 266 313
#     4  11  22  34  48  64  89 125 164 209 265 327
#     4   9  18  35  60  89 120 154 185 212 254 314
#     4  11  21  35  49  69  95 126 168 215 267 323
#     4   9  20  36  54  80 114 143 177 224 265 313
#
# _framework density 18.800951000000001
#
# number of rings (size 3 to 8) (size 9 to 14) (size 15 to 20)
#    0.000    2.143    1.429    1.714    2.000    4.571 
#    0.000    2.857    0.000    0.429    0.000    0.000 
#    0.000    0.000    0.000    0.000    0.000    0.000 
#
# Total GULP energy -694162.415017 kJ/mol
# GULP energy per Si atom -12395.757411 kJ/mol
# Density = 1.875816 g / cm^3
# Si number density = 18.800951 Si / 1000 Ang^3
#
#
#
# Elastic Constant Matrix: (Units=GPa)
#
#
# Indices 1 2 3 4 5 6 
#
# 1 79.3194 38.0327 42.0121 0.0000 0.0000 0.0000
# 2 38.0327 82.2383 53.4889 0.0000 0.0000 0.0000
# 3 42.0121 53.4889 91.3339 0.0000 0.0000 0.0000
# 4 0.0000 0.0000 0.0000 25.5273 0.0000 0.0000
# 5 0.0000 0.0000 0.0000 0.0000 29.1347 0.0000
# 6 0.0000 0.0000 0.0000 0.0000 0.0000 23.1138
#
#
#
# Elastic Compliance Matrix: (Units=1/GPa)
#
#
# Indices 1 2 3 4 5 6 
#
# 1 0.017714 -0.004672 -0.005412 0.000000 0.000000 0.000000
# 2 -0.004672 0.020874 -0.010075 0.000000 0.000000 0.000000
# 3 -0.005412 -0.010075 0.019339 0.000000 0.000000 0.000000
# 4 0.000000 0.000000 0.000000 0.039174 0.000000 0.000000
# 5 0.000000 0.000000 0.000000 0.000000 0.034323 0.000000
# 6 0.000000 0.000000 0.000000 0.000000 0.000000 0.043264
#
#
# Mechanical properties :
#
#
# Convention : Reuss Voigt Hill
#
# Bulk Modulus (GPa) = 56.79394 57.77322 57.28358
# Shear Modulus (GPa) = 22.63716 23.51235 23.07476
#
# Velocity S-wave (km/s) = 3.47370 3.54021 3.50711
# Velocity P-wave (km/s) = 6.80899 6.89249 6.85087
#
# Compressibility (1/GPa) = 0.01760751
#
# Stress axis : x y z
#
# Youngs Moduli (GPa) = 56.45267 47.90723 51.70962
#
# Poissons Ratio (x) = 0.22383 0.27985
# Poissons Ratio (y) = 0.26376 0.52099
# Poissons Ratio (z) = 0.30552 0.48268
#
# Static dielectric constant tensor:
#      x y z
#    x 3.386630 0.000000 0.000000 
#    y 0.000000 3.402800 0.000000 
#    z 0.000000 0.000000 3.371170 
# 
# 
# High freq. dielectric constant tensor:
#      x y z
#    x 1.737870 0.000000 0.000000 
#    y 0.000000 1.704650 0.000000 
#    z 0.000000 0.000000 1.718410 
# 
# From -- ./inp_files/21938.got.cif
#   From: 2010.03.12/outbox.cif.g09.slc.cpg/sg51_11_cif.got.tgz:21938.got - 2010.04.16 13:43:02.
