data_PCOD8211355
_publ_section_title
;
Structure prediction by ZEFSAII (Michael W. Deem and Ramdas Pophale) SiO2 
 PCOD8211355
Probable space group: P M M A
;
_chemical_formula_sum "Si O2"
_cell_formula_units_Z 44
_cell_length_a 8.640517
_cell_length_b 27.591679
_cell_length_c 9.881836
_cell_angle_alpha 90.000000
_cell_angle_beta 90.000000
_cell_angle_gamma 90.000000
_cell_volume 2355.892664
_symmetry_space_group_name_H-M "P M M A"
_symmetry_group_IT_number 51
_symmetry_cell_setting 'orthorhombic'
loop_
_space_group_symop_operation_xyz
x,y,z
1/2-x,-y,z
1/2+x,-y,-z
-x,y,-z
-x,-y,-z
1/2+x,y,-z
1/2-x,y,z
x,-y,z
loop_
_atom_site_type_symbol
_atom_site_label
_atom_site_fract_x
_atom_site_fract_y
_atom_site_fract_z
Si Si1 0.065895 0.000000 0.348197
Si Si2 0.567195 0.445569 0.858241
Si Si3 0.066207 0.264935 0.646333
Si Si4 0.568190 0.186821 0.140246
Si Si5 0.566233 0.633501 0.646444
Si Si6 0.433740 0.923625 0.855459
O O1 0.000000 0.000000 0.500000
O O2 0.007386 0.952895 0.268095
O O3 0.250000 0.000000 0.355459
O O4 0.750000 0.444214 0.867929
O O5 0.508367 0.500000 0.824565
O O6 0.506924 0.409302 0.743318
O O7 0.500000 0.427374 0.000000
O O8 0.250000 0.268220 0.639509
O O9 0.006613 0.221860 0.742302
O O10 0.000000 0.252905 0.500000
O O11 0.999982 0.315706 0.701635
O O12 0.750000 0.189811 0.128831
O O13 0.515684 0.131864 0.169974
O O14 0.500000 0.205915 0.000000
O O15 0.500000 0.621423 0.500000
O O16 0.750000 0.636795 0.639388
O O17 0.250000 0.931074 0.856093
O O18 0.500000 0.941734 0.000000
#
# Coordination Sequence:
#
# PCOD8211355 Si02
#       6
#     4   8   8   8   8   8
#     4  12  25  40  57  82 112 144 180 222 269 316
#     4   9  19  35  53  74 101 132 168 210 256 306
#     4  10  20  35  53  76 105 138 174 213 258 308
#     4   9  20  36  56  81 108 138 176 217 258 307
#     4  10  20  34  52  75 102 134 172 212 255 306
#     4  10  20  38  60  83 110 143 181 220 263 314
#
# _framework density 18.676572
#
# number of rings (size 3 to 8) (size 9 to 14) (size 15 to 20)
#    0.000    2.182    0.000    3.818    0.000    5.455 
#    0.000    5.455    0.000    0.000    0.000    0.000 
#    0.000    0.000    0.000    0.000    0.000    0.000 
#
# Total GULP energy -545655.442201 kJ/mol
# GULP energy per Si atom -12401.260050 kJ/mol
# Density = 1.863406 g / cm^3
# Si number density = 18.676572 Si / 1000 Ang^3
#
#
#
# Elastic Constant Matrix: (Units=GPa)
#
#
# Indices 1 2 3 4 5 6 
#
# 1 72.2195 40.7114 48.4577 0.0000 0.0000 0.0000
# 2 40.7114 137.6174 103.6514 0.0000 0.0000 0.0000
# 3 48.4577 103.6514 148.0125 0.0000 0.0000 0.0000
# 4 0.0000 0.0000 0.0000 44.4893 0.0000 0.0000
# 5 0.0000 0.0000 0.0000 0.0000 33.2835 0.0000
# 6 0.0000 0.0000 0.0000 0.0000 0.0000 12.2150
#
#
#
# Elastic Compliance Matrix: (Units=1/GPa)
#
#
# Indices 1 2 3 4 5 6 
#
# 1 0.017970 -0.001873 -0.004572 0.000000 0.000000 0.000000
# 2 -0.001873 0.015572 -0.010292 0.000000 0.000000 0.000000
# 3 -0.004572 -0.010292 0.015460 0.000000 0.000000 0.000000
# 4 0.000000 0.000000 0.000000 0.022477 0.000000 0.000000
# 5 0.000000 0.000000 0.000000 0.000000 0.030045 0.000000
# 6 0.000000 0.000000 0.000000 0.000000 0.000000 0.081867
#
#
# Mechanical properties :
#
#
# Convention : Reuss Voigt Hill
#
# Bulk Modulus (GPa) = 64.39297 82.61005 73.50151
# Shear Modulus (GPa) = 22.51837 28.99949 25.75893
#
# Velocity S-wave (km/s) = 3.47609 3.94473 3.71780
# Velocity P-wave (km/s) = 7.11784 8.06696 7.60722
#
# Compressibility (1/GPa) = 0.01552965
#
# Stress axis : x y z
#
# Youngs Moduli (GPa) = 55.64874 64.21654 64.68180
#
# Poissons Ratio (x) = 0.12026 0.29571
# Poissons Ratio (y) = 0.10421 0.66571
# Poissons Ratio (z) = 0.25441 0.66092
#
# Static dielectric constant tensor:
#      x y z
#    x 3.431410 0.000000 0.000000 
#    y 0.000000 3.783620 0.000000 
#    z 0.000000 0.000000 3.463870 
# 
# 
# High freq. dielectric constant tensor:
#      x y z
#    x 1.731420 0.000000 0.000000 
#    y 0.000000 1.734420 0.000000 
#    z 0.000000 0.000000 1.725130 
# 
# From -- ./inp_files/5863.got.cif
#   From: 2010.03.12/outbox.cif.g09.slc.cpg/sg51_3_cif.got.tgz:5863.got - 2010.04.16 13:43:02.
