data_PCOD8211550
_publ_section_title
;
Structure prediction by ZEFSAII (Michael W. Deem and Ramdas Pophale) SiO2 
 PCOD8211550
Probable space group: P M M A
;
_chemical_formula_sum "Si O2"
_cell_formula_units_Z 52
_cell_length_a 26.257585
_cell_length_b 12.543512
_cell_length_c 8.306065
_cell_angle_alpha 90.000000
_cell_angle_beta 90.000000
_cell_angle_gamma 90.000000
_cell_volume 2735.704943
_symmetry_space_group_name_H-M "P M M A"
_symmetry_group_IT_number 51
_symmetry_cell_setting 'orthorhombic'
loop_
_space_group_symop_operation_xyz
x,y,z
1/2-x,-y,z
1/2+x,-y,-z
-x,y,-z
-x,-y,-z
1/2+x,y,-z
1/2-x,y,z
x,-y,z
loop_
_atom_site_type_symbol
_atom_site_label
_atom_site_fract_x
_atom_site_fract_y
_atom_site_fract_z
Si Si1 0.092188 0.380373 0.047611
Si Si2 0.806788 0.672692 0.130077
Si Si3 0.308039 0.882018 0.029163
Si Si4 0.000000 0.760848 0.000000
Si Si5 0.807497 0.381427 0.496353
Si Si6 0.872733 0.769825 0.698610
Si Si7 0.473595 0.875450 0.336868
O O1 0.071653 0.500000 0.062087
O O2 0.148068 0.382593 0.967680
O O3 0.049403 0.310944 0.955671
O O4 0.097899 0.330114 0.223481
O O5 0.750000 0.645436 0.058131
O O6 0.809756 0.627387 0.306358
O O7 0.814295 0.801734 0.122381
O O8 0.250000 0.890351 0.085587
O O9 0.338848 0.835089 0.177376
O O10 0.328569 0.000000 0.980985
O O11 0.991877 0.828126 0.835795
O O12 0.750000 0.369598 0.559948
O O13 0.827977 0.500000 0.545356
O O14 0.839063 0.281662 0.559845
O O15 0.914162 0.851790 0.630706
O O16 0.500000 0.829446 0.500000
O O17 0.483941 0.000000 0.323442
#
# Coordination Sequence:
#
# PCOD8211550 Si02
#       7
#     8   8   8   4   8   8   8
#     4  10  20  35  56  81 110 146 186 232 281 338
#     4   9  19  34  53  79 109 146 189 232 277 335
#     4   9  17  32  53  76 104 138 177 223 274 329
#     4  10  22  38  62  84 114 150 188 240 294 346
#     4  10  20  34  53  80 116 152 185 226 276 334
#     4  10  20  34  55  78 110 140 182 226 278 334
#     4  10  22  40  60  83 111 144 189 238 287 344
#
# _framework density 19.007898000000001
#
# number of rings (size 3 to 8) (size 9 to 14) (size 15 to 20)
#    0.000    2.308    0.000    2.308    2.154    1.538 
#    0.000    2.308    0.000    6.462    0.000    0.000 
#    0.000    0.000    0.000    0.000    0.000    0.000 
#
# Total GULP energy -644253.089444 kJ/mol
# GULP energy per Si atom -12389.482489 kJ/mol
# Density = 1.896464 g / cm^3
# Si number density = 19.007898 Si / 1000 Ang^3
#
#
#
# Elastic Constant Matrix: (Units=GPa)
#
#
# Indices 1 2 3 4 5 6 
#
# 1 85.9198 25.7531 25.9950 0.0000 0.0000 0.0000
# 2 25.7531 104.3859 24.1646 0.0000 0.0000 0.0000
# 3 25.9950 24.1646 63.7345 0.0000 0.0000 0.0000
# 4 0.0000 0.0000 0.0000 19.0976 0.0000 0.0000
# 5 0.0000 0.0000 0.0000 0.0000 -256.3770 0.0000
# 6 0.0000 0.0000 0.0000 0.0000 0.0000 25.8842
#
#
#
# Elastic Compliance Matrix: (Units=1/GPa)
#
#
# Indices 1 2 3 4 5 6 
#
# 1 0.013762 -0.002298 -0.004742 0.000000 0.000000 0.000000
# 2 -0.002298 0.010885 -0.003190 0.000000 0.000000 0.000000
# 3 -0.004742 -0.003190 0.018834 0.000000 0.000000 0.000000
# 4 0.000000 0.000000 0.000000 0.052363 0.000000 0.000000
# 5 0.000000 0.000000 0.000000 0.000000 -0.003901 0.000000
# 6 0.000000 0.000000 0.000000 0.000000 0.000000 0.038634
#
#
# Mechanical properties :
#
#
# Convention : Reuss Voigt Hill
#
# Bulk Modulus (GPa) = 43.43685 45.09620 44.26653
# Shear Modulus (GPa) = 31.50413 -30.40387 0.55013
#
# Velocity S-wave (km/s) = 4.07556 -4.00376 0.53856
# Velocity P-wave (km/s) = 6.71182 1.55016 4.87091
#
# Compressibility (1/GPa) = 0.02302193
#
# Stress axis : x y z
#
# Youngs Moduli (GPa) = 72.66345 91.86860 53.09655
#
# Poissons Ratio (x) = 0.21107 0.25178
# Poissons Ratio (y) = 0.16695 0.16938
# Poissons Ratio (z) = 0.34457 0.29306
#
# Static dielectric constant tensor:
#      x y z
#    x 3.732130 0.000000 0.000000 
#    y 0.000000 3.722680 0.000000 
#    z 0.000000 0.000000 3.280550 
# 
# 
# High freq. dielectric constant tensor:
#      x y z
#    x 1.745840 0.000000 0.000000 
#    y 0.000000 1.750010 0.000000 
#    z 0.000000 0.000000 1.716030 
# 
# From -- ./inp_files/12352.got.cif
#   From: 2010.03.12/outbox.cif.g09.slc.cpg/sg51_7_cif.got.tgz:12352.got - 2010.04.16 13:43:02.
